MODEL 1
REMARK VINA RESULT:     -11.5      0.000      0.000
REMARK SMILES C[C@@H]1CCC[C@H]1NC(=O)c1csc(/C=C/C(=O)OCCOC(=O)c2ccc(-c3c4nc(c(-c5cc(S(=O)(=O)[O-])ccc5F)c5ccc([nH]5)c(-c5cc(S(=O)(=O)[O-])ccc5F)c5nc(c(-c6cc(S(=O)(=O)[O-])ccc6F)c6ccc3[nH]6)C=C5)C=C4)cc2)c1
REMARK SMILES IDX 19 1 18 2 16 3 17 4 15 5 14 6 13 7 10 8 11 9 87 10 12 11
REMARK SMILES IDX 8 12 7 13 9 15 6 16 1 17 2 18 3 19 4 20 5 21 20 22 21 23
REMARK SMILES IDX 22 24 23 25 24 26 25 27 86 28 26 29 85 30 27 31 28 32 29 33
REMARK SMILES IDX 79 34 30 35 84 36 78 37 80 38 31 39 83 40 77 41 76 42 32 44
REMARK SMILES IDX 64 45 44 46 63 47 45 48 48 49 62 50 81 51 46 52 47 53 61 55
REMARK SMILES IDX 82 56 49 57 33 58 34 59 42 60 35 61 41 62 43 63 40 64 36 65
REMARK SMILES IDX 37 66 38 67 39 68 65 69 66 70 74 71 67 72 73 73 75 74 72 75
REMARK SMILES IDX 68 76 69 77 70 78 71 79 50 80 51 81 59 82 52 83 58 84 60 85
REMARK SMILES IDX 57 86 53 87 54 88 55 89 56 90
REMARK H PARENT 7 14 80 43 48 54
REMARK Flexibility Score: inf
ROOT
ATOM      1  C   UNL A   1      32.016  28.406  25.338  1.00  0.00     0.275 C 
ENDROOT
BRANCH   1   2
ATOM      2  O   UNL A   1      33.387  28.187  24.959  1.00  0.00    -0.459 OA
BRANCH   2   3
ATOM      3  C   UNL A   1      33.596  27.171  24.088  1.00  0.00     0.330 C 
ATOM      4  O   UNL A   1      33.558  27.253  22.869  1.00  0.00    -0.247 OA
BRANCH   3   5
ATOM      5  C   UNL A   1      33.935  25.900  24.757  1.00  0.00     0.095 C 
ATOM      6  C   UNL A   1      34.256  24.753  24.138  1.00  0.00     0.026 C 
BRANCH   6   7
ATOM      7  C   UNL A   1      34.534  23.547  24.855  1.00  0.00     0.028 A 
ATOM      8  C   UNL A   1      35.242  21.331  25.340  1.00  0.00     0.051 A 
ATOM      9  C   UNL A   1      34.772  21.760  26.565  1.00  0.00     0.079 A 
ATOM     10  C   UNL A   1      35.119  22.389  24.370  1.00  0.00     0.033 A 
ATOM     11  S   UNL A   1      34.107  23.329  26.510  1.00  0.00    -0.144 S 
BRANCH   8  12
ATOM     12  C   UNL A   1      35.884  20.047  25.076  1.00  0.00     0.252 C 
ATOM     13  N   UNL A   1      35.142  18.946  24.730  1.00  0.00    -0.349 N 
ATOM     14  H   UNL A   1      35.627  18.091  24.788  1.00  0.00     0.164 HD
ATOM     15  O   UNL A   1      37.106  19.919  25.142  1.00  0.00    -0.269 OA
BRANCH  13  16
ATOM     16  C   UNL A   1      33.752  18.828  24.291  1.00  0.00     0.085 C 
ATOM     17  C   UNL A   1      32.351  17.805  22.434  1.00  0.00     0.010 C 
ATOM     18  C   UNL A   1      33.592  17.649  23.316  1.00  0.00     0.008 C 
ATOM     19  C   UNL A   1      33.475  16.439  24.244  1.00  0.00     0.005 C 
ATOM     20  C   UNL A   1      32.720  16.939  25.470  1.00  0.00     0.002 C 
ATOM     21  C   UNL A   1      32.850  18.465  25.474  1.00  0.00     0.025 C 
ENDBRANCH  13  16
ENDBRANCH   8  12
ENDBRANCH   6   7
ENDBRANCH   3   5
ENDBRANCH   2   3
ENDBRANCH   1   2
BRANCH   1  22
ATOM     22  C   UNL A   1      31.772  29.859  25.760  1.00  0.00     0.275 C 
BRANCH  22  23
ATOM     23  O   UNL A   1      32.987  30.627  25.798  1.00  0.00    -0.458 OA
BRANCH  23  24
ATOM     24  C   UNL A   1      33.122  31.442  26.875  1.00  0.00     0.338 C 
ATOM     25  O   UNL A   1      32.292  32.225  27.305  1.00  0.00    -0.246 OA
BRANCH  24  26
ATOM     26  C   UNL A   1      34.402  31.163  27.553  1.00  0.00     0.060 A 
ATOM     27  C   UNL A   1      34.664  29.849  27.956  1.00  0.00     0.016 A 
ATOM     28  C   UNL A   1      35.310  32.185  27.840  1.00  0.00     0.016 A 
ATOM     29  C   UNL A   1      35.842  29.551  28.639  1.00  0.00     0.010 A 
ATOM     30  C   UNL A   1      36.489  31.884  28.531  1.00  0.00     0.010 A 
ATOM     31  C   UNL A   1      36.762  30.566  28.938  1.00  0.00    -0.014 A 
BRANCH  31  32
ATOM     32  C   UNL A   1      37.993  30.255  29.707  1.00  0.00     0.031 A 
ATOM     33  C   UNL A   1      39.023  29.327  29.128  1.00  0.00     0.074 A 
ATOM     34  C   UNL A   1      38.189  30.812  30.917  1.00  0.00     0.049 A 
ATOM     35  N   UNL A   1      40.122  28.868  29.668  1.00  0.00    -0.248 NA
ATOM     36  C   UNL A   1      38.779  28.855  27.757  1.00  0.00     0.031 C 
ATOM     37  C   UNL A   1      37.285  31.768  31.559  1.00  0.00     0.029 A 
ATOM     38  N   UNL A   1      39.206  30.654  31.824  1.00  0.00    -0.354 N 
ATOM     39  C   UNL A   1      40.708  28.054  28.704  1.00  0.00     0.074 A 
ATOM     40  C   UNL A   1      39.818  28.056  27.560  1.00  0.00     0.031 C 
ATOM     41  C   UNL A   1      37.789  32.109  32.757  1.00  0.00     0.029 A 
ATOM     42  C   UNL A   1      39.021  31.360  32.991  1.00  0.00     0.049 A 
ATOM     43  H   UNL A   1      39.995  30.090  31.655  1.00  0.00     0.167 HD
ATOM     44  C   UNL A   1      41.882  27.377  28.766  1.00  0.00     0.034 A 
ATOM     45  C   UNL A   1      39.744  31.374  34.128  1.00  0.00     0.034 A 
ATOM     46  C   UNL A   1      42.749  27.371  29.920  1.00  0.00     0.049 A 
ATOM     47  C   UNL A   1      40.983  30.517  34.218  1.00  0.00     0.074 A 
ATOM     48  C   UNL A   1      43.957  26.717  30.090  1.00  0.00     0.029 A 
ATOM     49  N   UNL A   1      42.494  28.043  31.110  1.00  0.00    -0.354 N 
ATOM     50  N   UNL A   1      41.519  29.739  33.304  1.00  0.00    -0.248 NA
ATOM     51  C   UNL A   1      41.712  30.534  35.493  1.00  0.00     0.031 C 
ATOM     52  C   UNL A   1      44.399  26.939  31.400  1.00  0.00     0.029 A 
ATOM     53  C   UNL A   1      43.503  27.790  32.027  1.00  0.00     0.049 A 
ATOM     54  H   UNL A   1      41.710  28.614  31.278  1.00  0.00     0.167 HD
ATOM     55  C   UNL A   1      42.661  29.200  33.887  1.00  0.00     0.074 A 
ATOM     56  C   UNL A   1      42.744  29.747  35.226  1.00  0.00     0.031 C 
ATOM     57  C   UNL A   1      43.565  28.334  33.363  1.00  0.00     0.034 A 
BRANCH  44  58
ATOM     58  C   UNL A   1      42.268  26.551  27.564  1.00  0.00     0.023 A 
ATOM     59  C   UNL A   1      41.903  25.197  27.449  1.00  0.00     0.031 A 
ATOM     60  C   UNL A   1      43.030  27.118  26.526  1.00  0.00     0.131 A 
ATOM     61  C   UNL A   1      42.355  24.441  26.357  1.00  0.00     0.055 A 
ATOM     62  C   UNL A   1      43.414  26.378  25.407  1.00  0.00     0.041 A 
ATOM     63  F   UNL A   1      43.424  28.399  26.590  1.00  0.00    -0.206 F 
ATOM     64  C   UNL A   1      43.088  25.028  25.323  1.00  0.00     0.022 A 
BRANCH  61  65
ATOM     65  S   UNL A   1      42.078  22.648  26.369  1.00  0.00     0.124 S 
ATOM     66  O   UNL A   1      40.621  22.573  26.302  1.00  0.00    -0.237 OA
ATOM     67  O   UNL A   1      42.796  22.210  25.178  1.00  0.00    -0.237 OA
ATOM     68  O   UNL A   1      42.659  22.219  27.640  1.00  0.00    -0.744 OA
ENDBRANCH  61  65
ENDBRANCH  44  58
BRANCH  45  69
ATOM     69  C   UNL A   1      39.297  32.180  35.301  1.00  0.00     0.023 A 
ATOM     70  C   UNL A   1      39.759  33.491  35.500  1.00  0.00     0.031 A 
ATOM     71  C   UNL A   1      38.452  31.625  36.279  1.00  0.00     0.131 A 
ATOM     72  C   UNL A   1      39.411  34.185  36.668  1.00  0.00     0.055 A 
ATOM     73  C   UNL A   1      38.062  32.339  37.412  1.00  0.00     0.041 A 
ATOM     74  F   UNL A   1      37.986  30.372  36.143  1.00  0.00    -0.206 F 
ATOM     75  C   UNL A   1      38.554  33.624  37.619  1.00  0.00     0.022 A 
BRANCH  72  76
ATOM     76  S   UNL A   1      40.173  35.802  36.978  1.00  0.00     0.124 S 
ATOM     77  O   UNL A   1      39.609  36.152  38.277  1.00  0.00    -0.237 OA
ATOM     78  O   UNL A   1      41.594  35.476  36.963  1.00  0.00    -0.237 OA
ATOM     79  O   UNL A   1      39.710  36.618  35.857  1.00  0.00    -0.744 OA
ENDBRANCH  72  76
ENDBRANCH  45  69
BRANCH  57  80
ATOM     80  C   UNL A   1      44.742  27.964  34.231  1.00  0.00     0.023 A 
ATOM     81  C   UNL A   1      44.719  26.834  35.066  1.00  0.00     0.031 A 
ATOM     82  C   UNL A   1      45.901  28.760  34.223  1.00  0.00     0.131 A 
ATOM     83  C   UNL A   1      45.817  26.555  35.895  1.00  0.00     0.055 A 
ATOM     84  C   UNL A   1      47.011  28.449  35.012  1.00  0.00     0.041 A 
ATOM     85  F   UNL A   1      45.976  29.850  33.445  1.00  0.00    -0.206 F 
ATOM     86  C   UNL A   1      46.968  27.347  35.861  1.00  0.00     0.022 A 
BRANCH  83  87
ATOM     87  S   UNL A   1      45.698  25.178  37.070  1.00  0.00     0.124 S 
ATOM     88  O   UNL A   1      47.095  24.964  37.430  1.00  0.00    -0.237 OA
ATOM     89  O   UNL A   1      44.848  25.732  38.118  1.00  0.00    -0.237 OA
ATOM     90  O   UNL A   1      45.089  24.107  36.283  1.00  0.00    -0.744 OA
ENDBRANCH  83  87
ENDBRANCH  57  80
ENDBRANCH  31  32
ENDBRANCH  24  26
ENDBRANCH  23  24
ENDBRANCH  22  23
ENDBRANCH   1  22
TORSDOF 17
ENDMDL
MODEL 2
REMARK VINA RESULT:     -11.2      1.901      2.190
REMARK SMILES C[C@@H]1CCC[C@H]1NC(=O)c1csc(/C=C/C(=O)OCCOC(=O)c2ccc(-c3c4nc(c(-c5cc(S(=O)(=O)[O-])ccc5F)c5ccc([nH]5)c(-c5cc(S(=O)(=O)[O-])ccc5F)c5nc(c(-c6cc(S(=O)(=O)[O-])ccc6F)c6ccc3[nH]6)C=C5)C=C4)cc2)c1
REMARK SMILES IDX 19 1 18 2 16 3 17 4 15 5 14 6 13 7 10 8 11 9 87 10 12 11
REMARK SMILES IDX 8 12 7 13 9 15 6 16 1 17 2 18 3 19 4 20 5 21 20 22 21 23
REMARK SMILES IDX 22 24 23 25 24 26 25 27 86 28 26 29 85 30 27 31 28 32 29 33
REMARK SMILES IDX 79 34 30 35 84 36 78 37 80 38 31 39 83 40 77 41 76 42 32 44
REMARK SMILES IDX 64 45 44 46 63 47 45 48 48 49 62 50 81 51 46 52 47 53 61 55
REMARK SMILES IDX 82 56 49 57 33 58 34 59 42 60 35 61 41 62 43 63 40 64 36 65
REMARK SMILES IDX 37 66 38 67 39 68 65 69 66 70 74 71 67 72 73 73 75 74 72 75
REMARK SMILES IDX 68 76 69 77 70 78 71 79 50 80 51 81 59 82 52 83 58 84 60 85
REMARK SMILES IDX 57 86 53 87 54 88 55 89 56 90
REMARK H PARENT 7 14 80 43 48 54
REMARK Flexibility Score: inf
ROOT
ATOM      1  C   UNL A   1      31.696  28.508  25.160  1.00  0.00     0.275 C 
ENDROOT
BRANCH   1   2
ATOM      2  O   UNL A   1      32.573  28.385  24.025  1.00  0.00    -0.459 OA
BRANCH   2   3
ATOM      3  C   UNL A   1      32.502  27.208  23.359  1.00  0.00     0.330 C 
ATOM      4  O   UNL A   1      32.130  27.059  22.204  1.00  0.00    -0.247 OA
BRANCH   3   5
ATOM      5  C   UNL A   1      32.975  26.063  24.161  1.00  0.00     0.095 C 
ATOM      6  C   UNL A   1      33.154  24.813  23.708  1.00  0.00     0.026 C 
BRANCH   6   7
ATOM      7  C   UNL A   1      33.578  23.743  24.558  1.00  0.00     0.028 A 
ATOM      8  C   UNL A   1      34.620  21.741  25.305  1.00  0.00     0.051 A 
ATOM      9  C   UNL A   1      33.982  22.181  26.447  1.00  0.00     0.079 A 
ATOM     10  C   UNL A   1      34.395  22.672  24.229  1.00  0.00     0.033 A 
ATOM     11  S   UNL A   1      33.060  23.592  26.194  1.00  0.00    -0.144 S 
BRANCH   8  12
ATOM     12  C   UNL A   1      35.495  20.578  25.212  1.00  0.00     0.252 C 
ATOM     13  N   UNL A   1      34.982  19.323  25.002  1.00  0.00    -0.349 N 
ATOM     14  H   UNL A   1      35.614  18.588  25.172  1.00  0.00     0.164 HD
ATOM     15  O   UNL A   1      36.718  20.690  25.306  1.00  0.00    -0.269 OA
BRANCH  13  16
ATOM     16  C   UNL A   1      33.653  18.894  24.567  1.00  0.00     0.085 C 
ATOM     17  C   UNL A   1      32.498  17.700  22.645  1.00  0.00     0.010 C 
ATOM     18  C   UNL A   1      33.763  17.793  23.499  1.00  0.00     0.008 C 
ATOM     19  C   UNL A   1      33.980  16.523  24.325  1.00  0.00     0.005 C 
ATOM     20  C   UNL A   1      33.160  16.721  25.596  1.00  0.00     0.002 C 
ATOM     21  C   UNL A   1      32.905  18.226  25.724  1.00  0.00     0.025 C 
ENDBRANCH  13  16
ENDBRANCH   8  12
ENDBRANCH   6   7
ENDBRANCH   3   5
ENDBRANCH   2   3
ENDBRANCH   1   2
BRANCH   1  22
ATOM     22  C   UNL A   1      31.773  29.906  25.783  1.00  0.00     0.275 C 
BRANCH  22  23
ATOM     23  O   UNL A   1      33.129  30.353  25.955  1.00  0.00    -0.458 OA
BRANCH  23  24
ATOM     24  C   UNL A   1      33.321  31.244  26.961  1.00  0.00     0.338 C 
ATOM     25  O   UNL A   1      32.534  32.095  27.340  1.00  0.00    -0.246 OA
BRANCH  24  26
ATOM     26  C   UNL A   1      34.601  30.962  27.638  1.00  0.00     0.060 A 
ATOM     27  C   UNL A   1      34.883  29.640  27.995  1.00  0.00     0.016 A 
ATOM     28  C   UNL A   1      35.489  31.989  27.967  1.00  0.00     0.016 A 
ATOM     29  C   UNL A   1      36.061  29.337  28.675  1.00  0.00     0.010 A 
ATOM     30  C   UNL A   1      36.669  31.683  28.655  1.00  0.00     0.010 A 
ATOM     31  C   UNL A   1      36.962  30.357  29.017  1.00  0.00    -0.014 A 
BRANCH  31  32
ATOM     32  C   UNL A   1      38.193  30.039  29.783  1.00  0.00     0.031 A 
ATOM     33  C   UNL A   1      39.191  29.063  29.226  1.00  0.00     0.074 A 
ATOM     34  C   UNL A   1      38.418  30.632  30.971  1.00  0.00     0.049 A 
ATOM     35  N   UNL A   1      40.283  28.594  29.770  1.00  0.00    -0.248 NA
ATOM     36  C   UNL A   1      38.918  28.551  27.875  1.00  0.00     0.031 C 
ATOM     37  C   UNL A   1      37.547  31.633  31.588  1.00  0.00     0.029 A 
ATOM     38  N   UNL A   1      39.441  30.478  31.872  1.00  0.00    -0.354 N 
ATOM     39  C   UNL A   1      40.836  27.731  28.829  1.00  0.00     0.074 A 
ATOM     40  C   UNL A   1      39.933  27.717  27.695  1.00  0.00     0.031 C 
ATOM     41  C   UNL A   1      38.074  32.002  32.769  1.00  0.00     0.029 A 
ATOM     42  C   UNL A   1      39.288  31.229  33.015  1.00  0.00     0.049 A 
ATOM     43  H   UNL A   1      40.212  29.887  31.714  1.00  0.00     0.167 HD
ATOM     44  C   UNL A   1      41.992  27.025  28.901  1.00  0.00     0.034 A 
ATOM     45  C   UNL A   1      40.024  31.262  34.143  1.00  0.00     0.034 A 
ATOM     46  C   UNL A   1      42.872  27.035  30.046  1.00  0.00     0.049 A 
ATOM     47  C   UNL A   1      41.241  30.375  34.250  1.00  0.00     0.074 A 
ATOM     48  C   UNL A   1      44.064  26.354  30.226  1.00  0.00     0.029 A 
ATOM     49  N   UNL A   1      42.648  27.754  31.214  1.00  0.00    -0.354 N 
ATOM     50  N   UNL A   1      41.745  29.552  33.357  1.00  0.00    -0.248 NA
ATOM     51  C   UNL A   1      41.985  30.417  35.516  1.00  0.00     0.031 C 
ATOM     52  C   UNL A   1      44.527  26.610  31.522  1.00  0.00     0.029 A 
ATOM     53  C   UNL A   1      43.661  27.506  32.128  1.00  0.00     0.049 A 
ATOM     54  H   UNL A   1      41.882  28.352  31.370  1.00  0.00     0.167 HD
ATOM     55  C   UNL A   1      42.879  29.002  33.947  1.00  0.00     0.074 A 
ATOM     56  C   UNL A   1      42.992  29.593  35.265  1.00  0.00     0.031 C 
ATOM     57  C   UNL A   1      43.753  28.094  33.444  1.00  0.00     0.034 A 
BRANCH  44  58
ATOM     58  C   UNL A   1      42.341  26.147  27.725  1.00  0.00     0.023 A 
ATOM     59  C   UNL A   1      41.864  24.828  27.619  1.00  0.00     0.031 A 
ATOM     60  C   UNL A   1      43.181  26.628  26.704  1.00  0.00     0.131 A 
ATOM     61  C   UNL A   1      42.281  24.017  26.554  1.00  0.00     0.055 A 
ATOM     62  C   UNL A   1      43.534  25.838  25.609  1.00  0.00     0.041 A 
ATOM     63  F   UNL A   1      43.683  27.871  26.761  1.00  0.00    -0.206 F 
ATOM     64  C   UNL A   1      43.094  24.519  25.535  1.00  0.00     0.022 A 
BRANCH  61  65
ATOM     65  S   UNL A   1      41.851  22.255  26.584  1.00  0.00     0.124 S 
ATOM     66  O   UNL A   1      42.463  21.822  27.838  1.00  0.00    -0.237 OA
ATOM     67  O   UNL A   1      40.393  22.285  26.562  1.00  0.00    -0.237 OA
ATOM     68  O   UNL A   1      42.482  21.726  25.376  1.00  0.00    -0.744 OA
ENDBRANCH  61  65
ENDBRANCH  44  58
BRANCH  45  69
ATOM     69  C   UNL A   1      39.613  32.120  35.292  1.00  0.00     0.023 A 
ATOM     70  C   UNL A   1      38.843  31.602  36.345  1.00  0.00     0.031 A 
ATOM     71  C   UNL A   1      39.929  33.490  35.320  1.00  0.00     0.131 A 
ATOM     72  C   UNL A   1      38.377  32.456  37.356  1.00  0.00     0.055 A 
ATOM     73  C   UNL A   1      39.511  34.325  36.357  1.00  0.00     0.041 A 
ATOM     74  F   UNL A   1      40.658  34.040  34.335  1.00  0.00    -0.206 F 
ATOM     75  C   UNL A   1      38.716  33.811  37.377  1.00  0.00     0.022 A 
BRANCH  72  76
ATOM     76  S   UNL A   1      37.233  31.790  38.598  1.00  0.00     0.124 S 
ATOM     77  O   UNL A   1      37.024  30.432  38.110  1.00  0.00    -0.237 OA
ATOM     78  O   UNL A   1      38.011  31.919  39.826  1.00  0.00    -0.237 OA
ATOM     79  O   UNL A   1      36.073  32.673  38.501  1.00  0.00    -0.744 OA
ENDBRANCH  72  76
ENDBRANCH  45  69
BRANCH  57  80
ATOM     80  C   UNL A   1      44.930  27.722  34.312  1.00  0.00     0.023 A 
ATOM     81  C   UNL A   1      46.134  28.447  34.275  1.00  0.00     0.031 A 
ATOM     82  C   UNL A   1      44.843  26.623  35.183  1.00  0.00     0.131 A 
ATOM     83  C   UNL A   1      47.220  28.036  35.063  1.00  0.00     0.055 A 
ATOM     84  C   UNL A   1      45.910  26.249  36.003  1.00  0.00     0.041 A 
ATOM     85  F   UNL A   1      43.718  25.896  35.257  1.00  0.00    -0.206 F 
ATOM     86  C   UNL A   1      47.111  26.951  35.937  1.00  0.00     0.022 A 
BRANCH  83  87
ATOM     87  S   UNL A   1      48.806  28.898  34.883  1.00  0.00     0.124 S 
ATOM     88  O   UNL A   1      48.776  29.829  36.006  1.00  0.00    -0.237 OA
ATOM     89  O   UNL A   1      49.770  27.809  34.984  1.00  0.00    -0.237 OA
ATOM     90  O   UNL A   1      48.712  29.518  33.562  1.00  0.00    -0.744 OA
ENDBRANCH  83  87
ENDBRANCH  57  80
ENDBRANCH  31  32
ENDBRANCH  24  26
ENDBRANCH  23  24
ENDBRANCH  22  23
ENDBRANCH   1  22
TORSDOF 17
ENDMDL
MODEL 3
REMARK VINA RESULT:     -11.0      1.831      8.270
REMARK SMILES C[C@@H]1CCC[C@H]1NC(=O)c1csc(/C=C/C(=O)OCCOC(=O)c2ccc(-c3c4nc(c(-c5cc(S(=O)(=O)[O-])ccc5F)c5ccc([nH]5)c(-c5cc(S(=O)(=O)[O-])ccc5F)c5nc(c(-c6cc(S(=O)(=O)[O-])ccc6F)c6ccc3[nH]6)C=C5)C=C4)cc2)c1
REMARK SMILES IDX 19 1 18 2 16 3 17 4 15 5 14 6 13 7 10 8 11 9 87 10 12 11
REMARK SMILES IDX 8 12 7 13 9 15 6 16 1 17 2 18 3 19 4 20 5 21 20 22 21 23
REMARK SMILES IDX 22 24 23 25 24 26 25 27 86 28 26 29 85 30 27 31 28 32 29 33
REMARK SMILES IDX 79 34 30 35 84 36 78 37 80 38 31 39 83 40 77 41 76 42 32 44
REMARK SMILES IDX 64 45 44 46 63 47 45 48 48 49 62 50 81 51 46 52 47 53 61 55
REMARK SMILES IDX 82 56 49 57 33 58 34 59 42 60 35 61 41 62 43 63 40 64 36 65
REMARK SMILES IDX 37 66 38 67 39 68 65 69 66 70 74 71 67 72 73 73 75 74 72 75
REMARK SMILES IDX 68 76 69 77 70 78 71 79 50 80 51 81 59 82 52 83 58 84 60 85
REMARK SMILES IDX 57 86 53 87 54 88 55 89 56 90
REMARK H PARENT 7 14 80 43 48 54
REMARK Flexibility Score: inf
ROOT
ATOM      1  C   UNL A   1      31.283  31.807  26.406  1.00  0.00     0.275 C 
ENDROOT
BRANCH   1   2
ATOM      2  O   UNL A   1      31.788  30.822  27.326  1.00  0.00    -0.459 OA
BRANCH   2   3
ATOM      3  C   UNL A   1      32.823  30.076  26.870  1.00  0.00     0.330 C 
ATOM      4  O   UNL A   1      33.982  30.450  26.759  1.00  0.00    -0.247 OA
BRANCH   3   5
ATOM      5  C   UNL A   1      32.435  28.691  26.542  1.00  0.00     0.095 C 
ATOM      6  C   UNL A   1      31.590  28.327  25.565  1.00  0.00     0.026 C 
BRANCH   6   7
ATOM      7  C   UNL A   1      31.231  26.962  25.332  1.00  0.00     0.028 A 
ATOM      8  C   UNL A   1      30.828  24.648  25.697  1.00  0.00     0.051 A 
ATOM      9  C   UNL A   1      30.515  24.790  24.361  1.00  0.00     0.079 A 
ATOM     10  C   UNL A   1      31.216  25.922  26.248  1.00  0.00     0.033 A 
ATOM     11  S   UNL A   1      30.791  26.367  23.776  1.00  0.00    -0.144 S 
BRANCH   8  12
ATOM     12  C   UNL A   1      30.679  23.427  26.483  1.00  0.00     0.252 C 
ATOM     13  N   UNL A   1      31.456  22.326  26.231  1.00  0.00    -0.349 N 
ATOM     14  H   UNL A   1      31.139  21.495  26.653  1.00  0.00     0.164 HD
ATOM     15  O   UNL A   1      29.861  23.356  27.401  1.00  0.00    -0.269 OA
BRANCH  13  16
ATOM     16  C   UNL A   1      32.678  22.179  25.440  1.00  0.00     0.085 C 
ATOM     17  C   UNL A   1      35.062  21.322  25.636  1.00  0.00     0.010 C 
ATOM     18  C   UNL A   1      33.608  21.131  26.074  1.00  0.00     0.008 C 
ATOM     19  C   UNL A   1      33.038  19.803  25.571  1.00  0.00     0.005 C 
ATOM     20  C   UNL A   1      32.530  20.089  24.161  1.00  0.00     0.002 C 
ATOM     21  C   UNL A   1      32.350  21.606  24.058  1.00  0.00     0.025 C 
ENDBRANCH  13  16
ENDBRANCH   8  12
ENDBRANCH   6   7
ENDBRANCH   3   5
ENDBRANCH   2   3
ENDBRANCH   1   2
BRANCH   1  22
ATOM     22  C   UNL A   1      31.976  33.162  26.594  1.00  0.00     0.275 C 
BRANCH  22  23
ATOM     23  O   UNL A   1      32.207  33.469  27.980  1.00  0.00    -0.458 OA
BRANCH  23  24
ATOM     24  C   UNL A   1      33.231  34.326  28.219  1.00  0.00     0.338 C 
ATOM     25  O   UNL A   1      33.207  35.540  28.102  1.00  0.00    -0.246 OA
BRANCH  24  26
ATOM     26  C   UNL A   1      34.381  33.587  28.772  1.00  0.00     0.060 A 
ATOM     27  C   UNL A   1      34.125  32.469  29.573  1.00  0.00     0.016 A 
ATOM     28  C   UNL A   1      35.693  34.014  28.552  1.00  0.00     0.016 A 
ATOM     29  C   UNL A   1      35.183  31.768  30.150  1.00  0.00     0.010 A 
ATOM     30  C   UNL A   1      36.752  33.312  29.137  1.00  0.00     0.010 A 
ATOM     31  C   UNL A   1      36.505  32.187  29.943  1.00  0.00    -0.014 A 
BRANCH  31  32
ATOM     32  C   UNL A   1      37.627  31.467  30.597  1.00  0.00     0.031 A 
ATOM     33  C   UNL A   1      38.026  31.821  32.002  1.00  0.00     0.074 A 
ATOM     34  C   UNL A   1      38.279  30.493  29.934  1.00  0.00     0.049 A 
ATOM     35  N   UNL A   1      39.021  31.369  32.720  1.00  0.00    -0.248 NA
ATOM     36  C   UNL A   1      37.188  32.816  32.687  1.00  0.00     0.031 C 
ATOM     37  C   UNL A   1      37.948  30.028  28.587  1.00  0.00     0.029 A 
ATOM     38  N   UNL A   1      39.354  29.723  30.299  1.00  0.00    -0.354 N 
ATOM     39  C   UNL A   1      38.932  32.021  33.946  1.00  0.00     0.074 A 
ATOM     40  C   UNL A   1      37.805  32.927  33.855  1.00  0.00     0.031 C 
ATOM     41  C   UNL A   1      38.805  29.053  28.238  1.00  0.00     0.029 A 
ATOM     42  C   UNL A   1      39.776  28.860  29.314  1.00  0.00     0.049 A 
ATOM     43  H   UNL A   1      39.783  29.782  31.184  1.00  0.00     0.167 HD
ATOM     44  C   UNL A   1      39.713  31.870  35.044  1.00  0.00     0.034 A 
ATOM     45  C   UNL A   1      40.841  28.036  29.271  1.00  0.00     0.034 A 
ATOM     46  C   UNL A   1      40.845  30.976  35.112  1.00  0.00     0.049 A 
ATOM     47  C   UNL A   1      41.767  27.976  30.461  1.00  0.00     0.074 A 
ATOM     48  C   UNL A   1      41.705  30.749  36.173  1.00  0.00     0.029 A 
ATOM     49  N   UNL A   1      41.283  30.169  34.070  1.00  0.00    -0.354 N 
ATOM     50  N   UNL A   1      41.680  28.608  31.610  1.00  0.00    -0.248 NA
ATOM     51  C   UNL A   1      42.937  27.094  30.348  1.00  0.00     0.031 C 
ATOM     52  C   UNL A   1      42.698  29.856  35.753  1.00  0.00     0.029 A 
ATOM     53  C   UNL A   1      42.419  29.471  34.452  1.00  0.00     0.049 A 
ATOM     54  H   UNL A   1      40.851  30.102  33.188  1.00  0.00     0.167 HD
ATOM     55  C   UNL A   1      42.768  28.178  32.363  1.00  0.00     0.074 A 
ATOM     56  C   UNL A   1      43.491  27.225  31.545  1.00  0.00     0.031 C 
ATOM     57  C   UNL A   1      43.136  28.533  33.620  1.00  0.00     0.034 A 
BRANCH  44  58
ATOM     58  C   UNL A   1      39.392  32.728  36.244  1.00  0.00     0.023 A 
ATOM     59  C   UNL A   1      39.967  34.000  36.417  1.00  0.00     0.031 A 
ATOM     60  C   UNL A   1      38.516  32.259  37.240  1.00  0.00     0.131 A 
ATOM     61  C   UNL A   1      39.710  34.729  37.588  1.00  0.00     0.055 A 
ATOM     62  C   UNL A   1      38.209  33.021  38.367  1.00  0.00     0.041 A 
ATOM     63  F   UNL A   1      37.955  31.044  37.138  1.00  0.00    -0.206 F 
ATOM     64  C   UNL A   1      38.816  34.259  38.553  1.00  0.00     0.022 A 
BRANCH  61  65
ATOM     65  S   UNL A   1      40.659  36.246  37.892  1.00  0.00     0.124 S 
ATOM     66  O   UNL A   1      41.621  35.796  38.895  1.00  0.00    -0.237 OA
ATOM     67  O   UNL A   1      41.204  36.546  36.574  1.00  0.00    -0.237 OA
ATOM     68  O   UNL A   1      39.654  37.187  38.381  1.00  0.00    -0.744 OA
ENDBRANCH  61  65
ENDBRANCH  44  58
BRANCH  45  69
ATOM     69  C   UNL A   1      41.134  27.238  28.045  1.00  0.00     0.023 A 
ATOM     70  C   UNL A   1      40.864  25.861  27.994  1.00  0.00     0.031 A 
ATOM     71  C   UNL A   1      41.751  27.830  26.929  1.00  0.00     0.131 A 
ATOM     72  C   UNL A   1      41.252  25.114  26.872  1.00  0.00     0.055 A 
ATOM     73  C   UNL A   1      42.083  27.094  25.791  1.00  0.00     0.041 A 
ATOM     74  F   UNL A   1      42.038  29.142  26.926  1.00  0.00    -0.206 F 
ATOM     75  C   UNL A   1      41.847  25.723  25.764  1.00  0.00     0.022 A 
BRANCH  72  76
ATOM     76  S   UNL A   1      41.055  23.311  26.918  1.00  0.00     0.124 S 
ATOM     77  O   UNL A   1      41.852  22.896  25.768  1.00  0.00    -0.237 OA
ATOM     78  O   UNL A   1      41.600  22.980  28.229  1.00  0.00    -0.237 OA
ATOM     79  O   UNL A   1      39.613  23.121  26.777  1.00  0.00    -0.744 OA
ENDBRANCH  72  76
ENDBRANCH  45  69
BRANCH  57  80
ATOM     80  C   UNL A   1      44.352  27.850  34.197  1.00  0.00     0.023 A 
ATOM     81  C   UNL A   1      44.252  26.649  34.919  1.00  0.00     0.031 A 
ATOM     82  C   UNL A   1      45.627  28.417  34.023  1.00  0.00     0.131 A 
ATOM     83  C   UNL A   1      45.403  26.075  35.481  1.00  0.00     0.055 A 
ATOM     84  C   UNL A   1      46.775  27.814  34.540  1.00  0.00     0.041 A 
ATOM     85  F   UNL A   1      45.778  29.563  33.342  1.00  0.00    -0.206 F 
ATOM     86  C   UNL A   1      46.665  26.642  35.283  1.00  0.00     0.022 A 
BRANCH  83  87
ATOM     87  S   UNL A   1      45.223  24.608  36.533  1.00  0.00     0.124 S 
ATOM     88  O   UNL A   1      46.599  24.364  36.954  1.00  0.00    -0.237 OA
ATOM     89  O   UNL A   1      44.313  25.077  37.573  1.00  0.00    -0.237 OA
ATOM     90  O   UNL A   1      44.664  23.604  35.630  1.00  0.00    -0.744 OA
ENDBRANCH  83  87
ENDBRANCH  57  80
ENDBRANCH  31  32
ENDBRANCH  24  26
ENDBRANCH  23  24
ENDBRANCH  22  23
ENDBRANCH   1  22
TORSDOF 17
ENDMDL
