MODEL 1
REMARK VINA RESULT:      -9.7      0.000      0.000
REMARK SMILES CC1=C(C(=O)OCC(C)C)[C@@H](c2ccc(C(=O)OCCOC(=O)c3ccc(-c4c5nc(c(-c6cc(S(=O)(=O)[O-])ccc6F)c6ccc([nH]6)c(-c6cc(S(=O)(=O)[O-])ccc6F)c6nc(c(-c7cc(S(=O)(=O)[O-])ccc7F)c7ccc4[nH]7)C=C6)C=C5)cc3)cc2)c2c(n(C)c(=O)n(C)c2=O)N1
REMARK SMILES IDX 19 1 18 2 16 3 17 4 15 5 12 6 13 7 88 8 14 9 87 10 11 11
REMARK SMILES IDX 1 12 2 13 3 14 99 15 90 16 89 18 91 19 97 20 92 21 93 22
REMARK SMILES IDX 95 23 98 24 94 25 96 26 4 27 5 28 6 29 7 30 8 31 9 32 10 33
REMARK SMILES IDX 20 34 21 35 22 36 23 37 24 38 25 39 86 40 26 41 85 42 27 43
REMARK SMILES IDX 28 44 29 45 79 46 30 47 84 48 78 49 80 50 31 51 83 52 77 53
REMARK SMILES IDX 76 54 32 56 64 57 44 58 63 59 45 60 48 61 62 62 81 63 46 64
REMARK SMILES IDX 47 65 61 67 82 68 49 69 33 70 34 71 42 72 35 73 41 74 43 75
REMARK SMILES IDX 40 76 36 77 37 78 38 79 39 80 65 81 66 82 74 83 67 84 73 85
REMARK SMILES IDX 75 86 72 87 68 88 69 89 70 90 71 91 50 92 51 93 59 94 52 95
REMARK SMILES IDX 58 96 60 97 57 98 53 99 54 100 55 101 56 102
REMARK H PARENT 99 17 80 55 48 66
REMARK Flexibility Score: inf
ROOT
ATOM      1  C   UNL A   1      33.044  32.882  27.545  1.00  0.00     0.275 C 
ENDROOT
BRANCH   1   2
ATOM      2  O   UNL A   1      33.745  33.430  28.681  1.00  0.00    -0.458 OA
BRANCH   2   3
ATOM      3  C   UNL A   1      35.096  33.404  28.591  1.00  0.00     0.338 C 
ATOM      4  O   UNL A   1      35.769  33.797  27.649  1.00  0.00    -0.246 OA
BRANCH   3   5
ATOM      5  C   UNL A   1      35.701  32.914  29.846  1.00  0.00     0.060 A 
ATOM      6  C   UNL A   1      36.685  32.174  32.370  1.00  0.00    -0.035 A 
ATOM      7  C   UNL A   1      35.347  31.935  32.033  1.00  0.00     0.005 A 
ATOM      8  C   UNL A   1      37.539  32.742  31.405  1.00  0.00     0.005 A 
ATOM      9  C   UNL A   1      34.858  32.335  30.797  1.00  0.00     0.016 A 
ATOM     10  C   UNL A   1      37.052  33.102  30.141  1.00  0.00     0.016 A 
BRANCH   6  11
ATOM     11  C   UNL A   1      37.169  31.893  33.801  1.00  0.00     0.098 C 
ATOM     12  C   UNL A   1      38.987  34.823  35.694  1.00  0.00     0.065 C 
ATOM     13  C   UNL A   1      38.654  33.554  34.947  1.00  0.00     0.025 C 
ATOM     14  C   UNL A   1      37.409  33.201  34.550  1.00  0.00     0.068 C 
ATOM     15  N   UNL A   1      39.717  32.699  34.702  1.00  0.00    -0.344 N 
ATOM     16  C   UNL A   1      39.625  31.428  34.161  1.00  0.00     0.123 A 
ATOM     17  H   UNL A   1      40.618  33.025  34.931  1.00  0.00     0.168 HD
ATOM     18  C   UNL A   1      38.413  31.004  33.754  1.00  0.00     0.071 A 
ATOM     19  N   UNL A   1      40.725  30.594  34.030  1.00  0.00    -0.282 N 
ATOM     20  C   UNL A   1      38.259  29.644  33.201  1.00  0.00     0.262 A 
ATOM     21  C   UNL A   1      42.025  31.027  34.533  1.00  0.00     0.157 C 
ATOM     22  C   UNL A   1      40.665  29.353  33.400  1.00  0.00     0.332 A 
ATOM     23  N   UNL A   1      39.426  28.978  32.907  1.00  0.00    -0.263 N 
ATOM     24  O   UNL A   1      37.138  29.162  33.040  1.00  0.00    -0.269 OA
ATOM     25  O   UNL A   1      41.641  28.606  33.307  1.00  0.00    -0.247 OA
ATOM     26  C   UNL A   1      39.356  27.725  32.184  1.00  0.00     0.158 C 
BRANCH  14  27
ATOM     27  C   UNL A   1      36.189  34.001  34.808  1.00  0.00     0.336 C 
ATOM     28  O   UNL A   1      35.482  33.837  35.791  1.00  0.00    -0.246 OA
BRANCH  27  29
ATOM     29  O   UNL A   1      35.956  34.857  33.786  1.00  0.00    -0.462 OA
BRANCH  29  30
ATOM     30  C   UNL A   1      34.666  35.483  33.729  1.00  0.00     0.236 C 
BRANCH  30  31
ATOM     31  C   UNL A   1      34.463  36.148  32.361  1.00  0.00     0.021 C 
ATOM     32  C   UNL A   1      33.419  35.410  31.522  1.00  0.00     0.011 C 
ATOM     33  C   UNL A   1      34.061  37.611  32.542  1.00  0.00     0.011 C 
ENDBRANCH  30  31
ENDBRANCH  29  30
ENDBRANCH  27  29
ENDBRANCH  14  27
ENDBRANCH   6  11
ENDBRANCH   3   5
ENDBRANCH   2   3
ENDBRANCH   1   2
BRANCH   1  34
ATOM     34  C   UNL A   1      33.066  31.355  27.578  1.00  0.00     0.275 C 
BRANCH  34  35
ATOM     35  O   UNL A   1      34.345  30.877  27.123  1.00  0.00    -0.458 OA
BRANCH  35  36
ATOM     36  C   UNL A   1      34.724  29.665  27.594  1.00  0.00     0.338 C 
ATOM     37  O   UNL A   1      34.039  28.660  27.676  1.00  0.00    -0.246 OA
BRANCH  36  38
ATOM     38  C   UNL A   1      36.142  29.703  28.001  1.00  0.00     0.060 A 
ATOM     39  C   UNL A   1      37.125  29.978  27.056  1.00  0.00     0.016 A 
ATOM     40  C   UNL A   1      36.511  29.311  29.287  1.00  0.00     0.016 A 
ATOM     41  C   UNL A   1      38.461  29.699  27.339  1.00  0.00     0.010 A 
ATOM     42  C   UNL A   1      37.868  29.180  29.612  1.00  0.00     0.010 A 
ATOM     43  C   UNL A   1      38.863  29.309  28.626  1.00  0.00    -0.014 A 
BRANCH  43  44
ATOM     44  C   UNL A   1      40.301  28.994  28.912  1.00  0.00     0.031 A 
ATOM     45  C   UNL A   1      41.172  29.985  29.655  1.00  0.00     0.074 A 
ATOM     46  C   UNL A   1      40.829  27.804  28.549  1.00  0.00     0.049 A 
ATOM     47  N   UNL A   1      42.462  29.949  29.874  1.00  0.00    -0.248 NA
ATOM     48  C   UNL A   1      40.511  31.178  30.209  1.00  0.00     0.031 C 
ATOM     49  C   UNL A   1      40.108  26.731  27.859  1.00  0.00     0.029 A 
ATOM     50  N   UNL A   1      42.087  27.279  28.733  1.00  0.00    -0.354 N 
ATOM     51  C   UNL A   1      42.775  31.134  30.534  1.00  0.00     0.074 A 
ATOM     52  C   UNL A   1      41.542  31.877  30.667  1.00  0.00     0.031 C 
ATOM     53  C   UNL A   1      40.903  25.657  27.753  1.00  0.00     0.029 A 
ATOM     54  C   UNL A   1      42.227  25.993  28.260  1.00  0.00     0.049 A 
ATOM     55  H   UNL A   1      42.820  27.776  29.163  1.00  0.00     0.167 HD
ATOM     56  C   UNL A   1      43.976  31.559  30.999  1.00  0.00     0.034 A 
ATOM     57  C   UNL A   1      43.302  25.181  28.194  1.00  0.00     0.034 A 
ATOM     58  C   UNL A   1      45.188  30.785  30.934  1.00  0.00     0.049 A 
ATOM     59  C   UNL A   1      44.633  25.695  28.670  1.00  0.00     0.074 A 
ATOM     60  C   UNL A   1      46.445  31.113  31.414  1.00  0.00     0.029 A 
ATOM     61  N   UNL A   1      45.297  29.523  30.369  1.00  0.00    -0.354 N 
ATOM     62  N   UNL A   1      44.916  26.846  29.232  1.00  0.00    -0.248 NA
ATOM     63  C   UNL A   1      45.796  24.817  28.472  1.00  0.00     0.031 C 
ATOM     64  C   UNL A   1      47.324  30.076  31.091  1.00  0.00     0.029 A 
ATOM     65  C   UNL A   1      46.604  29.074  30.461  1.00  0.00     0.049 A 
ATOM     66  H   UNL A   1      44.554  29.020  29.961  1.00  0.00     0.167 HD
ATOM     67  C   UNL A   1      46.290  26.835  29.445  1.00  0.00     0.074 A 
ATOM     68  C   UNL A   1      46.777  25.553  28.979  1.00  0.00     0.031 C 
ATOM     69  C   UNL A   1      47.079  27.804  29.972  1.00  0.00     0.034 A 
BRANCH  56  70
ATOM     70  C   UNL A   1      44.053  32.940  31.599  1.00  0.00     0.023 A 
ATOM     71  C   UNL A   1      43.957  33.153  32.984  1.00  0.00     0.031 A 
ATOM     72  C   UNL A   1      44.266  34.056  30.770  1.00  0.00     0.131 A 
ATOM     73  C   UNL A   1      44.030  34.458  33.496  1.00  0.00     0.055 A 
ATOM     74  C   UNL A   1      44.400  35.344  31.290  1.00  0.00     0.041 A 
ATOM     75  F   UNL A   1      44.354  33.910  29.438  1.00  0.00    -0.206 F 
ATOM     76  C   UNL A   1      44.275  35.552  32.661  1.00  0.00     0.022 A 
BRANCH  73  77
ATOM     77  S   UNL A   1      43.732  34.713  35.265  1.00  0.00     0.124 S 
ATOM     78  O   UNL A   1      44.510  33.626  35.855  1.00  0.00    -0.237 OA
ATOM     79  O   UNL A   1      44.253  36.058  35.486  1.00  0.00    -0.237 OA
ATOM     80  O   UNL A   1      42.283  34.578  35.393  1.00  0.00    -0.744 OA
ENDBRANCH  73  77
ENDBRANCH  56  70
BRANCH  57  81
ATOM     81  C   UNL A   1      43.182  23.825  27.584  1.00  0.00     0.023 A 
ATOM     82  C   UNL A   1      43.901  23.484  26.428  1.00  0.00     0.031 A 
ATOM     83  C   UNL A   1      42.340  22.851  28.153  1.00  0.00     0.131 A 
ATOM     84  C   UNL A   1      43.753  22.203  25.870  1.00  0.00     0.055 A 
ATOM     85  C   UNL A   1      42.235  21.566  27.621  1.00  0.00     0.041 A 
ATOM     86  F   UNL A   1      41.628  23.129  29.256  1.00  0.00    -0.206 F 
ATOM     87  C   UNL A   1      42.941  21.237  26.469  1.00  0.00     0.022 A 
BRANCH  84  88
ATOM     88  S   UNL A   1      44.611  21.825  24.316  1.00  0.00     0.124 S 
ATOM     89  O   UNL A   1      43.808  22.566  23.349  1.00  0.00    -0.237 OA
ATOM     90  O   UNL A   1      45.949  22.345  24.572  1.00  0.00    -0.237 OA
ATOM     91  O   UNL A   1      44.518  20.370  24.221  1.00  0.00    -0.744 OA
ENDBRANCH  84  88
ENDBRANCH  57  81
BRANCH  69  92
ATOM     92  C   UNL A   1      48.552  27.522  30.066  1.00  0.00     0.023 A 
ATOM     93  C   UNL A   1      49.071  26.729  31.102  1.00  0.00     0.031 A 
ATOM     94  C   UNL A   1      49.435  28.002  29.084  1.00  0.00     0.131 A 
ATOM     95  C   UNL A   1      50.444  26.453  31.145  1.00  0.00     0.055 A 
ATOM     96  C   UNL A   1      50.795  27.689  29.109  1.00  0.00     0.041 A 
ATOM     97  F   UNL A   1      48.983  28.760  28.072  1.00  0.00    -0.206 F 
ATOM     98  C   UNL A   1      51.306  26.912  30.145  1.00  0.00     0.022 A 
BRANCH  95  99
ATOM     99  S   UNL A   1      51.098  25.492  32.537  1.00  0.00     0.124 S 
ATOM    100  O   UNL A   1      50.920  26.417  33.651  1.00  0.00    -0.237 OA
ATOM    101  O   UNL A   1      50.237  24.314  32.541  1.00  0.00    -0.237 OA
ATOM    102  O   UNL A   1      52.487  25.239  32.156  1.00  0.00    -0.744 OA
ENDBRANCH  95  99
ENDBRANCH  69  92
ENDBRANCH  43  44
ENDBRANCH  36  38
ENDBRANCH  35  36
ENDBRANCH  34  35
ENDBRANCH   1  34
TORSDOF 19
ENDMDL
MODEL 2
REMARK VINA RESULT:      -9.7      5.631     11.260
REMARK SMILES CC1=C(C(=O)OCC(C)C)[C@@H](c2ccc(C(=O)OCCOC(=O)c3ccc(-c4c5nc(c(-c6cc(S(=O)(=O)[O-])ccc6F)c6ccc([nH]6)c(-c6cc(S(=O)(=O)[O-])ccc6F)c6nc(c(-c7cc(S(=O)(=O)[O-])ccc7F)c7ccc4[nH]7)C=C6)C=C5)cc3)cc2)c2c(n(C)c(=O)n(C)c2=O)N1
REMARK SMILES IDX 19 1 18 2 16 3 17 4 15 5 12 6 13 7 88 8 14 9 87 10 11 11
REMARK SMILES IDX 1 12 2 13 3 14 99 15 90 16 89 18 91 19 97 20 92 21 93 22
REMARK SMILES IDX 95 23 98 24 94 25 96 26 4 27 5 28 6 29 7 30 8 31 9 32 10 33
REMARK SMILES IDX 20 34 21 35 22 36 23 37 24 38 25 39 86 40 26 41 85 42 27 43
REMARK SMILES IDX 28 44 29 45 79 46 30 47 84 48 78 49 80 50 31 51 83 52 77 53
REMARK SMILES IDX 76 54 32 56 64 57 44 58 63 59 45 60 48 61 62 62 81 63 46 64
REMARK SMILES IDX 47 65 61 67 82 68 49 69 33 70 34 71 42 72 35 73 41 74 43 75
REMARK SMILES IDX 40 76 36 77 37 78 38 79 39 80 65 81 66 82 74 83 67 84 73 85
REMARK SMILES IDX 75 86 72 87 68 88 69 89 70 90 71 91 50 92 51 93 59 94 52 95
REMARK SMILES IDX 58 96 60 97 57 98 53 99 54 100 55 101 56 102
REMARK H PARENT 99 17 80 55 48 66
REMARK Flexibility Score: inf
ROOT
ATOM      1  C   UNL A   1      40.385  21.232  27.067  1.00  0.00     0.275 C 
ENDROOT
BRANCH   1   2
ATOM      2  O   UNL A   1      39.446  21.540  26.016  1.00  0.00    -0.458 OA
BRANCH   2   3
ATOM      3  C   UNL A   1      38.868  22.763  26.101  1.00  0.00     0.338 C 
ATOM      4  O   UNL A   1      39.432  23.817  26.354  1.00  0.00    -0.246 OA
BRANCH   3   5
ATOM      5  C   UNL A   1      37.435  22.696  25.749  1.00  0.00     0.060 A 
ATOM      6  C   UNL A   1      34.742  22.830  24.961  1.00  0.00    -0.035 A 
ATOM      7  C   UNL A   1      35.760  22.766  24.001  1.00  0.00     0.005 A 
ATOM      8  C   UNL A   1      35.089  22.773  26.324  1.00  0.00     0.005 A 
ATOM      9  C   UNL A   1      37.090  22.735  24.396  1.00  0.00     0.016 A 
ATOM     10  C   UNL A   1      36.432  22.695  26.719  1.00  0.00     0.016 A 
BRANCH   6  11
ATOM     11  C   UNL A   1      33.289  23.046  24.513  1.00  0.00     0.098 C 
ATOM     12  C   UNL A   1      31.973  20.832  21.539  1.00  0.00     0.065 C 
ATOM     13  C   UNL A   1      32.475  21.962  22.406  1.00  0.00     0.025 C 
ATOM     14  C   UNL A   1      32.791  21.843  23.716  1.00  0.00     0.068 C 
ATOM     15  N   UNL A   1      32.571  23.201  21.790  1.00  0.00    -0.344 N 
ATOM     16  C   UNL A   1      32.872  24.396  22.421  1.00  0.00     0.123 A 
ATOM     17  H   UNL A   1      32.412  23.232  20.819  1.00  0.00     0.168 HD
ATOM     18  C   UNL A   1      33.185  24.355  23.730  1.00  0.00     0.071 A 
ATOM     19  N   UNL A   1      32.859  25.612  21.754  1.00  0.00    -0.282 N 
ATOM     20  C   UNL A   1      33.481  25.608  24.453  1.00  0.00     0.262 A 
ATOM     21  C   UNL A   1      32.454  25.664  20.353  1.00  0.00     0.157 C 
ATOM     22  C   UNL A   1      33.253  26.807  22.350  1.00  0.00     0.332 A 
ATOM     23  N   UNL A   1      33.659  26.726  23.672  1.00  0.00    -0.263 N 
ATOM     24  O   UNL A   1      33.542  25.617  25.682  1.00  0.00    -0.269 OA
ATOM     25  O   UNL A   1      33.218  27.889  21.760  1.00  0.00    -0.247 OA
ATOM     26  C   UNL A   1      34.142  27.944  24.290  1.00  0.00     0.158 C 
BRANCH  14  27
ATOM     27  C   UNL A   1      32.672  20.589  24.496  1.00  0.00     0.336 C 
ATOM     28  O   UNL A   1      31.780  20.393  25.308  1.00  0.00    -0.246 OA
BRANCH  27  29
ATOM     29  O   UNL A   1      33.707  19.760  24.226  1.00  0.00    -0.462 OA
BRANCH  29  30
ATOM     30  C   UNL A   1      33.807  18.554  24.997  1.00  0.00     0.236 C 
BRANCH  30  31
ATOM     31  C   UNL A   1      33.153  17.390  24.244  1.00  0.00     0.021 C 
ATOM     32  C   UNL A   1      34.099  16.779  23.210  1.00  0.00     0.011 C 
ATOM     33  C   UNL A   1      32.684  16.322  25.231  1.00  0.00     0.011 C 
ENDBRANCH  30  31
ENDBRANCH  29  30
ENDBRANCH  27  29
ENDBRANCH  14  27
ENDBRANCH   6  11
ENDBRANCH   3   5
ENDBRANCH   2   3
ENDBRANCH   1   2
BRANCH   1  34
ATOM     34  C   UNL A   1      41.178  19.969  26.732  1.00  0.00     0.275 C 
BRANCH  34  35
ATOM     35  O   UNL A   1      41.786  20.106  25.435  1.00  0.00    -0.458 OA
BRANCH  35  36
ATOM     36  C   UNL A   1      43.140  20.080  25.413  1.00  0.00     0.338 C 
ATOM     37  O   UNL A   1      43.855  19.106  25.256  1.00  0.00    -0.246 OA
BRANCH  36  38
ATOM     38  C   UNL A   1      43.674  21.444  25.594  1.00  0.00     0.060 A 
ATOM     39  C   UNL A   1      44.697  21.669  26.509  1.00  0.00     0.016 A 
ATOM     40  C   UNL A   1      43.055  22.527  24.971  1.00  0.00     0.016 A 
ATOM     41  C   UNL A   1      44.983  22.968  26.928  1.00  0.00     0.010 A 
ATOM     42  C   UNL A   1      43.454  23.833  25.284  1.00  0.00     0.010 A 
ATOM     43  C   UNL A   1      44.380  24.077  26.315  1.00  0.00    -0.014 A 
BRANCH  43  44
ATOM     44  C   UNL A   1      44.684  25.467  26.788  1.00  0.00     0.031 A 
ATOM     45  C   UNL A   1      43.613  26.304  27.454  1.00  0.00     0.074 A 
ATOM     46  C   UNL A   1      45.930  25.977  26.667  1.00  0.00     0.049 A 
ATOM     47  N   UNL A   1      43.647  27.565  27.805  1.00  0.00    -0.248 NA
ATOM     48  C   UNL A   1      42.330  25.644  27.750  1.00  0.00     0.031 C 
ATOM     49  C   UNL A   1      47.078  25.281  26.080  1.00  0.00     0.029 A 
ATOM     50  N   UNL A   1      46.452  27.189  27.055  1.00  0.00    -0.354 N 
ATOM     51  C   UNL A   1      42.383  27.862  28.304  1.00  0.00     0.074 A 
ATOM     52  C   UNL A   1      41.596  26.654  28.197  1.00  0.00     0.031 C 
ATOM     53  C   UNL A   1      48.176  26.036  26.221  1.00  0.00     0.029 A 
ATOM     54  C   UNL A   1      47.800  27.320  26.801  1.00  0.00     0.049 A 
ATOM     55  H   UNL A   1      45.913  27.897  27.476  1.00  0.00     0.167 HD
ATOM     56  C   UNL A   1      41.921  29.030  28.817  1.00  0.00     0.034 A 
ATOM     57  C   UNL A   1      48.640  28.361  26.969  1.00  0.00     0.034 A 
ATOM     58  C   UNL A   1      42.729  30.210  28.993  1.00  0.00     0.049 A 
ATOM     59  C   UNL A   1      48.093  29.661  27.492  1.00  0.00     0.074 A 
ATOM     60  C   UNL A   1      42.362  31.428  29.541  1.00  0.00     0.029 A 
ATOM     61  N   UNL A   1      44.066  30.319  28.642  1.00  0.00    -0.354 N 
ATOM     62  N   UNL A   1      46.877  29.937  27.896  1.00  0.00    -0.248 NA
ATOM     63  C   UNL A   1      49.022  30.799  27.549  1.00  0.00     0.031 C 
ATOM     64  C   UNL A   1      43.461  32.289  29.471  1.00  0.00     0.029 A 
ATOM     65  C   UNL A   1      44.530  31.592  28.933  1.00  0.00     0.049 A 
ATOM     66  H   UNL A   1      44.606  29.598  28.244  1.00  0.00     0.167 HD
ATOM     67  C   UNL A   1      46.891  31.282  28.246  1.00  0.00     0.074 A 
ATOM     68  C   UNL A   1      48.243  31.757  28.033  1.00  0.00     0.031 C 
ATOM     69  C   UNL A   1      45.872  32.057  28.694  1.00  0.00     0.034 A 
BRANCH  56  70
ATOM     70  C   UNL A   1      40.467  29.108  29.203  1.00  0.00     0.023 A 
ATOM     71  C   UNL A   1      40.049  29.027  30.541  1.00  0.00     0.031 A 
ATOM     72  C   UNL A   1      39.486  29.305  28.214  1.00  0.00     0.131 A 
ATOM     73  C   UNL A   1      38.683  29.099  30.852  1.00  0.00     0.055 A 
ATOM     74  C   UNL A   1      38.134  29.439  28.534  1.00  0.00     0.041 A 
ATOM     75  F   UNL A   1      39.829  29.379  26.918  1.00  0.00    -0.206 F 
ATOM     76  C   UNL A   1      37.724  29.329  29.860  1.00  0.00     0.022 A 
BRANCH  73  77
ATOM     77  S   UNL A   1      38.167  28.821  32.567  1.00  0.00     0.124 S 
ATOM     78  O   UNL A   1      36.744  29.145  32.503  1.00  0.00    -0.237 OA
ATOM     79  O   UNL A   1      38.488  27.413  32.773  1.00  0.00    -0.237 OA
ATOM     80  O   UNL A   1      38.983  29.764  33.328  1.00  0.00    -0.744 OA
ENDBRANCH  73  77
ENDBRANCH  56  70
BRANCH  57  81
ATOM     81  C   UNL A   1      50.071  28.243  26.565  1.00  0.00     0.023 A 
ATOM     82  C   UNL A   1      50.476  28.501  25.246  1.00  0.00     0.031 A 
ATOM     83  C   UNL A   1      51.056  27.866  27.498  1.00  0.00     0.131 A 
ATOM     84  C   UNL A   1      51.829  28.365  24.894  1.00  0.00     0.055 A 
ATOM     85  C   UNL A   1      52.404  27.780  27.154  1.00  0.00     0.041 A 
ATOM     86  F   UNL A   1      50.719  27.603  28.771  1.00  0.00    -0.206 F 
ATOM     87  C   UNL A   1      52.797  28.026  25.843  1.00  0.00     0.022 A 
BRANCH  84  88
ATOM     88  S   UNL A   1      52.307  28.601  23.160  1.00  0.00     0.124 S 
ATOM     89  O   UNL A   1      51.306  29.560  22.707  1.00  0.00    -0.237 OA
ATOM     90  O   UNL A   1      53.670  29.106  23.284  1.00  0.00    -0.237 OA
ATOM     91  O   UNL A   1      52.192  27.260  22.590  1.00  0.00    -0.744 OA
ENDBRANCH  84  88
ENDBRANCH  57  81
BRANCH  69  92
ATOM     92  C   UNL A   1      46.175  33.502  28.979  1.00  0.00     0.023 A 
ATOM     93  C   UNL A   1      45.868  34.502  28.043  1.00  0.00     0.031 A 
ATOM     94  C   UNL A   1      46.722  33.886  30.215  1.00  0.00     0.131 A 
ATOM     95  C   UNL A   1      46.128  35.845  28.351  1.00  0.00     0.055 A 
ATOM     96  C   UNL A   1      46.941  35.227  30.532  1.00  0.00     0.041 A 
ATOM     97  F   UNL A   1      47.028  32.963  31.142  1.00  0.00    -0.206 F 
ATOM     98  C   UNL A   1      46.646  36.215  29.596  1.00  0.00     0.022 A 
BRANCH  95  99
ATOM     99  S   UNL A   1      45.795  37.108  27.094  1.00  0.00     0.124 S 
ATOM    100  O   UNL A   1      44.362  36.941  26.873  1.00  0.00    -0.237 OA
ATOM    101  O   UNL A   1      46.197  38.339  27.766  1.00  0.00    -0.237 OA
ATOM    102  O   UNL A   1      46.646  36.710  25.974  1.00  0.00    -0.744 OA
ENDBRANCH  95  99
ENDBRANCH  69  92
ENDBRANCH  43  44
ENDBRANCH  36  38
ENDBRANCH  35  36
ENDBRANCH  34  35
ENDBRANCH   1  34
TORSDOF 19
ENDMDL
MODEL 3
REMARK VINA RESULT:      -9.6      4.850     10.688
REMARK SMILES CC1=C(C(=O)OCC(C)C)[C@@H](c2ccc(C(=O)OCCOC(=O)c3ccc(-c4c5nc(c(-c6cc(S(=O)(=O)[O-])ccc6F)c6ccc([nH]6)c(-c6cc(S(=O)(=O)[O-])ccc6F)c6nc(c(-c7cc(S(=O)(=O)[O-])ccc7F)c7ccc4[nH]7)C=C6)C=C5)cc3)cc2)c2c(n(C)c(=O)n(C)c2=O)N1
REMARK SMILES IDX 19 1 18 2 16 3 17 4 15 5 12 6 13 7 88 8 14 9 87 10 11 11
REMARK SMILES IDX 1 12 2 13 3 14 99 15 90 16 89 18 91 19 97 20 92 21 93 22
REMARK SMILES IDX 95 23 98 24 94 25 96 26 4 27 5 28 6 29 7 30 8 31 9 32 10 33
REMARK SMILES IDX 20 34 21 35 22 36 23 37 24 38 25 39 86 40 26 41 85 42 27 43
REMARK SMILES IDX 28 44 29 45 79 46 30 47 84 48 78 49 80 50 31 51 83 52 77 53
REMARK SMILES IDX 76 54 32 56 64 57 44 58 63 59 45 60 48 61 62 62 81 63 46 64
REMARK SMILES IDX 47 65 61 67 82 68 49 69 33 70 34 71 42 72 35 73 41 74 43 75
REMARK SMILES IDX 40 76 36 77 37 78 38 79 39 80 65 81 66 82 74 83 67 84 73 85
REMARK SMILES IDX 75 86 72 87 68 88 69 89 70 90 71 91 50 92 51 93 59 94 52 95
REMARK SMILES IDX 58 96 60 97 57 98 53 99 54 100 55 101 56 102
REMARK H PARENT 99 17 80 55 48 66
REMARK Flexibility Score: inf
ROOT
ATOM      1  C   UNL A   1      33.559  32.571  27.341  1.00  0.00     0.275 C 
ENDROOT
BRANCH   1   2
ATOM      2  O   UNL A   1      33.698  31.433  28.218  1.00  0.00    -0.458 OA
BRANCH   2   3
ATOM      3  C   UNL A   1      34.509  30.450  27.760  1.00  0.00     0.338 C 
ATOM      4  O   UNL A   1      35.649  30.215  28.135  1.00  0.00    -0.246 OA
BRANCH   3   5
ATOM      5  C   UNL A   1      33.806  29.596  26.781  1.00  0.00     0.060 A 
ATOM      6  C   UNL A   1      32.538  27.748  25.088  1.00  0.00    -0.035 A 
ATOM      7  C   UNL A   1      32.045  27.983  26.379  1.00  0.00     0.005 A 
ATOM      8  C   UNL A   1      33.645  28.492  24.638  1.00  0.00     0.005 A 
ATOM      9  C   UNL A   1      32.697  28.871  27.223  1.00  0.00     0.016 A 
ATOM     10  C   UNL A   1      34.272  29.423  25.478  1.00  0.00     0.016 A 
BRANCH   6  11
ATOM     11  C   UNL A   1      31.919  26.634  24.230  1.00  0.00     0.098 C 
ATOM     12  C   UNL A   1      27.994  26.396  24.146  1.00  0.00     0.065 C 
ATOM     13  C   UNL A   1      29.464  26.167  24.401  1.00  0.00     0.025 C 
ATOM     14  C   UNL A   1      30.458  26.948  23.920  1.00  0.00     0.068 C 
ATOM     15  N   UNL A   1      29.780  25.047  25.156  1.00  0.00    -0.344 N 
ATOM     16  C   UNL A   1      31.056  24.568  25.396  1.00  0.00     0.123 A 
ATOM     17  H   UNL A   1      29.030  24.551  25.558  1.00  0.00     0.168 HD
ATOM     18  C   UNL A   1      32.096  25.289  24.935  1.00  0.00     0.071 A 
ATOM     19  N   UNL A   1      31.290  23.387  26.086  1.00  0.00    -0.282 N 
ATOM     20  C   UNL A   1      33.475  24.802  25.138  1.00  0.00     0.262 A 
ATOM     21  C   UNL A   1      30.162  22.572  26.525  1.00  0.00     0.157 C 
ATOM     22  C   UNL A   1      32.567  22.944  26.418  1.00  0.00     0.332 A 
ATOM     23  N   UNL A   1      33.619  23.749  26.012  1.00  0.00    -0.263 N 
ATOM     24  O   UNL A   1      34.412  25.319  24.533  1.00  0.00    -0.269 OA
ATOM     25  O   UNL A   1      32.770  21.882  27.010  1.00  0.00    -0.247 OA
ATOM     26  C   UNL A   1      34.951  23.345  26.411  1.00  0.00     0.158 C 
BRANCH  14  27
ATOM     27  C   UNL A   1      30.248  28.133  23.054  1.00  0.00     0.336 C 
ATOM     28  O   UNL A   1      30.488  28.131  21.856  1.00  0.00    -0.246 OA
BRANCH  27  29
ATOM     29  O   UNL A   1      29.833  29.191  23.788  1.00  0.00    -0.462 OA
BRANCH  29  30
ATOM     30  C   UNL A   1      29.763  30.465  23.131  1.00  0.00     0.236 C 
BRANCH  30  31
ATOM     31  C   UNL A   1      28.335  31.020  23.209  1.00  0.00     0.021 C 
ATOM     32  C   UNL A   1      28.075  32.069  22.127  1.00  0.00     0.011 C 
ATOM     33  C   UNL A   1      27.321  29.882  23.099  1.00  0.00     0.011 C 
ENDBRANCH  30  31
ENDBRANCH  29  30
ENDBRANCH  27  29
ENDBRANCH  14  27
ENDBRANCH   6  11
ENDBRANCH   3   5
ENDBRANCH   2   3
ENDBRANCH   1   2
BRANCH   1  34
ATOM     34  C   UNL A   1      33.803  33.874  28.101  1.00  0.00     0.275 C 
BRANCH  34  35
ATOM     35  O   UNL A   1      33.071  33.858  29.340  1.00  0.00    -0.458 OA
BRANCH  35  36
ATOM     36  C   UNL A   1      33.482  34.741  30.280  1.00  0.00     0.338 C 
ATOM     37  O   UNL A   1      33.011  35.840  30.515  1.00  0.00    -0.246 OA
BRANCH  36  38
ATOM     38  C   UNL A   1      34.618  34.180  31.037  1.00  0.00     0.060 A 
ATOM     39  C   UNL A   1      35.829  34.864  31.074  1.00  0.00     0.016 A 
ATOM     40  C   UNL A   1      34.532  32.900  31.582  1.00  0.00     0.016 A 
ATOM     41  C   UNL A   1      36.985  34.209  31.495  1.00  0.00     0.010 A 
ATOM     42  C   UNL A   1      35.669  32.304  32.144  1.00  0.00     0.010 A 
ATOM     43  C   UNL A   1      36.929  32.923  32.052  1.00  0.00    -0.014 A 
BRANCH  43  44
ATOM     44  C   UNL A   1      38.183  32.224  32.484  1.00  0.00     0.031 A 
ATOM     45  C   UNL A   1      38.848  31.208  31.579  1.00  0.00     0.074 A 
ATOM     46  C   UNL A   1      38.764  32.523  33.667  1.00  0.00     0.049 A 
ATOM     47  N   UNL A   1      39.854  30.409  31.832  1.00  0.00    -0.248 NA
ATOM     48  C   UNL A   1      38.301  31.059  30.220  1.00  0.00     0.031 C 
ATOM     49  C   UNL A   1      38.264  33.505  34.633  1.00  0.00     0.029 A 
ATOM     50  N   UNL A   1      39.917  32.054  34.253  1.00  0.00    -0.354 N 
ATOM     51  C   UNL A   1      40.021  29.626  30.693  1.00  0.00     0.074 A 
ATOM     52  C   UNL A   1      39.002  30.034  29.752  1.00  0.00     0.031 C 
ATOM     53  C   UNL A   1      39.140  33.625  35.641  1.00  0.00     0.029 A 
ATOM     54  C   UNL A   1      40.208  32.649  35.461  1.00  0.00     0.049 A 
ATOM     55  H   UNL A   1      40.482  31.358  33.846  1.00  0.00     0.167 HD
ATOM     56  C   UNL A   1      40.945  28.664  30.448  1.00  0.00     0.034 A 
ATOM     57  C   UNL A   1      41.192  32.416  36.353  1.00  0.00     0.034 A 
ATOM     58  C   UNL A   1      42.005  28.312  31.357  1.00  0.00     0.049 A 
ATOM     59  C   UNL A   1      42.175  31.310  36.081  1.00  0.00     0.074 A 
ATOM     60  C   UNL A   1      43.014  27.380  31.181  1.00  0.00     0.029 A 
ATOM     61  N   UNL A   1      42.207  28.884  32.604  1.00  0.00    -0.354 N 
ATOM     62  N   UNL A   1      42.272  30.539  35.025  1.00  0.00    -0.248 NA
ATOM     63  C   UNL A   1      43.158  31.018  37.135  1.00  0.00     0.031 C 
ATOM     64  C   UNL A   1      43.792  27.350  32.341  1.00  0.00     0.029 A 
ATOM     65  C   UNL A   1      43.304  28.304  33.219  1.00  0.00     0.049 A 
ATOM     66  H   UNL A   1      41.652  29.598  32.995  1.00  0.00     0.167 HD
ATOM     67  C   UNL A   1      43.320  29.664  35.291  1.00  0.00     0.074 A 
ATOM     68  C   UNL A   1      43.843  30.019  36.594  1.00  0.00     0.031 C 
ATOM     69  C   UNL A   1      43.799  28.651  34.527  1.00  0.00     0.034 A 
BRANCH  56  70
ATOM     70  C   UNL A   1      40.842  27.897  29.155  1.00  0.00     0.023 A 
ATOM     71  C   UNL A   1      41.728  28.119  28.088  1.00  0.00     0.031 A 
ATOM     72  C   UNL A   1      39.861  26.900  29.004  1.00  0.00     0.131 A 
ATOM     73  C   UNL A   1      41.590  27.384  26.901  1.00  0.00     0.055 A 
ATOM     74  C   UNL A   1      39.768  26.129  27.845  1.00  0.00     0.041 A 
ATOM     75  F   UNL A   1      38.982  26.654  29.989  1.00  0.00    -0.206 F 
ATOM     76  C   UNL A   1      40.631  26.373  26.781  1.00  0.00     0.022 A 
BRANCH  73  77
ATOM     77  S   UNL A   1      42.639  27.813  25.487  1.00  0.00     0.124 S 
ATOM     78  O   UNL A   1      42.672  26.553  24.751  1.00  0.00    -0.237 OA
ATOM     79  O   UNL A   1      41.897  28.898  24.856  1.00  0.00    -0.237 OA
ATOM     80  O   UNL A   1      43.906  28.202  26.105  1.00  0.00    -0.744 OA
ENDBRANCH  73  77
ENDBRANCH  56  70
BRANCH  57  81
ATOM     81  C   UNL A   1      41.251  33.193  37.625  1.00  0.00     0.023 A 
ATOM     82  C   UNL A   1      40.511  32.800  38.750  1.00  0.00     0.031 A 
ATOM     83  C   UNL A   1      42.051  34.347  37.729  1.00  0.00     0.131 A 
ATOM     84  C   UNL A   1      40.576  33.562  39.928  1.00  0.00     0.055 A 
ATOM     85  C   UNL A   1      42.149  35.072  38.916  1.00  0.00     0.041 A 
ATOM     86  F   UNL A   1      42.774  34.768  36.679  1.00  0.00    -0.206 F 
ATOM     87  C   UNL A   1      41.404  34.684  40.024  1.00  0.00     0.022 A 
BRANCH  84  88
ATOM     88  S   UNL A   1      39.527  33.091  41.331  1.00  0.00     0.124 S 
ATOM     89  O   UNL A   1      38.681  34.271  41.476  1.00  0.00    -0.237 OA
ATOM     90  O   UNL A   1      38.871  31.888  40.832  1.00  0.00    -0.237 OA
ATOM     91  O   UNL A   1      40.484  32.872  42.414  1.00  0.00    -0.744 OA
ENDBRANCH  84  88
ENDBRANCH  57  81
BRANCH  69  92
ATOM     92  C   UNL A   1      44.942  27.848  35.082  1.00  0.00     0.023 A 
ATOM     93  C   UNL A   1      44.710  26.693  35.845  1.00  0.00     0.031 A 
ATOM     94  C   UNL A   1      46.271  28.208  34.798  1.00  0.00     0.131 A 
ATOM     95  C   UNL A   1      45.796  25.943  36.318  1.00  0.00     0.055 A 
ATOM     96  C   UNL A   1      47.346  27.435  35.237  1.00  0.00     0.041 A 
ATOM     97  F   UNL A   1      46.541  29.303  34.069  1.00  0.00    -0.206 F 
ATOM     98  C   UNL A   1      47.111  26.296  36.004  1.00  0.00     0.022 A 
BRANCH  95  99
ATOM     99  S   UNL A   1      45.468  24.500  37.366  1.00  0.00     0.124 S 
ATOM    100  O   UNL A   1      45.468  23.414  36.391  1.00  0.00    -0.237 OA
ATOM    101  O   UNL A   1      46.592  24.522  38.296  1.00  0.00    -0.237 OA
ATOM    102  O   UNL A   1      44.167  24.799  37.963  1.00  0.00    -0.744 OA
ENDBRANCH  95  99
ENDBRANCH  69  92
ENDBRANCH  43  44
ENDBRANCH  36  38
ENDBRANCH  35  36
ENDBRANCH  34  35
ENDBRANCH   1  34
TORSDOF 19
ENDMDL
