MODEL 1
REMARK VINA RESULT:     -12.2      0.000      0.000
REMARK SMILES O=C(OCCOC(=O)c1ccc2c(=O)n(Cc3cccnc3)c(=O)[nH]c2c1)c1ccc(-c2c3nc(c(-c4cc(S(=O)(=O)[O-])ccc4F)c4ccc([nH]4)c(-c4cc(S(=O)(=O)[O-])ccc4F)c4nc(c(-c5cc(S(=O)(=O)[O-])ccc5F)c5ccc2[nH]5)C=C4)C=C3)cc1
REMARK SMILES IDX 4 1 3 2 2 3 1 4 28 5 29 6 90 7 30 8 89 9 31 10 32 11 33 12
REMARK SMILES IDX 83 13 34 14 88 15 82 16 84 17 35 18 87 19 81 20 80 21 36 23
REMARK SMILES IDX 68 24 48 25 67 26 49 27 52 28 66 29 85 30 50 31 51 32 65 34
REMARK SMILES IDX 86 35 53 36 37 37 38 38 46 39 39 40 45 41 47 42 44 43 40 44
REMARK SMILES IDX 41 45 42 46 43 47 69 48 70 49 78 50 71 51 77 52 79 53 76 54
REMARK SMILES IDX 72 55 73 56 74 57 75 58 54 59 55 60 63 61 56 62 62 63 64 64
REMARK SMILES IDX 61 65 57 66 58 67 59 68 60 69 5 70 6 71 7 72 8 73 9 74 10 75
REMARK SMILES IDX 27 76 11 77 26 78 12 79 25 80 13 81 23 82 14 84 15 85 24 86
REMARK SMILES IDX 16 87 17 88 18 89 22 90 19 91 21 92 20 93
REMARK H PARENT 84 22 52 33 25 83
REMARK Flexibility Score: inf
ROOT
ATOM      1  C   UNL A   1      32.540  32.840  26.866  1.00  0.00     0.275 C 
ENDROOT
BRANCH   1   2
ATOM      2  O   UNL A   1      32.349  33.877  27.843  1.00  0.00    -0.458 OA
BRANCH   2   3
ATOM      3  C   UNL A   1      33.252  34.432  28.686  1.00  0.00     0.338 C 
ATOM      4  O   UNL A   1      33.119  35.616  28.994  1.00  0.00    -0.246 OA
BRANCH   3   5
ATOM      5  C   UNL A   1      34.515  33.740  29.092  1.00  0.00     0.060 A 
ATOM      6  C   UNL A   1      34.371  32.720  30.044  1.00  0.00     0.016 A 
ATOM      7  C   UNL A   1      35.803  34.013  28.627  1.00  0.00     0.016 A 
ATOM      8  C   UNL A   1      35.487  32.112  30.623  1.00  0.00     0.010 A 
ATOM      9  C   UNL A   1      36.925  33.392  29.194  1.00  0.00     0.010 A 
ATOM     10  C   UNL A   1      36.780  32.464  30.226  1.00  0.00    -0.014 A 
BRANCH  10  11
ATOM     11  C   UNL A   1      37.952  31.727  30.756  1.00  0.00     0.031 A 
ATOM     12  C   UNL A   1      38.543  30.532  30.064  1.00  0.00     0.074 A 
ATOM     13  C   UNL A   1      38.463  32.147  31.928  1.00  0.00     0.049 A 
ATOM     14  N   UNL A   1      39.645  29.889  30.349  1.00  0.00    -0.248 NA
ATOM     15  C   UNL A   1      37.834  29.998  28.892  1.00  0.00     0.031 C 
ATOM     16  C   UNL A   1      37.944  33.275  32.703  1.00  0.00     0.029 A 
ATOM     17  N   UNL A   1      39.496  31.665  32.685  1.00  0.00    -0.354 N 
ATOM     18  C   UNL A   1      39.815  28.948  29.341  1.00  0.00     0.074 A 
ATOM     19  C   UNL A   1      38.667  29.051  28.471  1.00  0.00     0.031 C 
ATOM     20  C   UNL A   1      38.645  33.384  33.836  1.00  0.00     0.029 A 
ATOM     21  C   UNL A   1      39.615  32.295  33.898  1.00  0.00     0.049 A 
ATOM     22  H   UNL A   1      40.093  30.940  32.389  1.00  0.00     0.167 HD
ATOM     23  C   UNL A   1      40.845  28.090  29.167  1.00  0.00     0.034 A 
ATOM     24  C   UNL A   1      40.375  32.004  34.972  1.00  0.00     0.034 A 
ATOM     25  C   UNL A   1      41.893  27.906  30.138  1.00  0.00     0.049 A 
ATOM     26  C   UNL A   1      41.382  30.899  34.856  1.00  0.00     0.074 A 
ATOM     27  C   UNL A   1      43.020  27.114  30.035  1.00  0.00     0.029 A 
ATOM     28  N   UNL A   1      41.895  28.450  31.412  1.00  0.00    -0.354 N 
ATOM     29  N   UNL A   1      41.631  30.123  33.826  1.00  0.00    -0.248 NA
ATOM     30  C   UNL A   1      42.234  30.636  36.021  1.00  0.00     0.031 C 
ATOM     31  C   UNL A   1      43.655  27.110  31.278  1.00  0.00     0.029 A 
ATOM     32  C   UNL A   1      42.988  27.986  32.123  1.00  0.00     0.049 A 
ATOM     33  H   UNL A   1      41.218  29.075  31.762  1.00  0.00     0.167 HD
ATOM     34  C   UNL A   1      42.682  29.300  34.207  1.00  0.00     0.074 A 
ATOM     35  C   UNL A   1      43.028  29.676  35.561  1.00  0.00     0.031 C 
ATOM     36  C   UNL A   1      43.311  28.339  33.486  1.00  0.00     0.034 A 
BRANCH  23  37
ATOM     37  C   UNL A   1      40.938  27.279  27.900  1.00  0.00     0.023 A 
ATOM     38  C   UNL A   1      40.719  25.890  27.926  1.00  0.00     0.031 A 
ATOM     39  C   UNL A   1      41.458  27.850  26.723  1.00  0.00     0.131 A 
ATOM     40  C   UNL A   1      41.064  25.110  26.815  1.00  0.00     0.055 A 
ATOM     41  C   UNL A   1      41.783  27.069  25.611  1.00  0.00     0.041 A 
ATOM     42  F   UNL A   1      41.689  29.169  26.653  1.00  0.00    -0.206 F 
ATOM     43  C   UNL A   1      41.598  25.691  25.658  1.00  0.00     0.022 A 
BRANCH  40  44
ATOM     44  S   UNL A   1      40.881  23.305  26.845  1.00  0.00     0.124 S 
ATOM     45  O   UNL A   1      41.856  22.888  25.839  1.00  0.00    -0.237 OA
ATOM     46  O   UNL A   1      41.231  22.985  28.225  1.00  0.00    -0.237 OA
ATOM     47  O   UNL A   1      39.486  23.092  26.476  1.00  0.00    -0.744 OA
ENDBRANCH  40  44
ENDBRANCH  23  37
BRANCH  24  48
ATOM     48  C   UNL A   1      40.159  32.801  36.213  1.00  0.00     0.023 A 
ATOM     49  C   UNL A   1      39.260  32.335  37.195  1.00  0.00     0.031 A 
ATOM     50  C   UNL A   1      40.676  34.096  36.351  1.00  0.00     0.131 A 
ATOM     51  C   UNL A   1      38.824  33.194  38.210  1.00  0.00     0.055 A 
ATOM     52  C   UNL A   1      40.298  34.924  37.411  1.00  0.00     0.041 A 
ATOM     53  F   UNL A   1      41.530  34.585  35.440  1.00  0.00    -0.206 F 
ATOM     54  C   UNL A   1      39.347  34.483  38.330  1.00  0.00     0.022 A 
BRANCH  51  55
ATOM     55  S   UNL A   1      37.428  32.728  39.275  1.00  0.00     0.124 S 
ATOM     56  O   UNL A   1      37.490  33.748  40.318  1.00  0.00    -0.237 OA
ATOM     57  O   UNL A   1      36.295  32.833  38.358  1.00  0.00    -0.237 OA
ATOM     58  O   UNL A   1      37.753  31.370  39.698  1.00  0.00    -0.744 OA
ENDBRANCH  51  55
ENDBRANCH  24  48
BRANCH  36  59
ATOM     59  C   UNL A   1      44.451  27.590  34.125  1.00  0.00     0.023 A 
ATOM     60  C   UNL A   1      44.186  26.424  34.868  1.00  0.00     0.031 A 
ATOM     61  C   UNL A   1      45.751  28.119  34.154  1.00  0.00     0.131 A 
ATOM     62  C   UNL A   1      45.187  25.869  35.672  1.00  0.00     0.055 A 
ATOM     63  C   UNL A   1      46.763  27.525  34.908  1.00  0.00     0.041 A 
ATOM     64  F   UNL A   1      46.048  29.231  33.463  1.00  0.00    -0.206 F 
ATOM     65  C   UNL A   1      46.477  26.408  35.689  1.00  0.00     0.022 A 
BRANCH  62  66
ATOM     66  S   UNL A   1      44.815  24.508  36.812  1.00  0.00     0.124 S 
ATOM     67  O   UNL A   1      46.036  24.443  37.611  1.00  0.00    -0.237 OA
ATOM     68  O   UNL A   1      43.636  25.009  37.512  1.00  0.00    -0.237 OA
ATOM     69  O   UNL A   1      44.586  23.366  35.932  1.00  0.00    -0.744 OA
ENDBRANCH  62  66
ENDBRANCH  36  59
ENDBRANCH  10  11
ENDBRANCH   3   5
ENDBRANCH   2   3
ENDBRANCH   1   2
BRANCH   1  70
ATOM     70  C   UNL A   1      31.379  31.848  26.747  1.00  0.00     0.275 C 
BRANCH  70  71
ATOM     71  O   UNL A   1      31.770  30.468  26.830  1.00  0.00    -0.458 OA
BRANCH  71  72
ATOM     72  C   UNL A   1      31.526  29.724  25.716  1.00  0.00     0.338 C 
ATOM     73  O   UNL A   1      30.968  30.078  24.702  1.00  0.00    -0.246 OA
BRANCH  72  74
ATOM     74  C   UNL A   1      32.170  28.401  25.878  1.00  0.00     0.062 A 
ATOM     75  C   UNL A   1      33.435  28.142  25.341  1.00  0.00     0.016 A 
ATOM     76  C   UNL A   1      31.456  27.393  26.535  1.00  0.00     0.042 A 
ATOM     77  C   UNL A   1      33.970  26.852  25.431  1.00  0.00     0.017 A 
ATOM     78  C   UNL A   1      31.956  26.088  26.525  1.00  0.00     0.056 A 
ATOM     79  C   UNL A   1      33.206  25.819  25.986  1.00  0.00     0.064 A 
ATOM     80  N   UNL A   1      31.165  25.029  26.965  1.00  0.00    -0.307 N 
ATOM     81  C   UNL A   1      33.688  24.425  25.994  1.00  0.00     0.264 A 
ATOM     82  C   UNL A   1      31.502  23.708  26.819  1.00  0.00     0.329 A 
ATOM     83  H   UNL A   1      30.311  25.242  27.409  1.00  0.00     0.171 HD
ATOM     84  O   UNL A   1      34.882  24.219  25.804  1.00  0.00    -0.268 OA
ATOM     85  N   UNL A   1      32.751  23.437  26.285  1.00  0.00    -0.255 N 
ATOM     86  O   UNL A   1      30.700  22.854  27.193  1.00  0.00    -0.248 OA
BRANCH  85  87
ATOM     87  C   UNL A   1      33.187  22.045  26.233  1.00  0.00     0.168 C 
BRANCH  87  88
ATOM     88  C   UNL A   1      32.931  21.323  24.933  1.00  0.00    -0.010 A 
ATOM     89  C   UNL A   1      32.959  19.929  24.844  1.00  0.00     0.009 A 
ATOM     90  C   UNL A   1      32.524  22.017  23.795  1.00  0.00     0.116 A 
ATOM     91  C   UNL A   1      32.551  19.302  23.670  1.00  0.00     0.020 A 
ATOM     92  N   UNL A   1      32.123  21.437  22.639  1.00  0.00    -0.264 NA
ATOM     93  C   UNL A   1      32.143  20.086  22.607  1.00  0.00     0.111 A 
ENDBRANCH  87  88
ENDBRANCH  85  87
ENDBRANCH  72  74
ENDBRANCH  71  72
ENDBRANCH  70  71
ENDBRANCH   1  70
TORSDOF 16
ENDMDL
MODEL 2
REMARK VINA RESULT:     -12.2      1.109      1.727
REMARK SMILES O=C(OCCOC(=O)c1ccc2c(=O)n(Cc3cccnc3)c(=O)[nH]c2c1)c1ccc(-c2c3nc(c(-c4cc(S(=O)(=O)[O-])ccc4F)c4ccc([nH]4)c(-c4cc(S(=O)(=O)[O-])ccc4F)c4nc(c(-c5cc(S(=O)(=O)[O-])ccc5F)c5ccc2[nH]5)C=C4)C=C3)cc1
REMARK SMILES IDX 4 1 3 2 2 3 1 4 28 5 29 6 90 7 30 8 89 9 31 10 32 11 33 12
REMARK SMILES IDX 83 13 34 14 88 15 82 16 84 17 35 18 87 19 81 20 80 21 36 23
REMARK SMILES IDX 68 24 48 25 67 26 49 27 52 28 66 29 85 30 50 31 51 32 65 34
REMARK SMILES IDX 86 35 53 36 37 37 38 38 46 39 39 40 45 41 47 42 44 43 40 44
REMARK SMILES IDX 41 45 42 46 43 47 69 48 70 49 78 50 71 51 77 52 79 53 76 54
REMARK SMILES IDX 72 55 73 56 74 57 75 58 54 59 55 60 63 61 56 62 62 63 64 64
REMARK SMILES IDX 61 65 57 66 58 67 59 68 60 69 5 70 6 71 7 72 8 73 9 74 10 75
REMARK SMILES IDX 27 76 11 77 26 78 12 79 25 80 13 81 23 82 14 84 15 85 24 86
REMARK SMILES IDX 16 87 17 88 18 89 22 90 19 91 21 92 20 93
REMARK H PARENT 84 22 52 33 25 83
REMARK Flexibility Score: inf
ROOT
ATOM      1  C   UNL A   1      31.888  33.094  26.683  1.00  0.00     0.275 C 
ENDROOT
BRANCH   1   2
ATOM      2  O   UNL A   1      32.212  33.552  28.006  1.00  0.00    -0.458 OA
BRANCH   2   3
ATOM      3  C   UNL A   1      33.308  34.224  28.433  1.00  0.00     0.338 C 
ATOM      4  O   UNL A   1      33.337  35.447  28.301  1.00  0.00    -0.246 OA
BRANCH   3   5
ATOM      5  C   UNL A   1      34.567  33.535  28.858  1.00  0.00     0.060 A 
ATOM      6  C   UNL A   1      34.417  32.550  29.845  1.00  0.00     0.016 A 
ATOM      7  C   UNL A   1      35.855  33.779  28.378  1.00  0.00     0.016 A 
ATOM      8  C   UNL A   1      35.530  31.952  30.441  1.00  0.00     0.010 A 
ATOM      9  C   UNL A   1      36.974  33.168  28.962  1.00  0.00     0.010 A 
ATOM     10  C   UNL A   1      36.825  32.279  30.027  1.00  0.00    -0.014 A 
BRANCH  10  11
ATOM     11  C   UNL A   1      37.992  31.550  30.578  1.00  0.00     0.031 A 
ATOM     12  C   UNL A   1      38.591  30.346  29.907  1.00  0.00     0.074 A 
ATOM     13  C   UNL A   1      38.491  31.986  31.749  1.00  0.00     0.049 A 
ATOM     14  N   UNL A   1      39.691  29.708  30.212  1.00  0.00    -0.248 NA
ATOM     15  C   UNL A   1      37.894  29.796  28.736  1.00  0.00     0.031 C 
ATOM     16  C   UNL A   1      37.964  33.124  32.504  1.00  0.00     0.029 A 
ATOM     17  N   UNL A   1      39.518  31.514  32.523  1.00  0.00    -0.354 N 
ATOM     18  C   UNL A   1      39.871  28.754  29.218  1.00  0.00     0.074 A 
ATOM     19  C   UNL A   1      38.732  28.844  28.336  1.00  0.00     0.031 C 
ATOM     20  C   UNL A   1      38.654  33.248  33.642  1.00  0.00     0.029 A 
ATOM     21  C   UNL A   1      39.624  32.161  33.728  1.00  0.00     0.049 A 
ATOM     22  H   UNL A   1      40.118  30.786  32.242  1.00  0.00     0.167 HD
ATOM     23  C   UNL A   1      40.904  27.894  29.065  1.00  0.00     0.034 A 
ATOM     24  C   UNL A   1      40.374  31.885  34.813  1.00  0.00     0.034 A 
ATOM     25  C   UNL A   1      41.942  27.725  30.049  1.00  0.00     0.049 A 
ATOM     26  C   UNL A   1      41.383  30.780  34.722  1.00  0.00     0.074 A 
ATOM     27  C   UNL A   1      43.071  26.932  29.968  1.00  0.00     0.029 A 
ATOM     28  N   UNL A   1      41.931  28.285  31.316  1.00  0.00    -0.354 N 
ATOM     29  N   UNL A   1      41.642  29.991  33.704  1.00  0.00    -0.248 NA
ATOM     30  C   UNL A   1      42.224  30.533  35.899  1.00  0.00     0.031 C 
ATOM     31  C   UNL A   1      43.694  26.945  31.217  1.00  0.00     0.029 A 
ATOM     32  C   UNL A   1      43.018  27.832  32.043  1.00  0.00     0.049 A 
ATOM     33  H   UNL A   1      41.250  28.914  31.651  1.00  0.00     0.167 HD
ATOM     34  C   UNL A   1      42.690  29.174  34.107  1.00  0.00     0.074 A 
ATOM     35  C   UNL A   1      43.023  29.568  35.459  1.00  0.00     0.031 C 
ATOM     36  C   UNL A   1      43.328  28.203  33.404  1.00  0.00     0.034 A 
BRANCH  23  37
ATOM     37  C   UNL A   1      41.009  27.067  27.810  1.00  0.00     0.023 A 
ATOM     38  C   UNL A   1      40.774  25.681  27.850  1.00  0.00     0.031 A 
ATOM     39  C   UNL A   1      41.556  27.617  26.636  1.00  0.00     0.131 A 
ATOM     40  C   UNL A   1      41.130  24.884  26.754  1.00  0.00     0.055 A 
ATOM     41  C   UNL A   1      41.892  26.820  25.539  1.00  0.00     0.041 A 
ATOM     42  F   UNL A   1      41.804  28.933  26.553  1.00  0.00    -0.206 F 
ATOM     43  C   UNL A   1      41.691  25.444  25.600  1.00  0.00     0.022 A 
BRANCH  40  44
ATOM     44  S   UNL A   1      40.925  23.082  26.803  1.00  0.00     0.124 S 
ATOM     45  O   UNL A   1      39.485  22.937  26.599  1.00  0.00    -0.237 OA
ATOM     46  O   UNL A   1      41.761  22.648  25.688  1.00  0.00    -0.237 OA
ATOM     47  O   UNL A   1      41.398  22.715  28.133  1.00  0.00    -0.744 OA
ENDBRANCH  40  44
ENDBRANCH  23  37
BRANCH  24  48
ATOM     48  C   UNL A   1      40.145  32.699  36.041  1.00  0.00     0.023 A 
ATOM     49  C   UNL A   1      39.249  32.236  37.028  1.00  0.00     0.031 A 
ATOM     50  C   UNL A   1      40.645  34.001  36.161  1.00  0.00     0.131 A 
ATOM     51  C   UNL A   1      38.801  33.105  38.029  1.00  0.00     0.055 A 
ATOM     52  C   UNL A   1      40.255  34.841  37.207  1.00  0.00     0.041 A 
ATOM     53  F   UNL A   1      41.496  34.487  35.244  1.00  0.00    -0.206 F 
ATOM     54  C   UNL A   1      39.307  34.402  38.131  1.00  0.00     0.022 A 
BRANCH  51  55
ATOM     55  S   UNL A   1      37.408  32.638  39.098  1.00  0.00     0.124 S 
ATOM     56  O   UNL A   1      37.768  31.278  39.487  1.00  0.00    -0.237 OA
ATOM     57  O   UNL A   1      37.488  33.640  40.159  1.00  0.00    -0.237 OA
ATOM     58  O   UNL A   1      36.245  32.759  38.225  1.00  0.00    -0.744 OA
ENDBRANCH  51  55
ENDBRANCH  24  48
BRANCH  36  59
ATOM     59  C   UNL A   1      44.461  27.464  34.065  1.00  0.00     0.023 A 
ATOM     60  C   UNL A   1      44.186  26.329  34.851  1.00  0.00     0.031 A 
ATOM     61  C   UNL A   1      45.768  27.978  34.067  1.00  0.00     0.131 A 
ATOM     62  C   UNL A   1      45.185  25.792  35.669  1.00  0.00     0.055 A 
ATOM     63  C   UNL A   1      46.777  27.399  34.837  1.00  0.00     0.041 A 
ATOM     64  F   UNL A   1      46.075  29.060  33.335  1.00  0.00    -0.206 F 
ATOM     65  C   UNL A   1      46.482  26.315  35.660  1.00  0.00     0.022 A 
BRANCH  62  66
ATOM     66  S   UNL A   1      44.803  24.478  36.861  1.00  0.00     0.124 S 
ATOM     67  O   UNL A   1      46.017  24.446  37.673  1.00  0.00    -0.237 OA
ATOM     68  O   UNL A   1      43.618  25.006  37.529  1.00  0.00    -0.237 OA
ATOM     69  O   UNL A   1      44.582  23.301  36.026  1.00  0.00    -0.744 OA
ENDBRANCH  62  66
ENDBRANCH  36  59
ENDBRANCH  10  11
ENDBRANCH   3   5
ENDBRANCH   2   3
ENDBRANCH   1   2
BRANCH   1  70
ATOM     70  C   UNL A   1      31.692  31.580  26.557  1.00  0.00     0.275 C 
BRANCH  70  71
ATOM     71  O   UNL A   1      32.416  30.808  27.527  1.00  0.00    -0.458 OA
BRANCH  71  72
ATOM     72  C   UNL A   1      33.448  30.069  27.032  1.00  0.00     0.338 C 
ATOM     73  O   UNL A   1      34.632  30.292  27.141  1.00  0.00    -0.246 OA
BRANCH  72  74
ATOM     74  C   UNL A   1      32.899  28.838  26.420  1.00  0.00     0.062 A 
ATOM     75  C   UNL A   1      32.027  28.004  27.127  1.00  0.00     0.016 A 
ATOM     76  C   UNL A   1      33.320  28.497  25.129  1.00  0.00     0.042 A 
ATOM     77  C   UNL A   1      31.606  26.801  26.550  1.00  0.00     0.017 A 
ATOM     78  C   UNL A   1      32.975  27.246  24.610  1.00  0.00     0.056 A 
ATOM     79  C   UNL A   1      32.118  26.407  25.309  1.00  0.00     0.064 A 
ATOM     80  N   UNL A   1      33.565  26.786  23.434  1.00  0.00    -0.307 N 
ATOM     81  C   UNL A   1      31.789  25.095  24.722  1.00  0.00     0.264 A 
ATOM     82  C   UNL A   1      33.428  25.509  22.957  1.00  0.00     0.329 A 
ATOM     83  H   UNL A   1      34.114  27.418  22.914  1.00  0.00     0.171 HD
ATOM     84  O   UNL A   1      30.823  24.484  25.165  1.00  0.00    -0.268 OA
ATOM     85  N   UNL A   1      32.570  24.671  23.650  1.00  0.00    -0.255 N 
ATOM     86  O   UNL A   1      34.041  25.195  21.938  1.00  0.00    -0.248 OA
BRANCH  85  87
ATOM     87  C   UNL A   1      32.308  23.347  23.095  1.00  0.00     0.168 C 
BRANCH  87  88
ATOM     88  C   UNL A   1      33.012  22.198  23.772  1.00  0.00    -0.010 A 
ATOM     89  C   UNL A   1      34.400  22.172  23.930  1.00  0.00     0.009 A 
ATOM     90  C   UNL A   1      32.291  21.175  24.385  1.00  0.00     0.116 A 
ATOM     91  C   UNL A   1      34.990  21.179  24.708  1.00  0.00     0.020 A 
ATOM     92  N   UNL A   1      32.835  20.196  25.147  1.00  0.00    -0.264 NA
ATOM     93  C   UNL A   1      34.178  20.225  25.292  1.00  0.00     0.111 A 
ENDBRANCH  87  88
ENDBRANCH  85  87
ENDBRANCH  72  74
ENDBRANCH  71  72
ENDBRANCH  70  71
ENDBRANCH   1  70
TORSDOF 16
ENDMDL
MODEL 3
REMARK VINA RESULT:     -12.1      5.014     10.352
REMARK SMILES O=C(OCCOC(=O)c1ccc2c(=O)n(Cc3cccnc3)c(=O)[nH]c2c1)c1ccc(-c2c3nc(c(-c4cc(S(=O)(=O)[O-])ccc4F)c4ccc([nH]4)c(-c4cc(S(=O)(=O)[O-])ccc4F)c4nc(c(-c5cc(S(=O)(=O)[O-])ccc5F)c5ccc2[nH]5)C=C4)C=C3)cc1
REMARK SMILES IDX 4 1 3 2 2 3 1 4 28 5 29 6 90 7 30 8 89 9 31 10 32 11 33 12
REMARK SMILES IDX 83 13 34 14 88 15 82 16 84 17 35 18 87 19 81 20 80 21 36 23
REMARK SMILES IDX 68 24 48 25 67 26 49 27 52 28 66 29 85 30 50 31 51 32 65 34
REMARK SMILES IDX 86 35 53 36 37 37 38 38 46 39 39 40 45 41 47 42 44 43 40 44
REMARK SMILES IDX 41 45 42 46 43 47 69 48 70 49 78 50 71 51 77 52 79 53 76 54
REMARK SMILES IDX 72 55 73 56 74 57 75 58 54 59 55 60 63 61 56 62 62 63 64 64
REMARK SMILES IDX 61 65 57 66 58 67 59 68 60 69 5 70 6 71 7 72 8 73 9 74 10 75
REMARK SMILES IDX 27 76 11 77 26 78 12 79 25 80 13 81 23 82 14 84 15 85 24 86
REMARK SMILES IDX 16 87 17 88 18 89 22 90 19 91 21 92 20 93
REMARK H PARENT 84 22 52 33 25 83
REMARK Flexibility Score: inf
ROOT
ATOM      1  C   UNL A   1      37.691  21.191  24.719  1.00  0.00     0.275 C 
ENDROOT
BRANCH   1   2
ATOM      2  O   UNL A   1      37.930  22.141  25.771  1.00  0.00    -0.458 OA
BRANCH   2   3
ATOM      3  C   UNL A   1      39.074  22.392  26.452  1.00  0.00     0.338 C 
ATOM      4  O   UNL A   1      39.653  21.452  26.995  1.00  0.00    -0.246 OA
BRANCH   3   5
ATOM      5  C   UNL A   1      39.550  23.777  26.754  1.00  0.00     0.060 A 
ATOM      6  C   UNL A   1      39.598  24.121  28.113  1.00  0.00     0.016 A 
ATOM      7  C   UNL A   1      39.940  24.747  25.828  1.00  0.00     0.016 A 
ATOM      8  C   UNL A   1      39.869  25.431  28.517  1.00  0.00     0.010 A 
ATOM      9  C   UNL A   1      40.228  26.059  26.231  1.00  0.00     0.010 A 
ATOM     10  C   UNL A   1      40.156  26.424  27.575  1.00  0.00    -0.014 A 
BRANCH  10  11
ATOM     11  C   UNL A   1      40.562  27.779  28.019  1.00  0.00     0.031 A 
ATOM     12  C   UNL A   1      39.570  28.835  28.419  1.00  0.00     0.074 A 
ATOM     13  C   UNL A   1      41.878  28.057  28.017  1.00  0.00     0.049 A 
ATOM     14  N   UNL A   1      39.800  30.005  28.955  1.00  0.00    -0.248 NA
ATOM     15  C   UNL A   1      38.143  28.546  28.221  1.00  0.00     0.031 C 
ATOM     16  C   UNL A   1      42.925  27.118  27.613  1.00  0.00     0.029 A 
ATOM     17  N   UNL A   1      42.556  29.206  28.327  1.00  0.00    -0.354 N 
ATOM     18  C   UNL A   1      38.554  30.544  29.251  1.00  0.00     0.074 A 
ATOM     19  C   UNL A   1      37.565  29.609  28.772  1.00  0.00     0.031 C 
ATOM     20  C   UNL A   1      44.110  27.733  27.677  1.00  0.00     0.029 A 
ATOM     21  C   UNL A   1      43.900  29.125  28.060  1.00  0.00     0.049 A 
ATOM     22  H   UNL A   1      42.124  30.006  28.704  1.00  0.00     0.167 HD
ATOM     23  C   UNL A   1      38.278  31.712  29.875  1.00  0.00     0.034 A 
ATOM     24  C   UNL A   1      44.857  30.073  28.064  1.00  0.00     0.034 A 
ATOM     25  C   UNL A   1      39.284  32.692  30.197  1.00  0.00     0.049 A 
ATOM     26  C   UNL A   1      44.503  31.445  28.557  1.00  0.00     0.074 A 
ATOM     27  C   UNL A   1      39.128  33.878  30.888  1.00  0.00     0.029 A 
ATOM     28  N   UNL A   1      40.603  32.640  29.777  1.00  0.00    -0.354 N 
ATOM     29  N   UNL A   1      43.342  31.886  28.984  1.00  0.00    -0.248 NA
ATOM     30  C   UNL A   1      45.575  32.445  28.601  1.00  0.00     0.031 C 
ATOM     31  C   UNL A   1      40.330  34.583  30.807  1.00  0.00     0.029 A 
ATOM     32  C   UNL A   1      41.269  33.789  30.164  1.00  0.00     0.049 A 
ATOM     33  H   UNL A   1      41.008  31.894  29.276  1.00  0.00     0.167 HD
ATOM     34  C   UNL A   1      43.548  33.203  29.372  1.00  0.00     0.074 A 
ATOM     35  C   UNL A   1      44.948  33.487  29.135  1.00  0.00     0.031 C 
ATOM     36  C   UNL A   1      42.658  34.083  29.897  1.00  0.00     0.034 A 
BRANCH  23  37
ATOM     37  C   UNL A   1      36.861  32.030  30.277  1.00  0.00     0.023 A 
ATOM     38  C   UNL A   1      36.093  32.935  29.522  1.00  0.00     0.031 A 
ATOM     39  C   UNL A   1      36.361  31.608  31.522  1.00  0.00     0.131 A 
ATOM     40  C   UNL A   1      34.888  33.426  30.041  1.00  0.00     0.055 A 
ATOM     41  C   UNL A   1      35.149  32.087  32.026  1.00  0.00     0.041 A 
ATOM     42  F   UNL A   1      37.060  30.750  32.281  1.00  0.00    -0.206 F 
ATOM     43  C   UNL A   1      34.413  33.011  31.290  1.00  0.00     0.022 A 
BRANCH  40  44
ATOM     44  S   UNL A   1      33.916  34.662  29.137  1.00  0.00     0.124 S 
ATOM     45  O   UNL A   1      32.724  33.899  28.771  1.00  0.00    -0.237 OA
ATOM     46  O   UNL A   1      33.710  35.691  30.151  1.00  0.00    -0.237 OA
ATOM     47  O   UNL A   1      34.777  35.033  28.020  1.00  0.00    -0.744 OA
ENDBRANCH  40  44
ENDBRANCH  23  37
BRANCH  24  48
ATOM     48  C   UNL A   1      46.212  29.695  27.570  1.00  0.00     0.023 A 
ATOM     49  C   UNL A   1      46.374  29.268  26.235  1.00  0.00     0.031 A 
ATOM     50  C   UNL A   1      47.300  29.566  28.442  1.00  0.00     0.131 A 
ATOM     51  C   UNL A   1      47.559  28.637  25.841  1.00  0.00     0.055 A 
ATOM     52  C   UNL A   1      48.510  29.006  28.024  1.00  0.00     0.041 A 
ATOM     53  F   UNL A   1      47.192  29.953  29.722  1.00  0.00    -0.206 F 
ATOM     54  C   UNL A   1      48.633  28.512  26.726  1.00  0.00     0.022 A 
BRANCH  51  55
ATOM     55  S   UNL A   1      47.662  27.787  24.238  1.00  0.00     0.124 S 
ATOM     56  O   UNL A   1      46.778  28.600  23.409  1.00  0.00    -0.237 OA
ATOM     57  O   UNL A   1      49.087  27.889  23.929  1.00  0.00    -0.237 OA
ATOM     58  O   UNL A   1      47.191  26.437  24.531  1.00  0.00    -0.744 OA
ENDBRANCH  51  55
ENDBRANCH  24  48
BRANCH  36  59
ATOM     59  C   UNL A   1      43.139  35.463  30.258  1.00  0.00     0.023 A 
ATOM     60  C   UNL A   1      43.111  36.484  29.289  1.00  0.00     0.031 A 
ATOM     61  C   UNL A   1      43.783  35.718  31.479  1.00  0.00     0.131 A 
ATOM     62  C   UNL A   1      43.784  37.686  29.527  1.00  0.00     0.055 A 
ATOM     63  C   UNL A   1      44.398  36.943  31.736  1.00  0.00     0.041 A 
ATOM     64  F   UNL A   1      43.836  34.773  32.431  1.00  0.00    -0.206 F 
ATOM     65  C   UNL A   1      44.420  37.926  30.749  1.00  0.00     0.022 A 
BRANCH  62  66
ATOM     66  S   UNL A   1      43.960  38.928  28.216  1.00  0.00     0.124 S 
ATOM     67  O   UNL A   1      44.054  40.167  28.985  1.00  0.00    -0.237 OA
ATOM     68  O   UNL A   1      45.192  38.506  27.559  1.00  0.00    -0.237 OA
ATOM     69  O   UNL A   1      42.743  38.778  27.425  1.00  0.00    -0.744 OA
ENDBRANCH  62  66
ENDBRANCH  36  59
ENDBRANCH  10  11
ENDBRANCH   3   5
ENDBRANCH   2   3
ENDBRANCH   1   2
BRANCH   1  70
ATOM     70  C   UNL A   1      36.562  20.194  24.998  1.00  0.00     0.275 C 
BRANCH  70  71
ATOM     71  O   UNL A   1      35.356  20.792  25.499  1.00  0.00    -0.458 OA
BRANCH  71  72
ATOM     72  C   UNL A   1      34.283  20.732  24.661  1.00  0.00     0.338 C 
ATOM     73  O   UNL A   1      33.693  19.743  24.292  1.00  0.00    -0.246 OA
BRANCH  72  74
ATOM     74  C   UNL A   1      33.848  22.111  24.348  1.00  0.00     0.062 A 
ATOM     75  C   UNL A   1      34.589  22.926  23.486  1.00  0.00     0.016 A 
ATOM     76  C   UNL A   1      32.701  22.603  24.981  1.00  0.00     0.042 A 
ATOM     77  C   UNL A   1      34.198  24.255  23.289  1.00  0.00     0.017 A 
ATOM     78  C   UNL A   1      32.384  23.958  24.858  1.00  0.00     0.056 A 
ATOM     79  C   UNL A   1      33.120  24.777  24.013  1.00  0.00     0.064 A 
ATOM     80  N   UNL A   1      31.391  24.524  25.656  1.00  0.00    -0.307 N 
ATOM     81  C   UNL A   1      32.750  26.202  23.921  1.00  0.00     0.264 A 
ATOM     82  C   UNL A   1      31.144  25.870  25.733  1.00  0.00     0.329 A 
ATOM     83  H   UNL A   1      30.832  23.919  26.196  1.00  0.00     0.171 HD
ATOM     84  O   UNL A   1      33.181  26.857  22.977  1.00  0.00    -0.268 OA
ATOM     85  N   UNL A   1      31.874  26.689  24.887  1.00  0.00    -0.255 N 
ATOM     86  O   UNL A   1      30.280  26.263  26.515  1.00  0.00    -0.248 OA
BRANCH  85  87
ATOM     87  C   UNL A   1      31.545  28.111  24.858  1.00  0.00     0.168 C 
BRANCH  87  88
ATOM     88  C   UNL A   1      32.276  28.976  25.854  1.00  0.00    -0.010 A 
ATOM     89  C   UNL A   1      33.476  28.571  26.445  1.00  0.00     0.009 A 
ATOM     90  C   UNL A   1      31.850  30.276  26.124  1.00  0.00     0.116 A 
ATOM     91  C   UNL A   1      34.201  29.468  27.224  1.00  0.00     0.020 A 
ATOM     92  N   UNL A   1      32.533  31.170  26.878  1.00  0.00    -0.264 NA
ATOM     93  C   UNL A   1      33.699  30.742  27.409  1.00  0.00     0.111 A 
ENDBRANCH  87  88
ENDBRANCH  85  87
ENDBRANCH  72  74
ENDBRANCH  71  72
ENDBRANCH  70  71
ENDBRANCH   1  70
TORSDOF 16
ENDMDL
