MODEL 1
REMARK VINA RESULT:     -12.8      0.000      0.000
REMARK SMILES NS(=O)(=O)c1ccc(-n2nc(C(=O)OCCOC(=O)c3ccc(-c4c5nc(c(-c6cc(S(=O)(=O)[O-])ccc6F)c6ccc([nH]6)c(-c6cc(S(=O)(=O)[O-])ccc6F)c6nc(c(-c7cc(S(=O)(=O)[O-])ccc7F)c7ccc4[nH]7)C=C6)C=C5)cc3)cc2-c2cc3ccccc3s2)cc1
REMARK SMILES IDX 15 1 14 2 12 3 13 4 11 5 9 6 10 7 84 8 83 9 8 10 5 11 6 12
REMARK SMILES IDX 95 13 7 14 94 15 2 16 3 17 4 18 1 19 85 22 86 23 93 24 87 25
REMARK SMILES IDX 92 26 88 27 91 28 89 29 90 30 16 31 17 32 18 33 19 34 20 35
REMARK SMILES IDX 21 36 82 37 22 38 81 39 23 40 24 41 25 42 75 43 26 44 80 45
REMARK SMILES IDX 74 46 76 47 27 48 79 49 73 50 72 51 28 53 60 54 40 55 59 56
REMARK SMILES IDX 41 57 44 58 58 59 77 60 42 61 43 62 57 64 78 65 45 66 29 67
REMARK SMILES IDX 30 68 38 69 31 70 37 71 39 72 36 73 32 74 33 75 34 76 35 77
REMARK SMILES IDX 61 78 62 79 70 80 63 81 69 82 71 83 68 84 64 85 65 86 66 87
REMARK SMILES IDX 67 88 46 89 47 90 55 91 48 92 54 93 56 94 53 95 49 96 50 97
REMARK SMILES IDX 51 98 52 99
REMARK H PARENT 1 20 1 21 76 52 44 63
REMARK Flexibility Score: inf
ROOT
ATOM      1  C   UNL A   1      41.389  22.284  26.201  1.00  0.00     0.275 C 
ENDROOT
BRANCH   1   2
ATOM      2  O   UNL A   1      39.960  22.436  26.156  1.00  0.00    -0.457 OA
BRANCH   2   3
ATOM      3  C   UNL A   1      39.208  21.321  25.857  1.00  0.00     0.358 C 
ATOM      4  O   UNL A   1      39.609  20.170  25.997  1.00  0.00    -0.244 OA
BRANCH   3   5
ATOM      5  C   UNL A   1      37.875  21.699  25.356  1.00  0.00     0.171 A 
ATOM      6  N   UNL A   1      36.053  22.775  25.109  1.00  0.00    -0.231 N 
ATOM      7  N   UNL A   1      37.396  22.957  25.247  1.00  0.00    -0.160 NA
ATOM      8  C   UNL A   1      35.710  21.451  25.238  1.00  0.00     0.085 A 
ATOM      9  C   UNL A   1      36.881  20.772  24.970  1.00  0.00     0.068 A 
BRANCH   6  10
ATOM     10  C   UNL A   1      35.197  23.834  24.769  1.00  0.00     0.065 A 
ATOM     11  C   UNL A   1      33.630  26.022  24.113  1.00  0.00     0.082 A 
ATOM     12  C   UNL A   1      34.010  25.112  23.116  1.00  0.00     0.024 A 
ATOM     13  C   UNL A   1      34.033  25.843  25.440  1.00  0.00     0.024 A 
ATOM     14  C   UNL A   1      34.815  24.021  23.440  1.00  0.00     0.030 A 
ATOM     15  C   UNL A   1      34.805  24.728  25.776  1.00  0.00     0.030 A 
BRANCH  11  16
ATOM     16  S   UNL A   1      32.611  27.385  23.630  1.00  0.00     0.238 S 
ATOM     17  O   UNL A   1      33.118  27.902  22.374  1.00  0.00    -0.207 OA
ATOM     18  O   UNL A   1      32.403  28.225  24.781  1.00  0.00    -0.207 OA
BRANCH  16  19
ATOM     19  N   UNL A   1      31.118  26.714  23.272  1.00  0.00    -0.225 NA
ATOM     20  H   UNL A   1      30.692  27.225  22.500  1.00  0.00     0.137 HD
ATOM     21  H   UNL A   1      30.513  26.772  24.093  1.00  0.00     0.137 HD
ENDBRANCH  16  19
ENDBRANCH  11  16
ENDBRANCH   6  10
BRANCH   8  22
ATOM     22  C   UNL A   1      34.543  20.849  25.834  1.00  0.00     0.054 A 
ATOM     23  C   UNL A   1      33.465  21.530  26.394  1.00  0.00     0.031 A 
ATOM     24  S   UNL A   1      33.771  19.621  24.836  1.00  0.00    -0.134 S 
ATOM     25  C   UNL A   1      32.554  21.813  25.289  1.00  0.00    -0.007 A 
ATOM     26  C   UNL A   1      32.767  20.912  24.231  1.00  0.00     0.035 A 
ATOM     27  C   UNL A   1      31.687  22.905  25.068  1.00  0.00     0.009 A 
ATOM     28  C   UNL A   1      32.272  21.136  22.938  1.00  0.00     0.019 A 
ATOM     29  C   UNL A   1      31.223  23.158  23.772  1.00  0.00     0.001 A 
ATOM     30  C   UNL A   1      31.546  22.309  22.717  1.00  0.00     0.001 A 
ENDBRANCH   8  22
ENDBRANCH   3   5
ENDBRANCH   2   3
ENDBRANCH   1   2
BRANCH   1  31
ATOM     31  C   UNL A   1      42.071  23.634  26.379  1.00  0.00     0.275 C 
BRANCH  31  32
ATOM     32  O   UNL A   1      41.091  24.623  26.671  1.00  0.00    -0.458 OA
BRANCH  32  33
ATOM     33  C   UNL A   1      41.216  25.777  25.976  1.00  0.00     0.338 C 
ATOM     34  O   UNL A   1      41.961  25.983  25.033  1.00  0.00    -0.246 OA
BRANCH  33  35
ATOM     35  C   UNL A   1      40.412  26.811  26.627  1.00  0.00     0.060 A 
ATOM     36  C   UNL A   1      40.756  28.132  26.335  1.00  0.00     0.016 A 
ATOM     37  C   UNL A   1      39.695  26.450  27.774  1.00  0.00     0.016 A 
ATOM     38  C   UNL A   1      40.665  29.048  27.355  1.00  0.00     0.010 A 
ATOM     39  C   UNL A   1      39.632  27.355  28.794  1.00  0.00     0.010 A 
ATOM     40  C   UNL A   1      40.223  28.599  28.603  1.00  0.00    -0.014 A 
BRANCH  40  41
ATOM     41  C   UNL A   1      40.277  29.500  29.728  1.00  0.00     0.031 A 
ATOM     42  C   UNL A   1      39.029  30.278  29.844  1.00  0.00     0.074 A 
ATOM     43  C   UNL A   1      41.288  29.476  30.618  1.00  0.00     0.049 A 
ATOM     44  N   UNL A   1      38.857  31.525  29.566  1.00  0.00    -0.248 NA
ATOM     45  C   UNL A   1      37.773  29.527  30.031  1.00  0.00     0.031 C 
ATOM     46  C   UNL A   1      42.424  28.556  30.698  1.00  0.00     0.029 A 
ATOM     47  N   UNL A   1      41.450  30.240  31.725  1.00  0.00    -0.354 N 
ATOM     48  C   UNL A   1      37.515  31.765  29.823  1.00  0.00     0.074 A 
ATOM     49  C   UNL A   1      36.871  30.483  29.813  1.00  0.00     0.031 C 
ATOM     50  C   UNL A   1      43.005  28.666  31.919  1.00  0.00     0.029 A 
ATOM     51  C   UNL A   1      42.362  29.744  32.653  1.00  0.00     0.049 A 
ATOM     52  H   UNL A   1      40.961  31.083  31.863  1.00  0.00     0.167 HD
ATOM     53  C   UNL A   1      37.113  32.950  30.354  1.00  0.00     0.034 A 
ATOM     54  C   UNL A   1      42.489  30.153  33.949  1.00  0.00     0.034 A 
ATOM     55  C   UNL A   1      38.132  33.964  30.179  1.00  0.00     0.049 A 
ATOM     56  C   UNL A   1      41.876  31.510  34.018  1.00  0.00     0.074 A 
ATOM     57  C   UNL A   1      38.779  34.495  29.079  1.00  0.00     0.029 A 
ATOM     58  N   UNL A   1      38.931  34.271  31.260  1.00  0.00    -0.354 N 
ATOM     59  N   UNL A   1      42.366  32.541  33.380  1.00  0.00    -0.248 NA
ATOM     60  C   UNL A   1      40.450  31.598  34.317  1.00  0.00     0.031 C 
ATOM     61  C   UNL A   1      40.142  34.621  29.481  1.00  0.00     0.029 A 
ATOM     62  C   UNL A   1      40.239  34.261  30.827  1.00  0.00     0.049 A 
ATOM     63  H   UNL A   1      38.624  34.463  32.175  1.00  0.00     0.167 HD
ATOM     64  C   UNL A   1      41.269  33.185  32.826  1.00  0.00     0.074 A 
ATOM     65  C   UNL A   1      40.108  32.600  33.498  1.00  0.00     0.031 C 
ATOM     66  C   UNL A   1      41.371  33.900  31.664  1.00  0.00     0.034 A 
BRANCH  53  67
ATOM     67  C   UNL A   1      36.005  33.073  31.373  1.00  0.00     0.023 A 
ATOM     68  C   UNL A   1      34.912  33.883  31.023  1.00  0.00     0.031 A 
ATOM     69  C   UNL A   1      36.078  32.697  32.737  1.00  0.00     0.131 A 
ATOM     70  C   UNL A   1      34.028  34.360  32.003  1.00  0.00     0.055 A 
ATOM     71  C   UNL A   1      35.154  33.116  33.695  1.00  0.00     0.041 A 
ATOM     72  F   UNL A   1      37.088  31.987  33.251  1.00  0.00    -0.206 F 
ATOM     73  C   UNL A   1      34.139  33.982  33.339  1.00  0.00     0.022 A 
BRANCH  70  74
ATOM     74  S   UNL A   1      32.839  35.637  31.528  1.00  0.00     0.124 S 
ATOM     75  O   UNL A   1      33.615  36.854  31.736  1.00  0.00    -0.237 OA
ATOM     76  O   UNL A   1      32.560  35.280  30.140  1.00  0.00    -0.237 OA
ATOM     77  O   UNL A   1      31.733  35.432  32.460  1.00  0.00    -0.744 OA
ENDBRANCH  70  74
ENDBRANCH  53  67
BRANCH  54  78
ATOM     78  C   UNL A   1      42.693  29.273  35.145  1.00  0.00     0.023 A 
ATOM     79  C   UNL A   1      41.941  28.102  35.397  1.00  0.00     0.031 A 
ATOM     80  C   UNL A   1      43.832  29.471  35.962  1.00  0.00     0.131 A 
ATOM     81  C   UNL A   1      42.333  27.203  36.426  1.00  0.00     0.055 A 
ATOM     82  C   UNL A   1      44.213  28.583  36.970  1.00  0.00     0.041 A 
ATOM     83  F   UNL A   1      44.668  30.499  35.753  1.00  0.00    -0.206 F 
ATOM     84  C   UNL A   1      43.469  27.440  37.203  1.00  0.00     0.022 A 
BRANCH  81  85
ATOM     85  S   UNL A   1      41.406  25.661  36.737  1.00  0.00     0.124 S 
ATOM     86  O   UNL A   1      40.779  25.407  35.445  1.00  0.00    -0.237 OA
ATOM     87  O   UNL A   1      42.459  24.735  37.140  1.00  0.00    -0.237 OA
ATOM     88  O   UNL A   1      40.477  26.028  37.807  1.00  0.00    -0.744 OA
ENDBRANCH  81  85
ENDBRANCH  54  78
BRANCH  66  89
ATOM     89  C   UNL A   1      42.756  34.177  31.100  1.00  0.00     0.023 A 
ATOM     90  C   UNL A   1      43.394  33.420  30.087  1.00  0.00     0.031 A 
ATOM     91  C   UNL A   1      43.399  35.349  31.533  1.00  0.00     0.131 A 
ATOM     92  C   UNL A   1      44.633  33.846  29.559  1.00  0.00     0.055 A 
ATOM     93  C   UNL A   1      44.611  35.779  30.993  1.00  0.00     0.041 A 
ATOM     94  F   UNL A   1      42.833  36.127  32.471  1.00  0.00    -0.206 F 
ATOM     95  C   UNL A   1      45.235  35.026  30.008  1.00  0.00     0.022 A 
BRANCH  92  96
ATOM     96  S   UNL A   1      45.502  32.866  28.288  1.00  0.00     0.124 S 
ATOM     97  O   UNL A   1      45.246  31.487  28.686  1.00  0.00    -0.237 OA
ATOM     98  O   UNL A   1      44.858  33.306  27.053  1.00  0.00    -0.237 OA
ATOM     99  O   UNL A   1      46.897  33.290  28.426  1.00  0.00    -0.744 OA
ENDBRANCH  92  96
ENDBRANCH  66  89
ENDBRANCH  40  41
ENDBRANCH  33  35
ENDBRANCH  32  33
ENDBRANCH  31  32
ENDBRANCH   1  31
TORSDOF 18
ENDMDL
MODEL 2
REMARK VINA RESULT:     -12.6      4.226     10.233
REMARK SMILES NS(=O)(=O)c1ccc(-n2nc(C(=O)OCCOC(=O)c3ccc(-c4c5nc(c(-c6cc(S(=O)(=O)[O-])ccc6F)c6ccc([nH]6)c(-c6cc(S(=O)(=O)[O-])ccc6F)c6nc(c(-c7cc(S(=O)(=O)[O-])ccc7F)c7ccc4[nH]7)C=C6)C=C5)cc3)cc2-c2cc3ccccc3s2)cc1
REMARK SMILES IDX 15 1 14 2 12 3 13 4 11 5 9 6 10 7 84 8 83 9 8 10 5 11 6 12
REMARK SMILES IDX 95 13 7 14 94 15 2 16 3 17 4 18 1 19 85 22 86 23 93 24 87 25
REMARK SMILES IDX 92 26 88 27 91 28 89 29 90 30 16 31 17 32 18 33 19 34 20 35
REMARK SMILES IDX 21 36 82 37 22 38 81 39 23 40 24 41 25 42 75 43 26 44 80 45
REMARK SMILES IDX 74 46 76 47 27 48 79 49 73 50 72 51 28 53 60 54 40 55 59 56
REMARK SMILES IDX 41 57 44 58 58 59 77 60 42 61 43 62 57 64 78 65 45 66 29 67
REMARK SMILES IDX 30 68 38 69 31 70 37 71 39 72 36 73 32 74 33 75 34 76 35 77
REMARK SMILES IDX 61 78 62 79 70 80 63 81 69 82 71 83 68 84 64 85 65 86 66 87
REMARK SMILES IDX 67 88 46 89 47 90 55 91 48 92 54 93 56 94 53 95 49 96 50 97
REMARK SMILES IDX 51 98 52 99
REMARK H PARENT 1 20 1 21 76 52 44 63
REMARK Flexibility Score: inf
ROOT
ATOM      1  C   UNL A   1      36.030  32.319  28.212  1.00  0.00     0.275 C 
ENDROOT
BRANCH   1   2
ATOM      2  O   UNL A   1      35.305  31.212  27.648  1.00  0.00    -0.457 OA
BRANCH   2   3
ATOM      3  C   UNL A   1      33.945  31.357  27.479  1.00  0.00     0.358 C 
ATOM      4  O   UNL A   1      33.325  32.372  27.779  1.00  0.00    -0.244 OA
BRANCH   3   5
ATOM      5  C   UNL A   1      33.351  30.142  26.895  1.00  0.00     0.171 A 
ATOM      6  N   UNL A   1      33.178  28.170  26.108  1.00  0.00    -0.231 N 
ATOM      7  N   UNL A   1      33.757  28.873  27.120  1.00  0.00    -0.160 NA
ATOM      8  C   UNL A   1      32.526  29.000  25.228  1.00  0.00     0.085 A 
ATOM      9  C   UNL A   1      32.294  30.148  25.958  1.00  0.00     0.068 A 
BRANCH   6  10
ATOM     10  C   UNL A   1      33.189  26.767  26.085  1.00  0.00     0.065 A 
ATOM     11  C   UNL A   1      33.106  24.002  25.923  1.00  0.00     0.082 A 
ATOM     12  C   UNL A   1      34.227  24.696  25.444  1.00  0.00     0.024 A 
ATOM     13  C   UNL A   1      32.023  24.687  26.482  1.00  0.00     0.024 A 
ATOM     14  C   UNL A   1      34.263  26.089  25.507  1.00  0.00     0.030 A 
ATOM     15  C   UNL A   1      32.073  26.079  26.584  1.00  0.00     0.030 A 
BRANCH  11  16
ATOM     16  S   UNL A   1      33.127  22.238  25.809  1.00  0.00     0.238 S 
ATOM     17  O   UNL A   1      34.506  21.813  25.669  1.00  0.00    -0.207 OA
ATOM     18  O   UNL A   1      32.099  21.831  24.886  1.00  0.00    -0.207 OA
BRANCH  16  19
ATOM     19  N   UNL A   1      32.637  21.692  27.315  1.00  0.00    -0.225 NA
ATOM     20  H   UNL A   1      33.344  21.063  27.696  1.00  0.00     0.137 HD
ATOM     21  H   UNL A   1      31.751  21.193  27.225  1.00  0.00     0.137 HD
ENDBRANCH  16  19
ENDBRANCH  11  16
ENDBRANCH   6  10
BRANCH   8  22
ATOM     22  C   UNL A   1      32.388  28.909  23.796  1.00  0.00     0.054 A 
ATOM     23  C   UNL A   1      32.770  27.831  23.003  1.00  0.00     0.031 A 
ATOM     24  S   UNL A   1      30.779  29.301  23.196  1.00  0.00    -0.134 S 
ATOM     25  C   UNL A   1      31.637  26.910  23.007  1.00  0.00    -0.007 A 
ATOM     26  C   UNL A   1      30.448  27.594  23.313  1.00  0.00     0.035 A 
ATOM     27  C   UNL A   1      31.597  25.501  22.944  1.00  0.00     0.009 A 
ATOM     28  C   UNL A   1      29.273  26.930  23.698  1.00  0.00     0.019 A 
ATOM     29  C   UNL A   1      30.442  24.830  23.366  1.00  0.00     0.001 A 
ATOM     30  C   UNL A   1      29.314  25.536  23.775  1.00  0.00     0.001 A 
ENDBRANCH   8  22
ENDBRANCH   3   5
ENDBRANCH   2   3
ENDBRANCH   1   2
BRANCH   1  31
ATOM     31  C   UNL A   1      36.300  32.091  29.692  1.00  0.00     0.275 C 
BRANCH  31  32
ATOM     32  O   UNL A   1      37.340  31.132  29.840  1.00  0.00    -0.458 OA
BRANCH  32  33
ATOM     33  C   UNL A   1      36.937  29.904  30.239  1.00  0.00     0.338 C 
ATOM     34  O   UNL A   1      36.097  29.652  31.087  1.00  0.00    -0.246 OA
BRANCH  33  35
ATOM     35  C   UNL A   1      37.775  28.896  29.591  1.00  0.00     0.060 A 
ATOM     36  C   UNL A   1      38.313  27.915  30.426  1.00  0.00     0.016 A 
ATOM     37  C   UNL A   1      38.322  29.212  28.342  1.00  0.00     0.016 A 
ATOM     38  C   UNL A   1      39.587  27.481  30.151  1.00  0.00     0.010 A 
ATOM     39  C   UNL A   1      39.598  28.800  28.086  1.00  0.00     0.010 A 
ATOM     40  C   UNL A   1      40.247  28.038  29.052  1.00  0.00    -0.014 A 
BRANCH  40  41
ATOM     41  C   UNL A   1      41.638  27.725  28.840  1.00  0.00     0.031 A 
ATOM     42  C   UNL A   1      41.790  26.441  28.129  1.00  0.00     0.074 A 
ATOM     43  C   UNL A   1      42.622  28.599  29.126  1.00  0.00     0.049 A 
ATOM     44  N   UNL A   1      42.188  25.317  28.621  1.00  0.00    -0.248 NA
ATOM     45  C   UNL A   1      41.178  26.326  26.792  1.00  0.00     0.031 C 
ATOM     46  C   UNL A   1      42.519  29.983  29.594  1.00  0.00     0.029 A 
ATOM     47  N   UNL A   1      43.957  28.447  28.955  1.00  0.00    -0.354 N 
ATOM     48  C   UNL A   1      42.137  24.426  27.559  1.00  0.00     0.074 A 
ATOM     49  C   UNL A   1      41.258  25.012  26.588  1.00  0.00     0.031 C 
ATOM     50  C   UNL A   1      43.714  30.603  29.430  1.00  0.00     0.029 A 
ATOM     51  C   UNL A   1      44.691  29.631  28.965  1.00  0.00     0.049 A 
ATOM     52  H   UNL A   1      44.379  27.566  28.832  1.00  0.00     0.167 HD
ATOM     53  C   UNL A   1      43.078  23.455  27.425  1.00  0.00     0.034 A 
ATOM     54  C   UNL A   1      45.976  29.782  28.532  1.00  0.00     0.034 A 
ATOM     55  C   UNL A   1      43.773  23.236  28.676  1.00  0.00     0.049 A 
ATOM     56  C   UNL A   1      46.581  28.419  28.548  1.00  0.00     0.074 A 
ATOM     57  C   UNL A   1      43.367  22.889  29.952  1.00  0.00     0.029 A 
ATOM     58  N   UNL A   1      45.025  23.794  28.828  1.00  0.00    -0.354 N 
ATOM     59  N   UNL A   1      46.766  27.740  29.650  1.00  0.00    -0.248 NA
ATOM     60  C   UNL A   1      46.459  27.606  27.342  1.00  0.00     0.031 C 
ATOM     61  C   UNL A   1      44.144  23.711  30.821  1.00  0.00     0.029 A 
ATOM     62  C   UNL A   1      45.049  24.440  30.044  1.00  0.00     0.049 A 
ATOM     63  H   UNL A   1      45.767  23.740  28.184  1.00  0.00     0.167 HD
ATOM     64  C   UNL A   1      46.357  26.447  29.357  1.00  0.00     0.074 A 
ATOM     65  C   UNL A   1      46.246  26.407  27.898  1.00  0.00     0.031 C 
ATOM     66  C   UNL A   1      45.845  25.623  30.322  1.00  0.00     0.034 A 
BRANCH  53  67
ATOM     67  C   UNL A   1      43.637  23.014  26.093  1.00  0.00     0.023 A 
ATOM     68  C   UNL A   1      43.649  21.634  25.838  1.00  0.00     0.031 A 
ATOM     69  C   UNL A   1      44.401  23.810  25.203  1.00  0.00     0.131 A 
ATOM     70  C   UNL A   1      44.462  21.097  24.827  1.00  0.00     0.055 A 
ATOM     71  C   UNL A   1      45.150  23.276  24.154  1.00  0.00     0.041 A 
ATOM     72  F   UNL A   1      44.553  25.131  25.344  1.00  0.00    -0.206 F 
ATOM     73  C   UNL A   1      45.213  21.908  23.981  1.00  0.00     0.022 A 
BRANCH  70  74
ATOM     74  S   UNL A   1      44.662  19.301  24.761  1.00  0.00     0.124 S 
ATOM     75  O   UNL A   1      45.971  19.127  25.382  1.00  0.00    -0.237 OA
ATOM     76  O   UNL A   1      43.515  18.845  25.539  1.00  0.00    -0.237 OA
ATOM     77  O   UNL A   1      44.603  19.007  23.331  1.00  0.00    -0.744 OA
ENDBRANCH  70  74
ENDBRANCH  53  67
BRANCH  54  78
ATOM     78  C   UNL A   1      46.514  30.919  27.719  1.00  0.00     0.023 A 
ATOM     79  C   UNL A   1      45.709  31.761  26.916  1.00  0.00     0.031 A 
ATOM     80  C   UNL A   1      47.852  31.337  27.915  1.00  0.00     0.131 A 
ATOM     81  C   UNL A   1      46.252  32.947  26.349  1.00  0.00     0.055 A 
ATOM     82  C   UNL A   1      48.378  32.505  27.358  1.00  0.00     0.041 A 
ATOM     83  F   UNL A   1      48.678  30.665  28.731  1.00  0.00    -0.206 F 
ATOM     84  C   UNL A   1      47.578  33.320  26.578  1.00  0.00     0.022 A 
BRANCH  81  85
ATOM     85  S   UNL A   1      45.219  34.075  25.350  1.00  0.00     0.124 S 
ATOM     86  O   UNL A   1      44.429  33.148  24.549  1.00  0.00    -0.237 OA
ATOM     87  O   UNL A   1      44.498  34.830  26.369  1.00  0.00    -0.237 OA
ATOM     88  O   UNL A   1      46.198  34.857  24.593  1.00  0.00    -0.744 OA
ENDBRANCH  81  85
ENDBRANCH  54  78
BRANCH  66  89
ATOM     89  C   UNL A   1      45.941  26.059  31.776  1.00  0.00     0.023 A 
ATOM     90  C   UNL A   1      44.881  26.612  32.537  1.00  0.00     0.031 A 
ATOM     91  C   UNL A   1      47.141  25.776  32.449  1.00  0.00     0.131 A 
ATOM     92  C   UNL A   1      45.058  26.866  33.914  1.00  0.00     0.055 A 
ATOM     93  C   UNL A   1      47.304  26.008  33.815  1.00  0.00     0.041 A 
ATOM     94  F   UNL A   1      48.175  25.225  31.791  1.00  0.00    -0.206 F 
ATOM     95  C   UNL A   1      46.264  26.559  34.551  1.00  0.00     0.022 A 
BRANCH  92  96
ATOM     96  S   UNL A   1      43.728  27.623  34.910  1.00  0.00     0.124 S 
ATOM     97  O   UNL A   1      43.953  27.084  36.246  1.00  0.00    -0.237 OA
ATOM     98  O   UNL A   1      43.982  29.052  34.745  1.00  0.00    -0.237 OA
ATOM     99  O   UNL A   1      42.504  27.148  34.261  1.00  0.00    -0.744 OA
ENDBRANCH  92  96
ENDBRANCH  66  89
ENDBRANCH  40  41
ENDBRANCH  33  35
ENDBRANCH  32  33
ENDBRANCH  31  32
ENDBRANCH   1  31
TORSDOF 18
ENDMDL
MODEL 3
REMARK VINA RESULT:     -12.5      4.362     10.351
REMARK SMILES NS(=O)(=O)c1ccc(-n2nc(C(=O)OCCOC(=O)c3ccc(-c4c5nc(c(-c6cc(S(=O)(=O)[O-])ccc6F)c6ccc([nH]6)c(-c6cc(S(=O)(=O)[O-])ccc6F)c6nc(c(-c7cc(S(=O)(=O)[O-])ccc7F)c7ccc4[nH]7)C=C6)C=C5)cc3)cc2-c2cc3ccccc3s2)cc1
REMARK SMILES IDX 15 1 14 2 12 3 13 4 11 5 9 6 10 7 84 8 83 9 8 10 5 11 6 12
REMARK SMILES IDX 95 13 7 14 94 15 2 16 3 17 4 18 1 19 85 22 86 23 93 24 87 25
REMARK SMILES IDX 92 26 88 27 91 28 89 29 90 30 16 31 17 32 18 33 19 34 20 35
REMARK SMILES IDX 21 36 82 37 22 38 81 39 23 40 24 41 25 42 75 43 26 44 80 45
REMARK SMILES IDX 74 46 76 47 27 48 79 49 73 50 72 51 28 53 60 54 40 55 59 56
REMARK SMILES IDX 41 57 44 58 58 59 77 60 42 61 43 62 57 64 78 65 45 66 29 67
REMARK SMILES IDX 30 68 38 69 31 70 37 71 39 72 36 73 32 74 33 75 34 76 35 77
REMARK SMILES IDX 61 78 62 79 70 80 63 81 69 82 71 83 68 84 64 85 65 86 66 87
REMARK SMILES IDX 67 88 46 89 47 90 55 91 48 92 54 93 56 94 53 95 49 96 50 97
REMARK SMILES IDX 51 98 52 99
REMARK H PARENT 1 20 1 21 76 52 44 63
REMARK Flexibility Score: inf
ROOT
ATOM      1  C   UNL A   1      35.871  32.553  28.068  1.00  0.00     0.275 C 
ENDROOT
BRANCH   1   2
ATOM      2  O   UNL A   1      35.145  31.462  27.476  1.00  0.00    -0.457 OA
BRANCH   2   3
ATOM      3  C   UNL A   1      33.769  31.521  27.500  1.00  0.00     0.358 C 
ATOM      4  O   UNL A   1      33.135  32.468  27.954  1.00  0.00    -0.244 OA
BRANCH   3   5
ATOM      5  C   UNL A   1      33.176  30.308  26.910  1.00  0.00     0.171 A 
ATOM      6  N   UNL A   1      33.010  28.354  26.080  1.00  0.00    -0.231 N 
ATOM      7  N   UNL A   1      33.616  29.044  27.086  1.00  0.00    -0.160 NA
ATOM      8  C   UNL A   1      32.306  29.191  25.249  1.00  0.00     0.085 A 
ATOM      9  C   UNL A   1      32.081  30.316  26.017  1.00  0.00     0.068 A 
BRANCH   6  10
ATOM     10  C   UNL A   1      33.048  26.952  26.022  1.00  0.00     0.065 A 
ATOM     11  C   UNL A   1      33.226  24.187  26.026  1.00  0.00     0.082 A 
ATOM     12  C   UNL A   1      32.068  24.813  26.510  1.00  0.00     0.024 A 
ATOM     13  C   UNL A   1      34.299  24.940  25.540  1.00  0.00     0.024 A 
ATOM     14  C   UNL A   1      31.983  26.204  26.527  1.00  0.00     0.030 A 
ATOM     15  C   UNL A   1      34.202  26.334  25.517  1.00  0.00     0.030 A 
BRANCH  11  16
ATOM     16  S   UNL A   1      33.264  22.419  26.037  1.00  0.00     0.238 S 
ATOM     17  O   UNL A   1      34.268  21.997  26.994  1.00  0.00    -0.207 OA
ATOM     18  O   UNL A   1      33.259  21.958  24.672  1.00  0.00    -0.207 OA
BRANCH  16  19
ATOM     19  N   UNL A   1      31.794  21.950  26.688  1.00  0.00    -0.225 NA
ATOM     20  H   UNL A   1      31.586  22.521  27.507  1.00  0.00     0.137 HD
ATOM     21  H   UNL A   1      31.840  20.968  26.962  1.00  0.00     0.137 HD
ENDBRANCH  16  19
ENDBRANCH  11  16
ENDBRANCH   6  10
BRANCH   8  22
ATOM     22  C   UNL A   1      32.111  29.132  23.822  1.00  0.00     0.054 A 
ATOM     23  C   UNL A   1      32.604  28.151  22.967  1.00  0.00     0.031 A 
ATOM     24  S   UNL A   1      30.434  29.306  23.312  1.00  0.00    -0.134 S 
ATOM     25  C   UNL A   1      31.618  27.074  22.982  1.00  0.00    -0.007 A 
ATOM     26  C   UNL A   1      30.359  27.565  23.370  1.00  0.00     0.035 A 
ATOM     27  C   UNL A   1      31.779  25.678  22.861  1.00  0.00     0.009 A 
ATOM     28  C   UNL A   1      29.314  26.723  23.777  1.00  0.00     0.019 A 
ATOM     29  C   UNL A   1      30.756  24.830  23.304  1.00  0.00     0.001 A 
ATOM     30  C   UNL A   1      29.559  25.349  23.793  1.00  0.00     0.001 A 
ENDBRANCH   8  22
ENDBRANCH   3   5
ENDBRANCH   2   3
ENDBRANCH   1   2
BRANCH   1  31
ATOM     31  C   UNL A   1      36.347  32.191  29.468  1.00  0.00     0.275 C 
BRANCH  31  32
ATOM     32  O   UNL A   1      37.387  31.225  29.377  1.00  0.00    -0.458 OA
BRANCH  32  33
ATOM     33  C   UNL A   1      37.063  29.988  29.819  1.00  0.00     0.338 C 
ATOM     34  O   UNL A   1      36.303  29.718  30.733  1.00  0.00    -0.246 OA
BRANCH  33  35
ATOM     35  C   UNL A   1      37.886  29.004  29.117  1.00  0.00     0.060 A 
ATOM     36  C   UNL A   1      38.269  27.883  29.857  1.00  0.00     0.016 A 
ATOM     37  C   UNL A   1      38.571  29.428  27.973  1.00  0.00     0.016 A 
ATOM     38  C   UNL A   1      39.529  27.383  29.637  1.00  0.00     0.010 A 
ATOM     39  C   UNL A   1      39.833  28.946  27.775  1.00  0.00     0.010 A 
ATOM     40  C   UNL A   1      40.329  28.017  28.683  1.00  0.00    -0.014 A 
BRANCH  40  41
ATOM     41  C   UNL A   1      41.709  27.617  28.551  1.00  0.00     0.031 A 
ATOM     42  C   UNL A   1      41.822  26.332  27.835  1.00  0.00     0.074 A 
ATOM     43  C   UNL A   1      42.726  28.424  28.906  1.00  0.00     0.049 A 
ATOM     44  N   UNL A   1      42.117  25.181  28.337  1.00  0.00    -0.248 NA
ATOM     45  C   UNL A   1      41.286  26.267  26.462  1.00  0.00     0.031 C 
ATOM     46  C   UNL A   1      42.683  29.808  29.384  1.00  0.00     0.029 A 
ATOM     47  N   UNL A   1      44.058  28.189  28.814  1.00  0.00    -0.354 N 
ATOM     48  C   UNL A   1      42.075  24.304  27.263  1.00  0.00     0.074 A 
ATOM     49  C   UNL A   1      41.296  24.952  26.248  1.00  0.00     0.031 C 
ATOM     50  C   UNL A   1      43.922  30.351  29.300  1.00  0.00     0.029 A 
ATOM     51  C   UNL A   1      44.862  29.323  28.883  1.00  0.00     0.049 A 
ATOM     52  H   UNL A   1      44.429  27.283  28.706  1.00  0.00     0.167 HD
ATOM     53  C   UNL A   1      42.959  23.276  27.174  1.00  0.00     0.034 A 
ATOM     54  C   UNL A   1      46.178  29.395  28.530  1.00  0.00     0.034 A 
ATOM     55  C   UNL A   1      43.561  23.002  28.462  1.00  0.00     0.049 A 
ATOM     56  C   UNL A   1      46.694  27.996  28.565  1.00  0.00     0.074 A 
ATOM     57  C   UNL A   1      43.058  22.671  29.707  1.00  0.00     0.029 A 
ATOM     58  N   UNL A   1      44.834  23.478  28.695  1.00  0.00    -0.354 N 
ATOM     59  N   UNL A   1      46.768  27.298  29.669  1.00  0.00    -0.248 NA
ATOM     60  C   UNL A   1      46.594  27.203  27.345  1.00  0.00     0.031 C 
ATOM     61  C   UNL A   1      43.831  23.435  30.631  1.00  0.00     0.029 A 
ATOM     62  C   UNL A   1      44.825  24.111  29.919  1.00  0.00     0.049 A 
ATOM     63  H   UNL A   1      45.610  23.382  28.097  1.00  0.00     0.167 HD
ATOM     64  C   UNL A   1      46.297  26.037  29.336  1.00  0.00     0.074 A 
ATOM     65  C   UNL A   1      46.273  26.016  27.872  1.00  0.00     0.031 C 
ATOM     66  C   UNL A   1      45.676  25.239  30.258  1.00  0.00     0.034 A 
BRANCH  53  67
ATOM     67  C   UNL A   1      43.569  22.811  25.873  1.00  0.00     0.023 A 
ATOM     68  C   UNL A   1      43.599  21.426  25.648  1.00  0.00     0.031 A 
ATOM     69  C   UNL A   1      44.360  23.593  24.994  1.00  0.00     0.131 A 
ATOM     70  C   UNL A   1      44.452  20.873  24.679  1.00  0.00     0.055 A 
ATOM     71  C   UNL A   1      45.150  23.043  23.985  1.00  0.00     0.041 A 
ATOM     72  F   UNL A   1      44.498  24.918  25.112  1.00  0.00    -0.206 F 
ATOM     73  C   UNL A   1      45.228  21.672  23.843  1.00  0.00     0.022 A 
BRANCH  70  74
ATOM     74  S   UNL A   1      44.666  19.078  24.658  1.00  0.00     0.124 S 
ATOM     75  O   UNL A   1      43.360  18.620  25.122  1.00  0.00    -0.237 OA
ATOM     76  O   UNL A   1      44.973  18.832  23.253  1.00  0.00    -0.237 OA
ATOM     77  O   UNL A   1      45.772  18.859  25.586  1.00  0.00    -0.744 OA
ENDBRANCH  70  74
ENDBRANCH  53  67
BRANCH  54  78
ATOM     78  C   UNL A   1      46.836  30.502  27.764  1.00  0.00     0.023 A 
ATOM     79  C   UNL A   1      46.127  31.556  27.140  1.00  0.00     0.031 A 
ATOM     80  C   UNL A   1      48.241  30.654  27.837  1.00  0.00     0.131 A 
ATOM     81  C   UNL A   1      46.822  32.683  26.623  1.00  0.00     0.055 A 
ATOM     82  C   UNL A   1      48.918  31.765  27.329  1.00  0.00     0.041 A 
ATOM     83  F   UNL A   1      49.004  29.761  28.486  1.00  0.00    -0.206 F 
ATOM     84  C   UNL A   1      48.211  32.789  26.725  1.00  0.00     0.022 A 
BRANCH  81  85
ATOM     85  S   UNL A   1      45.924  34.078  25.859  1.00  0.00     0.124 S 
ATOM     86  O   UNL A   1      46.904  34.599  24.913  1.00  0.00    -0.237 OA
ATOM     87  O   UNL A   1      44.752  33.425  25.287  1.00  0.00    -0.237 OA
ATOM     88  O   UNL A   1      45.636  34.963  26.990  1.00  0.00    -0.744 OA
ENDBRANCH  81  85
ENDBRANCH  54  78
BRANCH  66  89
ATOM     89  C   UNL A   1      45.711  25.656  31.720  1.00  0.00     0.023 A 
ATOM     90  C   UNL A   1      46.813  25.485  32.594  1.00  0.00     0.031 A 
ATOM     91  C   UNL A   1      44.608  26.379  32.204  1.00  0.00     0.131 A 
ATOM     92  C   UNL A   1      46.770  26.023  33.899  1.00  0.00     0.055 A 
ATOM     93  C   UNL A   1      44.579  26.929  33.486  1.00  0.00     0.041 A 
ATOM     94  F   UNL A   1      43.543  26.601  31.416  1.00  0.00    -0.206 F 
ATOM     95  C   UNL A   1      45.658  26.747  34.340  1.00  0.00     0.022 A 
BRANCH  92  96
ATOM     96  S   UNL A   1      48.153  25.777  35.065  1.00  0.00     0.124 S 
ATOM     97  O   UNL A   1      49.116  26.799  34.673  1.00  0.00    -0.237 OA
ATOM     98  O   UNL A   1      47.511  25.968  36.364  1.00  0.00    -0.237 OA
ATOM     99  O   UNL A   1      48.583  24.402  34.799  1.00  0.00    -0.744 OA
ENDBRANCH  92  96
ENDBRANCH  66  89
ENDBRANCH  40  41
ENDBRANCH  33  35
ENDBRANCH  32  33
ENDBRANCH  31  32
ENDBRANCH   1  31
TORSDOF 18
ENDMDL
