MODEL 1
REMARK VINA RESULT:     -12.1      0.000      0.000
REMARK SMILES CC(C)[C@H]1CC[C@@H](C)/C(=C/c2ccc(NC(=O)CCC(=O)OCCOC(=O)c3ccc(-c4c5nc(c(-c6cc(S(=O)(=O)[O-])ccc6F)c6ccc([nH]6)c(-c6cc(S(=O)(=O)[O-])ccc6F)c6nc(c(-c7cc(S(=O)(=O)[O-])ccc7F)c7ccc4[nH]7)C=C6)C=C5)cc3)cc2)C1=O
REMARK SMILES IDX 23 1 22 2 20 3 21 4 19 5 18 6 16 7 15 8 17 10 14 11 11 12
REMARK SMILES IDX 12 13 92 14 13 15 91 16 10 17 4 18 5 19 93 20 6 21 9 22
REMARK SMILES IDX 94 23 7 24 8 25 2 26 1 27 3 28 24 29 25 30 26 31 27 32 28 33
REMARK SMILES IDX 29 34 90 35 30 36 89 37 31 38 32 39 33 40 83 41 34 42 88 43
REMARK SMILES IDX 82 44 84 45 35 46 87 47 81 48 80 49 36 51 68 52 48 53 67 54
REMARK SMILES IDX 49 55 52 56 66 57 85 58 50 59 51 60 65 62 86 63 53 64 37 65
REMARK SMILES IDX 38 66 46 67 39 68 45 69 47 70 44 71 40 72 41 73 42 74 43 75
REMARK SMILES IDX 69 76 70 77 78 78 71 79 77 80 79 81 76 82 72 83 73 84 74 85
REMARK SMILES IDX 75 86 54 87 55 88 63 89 56 90 62 91 64 92 61 93 57 94 58 95
REMARK SMILES IDX 59 96 60 97
REMARK H PARENT 15 9 84 50 52 61
REMARK Flexibility Score: inf
ROOT
ATOM      1  C   UNL A   1      37.686  19.882  24.983  1.00  0.00     0.274 C 
ENDROOT
BRANCH   1   2
ATOM      2  O   UNL A   1      37.626  21.327  24.989  1.00  0.00    -0.462 OA
BRANCH   2   3
ATOM      3  C   UNL A   1      36.421  21.869  25.315  1.00  0.00     0.306 C 
ATOM      4  O   UNL A   1      36.261  23.037  25.657  1.00  0.00    -0.252 OA
BRANCH   3   5
ATOM      5  C   UNL A   1      35.292  20.860  25.316  1.00  0.00     0.132 C 
BRANCH   5   6
ATOM      6  C   UNL A   1      34.032  21.243  24.535  1.00  0.00     0.112 C 
BRANCH   6   7
ATOM      7  C   UNL A   1      32.790  20.596  25.113  1.00  0.00     0.224 C 
ATOM      8  N   UNL A   1      31.855  21.274  25.839  1.00  0.00    -0.326 N 
ATOM      9  H   UNL A   1      31.097  20.719  26.135  1.00  0.00     0.169 HD
ATOM     10  O   UNL A   1      32.557  19.404  24.869  1.00  0.00    -0.275 OA
BRANCH   8  11
ATOM     11  C   UNL A   1      31.775  22.615  26.243  1.00  0.00     0.041 A 
ATOM     12  C   UNL A   1      31.412  25.378  26.436  1.00  0.00    -0.025 A 
ATOM     13  C   UNL A   1      32.693  24.834  26.540  1.00  0.00     0.010 A 
ATOM     14  C   UNL A   1      30.304  24.526  26.460  1.00  0.00     0.010 A 
ATOM     15  C   UNL A   1      32.874  23.446  26.446  1.00  0.00     0.027 A 
ATOM     16  C   UNL A   1      30.488  23.143  26.385  1.00  0.00     0.027 A 
BRANCH  12  17
ATOM     17  C   UNL A   1      31.236  26.785  26.055  1.00  0.00     0.015 C 
ATOM     18  C   UNL A   1      33.067  26.757  23.081  1.00  0.00     0.063 C 
ATOM     19  C   UNL A   1      32.988  28.206  22.570  1.00  0.00     0.013 C 
ATOM     20  C   UNL A   1      31.719  26.442  23.703  1.00  0.00     0.162 C 
ATOM     21  C   UNL A   1      32.692  29.172  23.737  1.00  0.00     0.009 C 
ATOM     22  C   UNL A   1      31.386  27.329  24.840  1.00  0.00    -0.001 C 
ATOM     23  O   UNL A   1      30.943  25.572  23.337  1.00  0.00    -0.294 OA
ATOM     24  C   UNL A   1      31.428  28.810  24.551  1.00  0.00     0.020 C 
ATOM     25  C   UNL A   1      30.156  29.294  23.854  1.00  0.00     0.013 C 
BRANCH  18  26
ATOM     26  C   UNL A   1      33.583  25.732  22.050  1.00  0.00    -0.007 C 
ATOM     27  C   UNL A   1      33.798  24.375  22.735  1.00  0.00     0.008 C 
ATOM     28  C   UNL A   1      32.716  25.554  20.803  1.00  0.00     0.008 C 
ENDBRANCH  18  26
ENDBRANCH  12  17
ENDBRANCH   8  11
ENDBRANCH   6   7
ENDBRANCH   5   6
ENDBRANCH   3   5
ENDBRANCH   2   3
ENDBRANCH   1   2
BRANCH   1  29
ATOM     29  C   UNL A   1      38.977  19.315  25.593  1.00  0.00     0.275 C 
BRANCH  29  30
ATOM     30  O   UNL A   1      40.099  20.221  25.619  1.00  0.00    -0.458 OA
BRANCH  30  31
ATOM     31  C   UNL A   1      40.602  20.430  26.848  1.00  0.00     0.338 C 
ATOM     32  O   UNL A   1      40.829  19.576  27.694  1.00  0.00    -0.246 OA
BRANCH  31  33
ATOM     33  C   UNL A   1      40.893  21.818  27.156  1.00  0.00     0.060 A 
ATOM     34  C   UNL A   1      41.662  22.076  28.293  1.00  0.00     0.016 A 
ATOM     35  C   UNL A   1      40.262  22.844  26.451  1.00  0.00     0.016 A 
ATOM     36  C   UNL A   1      41.858  23.391  28.692  1.00  0.00     0.010 A 
ATOM     37  C   UNL A   1      40.457  24.159  26.849  1.00  0.00     0.010 A 
ATOM     38  C   UNL A   1      41.287  24.434  27.946  1.00  0.00    -0.014 A 
BRANCH  38  39
ATOM     39  C   UNL A   1      41.772  25.811  28.147  1.00  0.00     0.031 A 
ATOM     40  C   UNL A   1      40.931  26.859  28.792  1.00  0.00     0.074 A 
ATOM     41  C   UNL A   1      43.000  26.073  27.665  1.00  0.00     0.049 A 
ATOM     42  N   UNL A   1      41.237  28.101  29.056  1.00  0.00    -0.248 NA
ATOM     43  C   UNL A   1      39.566  26.473  29.175  1.00  0.00     0.031 C 
ATOM     44  C   UNL A   1      43.853  25.096  26.976  1.00  0.00     0.029 A 
ATOM     45  N   UNL A   1      43.742  27.219  27.667  1.00  0.00    -0.354 N 
ATOM     46  C   UNL A   1      40.109  28.653  29.648  1.00  0.00     0.074 A 
ATOM     47  C   UNL A   1      39.098  27.614  29.667  1.00  0.00     0.031 C 
ATOM     48  C   UNL A   1      45.004  25.684  26.629  1.00  0.00     0.029 A 
ATOM     49  C   UNL A   1      44.960  27.077  27.049  1.00  0.00     0.049 A 
ATOM     50  H   UNL A   1      43.436  28.061  28.072  1.00  0.00     0.167 HD
ATOM     51  C   UNL A   1      39.951  29.912  30.127  1.00  0.00     0.034 A 
ATOM     52  C   UNL A   1      45.935  27.978  26.839  1.00  0.00     0.034 A 
ATOM     53  C   UNL A   1      40.983  30.922  30.051  1.00  0.00     0.049 A 
ATOM     54  C   UNL A   1      45.739  29.357  27.391  1.00  0.00     0.074 A 
ATOM     55  C   UNL A   1      40.964  32.221  30.532  1.00  0.00     0.029 A 
ATOM     56  N   UNL A   1      42.220  30.750  29.434  1.00  0.00    -0.354 N 
ATOM     57  N   UNL A   1      44.695  29.850  28.016  1.00  0.00    -0.248 NA
ATOM     58  C   UNL A   1      46.856  30.291  27.233  1.00  0.00     0.031 C 
ATOM     59  C   UNL A   1      42.159  32.847  30.154  1.00  0.00     0.029 A 
ATOM     60  C   UNL A   1      42.955  31.925  29.491  1.00  0.00     0.049 A 
ATOM     61  H   UNL A   1      42.527  29.914  29.015  1.00  0.00     0.167 HD
ATOM     62  C   UNL A   1      45.030  31.158  28.337  1.00  0.00     0.074 A 
ATOM     63  C   UNL A   1      46.385  31.363  27.855  1.00  0.00     0.031 C 
ATOM     64  C   UNL A   1      44.291  32.105  28.969  1.00  0.00     0.034 A 
BRANCH  51  65
ATOM     65  C   UNL A   1      38.610  30.266  30.724  1.00  0.00     0.023 A 
ATOM     66  C   UNL A   1      37.619  30.929  29.978  1.00  0.00     0.031 A 
ATOM     67  C   UNL A   1      38.324  29.961  32.067  1.00  0.00     0.131 A 
ATOM     68  C   UNL A   1      36.417  31.319  30.592  1.00  0.00     0.055 A 
ATOM     69  C   UNL A   1      37.101  30.291  32.654  1.00  0.00     0.041 A 
ATOM     70  F   UNL A   1      39.236  29.347  32.837  1.00  0.00    -0.206 F 
ATOM     71  C   UNL A   1      36.144  30.987  31.920  1.00  0.00     0.022 A 
BRANCH  68  72
ATOM     72  S   UNL A   1      35.269  32.377  29.668  1.00  0.00     0.124 S 
ATOM     73  O   UNL A   1      36.175  33.371  29.099  1.00  0.00    -0.237 OA
ATOM     74  O   UNL A   1      34.671  31.443  28.722  1.00  0.00    -0.237 OA
ATOM     75  O   UNL A   1      34.366  32.886  30.698  1.00  0.00    -0.744 OA
ENDBRANCH  68  72
ENDBRANCH  51  65
BRANCH  52  76
ATOM     76  C   UNL A   1      47.157  27.580  26.095  1.00  0.00     0.023 A 
ATOM     77  C   UNL A   1      47.271  27.804  24.716  1.00  0.00     0.031 A 
ATOM     78  C   UNL A   1      48.253  27.012  26.770  1.00  0.00     0.131 A 
ATOM     79  C   UNL A   1      48.450  27.442  24.049  1.00  0.00     0.055 A 
ATOM     80  C   UNL A   1      49.438  26.689  26.108  1.00  0.00     0.041 A 
ATOM     81  F   UNL A   1      48.199  26.800  28.095  1.00  0.00    -0.206 F 
ATOM     82  C   UNL A   1      49.538  26.897  24.737  1.00  0.00     0.022 A 
BRANCH  79  83
ATOM     83  S   UNL A   1      48.530  27.659  22.250  1.00  0.00     0.124 S 
ATOM     84  O   UNL A   1      48.668  26.283  21.789  1.00  0.00    -0.237 OA
ATOM     85  O   UNL A   1      47.254  28.307  21.968  1.00  0.00    -0.237 OA
ATOM     86  O   UNL A   1      49.710  28.501  22.061  1.00  0.00    -0.744 OA
ENDBRANCH  79  83
ENDBRANCH  52  76
BRANCH  64  87
ATOM     87  C   UNL A   1      44.961  33.438  29.163  1.00  0.00     0.023 A 
ATOM     88  C   UNL A   1      44.750  34.497  28.263  1.00  0.00     0.031 A 
ATOM     89  C   UNL A   1      45.855  33.634  30.229  1.00  0.00     0.131 A 
ATOM     90  C   UNL A   1      45.477  35.687  28.407  1.00  0.00     0.055 A 
ATOM     91  C   UNL A   1      46.534  34.840  30.399  1.00  0.00     0.041 A 
ATOM     92  F   UNL A   1      46.092  32.651  31.112  1.00  0.00    -0.206 F 
ATOM     93  C   UNL A   1      46.357  35.871  29.477  1.00  0.00     0.022 A 
BRANCH  90  94
ATOM     94  S   UNL A   1      45.327  36.955  27.121  1.00  0.00     0.124 S 
ATOM     95  O   UNL A   1      43.958  36.753  26.654  1.00  0.00    -0.237 OA
ATOM     96  O   UNL A   1      45.570  38.186  27.865  1.00  0.00    -0.237 OA
ATOM     97  O   UNL A   1      46.368  36.595  26.161  1.00  0.00    -0.744 OA
ENDBRANCH  90  94
ENDBRANCH  64  87
ENDBRANCH  38  39
ENDBRANCH  31  33
ENDBRANCH  30  31
ENDBRANCH  29  30
ENDBRANCH   1  29
TORSDOF 19
ENDMDL
MODEL 2
REMARK VINA RESULT:     -12.0      4.814      8.294
REMARK SMILES CC(C)[C@H]1CC[C@@H](C)/C(=C/c2ccc(NC(=O)CCC(=O)OCCOC(=O)c3ccc(-c4c5nc(c(-c6cc(S(=O)(=O)[O-])ccc6F)c6ccc([nH]6)c(-c6cc(S(=O)(=O)[O-])ccc6F)c6nc(c(-c7cc(S(=O)(=O)[O-])ccc7F)c7ccc4[nH]7)C=C6)C=C5)cc3)cc2)C1=O
REMARK SMILES IDX 23 1 22 2 20 3 21 4 19 5 18 6 16 7 15 8 17 10 14 11 11 12
REMARK SMILES IDX 12 13 92 14 13 15 91 16 10 17 4 18 5 19 93 20 6 21 9 22
REMARK SMILES IDX 94 23 7 24 8 25 2 26 1 27 3 28 24 29 25 30 26 31 27 32 28 33
REMARK SMILES IDX 29 34 90 35 30 36 89 37 31 38 32 39 33 40 83 41 34 42 88 43
REMARK SMILES IDX 82 44 84 45 35 46 87 47 81 48 80 49 36 51 68 52 48 53 67 54
REMARK SMILES IDX 49 55 52 56 66 57 85 58 50 59 51 60 65 62 86 63 53 64 37 65
REMARK SMILES IDX 38 66 46 67 39 68 45 69 47 70 44 71 40 72 41 73 42 74 43 75
REMARK SMILES IDX 69 76 70 77 78 78 71 79 77 80 79 81 76 82 72 83 73 84 74 85
REMARK SMILES IDX 75 86 54 87 55 88 63 89 56 90 62 91 64 92 61 93 57 94 58 95
REMARK SMILES IDX 59 96 60 97
REMARK H PARENT 15 9 84 50 52 61
REMARK Flexibility Score: inf
ROOT
ATOM      1  C   UNL A   1      31.379  29.543  25.415  1.00  0.00     0.274 C 
ENDROOT
BRANCH   1   2
ATOM      2  O   UNL A   1      30.630  29.792  24.205  1.00  0.00    -0.462 OA
BRANCH   2   3
ATOM      3  C   UNL A   1      30.886  28.953  23.164  1.00  0.00     0.306 C 
ATOM      4  O   UNL A   1      30.046  28.226  22.642  1.00  0.00    -0.252 OA
BRANCH   3   5
ATOM      5  C   UNL A   1      32.347  28.921  22.768  1.00  0.00     0.132 C 
BRANCH   5   6
ATOM      6  C   UNL A   1      33.020  27.547  22.742  1.00  0.00     0.112 C 
BRANCH   6   7
ATOM      7  C   UNL A   1      33.642  27.196  24.077  1.00  0.00     0.224 C 
ATOM      8  N   UNL A   1      33.644  25.936  24.601  1.00  0.00    -0.326 N 
ATOM      9  H   UNL A   1      34.100  25.864  25.471  1.00  0.00     0.169 HD
ATOM     10  O   UNL A   1      34.244  28.071  24.715  1.00  0.00    -0.275 OA
BRANCH   8  11
ATOM     11  C   UNL A   1      33.117  24.726  24.128  1.00  0.00     0.041 A 
ATOM     12  C   UNL A   1      32.298  22.082  23.750  1.00  0.00    -0.025 A 
ATOM     13  C   UNL A   1      33.268  22.637  22.915  1.00  0.00     0.010 A 
ATOM     14  C   UNL A   1      31.587  22.914  24.620  1.00  0.00     0.010 A 
ATOM     15  C   UNL A   1      33.677  23.966  23.104  1.00  0.00     0.027 A 
ATOM     16  C   UNL A   1      31.985  24.242  24.792  1.00  0.00     0.027 A 
BRANCH  12  17
ATOM     17  C   UNL A   1      32.198  20.624  23.899  1.00  0.00     0.015 C 
ATOM     18  C   UNL A   1      35.547  19.940  24.619  1.00  0.00     0.063 C 
ATOM     19  C   UNL A   1      35.598  18.411  24.780  1.00  0.00     0.013 C 
ATOM     20  C   UNL A   1      34.226  20.394  25.211  1.00  0.00     0.162 C 
ATOM     21  C   UNL A   1      34.417  17.752  24.035  1.00  0.00     0.009 C 
ATOM     22  C   UNL A   1      33.053  19.805  24.526  1.00  0.00    -0.001 C 
ATOM     23  O   UNL A   1      34.084  21.151  26.160  1.00  0.00    -0.294 OA
ATOM     24  C   UNL A   1      33.030  18.298  24.445  1.00  0.00     0.020 C 
ATOM     25  C   UNL A   1      32.539  17.662  25.745  1.00  0.00     0.013 C 
BRANCH  18  26
ATOM     26  C   UNL A   1      36.797  20.688  25.124  1.00  0.00    -0.007 C 
ATOM     27  C   UNL A   1      38.029  19.780  24.999  1.00  0.00     0.008 C 
ATOM     28  C   UNL A   1      37.076  22.037  24.458  1.00  0.00     0.008 C 
ENDBRANCH  18  26
ENDBRANCH  12  17
ENDBRANCH   8  11
ENDBRANCH   6   7
ENDBRANCH   5   6
ENDBRANCH   3   5
ENDBRANCH   2   3
ENDBRANCH   1   2
BRANCH   1  29
ATOM     29  C   UNL A   1      32.032  30.801  26.008  1.00  0.00     0.275 C 
BRANCH  29  30
ATOM     30  O   UNL A   1      32.759  30.600  27.238  1.00  0.00    -0.458 OA
BRANCH  30  31
ATOM     31  C   UNL A   1      33.677  31.550  27.488  1.00  0.00     0.338 C 
ATOM     32  O   UNL A   1      33.560  32.748  27.270  1.00  0.00    -0.246 OA
BRANCH  31  33
ATOM     33  C   UNL A   1      34.909  31.061  28.081  1.00  0.00     0.060 A 
ATOM     34  C   UNL A   1      35.955  31.974  28.234  1.00  0.00     0.016 A 
ATOM     35  C   UNL A   1      35.093  29.695  28.298  1.00  0.00     0.016 A 
ATOM     36  C   UNL A   1      37.188  31.521  28.680  1.00  0.00     0.010 A 
ATOM     37  C   UNL A   1      36.327  29.240  28.743  1.00  0.00     0.010 A 
ATOM     38  C   UNL A   1      37.362  30.159  28.971  1.00  0.00    -0.014 A 
BRANCH  38  39
ATOM     39  C   UNL A   1      38.530  29.736  29.765  1.00  0.00     0.031 A 
ATOM     40  C   UNL A   1      38.804  30.287  31.122  1.00  0.00     0.074 A 
ATOM     41  C   UNL A   1      39.358  28.863  29.164  1.00  0.00     0.049 A 
ATOM     42  N   UNL A   1      39.777  29.988  31.941  1.00  0.00    -0.248 NA
ATOM     43  C   UNL A   1      37.884  31.318  31.620  1.00  0.00     0.031 C 
ATOM     44  C   UNL A   1      39.166  28.326  27.810  1.00  0.00     0.029 A 
ATOM     45  N   UNL A   1      40.515  28.279  29.592  1.00  0.00    -0.354 N 
ATOM     46  C   UNL A   1      39.587  30.783  33.064  1.00  0.00     0.074 A 
ATOM     47  C   UNL A   1      38.423  31.607  32.798  1.00  0.00     0.031 C 
ATOM     48  C   UNL A   1      40.168  27.486  27.524  1.00  0.00     0.029 A 
ATOM     49  C   UNL A   1      41.079  27.444  28.659  1.00  0.00     0.049 A 
ATOM     50  H   UNL A   1      40.905  28.439  30.481  1.00  0.00     0.167 HD
ATOM     51  C   UNL A   1      40.324  30.808  34.202  1.00  0.00     0.034 A 
ATOM     52  C   UNL A   1      42.213  26.725  28.713  1.00  0.00     0.034 A 
ATOM     53  C   UNL A   1      41.498  29.987  34.401  1.00  0.00     0.049 A 
ATOM     54  C   UNL A   1      43.000  26.761  29.987  1.00  0.00     0.074 A 
ATOM     55  C   UNL A   1      42.309  29.890  35.519  1.00  0.00     0.029 A 
ATOM     56  N   UNL A   1      42.043  29.134  33.445  1.00  0.00    -0.354 N 
ATOM     57  N   UNL A   1      42.772  27.463  31.074  1.00  0.00    -0.248 NA
ATOM     58  C   UNL A   1      44.180  25.896  30.055  1.00  0.00     0.031 C 
ATOM     59  C   UNL A   1      43.371  29.027  35.218  1.00  0.00     0.029 A 
ATOM     60  C   UNL A   1      43.194  28.534  33.934  1.00  0.00     0.049 A 
ATOM     61  H   UNL A   1      41.665  28.979  32.549  1.00  0.00     0.167 HD
ATOM     62  C   UNL A   1      43.778  27.117  31.964  1.00  0.00     0.074 A 
ATOM     63  C   UNL A   1      44.598  26.125  31.291  1.00  0.00     0.031 C 
ATOM     64  C   UNL A   1      44.008  27.575  33.222  1.00  0.00     0.034 A 
BRANCH  51  65
ATOM     65  C   UNL A   1      39.905  31.777  35.281  1.00  0.00     0.023 A 
ATOM     66  C   UNL A   1      39.060  31.390  36.337  1.00  0.00     0.031 A 
ATOM     67  C   UNL A   1      40.333  33.116  35.242  1.00  0.00     0.131 A 
ATOM     68  C   UNL A   1      38.621  32.341  37.273  1.00  0.00     0.055 A 
ATOM     69  C   UNL A   1      39.948  34.043  36.214  1.00  0.00     0.041 A 
ATOM     70  F   UNL A   1      41.124  33.552  34.249  1.00  0.00    -0.206 F 
ATOM     71  C   UNL A   1      39.076  33.660  37.230  1.00  0.00     0.022 A 
BRANCH  68  72
ATOM     72  S   UNL A   1      37.349  31.859  38.473  1.00  0.00     0.124 S 
ATOM     73  O   UNL A   1      38.044  32.064  39.741  1.00  0.00    -0.237 OA
ATOM     74  O   UNL A   1      36.269  32.793  38.180  1.00  0.00    -0.237 OA
ATOM     75  O   UNL A   1      37.074  30.463  38.141  1.00  0.00    -0.744 OA
ENDBRANCH  68  72
ENDBRANCH  51  65
BRANCH  52  76
ATOM     76  C   UNL A   1      42.632  25.923  27.536  1.00  0.00     0.023 A 
ATOM     77  C   UNL A   1      42.259  24.579  27.404  1.00  0.00     0.031 A 
ATOM     78  C   UNL A   1      43.375  26.512  26.496  1.00  0.00     0.131 A 
ATOM     79  C   UNL A   1      42.647  23.858  26.265  1.00  0.00     0.055 A 
ATOM     80  C   UNL A   1      43.727  25.802  25.348  1.00  0.00     0.041 A 
ATOM     81  F   UNL A   1      43.736  27.804  26.566  1.00  0.00    -0.206 F 
ATOM     82  C   UNL A   1      43.369  24.463  25.232  1.00  0.00     0.022 A 
BRANCH  79  83
ATOM     83  S   UNL A   1      42.228  22.097  26.169  1.00  0.00     0.124 S 
ATOM     84  O   UNL A   1      42.704  21.605  27.457  1.00  0.00    -0.237 OA
ATOM     85  O   UNL A   1      40.781  22.140  25.994  1.00  0.00    -0.237 OA
ATOM     86  O   UNL A   1      42.981  21.631  25.007  1.00  0.00    -0.744 OA
ENDBRANCH  79  83
ENDBRANCH  52  76
BRANCH  64  87
ATOM     87  C   UNL A   1      45.200  26.986  33.926  1.00  0.00     0.023 A 
ATOM     88  C   UNL A   1      45.140  25.713  34.517  1.00  0.00     0.031 A 
ATOM     89  C   UNL A   1      46.389  27.725  34.048  1.00  0.00     0.131 A 
ATOM     90  C   UNL A   1      46.229  25.240  35.263  1.00  0.00     0.055 A 
ATOM     91  C   UNL A   1      47.490  27.226  34.744  1.00  0.00     0.041 A 
ATOM     92  F   UNL A   1      46.493  28.948  33.503  1.00  0.00    -0.206 F 
ATOM     93  C   UNL A   1      47.409  25.983  35.369  1.00  0.00     0.022 A 
BRANCH  90  94
ATOM     94  S   UNL A   1      46.047  23.683  36.173  1.00  0.00     0.124 S 
ATOM     95  O   UNL A   1      46.279  22.692  35.126  1.00  0.00    -0.237 OA
ATOM     96  O   UNL A   1      47.087  23.791  37.190  1.00  0.00    -0.237 OA
ATOM     97  O   UNL A   1      44.677  23.740  36.679  1.00  0.00    -0.744 OA
ENDBRANCH  90  94
ENDBRANCH  64  87
ENDBRANCH  38  39
ENDBRANCH  31  33
ENDBRANCH  30  31
ENDBRANCH  29  30
ENDBRANCH   1  29
TORSDOF 19
ENDMDL
MODEL 3
REMARK VINA RESULT:     -11.9      4.882      7.985
REMARK SMILES CC(C)[C@H]1CC[C@@H](C)/C(=C/c2ccc(NC(=O)CCC(=O)OCCOC(=O)c3ccc(-c4c5nc(c(-c6cc(S(=O)(=O)[O-])ccc6F)c6ccc([nH]6)c(-c6cc(S(=O)(=O)[O-])ccc6F)c6nc(c(-c7cc(S(=O)(=O)[O-])ccc7F)c7ccc4[nH]7)C=C6)C=C5)cc3)cc2)C1=O
REMARK SMILES IDX 23 1 22 2 20 3 21 4 19 5 18 6 16 7 15 8 17 10 14 11 11 12
REMARK SMILES IDX 12 13 92 14 13 15 91 16 10 17 4 18 5 19 93 20 6 21 9 22
REMARK SMILES IDX 94 23 7 24 8 25 2 26 1 27 3 28 24 29 25 30 26 31 27 32 28 33
REMARK SMILES IDX 29 34 90 35 30 36 89 37 31 38 32 39 33 40 83 41 34 42 88 43
REMARK SMILES IDX 82 44 84 45 35 46 87 47 81 48 80 49 36 51 68 52 48 53 67 54
REMARK SMILES IDX 49 55 52 56 66 57 85 58 50 59 51 60 65 62 86 63 53 64 37 65
REMARK SMILES IDX 38 66 46 67 39 68 45 69 47 70 44 71 40 72 41 73 42 74 43 75
REMARK SMILES IDX 69 76 70 77 78 78 71 79 77 80 79 81 76 82 72 83 73 84 74 85
REMARK SMILES IDX 75 86 54 87 55 88 63 89 56 90 62 91 64 92 61 93 57 94 58 95
REMARK SMILES IDX 59 96 60 97
REMARK H PARENT 15 9 84 50 52 61
REMARK Flexibility Score: inf
ROOT
ATOM      1  C   UNL A   1      31.453  29.181  26.290  1.00  0.00     0.274 C 
ENDROOT
BRANCH   1   2
ATOM      2  O   UNL A   1      31.655  28.035  27.148  1.00  0.00    -0.462 OA
BRANCH   2   3
ATOM      3  C   UNL A   1      32.195  26.936  26.552  1.00  0.00     0.306 C 
ATOM      4  O   UNL A   1      31.617  25.859  26.441  1.00  0.00    -0.252 OA
BRANCH   3   5
ATOM      5  C   UNL A   1      33.633  27.135  26.121  1.00  0.00     0.132 C 
BRANCH   5   6
ATOM      6  C   UNL A   1      34.028  26.548  24.765  1.00  0.00     0.112 C 
BRANCH   6   7
ATOM      7  C   UNL A   1      33.269  27.196  23.625  1.00  0.00     0.224 C 
ATOM      8  N   UNL A   1      32.538  26.495  22.710  1.00  0.00    -0.326 N 
ATOM      9  H   UNL A   1      32.091  27.058  22.038  1.00  0.00     0.169 HD
ATOM     10  O   UNL A   1      33.242  28.431  23.538  1.00  0.00    -0.275 OA
BRANCH   8  11
ATOM     11  C   UNL A   1      32.308  25.121  22.551  1.00  0.00     0.041 A 
ATOM     12  C   UNL A   1      32.020  22.360  22.862  1.00  0.00    -0.025 A 
ATOM     13  C   UNL A   1      33.008  22.866  22.016  1.00  0.00     0.010 A 
ATOM     14  C   UNL A   1      31.046  23.224  23.371  1.00  0.00     0.010 A 
ATOM     15  C   UNL A   1      33.149  24.253  21.858  1.00  0.00     0.027 A 
ATOM     16  C   UNL A   1      31.181  24.603  23.196  1.00  0.00     0.027 A 
BRANCH  12  17
ATOM     17  C   UNL A   1      32.145  21.004  23.413  1.00  0.00     0.015 C 
ATOM     18  C   UNL A   1      35.470  21.171  24.474  1.00  0.00     0.063 C 
ATOM     19  C   UNL A   1      35.752  19.780  25.065  1.00  0.00     0.013 C 
ATOM     20  C   UNL A   1      34.038  21.516  24.842  1.00  0.00     0.162 C 
ATOM     21  C   UNL A   1      34.777  18.737  24.476  1.00  0.00     0.009 C 
ATOM     22  C   UNL A   1      33.053  20.558  24.292  1.00  0.00    -0.001 C 
ATOM     23  O   UNL A   1      33.678  22.461  25.528  1.00  0.00    -0.294 OA
ATOM     24  C   UNL A   1      33.285  19.107  24.640  1.00  0.00     0.020 C 
ATOM     25  C   UNL A   1      32.774  18.766  26.040  1.00  0.00     0.013 C 
BRANCH  18  26
ATOM     26  C   UNL A   1      36.522  22.247  24.811  1.00  0.00    -0.007 C 
ATOM     27  C   UNL A   1      37.854  21.571  25.171  1.00  0.00     0.008 C 
ATOM     28  C   UNL A   1      36.752  23.310  23.736  1.00  0.00     0.008 C 
ENDBRANCH  18  26
ENDBRANCH  12  17
ENDBRANCH   8  11
ENDBRANCH   6   7
ENDBRANCH   5   6
ENDBRANCH   3   5
ENDBRANCH   2   3
ENDBRANCH   1   2
BRANCH   1  29
ATOM     29  C   UNL A   1      31.999  30.493  26.873  1.00  0.00     0.275 C 
BRANCH  29  30
ATOM     30  O   UNL A   1      33.402  30.737  26.644  1.00  0.00    -0.458 OA
BRANCH  30  31
ATOM     31  C   UNL A   1      33.944  31.632  27.487  1.00  0.00     0.338 C 
ATOM     32  O   UNL A   1      33.526  32.758  27.717  1.00  0.00    -0.246 OA
BRANCH  31  33
ATOM     33  C   UNL A   1      35.137  31.173  28.174  1.00  0.00     0.060 A 
ATOM     34  C   UNL A   1      36.194  32.077  28.303  1.00  0.00     0.016 A 
ATOM     35  C   UNL A   1      35.283  29.825  28.509  1.00  0.00     0.016 A 
ATOM     36  C   UNL A   1      37.396  31.641  28.841  1.00  0.00     0.010 A 
ATOM     37  C   UNL A   1      36.485  29.388  29.047  1.00  0.00     0.010 A 
ATOM     38  C   UNL A   1      37.528  30.304  29.249  1.00  0.00    -0.014 A 
BRANCH  38  39
ATOM     39  C   UNL A   1      38.649  29.928  30.128  1.00  0.00     0.031 A 
ATOM     40  C   UNL A   1      38.791  30.475  31.507  1.00  0.00     0.074 A 
ATOM     41  C   UNL A   1      39.563  29.102  29.587  1.00  0.00     0.049 A 
ATOM     42  N   UNL A   1      39.710  30.212  32.397  1.00  0.00    -0.248 NA
ATOM     43  C   UNL A   1      37.786  31.455  31.940  1.00  0.00     0.031 C 
ATOM     44  C   UNL A   1      39.503  28.573  28.218  1.00  0.00     0.029 A 
ATOM     45  N   UNL A   1      40.710  28.568  30.099  1.00  0.00    -0.354 N 
ATOM     46  C   UNL A   1      39.395  30.984  33.508  1.00  0.00     0.074 A 
ATOM     47  C   UNL A   1      38.217  31.755  33.159  1.00  0.00     0.031 C 
ATOM     48  C   UNL A   1      40.564  27.785  28.004  1.00  0.00     0.029 A 
ATOM     49  C   UNL A   1      41.384  27.773  29.206  1.00  0.00     0.049 A 
ATOM     50  H   UNL A   1      41.022  28.736  31.017  1.00  0.00     0.167 HD
ATOM     51  C   UNL A   1      40.039  31.030  34.701  1.00  0.00     0.034 A 
ATOM     52  C   UNL A   1      42.544  27.108  29.343  1.00  0.00     0.034 A 
ATOM     53  C   UNL A   1      41.233  30.264  34.984  1.00  0.00     0.049 A 
ATOM     54  C   UNL A   1      43.228  27.166  30.675  1.00  0.00     0.074 A 
ATOM     55  C   UNL A   1      41.958  30.191  36.162  1.00  0.00     0.029 A 
ATOM     56  N   UNL A   1      41.890  29.449  34.067  1.00  0.00    -0.354 N 
ATOM     57  N   UNL A   1      42.882  27.843  31.746  1.00  0.00    -0.248 NA
ATOM     58  C   UNL A   1      44.438  26.356  30.828  1.00  0.00     0.031 C 
ATOM     59  C   UNL A   1      43.080  29.384  35.937  1.00  0.00     0.029 A 
ATOM     60  C   UNL A   1      43.028  28.898  34.640  1.00  0.00     0.049 A 
ATOM     61  H   UNL A   1      41.591  29.287  33.143  1.00  0.00     0.167 HD
ATOM     62  C   UNL A   1      43.831  27.535  32.710  1.00  0.00     0.074 A 
ATOM     63  C   UNL A   1      44.748  26.591  32.095  1.00  0.00     0.031 C 
ATOM     64  C   UNL A   1      43.940  27.988  33.985  1.00  0.00     0.034 A 
BRANCH  51  65
ATOM     65  C   UNL A   1      39.491  31.966  35.751  1.00  0.00     0.023 A 
ATOM     66  C   UNL A   1      38.718  31.497  36.829  1.00  0.00     0.031 A 
ATOM     67  C   UNL A   1      39.722  33.350  35.664  1.00  0.00     0.131 A 
ATOM     68  C   UNL A   1      38.152  32.407  37.738  1.00  0.00     0.055 A 
ATOM     69  C   UNL A   1      39.213  34.244  36.609  1.00  0.00     0.041 A 
ATOM     70  F   UNL A   1      40.435  33.861  34.648  1.00  0.00    -0.206 F 
ATOM     71  C   UNL A   1      38.411  33.775  37.646  1.00  0.00     0.022 A 
BRANCH  68  72
ATOM     72  S   UNL A   1      36.969  31.789  38.967  1.00  0.00     0.124 S 
ATOM     73  O   UNL A   1      36.817  30.395  38.558  1.00  0.00    -0.237 OA
ATOM     74  O   UNL A   1      37.675  32.011  40.223  1.00  0.00    -0.237 OA
ATOM     75  O   UNL A   1      35.789  32.624  38.758  1.00  0.00    -0.744 OA
ENDBRANCH  68  72
ENDBRANCH  51  65
BRANCH  52  76
ATOM     76  C   UNL A   1      43.092  26.341  28.196  1.00  0.00     0.023 A 
ATOM     77  C   UNL A   1      44.169  26.830  27.444  1.00  0.00     0.031 A 
ATOM     78  C   UNL A   1      42.573  25.075  27.867  1.00  0.00     0.131 A 
ATOM     79  C   UNL A   1      44.681  26.068  26.385  1.00  0.00     0.055 A 
ATOM     80  C   UNL A   1      43.110  24.303  26.837  1.00  0.00     0.041 A 
ATOM     81  F   UNL A   1      41.557  24.553  28.574  1.00  0.00    -0.206 F 
ATOM     82  C   UNL A   1      44.166  24.803  26.083  1.00  0.00     0.022 A 
BRANCH  79  83
ATOM     83  S   UNL A   1      46.012  26.771  25.373  1.00  0.00     0.124 S 
ATOM     84  O   UNL A   1      46.985  27.160  26.387  1.00  0.00    -0.237 OA
ATOM     85  O   UNL A   1      46.380  25.639  24.530  1.00  0.00    -0.237 OA
ATOM     86  O   UNL A   1      45.361  27.878  24.676  1.00  0.00    -0.744 OA
ENDBRANCH  79  83
ENDBRANCH  52  76
BRANCH  64  87
ATOM     87  C   UNL A   1      45.101  27.447  34.776  1.00  0.00     0.023 A 
ATOM     88  C   UNL A   1      45.021  26.207  35.430  1.00  0.00     0.031 A 
ATOM     89  C   UNL A   1      46.278  28.202  34.915  1.00  0.00     0.131 A 
ATOM     90  C   UNL A   1      46.075  25.784  36.251  1.00  0.00     0.055 A 
ATOM     91  C   UNL A   1      47.346  27.751  35.688  1.00  0.00     0.041 A 
ATOM     92  F   UNL A   1      46.400  29.396  34.311  1.00  0.00    -0.206 F 
ATOM     93  C   UNL A   1      47.244  26.542  36.374  1.00  0.00     0.022 A 
BRANCH  90  94
ATOM     94  S   UNL A   1      45.860  24.276  37.233  1.00  0.00     0.124 S 
ATOM     95  O   UNL A   1      45.567  23.283  36.202  1.00  0.00    -0.237 OA
ATOM     96  O   UNL A   1      47.154  24.144  37.894  1.00  0.00    -0.237 OA
ATOM     97  O   UNL A   1      44.742  24.599  38.117  1.00  0.00    -0.744 OA
ENDBRANCH  90  94
ENDBRANCH  64  87
ENDBRANCH  38  39
ENDBRANCH  31  33
ENDBRANCH  30  31
ENDBRANCH  29  30
ENDBRANCH   1  29
TORSDOF 19
ENDMDL
