MODEL 1
REMARK VINA RESULT:     -12.1      0.000      0.000
REMARK SMILES C#CCNC(=O)N[C@@]1(C(=O)OCCOC(=O)c2ccc(-c3c4nc(c(-c5cc(S(=O)(=O)[O-])ccc5F)c5ccc([nH]5)c(-c5cc(S(=O)(=O)[O-])ccc5F)c5nc(c(-c6cc(S(=O)(=O)[O-])ccc6F)c6ccc3[nH]6)C=C5)C=C4)cc2)CCc2ccccc21
REMARK SMILES IDX 12 1 11 2 9 3 10 4 8 5 80 6 87 7 81 8 82 9 86 10 83 11 85 12
REMARK SMILES IDX 84 13 7 14 4 15 5 16 6 18 3 20 2 21 1 22 13 23 14 24 15 25
REMARK SMILES IDX 16 26 17 27 18 28 79 29 19 30 78 31 20 32 21 33 22 34 72 35
REMARK SMILES IDX 23 36 77 37 71 38 73 39 24 40 76 41 70 42 69 43 25 45 57 46
REMARK SMILES IDX 37 47 56 48 38 49 41 50 55 51 74 52 39 53 40 54 54 56 75 57
REMARK SMILES IDX 42 58 26 59 27 60 35 61 28 62 34 63 36 64 33 65 29 66 30 67
REMARK SMILES IDX 31 68 32 69 58 70 59 71 67 72 60 73 66 74 68 75 65 76 61 77
REMARK SMILES IDX 62 78 63 79 64 80 43 81 44 82 52 83 45 84 51 85 53 86 50 87
REMARK SMILES IDX 46 88 47 89 48 90 49 91
REMARK H PARENT 4 17 7 19 73 44 41 55
REMARK Flexibility Score: inf
ROOT
ATOM      1  C   UNL A   1      35.555  21.447  26.070  1.00  0.00     0.274 C 
ENDROOT
BRANCH   1   2
ATOM      2  O   UNL A   1      34.190  20.970  26.154  1.00  0.00    -0.460 OA
BRANCH   2   3
ATOM      3  C   UNL A   1      33.295  21.880  26.638  1.00  0.00     0.336 C 
ATOM      4  O   UNL A   1      33.126  22.056  27.844  1.00  0.00    -0.249 OA
BRANCH   3   5
ATOM      5  C   UNL A   1      32.455  22.602  25.560  1.00  0.00     0.165 C 
ATOM      6  C   UNL A   1      32.332  21.726  24.276  1.00  0.00     0.050 C 
ATOM      7  C   UNL A   1      33.027  23.830  24.887  1.00  0.00    -0.008 A 
ATOM      8  C   UNL A   1      31.818  22.687  23.188  1.00  0.00     0.039 C 
ATOM      9  C   UNL A   1      32.547  23.933  23.573  1.00  0.00    -0.042 A 
ATOM     10  C   UNL A   1      33.827  24.848  25.383  1.00  0.00     0.007 A 
ATOM     11  C   UNL A   1      32.703  25.095  22.828  1.00  0.00     0.004 A 
ATOM     12  C   UNL A   1      33.997  26.026  24.647  1.00  0.00     0.000 A 
ATOM     13  C   UNL A   1      33.408  26.161  23.388  1.00  0.00     0.000 A 
BRANCH   5  14
ATOM     14  N   UNL A   1      31.049  22.668  26.106  1.00  0.00    -0.318 N 
ATOM     15  N   UNL A   1      30.028  24.756  26.641  1.00  0.00    -0.327 N 
ATOM     16  C   UNL A   1      30.226  23.453  26.797  1.00  0.00     0.316 C 
ATOM     17  H   UNL A   1      29.354  25.121  27.259  1.00  0.00     0.166 HD
ATOM     18  O   UNL A   1      29.508  22.868  27.617  1.00  0.00    -0.249 OA
ATOM     19  H   UNL A   1      30.574  21.840  25.868  1.00  0.00     0.166 HD
BRANCH  15  20
ATOM     20  C   UNL A   1      30.582  25.747  25.769  1.00  0.00     0.207 C 
BRANCH  20  21
ATOM     21  C   UNL A   1      31.051  26.974  26.399  1.00  0.00    -0.085 C 
ATOM     22  C   UNL A   1      31.648  27.841  26.983  1.00  0.00     0.006 C 
ENDBRANCH  20  21
ENDBRANCH  15  20
ENDBRANCH   5  14
ENDBRANCH   3   5
ENDBRANCH   2   3
ENDBRANCH   1   2
BRANCH   1  23
ATOM     23  C   UNL A   1      36.361  20.660  25.038  1.00  0.00     0.275 C 
BRANCH  23  24
ATOM     24  O   UNL A   1      37.586  21.352  24.719  1.00  0.00    -0.458 OA
BRANCH  24  25
ATOM     25  C   UNL A   1      38.614  21.086  25.558  1.00  0.00     0.338 C 
ATOM     26  O   UNL A   1      39.265  20.051  25.590  1.00  0.00    -0.246 OA
BRANCH  25  27
ATOM     27  C   UNL A   1      38.991  22.241  26.411  1.00  0.00     0.060 A 
ATOM     28  C   UNL A   1      38.480  23.504  26.143  1.00  0.00     0.016 A 
ATOM     29  C   UNL A   1      40.129  22.127  27.215  1.00  0.00     0.016 A 
ATOM     30  C   UNL A   1      39.221  24.629  26.521  1.00  0.00     0.010 A 
ATOM     31  C   UNL A   1      40.772  23.272  27.721  1.00  0.00     0.010 A 
ATOM     32  C   UNL A   1      40.372  24.559  27.334  1.00  0.00    -0.014 A 
BRANCH  32  33
ATOM     33  C   UNL A   1      41.120  25.808  27.756  1.00  0.00     0.031 A 
ATOM     34  C   UNL A   1      40.483  26.906  28.607  1.00  0.00     0.074 A 
ATOM     35  C   UNL A   1      42.415  25.979  27.401  1.00  0.00     0.049 A 
ATOM     36  N   UNL A   1      40.940  28.106  28.891  1.00  0.00    -0.248 NA
ATOM     37  C   UNL A   1      39.167  26.632  29.201  1.00  0.00     0.031 C 
ATOM     38  C   UNL A   1      43.210  25.033  26.613  1.00  0.00     0.029 A 
ATOM     39  N   UNL A   1      43.309  26.994  27.668  1.00  0.00    -0.354 N 
ATOM     40  C   UNL A   1      39.951  28.746  29.641  1.00  0.00     0.074 A 
ATOM     41  C   UNL A   1      38.863  27.797  29.761  1.00  0.00     0.031 C 
ATOM     42  C   UNL A   1      44.480  25.445  26.564  1.00  0.00     0.029 A 
ATOM     43  C   UNL A   1      44.560  26.782  27.127  1.00  0.00     0.049 A 
ATOM     44  H   UNL A   1      43.077  27.792  28.194  1.00  0.00     0.167 HD
ATOM     45  C   UNL A   1      39.943  30.001  30.171  1.00  0.00     0.034 A 
ATOM     46  C   UNL A   1      45.637  27.581  26.996  1.00  0.00     0.034 A 
ATOM     47  C   UNL A   1      41.047  30.936  30.083  1.00  0.00     0.049 A 
ATOM     48  C   UNL A   1      45.570  28.992  27.502  1.00  0.00     0.074 A 
ATOM     49  C   UNL A   1      41.131  32.221  30.602  1.00  0.00     0.029 A 
ATOM     50  N   UNL A   1      42.257  30.701  29.441  1.00  0.00    -0.354 N 
ATOM     51  N   UNL A   1      44.594  29.597  28.135  1.00  0.00    -0.248 NA
ATOM     52  C   UNL A   1      46.747  29.834  27.256  1.00  0.00     0.031 C 
ATOM     53  C   UNL A   1      42.341  32.791  30.193  1.00  0.00     0.029 A 
ATOM     54  C   UNL A   1      43.066  31.830  29.514  1.00  0.00     0.049 A 
ATOM     55  H   UNL A   1      42.504  29.857  28.999  1.00  0.00     0.167 HD
ATOM     56  C   UNL A   1      45.051  30.888  28.381  1.00  0.00     0.074 A 
ATOM     57  C   UNL A   1      46.401  30.957  27.863  1.00  0.00     0.031 C 
ATOM     58  C   UNL A   1      44.404  31.922  28.978  1.00  0.00     0.034 A 
BRANCH  45  59
ATOM     59  C   UNL A   1      38.673  30.488  30.848  1.00  0.00     0.023 A 
ATOM     60  C   UNL A   1      37.619  31.092  30.141  1.00  0.00     0.031 A 
ATOM     61  C   UNL A   1      38.505  30.307  32.236  1.00  0.00     0.131 A 
ATOM     62  C   UNL A   1      36.479  31.544  30.830  1.00  0.00     0.055 A 
ATOM     63  C   UNL A   1      37.333  30.680  32.900  1.00  0.00     0.041 A 
ATOM     64  F   UNL A   1      39.478  29.751  32.975  1.00  0.00    -0.206 F 
ATOM     65  C   UNL A   1      36.316  31.316  32.198  1.00  0.00     0.022 A 
BRANCH  62  66
ATOM     66  S   UNL A   1      35.273  32.568  29.940  1.00  0.00     0.124 S 
ATOM     67  O   UNL A   1      34.794  31.639  28.918  1.00  0.00    -0.237 OA
ATOM     68  O   UNL A   1      34.318  32.913  30.986  1.00  0.00    -0.237 OA
ATOM     69  O   UNL A   1      36.074  33.680  29.433  1.00  0.00    -0.744 OA
ENDBRANCH  62  66
ENDBRANCH  45  59
BRANCH  46  70
ATOM     70  C   UNL A   1      46.842  27.099  26.250  1.00  0.00     0.023 A 
ATOM     71  C   UNL A   1      47.910  26.480  26.915  1.00  0.00     0.031 A 
ATOM     72  C   UNL A   1      46.960  27.298  24.860  1.00  0.00     0.131 A 
ATOM     73  C   UNL A   1      49.061  26.118  26.199  1.00  0.00     0.055 A 
ATOM     74  C   UNL A   1      48.067  26.853  24.139  1.00  0.00     0.041 A 
ATOM     75  F   UNL A   1      45.981  27.909  24.172  1.00  0.00    -0.206 F 
ATOM     76  C   UNL A   1      49.135  26.272  24.813  1.00  0.00     0.022 A 
BRANCH  73  77
ATOM     77  S   UNL A   1      50.517  25.560  27.124  1.00  0.00     0.124 S 
ATOM     78  O   UNL A   1      50.649  26.612  28.126  1.00  0.00    -0.237 OA
ATOM     79  O   UNL A   1      50.085  24.257  27.616  1.00  0.00    -0.237 OA
ATOM     80  O   UNL A   1      51.570  25.527  26.112  1.00  0.00    -0.744 OA
ENDBRANCH  73  77
ENDBRANCH  46  70
BRANCH  58  81
ATOM     81  C   UNL A   1      45.186  33.206  29.142  1.00  0.00     0.023 A 
ATOM     82  C   UNL A   1      45.210  34.190  28.135  1.00  0.00     0.031 A 
ATOM     83  C   UNL A   1      45.986  33.414  30.280  1.00  0.00     0.131 A 
ATOM     84  C   UNL A   1      46.096  35.273  28.235  1.00  0.00     0.055 A 
ATOM     85  C   UNL A   1      46.796  34.543  30.415  1.00  0.00     0.041 A 
ATOM     86  F   UNL A   1      46.015  32.510  31.272  1.00  0.00    -0.206 F 
ATOM     87  C   UNL A   1      46.874  35.468  29.379  1.00  0.00     0.022 A 
BRANCH  84  88
ATOM     88  S   UNL A   1      46.347  36.324  26.777  1.00  0.00     0.124 S 
ATOM     89  O   UNL A   1      45.352  37.370  26.986  1.00  0.00    -0.237 OA
ATOM     90  O   UNL A   1      47.741  36.731  26.924  1.00  0.00    -0.237 OA
ATOM     91  O   UNL A   1      46.078  35.425  25.656  1.00  0.00    -0.744 OA
ENDBRANCH  84  88
ENDBRANCH  58  81
ENDBRANCH  32  33
ENDBRANCH  25  27
ENDBRANCH  24  25
ENDBRANCH  23  24
ENDBRANCH   1  23
TORSDOF 17
ENDMDL
MODEL 2
REMARK VINA RESULT:     -11.8      5.190      9.882
REMARK SMILES C#CCNC(=O)N[C@@]1(C(=O)OCCOC(=O)c2ccc(-c3c4nc(c(-c5cc(S(=O)(=O)[O-])ccc5F)c5ccc([nH]5)c(-c5cc(S(=O)(=O)[O-])ccc5F)c5nc(c(-c6cc(S(=O)(=O)[O-])ccc6F)c6ccc3[nH]6)C=C5)C=C4)cc2)CCc2ccccc21
REMARK SMILES IDX 12 1 11 2 9 3 10 4 8 5 80 6 87 7 81 8 82 9 86 10 83 11 85 12
REMARK SMILES IDX 84 13 7 14 4 15 5 16 6 18 3 20 2 21 1 22 13 23 14 24 15 25
REMARK SMILES IDX 16 26 17 27 18 28 79 29 19 30 78 31 20 32 21 33 22 34 72 35
REMARK SMILES IDX 23 36 77 37 71 38 73 39 24 40 76 41 70 42 69 43 25 45 57 46
REMARK SMILES IDX 37 47 56 48 38 49 41 50 55 51 74 52 39 53 40 54 54 56 75 57
REMARK SMILES IDX 42 58 26 59 27 60 35 61 28 62 34 63 36 64 33 65 29 66 30 67
REMARK SMILES IDX 31 68 32 69 58 70 59 71 67 72 60 73 66 74 68 75 65 76 61 77
REMARK SMILES IDX 62 78 63 79 64 80 43 81 44 82 52 83 45 84 51 85 53 86 50 87
REMARK SMILES IDX 46 88 47 89 48 90 49 91
REMARK H PARENT 4 17 7 19 73 44 41 55
REMARK Flexibility Score: inf
ROOT
ATOM      1  C   UNL A   1      32.191  29.748  25.013  1.00  0.00     0.274 C 
ENDROOT
BRANCH   1   2
ATOM      2  O   UNL A   1      32.590  28.511  25.651  1.00  0.00    -0.460 OA
BRANCH   2   3
ATOM      3  C   UNL A   1      32.971  27.521  24.792  1.00  0.00     0.336 C 
ATOM      4  O   UNL A   1      33.861  27.684  23.958  1.00  0.00    -0.249 OA
BRANCH   3   5
ATOM      5  C   UNL A   1      32.143  26.219  24.891  1.00  0.00     0.165 C 
ATOM      6  C   UNL A   1      30.894  26.426  25.800  1.00  0.00     0.050 C 
ATOM      7  C   UNL A   1      32.720  25.040  25.641  1.00  0.00    -0.008 A 
ATOM      8  C   UNL A   1      30.389  25.005  26.109  1.00  0.00     0.039 C 
ATOM      9  C   UNL A   1      31.692  24.283  26.222  1.00  0.00    -0.042 A 
ATOM     10  C   UNL A   1      34.024  24.581  25.748  1.00  0.00     0.007 A 
ATOM     11  C   UNL A   1      31.922  23.014  26.739  1.00  0.00     0.004 A 
ATOM     12  C   UNL A   1      34.276  23.306  26.266  1.00  0.00     0.000 A 
ATOM     13  C   UNL A   1      33.224  22.513  26.729  1.00  0.00     0.000 A 
BRANCH   5  14
ATOM     14  N   UNL A   1      31.571  25.987  23.513  1.00  0.00    -0.318 N 
ATOM     15  N   UNL A   1      32.755  24.711  21.882  1.00  0.00    -0.327 N 
ATOM     16  C   UNL A   1      31.922  25.670  22.269  1.00  0.00     0.316 C 
ATOM     17  H   UNL A   1      32.846  24.652  20.903  1.00  0.00     0.166 HD
ATOM     18  O   UNL A   1      31.328  26.294  21.381  1.00  0.00    -0.249 OA
ATOM     19  H   UNL A   1      30.596  26.116  23.545  1.00  0.00     0.166 HD
BRANCH  15  20
ATOM     20  C   UNL A   1      33.549  23.746  22.578  1.00  0.00     0.207 C 
BRANCH  20  21
ATOM     21  C   UNL A   1      32.890  22.495  22.928  1.00  0.00    -0.085 C 
ATOM     22  C   UNL A   1      32.126  21.595  23.162  1.00  0.00     0.006 C 
ENDBRANCH  20  21
ENDBRANCH  15  20
ENDBRANCH   5  14
ENDBRANCH   3   5
ENDBRANCH   2   3
ENDBRANCH   1   2
BRANCH   1  23
ATOM     23  C   UNL A   1      31.617  30.740  26.023  1.00  0.00     0.275 C 
BRANCH  23  24
ATOM     24  O   UNL A   1      32.360  30.691  27.259  1.00  0.00    -0.458 OA
BRANCH  24  25
ATOM     25  C   UNL A   1      33.193  31.739  27.454  1.00  0.00     0.338 C 
ATOM     26  O   UNL A   1      32.856  32.906  27.593  1.00  0.00    -0.246 OA
BRANCH  25  27
ATOM     27  C   UNL A   1      34.614  31.341  27.605  1.00  0.00     0.060 A 
ATOM     28  C   UNL A   1      34.951  30.006  27.789  1.00  0.00     0.016 A 
ATOM     29  C   UNL A   1      35.546  32.327  27.943  1.00  0.00     0.016 A 
ATOM     30  C   UNL A   1      36.126  29.691  28.480  1.00  0.00     0.010 A 
ATOM     31  C   UNL A   1      36.795  31.980  28.493  1.00  0.00     0.010 A 
ATOM     32  C   UNL A   1      37.094  30.655  28.837  1.00  0.00    -0.014 A 
BRANCH  32  33
ATOM     33  C   UNL A   1      38.375  30.264  29.546  1.00  0.00     0.031 A 
ATOM     34  C   UNL A   1      39.396  29.301  28.942  1.00  0.00     0.074 A 
ATOM     35  C   UNL A   1      38.669  30.790  30.759  1.00  0.00     0.049 A 
ATOM     36  N   UNL A   1      40.442  28.738  29.507  1.00  0.00    -0.248 NA
ATOM     37  C   UNL A   1      39.216  28.910  27.537  1.00  0.00     0.031 C 
ATOM     38  C   UNL A   1      37.836  31.747  31.492  1.00  0.00     0.029 A 
ATOM     39  N   UNL A   1      39.755  30.618  31.590  1.00  0.00    -0.354 N 
ATOM     40  C   UNL A   1      41.006  27.889  28.552  1.00  0.00     0.074 A 
ATOM     41  C   UNL A   1      40.176  28.007  27.370  1.00  0.00     0.031 C 
ATOM     42  C   UNL A   1      38.485  32.163  32.584  1.00  0.00     0.029 A 
ATOM     43  C   UNL A   1      39.681  31.356  32.753  1.00  0.00     0.049 A 
ATOM     44  H   UNL A   1      40.511  30.027  31.373  1.00  0.00     0.167 HD
ATOM     45  C   UNL A   1      42.099  27.083  28.650  1.00  0.00     0.034 A 
ATOM     46  C   UNL A   1      40.414  31.341  33.883  1.00  0.00     0.034 A 
ATOM     47  C   UNL A   1      42.951  26.993  29.819  1.00  0.00     0.049 A 
ATOM     48  C   UNL A   1      41.556  30.375  34.005  1.00  0.00     0.074 A 
ATOM     49  C   UNL A   1      44.086  26.215  30.000  1.00  0.00     0.029 A 
ATOM     50  N   UNL A   1      42.773  27.695  31.005  1.00  0.00    -0.354 N 
ATOM     51  N   UNL A   1      42.018  29.526  33.117  1.00  0.00    -0.248 NA
ATOM     52  C   UNL A   1      42.264  30.353  35.290  1.00  0.00     0.031 C 
ATOM     53  C   UNL A   1      44.533  26.373  31.316  1.00  0.00     0.029 A 
ATOM     54  C   UNL A   1      43.748  27.332  31.929  1.00  0.00     0.049 A 
ATOM     55  H   UNL A   1      42.061  28.354  31.167  1.00  0.00     0.167 HD
ATOM     56  C   UNL A   1      43.086  28.884  33.735  1.00  0.00     0.074 A 
ATOM     57  C   UNL A   1      43.221  29.472  35.052  1.00  0.00     0.031 C 
ATOM     58  C   UNL A   1      43.877  27.891  33.254  1.00  0.00     0.034 A 
BRANCH  45  59
ATOM     59  C   UNL A   1      42.422  26.164  27.483  1.00  0.00     0.023 A 
ATOM     60  C   UNL A   1      41.954  24.842  27.406  1.00  0.00     0.031 A 
ATOM     61  C   UNL A   1      43.194  26.645  26.406  1.00  0.00     0.131 A 
ATOM     62  C   UNL A   1      42.308  24.034  26.310  1.00  0.00     0.055 A 
ATOM     63  C   UNL A   1      43.470  25.864  25.280  1.00  0.00     0.041 A 
ATOM     64  F   UNL A   1      43.687  27.893  26.422  1.00  0.00    -0.206 F 
ATOM     65  C   UNL A   1      43.037  24.544  25.234  1.00  0.00     0.022 A 
BRANCH  62  66
ATOM     66  S   UNL A   1      41.928  22.260  26.378  1.00  0.00     0.124 S 
ATOM     67  O   UNL A   1      42.388  21.910  27.720  1.00  0.00    -0.237 OA
ATOM     68  O   UNL A   1      40.485  22.238  26.172  1.00  0.00    -0.237 OA
ATOM     69  O   UNL A   1      42.724  21.696  25.290  1.00  0.00    -0.744 OA
ENDBRANCH  62  66
ENDBRANCH  45  59
BRANCH  46  70
ATOM     70  C   UNL A   1      40.019  32.198  35.045  1.00  0.00     0.023 A 
ATOM     71  C   UNL A   1      39.217  31.695  36.080  1.00  0.00     0.031 A 
ATOM     72  C   UNL A   1      40.403  33.552  35.109  1.00  0.00     0.131 A 
ATOM     73  C   UNL A   1      38.793  32.549  37.110  1.00  0.00     0.055 A 
ATOM     74  C   UNL A   1      40.056  34.370  36.183  1.00  0.00     0.041 A 
ATOM     75  F   UNL A   1      41.150  34.097  34.135  1.00  0.00    -0.206 F 
ATOM     76  C   UNL A   1      39.232  33.872  37.186  1.00  0.00     0.022 A 
BRANCH  73  77
ATOM     77  S   UNL A   1      37.554  31.939  38.285  1.00  0.00     0.124 S 
ATOM     78  O   UNL A   1      37.355  30.572  37.818  1.00  0.00    -0.237 OA
ATOM     79  O   UNL A   1      38.244  32.087  39.561  1.00  0.00    -0.237 OA
ATOM     80  O   UNL A   1      36.421  32.839  38.081  1.00  0.00    -0.744 OA
ENDBRANCH  73  77
ENDBRANCH  46  70
BRANCH  58  81
ATOM     81  C   UNL A   1      44.997  27.420  34.155  1.00  0.00     0.023 A 
ATOM     82  C   UNL A   1      44.870  26.263  34.947  1.00  0.00     0.031 A 
ATOM     83  C   UNL A   1      46.172  28.181  34.291  1.00  0.00     0.131 A 
ATOM     84  C   UNL A   1      45.844  25.965  35.912  1.00  0.00     0.055 A 
ATOM     85  C   UNL A   1      47.181  27.825  35.188  1.00  0.00     0.041 A 
ATOM     86  F   UNL A   1      46.351  29.299  33.571  1.00  0.00    -0.206 F 
ATOM     87  C   UNL A   1      47.009  26.727  36.023  1.00  0.00     0.022 A 
BRANCH  84  88
ATOM     88  S   UNL A   1      45.482  24.676  37.137  1.00  0.00     0.124 S 
ATOM     89  O   UNL A   1      45.067  25.467  38.291  1.00  0.00    -0.237 OA
ATOM     90  O   UNL A   1      44.430  23.907  36.480  1.00  0.00    -0.237 OA
ATOM     91  O   UNL A   1      46.758  23.978  37.289  1.00  0.00    -0.744 OA
ENDBRANCH  84  88
ENDBRANCH  58  81
ENDBRANCH  32  33
ENDBRANCH  25  27
ENDBRANCH  24  25
ENDBRANCH  23  24
ENDBRANCH   1  23
TORSDOF 17
ENDMDL
MODEL 3
REMARK VINA RESULT:     -11.7      4.632      9.591
REMARK SMILES C#CCNC(=O)N[C@@]1(C(=O)OCCOC(=O)c2ccc(-c3c4nc(c(-c5cc(S(=O)(=O)[O-])ccc5F)c5ccc([nH]5)c(-c5cc(S(=O)(=O)[O-])ccc5F)c5nc(c(-c6cc(S(=O)(=O)[O-])ccc6F)c6ccc3[nH]6)C=C5)C=C4)cc2)CCc2ccccc21
REMARK SMILES IDX 12 1 11 2 9 3 10 4 8 5 80 6 87 7 81 8 82 9 86 10 83 11 85 12
REMARK SMILES IDX 84 13 7 14 4 15 5 16 6 18 3 20 2 21 1 22 13 23 14 24 15 25
REMARK SMILES IDX 16 26 17 27 18 28 79 29 19 30 78 31 20 32 21 33 22 34 72 35
REMARK SMILES IDX 23 36 77 37 71 38 73 39 24 40 76 41 70 42 69 43 25 45 57 46
REMARK SMILES IDX 37 47 56 48 38 49 41 50 55 51 74 52 39 53 40 54 54 56 75 57
REMARK SMILES IDX 42 58 26 59 27 60 35 61 28 62 34 63 36 64 33 65 29 66 30 67
REMARK SMILES IDX 31 68 32 69 58 70 59 71 67 72 60 73 66 74 68 75 65 76 61 77
REMARK SMILES IDX 62 78 63 79 64 80 43 81 44 82 52 83 45 84 51 85 53 86 50 87
REMARK SMILES IDX 46 88 47 89 48 90 49 91
REMARK H PARENT 4 17 7 19 73 44 41 55
REMARK Flexibility Score: inf
ROOT
ATOM      1  C   UNL A   1      32.369  29.729  25.140  1.00  0.00     0.274 C 
ENDROOT
BRANCH   1   2
ATOM      2  O   UNL A   1      32.861  28.469  25.656  1.00  0.00    -0.460 OA
BRANCH   2   3
ATOM      3  C   UNL A   1      33.203  27.555  24.703  1.00  0.00     0.336 C 
ATOM      4  O   UNL A   1      33.879  27.854  23.720  1.00  0.00    -0.249 OA
BRANCH   3   5
ATOM      5  C   UNL A   1      32.605  26.144  24.911  1.00  0.00     0.165 C 
ATOM      6  C   UNL A   1      31.498  26.169  26.008  1.00  0.00     0.050 C 
ATOM      7  C   UNL A   1      33.463  25.071  25.543  1.00  0.00    -0.008 A 
ATOM      8  C   UNL A   1      31.267  24.690  26.371  1.00  0.00     0.039 C 
ATOM      9  C   UNL A   1      32.665  24.173  26.267  1.00  0.00    -0.042 A 
ATOM     10  C   UNL A   1      34.822  24.814  25.437  1.00  0.00     0.007 A 
ATOM     11  C   UNL A   1      33.160  22.958  26.722  1.00  0.00     0.004 A 
ATOM     12  C   UNL A   1      35.341  23.597  25.890  1.00  0.00     0.000 A 
ATOM     13  C   UNL A   1      34.505  22.658  26.500  1.00  0.00     0.000 A 
BRANCH   5  14
ATOM     14  N   UNL A   1      31.865  25.817  23.636  1.00  0.00    -0.318 N 
ATOM     15  N   UNL A   1      32.823  24.392  21.981  1.00  0.00    -0.327 N 
ATOM     16  C   UNL A   1      32.055  25.395  22.388  1.00  0.00     0.316 C 
ATOM     17  H   UNL A   1      32.792  24.254  21.007  1.00  0.00     0.166 HD
ATOM     18  O   UNL A   1      31.364  25.960  21.533  1.00  0.00    -0.249 OA
ATOM     19  H   UNL A   1      30.903  25.969  23.777  1.00  0.00     0.166 HD
BRANCH  15  20
ATOM     20  C   UNL A   1      33.686  23.467  22.651  1.00  0.00     0.207 C 
BRANCH  20  21
ATOM     21  C   UNL A   1      33.080  22.222  23.099  1.00  0.00    -0.085 C 
ATOM     22  C   UNL A   1      32.352  21.317  23.418  1.00  0.00     0.006 C 
ENDBRANCH  20  21
ENDBRANCH  15  20
ENDBRANCH   5  14
ENDBRANCH   3   5
ENDBRANCH   2   3
ENDBRANCH   1   2
BRANCH   1  23
ATOM     23  C   UNL A   1      31.815  30.615  26.254  1.00  0.00     0.275 C 
BRANCH  23  24
ATOM     24  O   UNL A   1      32.653  30.536  27.426  1.00  0.00    -0.458 OA
BRANCH  24  25
ATOM     25  C   UNL A   1      33.516  31.568  27.568  1.00  0.00     0.338 C 
ATOM     26  O   UNL A   1      33.213  32.747  27.680  1.00  0.00    -0.246 OA
BRANCH  25  27
ATOM     27  C   UNL A   1      34.931  31.138  27.697  1.00  0.00     0.060 A 
ATOM     28  C   UNL A   1      35.239  29.798  27.892  1.00  0.00     0.016 A 
ATOM     29  C   UNL A   1      35.892  32.105  28.003  1.00  0.00     0.016 A 
ATOM     30  C   UNL A   1      36.420  29.464  28.564  1.00  0.00     0.010 A 
ATOM     31  C   UNL A   1      37.143  31.737  28.533  1.00  0.00     0.010 A 
ATOM     32  C   UNL A   1      37.418  30.409  28.889  1.00  0.00    -0.014 A 
BRANCH  32  33
ATOM     33  C   UNL A   1      38.703  29.997  29.578  1.00  0.00     0.031 A 
ATOM     34  C   UNL A   1      39.695  29.013  28.961  1.00  0.00     0.074 A 
ATOM     35  C   UNL A   1      39.027  30.523  30.783  1.00  0.00     0.049 A 
ATOM     36  N   UNL A   1      40.740  28.433  29.511  1.00  0.00    -0.248 NA
ATOM     37  C   UNL A   1      39.484  28.619  27.561  1.00  0.00     0.031 C 
ATOM     38  C   UNL A   1      38.226  31.498  31.527  1.00  0.00     0.029 A 
ATOM     39  N   UNL A   1      40.125  30.334  31.597  1.00  0.00    -0.354 N 
ATOM     40  C   UNL A   1      41.271  27.569  28.550  1.00  0.00     0.074 A 
ATOM     41  C   UNL A   1      40.424  27.698  27.382  1.00  0.00     0.031 C 
ATOM     42  C   UNL A   1      38.900  31.907  32.605  1.00  0.00     0.029 A 
ATOM     43  C   UNL A   1      40.084  31.077  32.757  1.00  0.00     0.049 A 
ATOM     44  H   UNL A   1      40.866  29.727  31.370  1.00  0.00     0.167 HD
ATOM     45  C   UNL A   1      42.351  26.743  28.633  1.00  0.00     0.034 A 
ATOM     46  C   UNL A   1      40.836  31.054  33.875  1.00  0.00     0.034 A 
ATOM     47  C   UNL A   1      43.221  26.642  29.788  1.00  0.00     0.049 A 
ATOM     48  C   UNL A   1      41.962  30.067  33.981  1.00  0.00     0.074 A 
ATOM     49  C   UNL A   1      44.344  25.843  29.953  1.00  0.00     0.029 A 
ATOM     50  N   UNL A   1      43.077  27.352  30.973  1.00  0.00    -0.354 N 
ATOM     51  N   UNL A   1      42.392  29.206  33.090  1.00  0.00    -0.248 NA
ATOM     52  C   UNL A   1      42.690  30.037  35.255  1.00  0.00     0.031 C 
ATOM     53  C   UNL A   1      44.816  25.998  31.261  1.00  0.00     0.029 A 
ATOM     54  C   UNL A   1      44.060  26.975  31.882  1.00  0.00     0.049 A 
ATOM     55  H   UNL A   1      42.379  28.025  31.144  1.00  0.00     0.167 HD
ATOM     56  C   UNL A   1      43.458  28.546  33.693  1.00  0.00     0.074 A 
ATOM     57  C   UNL A   1      43.626  29.137  35.004  1.00  0.00     0.031 C 
ATOM     58  C   UNL A   1      44.222  27.536  33.203  1.00  0.00     0.034 A 
BRANCH  45  59
ATOM     59  C   UNL A   1      42.637  25.813  27.465  1.00  0.00     0.023 A 
ATOM     60  C   UNL A   1      42.110  24.513  27.383  1.00  0.00     0.031 A 
ATOM     61  C   UNL A   1      43.432  26.262  26.391  1.00  0.00     0.131 A 
ATOM     62  C   UNL A   1      42.432  23.692  26.287  1.00  0.00     0.055 A 
ATOM     63  C   UNL A   1      43.677  25.472  25.264  1.00  0.00     0.041 A 
ATOM     64  F   UNL A   1      43.980  27.487  26.412  1.00  0.00    -0.206 F 
ATOM     65  C   UNL A   1      43.187  24.173  25.214  1.00  0.00     0.022 A 
BRANCH  62  66
ATOM     66  S   UNL A   1      41.974  21.937  26.349  1.00  0.00     0.124 S 
ATOM     67  O   UNL A   1      42.801  21.378  25.281  1.00  0.00    -0.237 OA
ATOM     68  O   UNL A   1      42.347  21.562  27.708  1.00  0.00    -0.237 OA
ATOM     69  O   UNL A   1      40.539  21.947  26.074  1.00  0.00    -0.744 OA
ENDBRANCH  62  66
ENDBRANCH  45  59
BRANCH  46  70
ATOM     70  C   UNL A   1      40.477  31.922  35.040  1.00  0.00     0.023 A 
ATOM     71  C   UNL A   1      39.510  31.523  35.974  1.00  0.00     0.031 A 
ATOM     72  C   UNL A   1      41.067  33.191  35.205  1.00  0.00     0.131 A 
ATOM     73  C   UNL A   1      39.134  32.399  37.005  1.00  0.00     0.055 A 
ATOM     74  C   UNL A   1      40.758  34.016  36.285  1.00  0.00     0.041 A 
ATOM     75  F   UNL A   1      41.982  33.638  34.329  1.00  0.00    -0.206 F 
ATOM     76  C   UNL A   1      39.772  33.628  37.185  1.00  0.00     0.022 A 
BRANCH  73  77
ATOM     77  S   UNL A   1      37.707  31.962  38.034  1.00  0.00     0.124 S 
ATOM     78  O   UNL A   1      36.739  32.980  37.640  1.00  0.00    -0.237 OA
ATOM     79  O   UNL A   1      37.421  30.601  37.597  1.00  0.00    -0.237 OA
ATOM     80  O   UNL A   1      38.221  32.084  39.396  1.00  0.00    -0.744 OA
ENDBRANCH  73  77
ENDBRANCH  46  70
BRANCH  58  81
ATOM     81  C   UNL A   1      45.348  27.048  34.086  1.00  0.00     0.023 A 
ATOM     82  C   UNL A   1      46.630  27.626  34.037  1.00  0.00     0.031 A 
ATOM     83  C   UNL A   1      45.164  25.935  34.926  1.00  0.00     0.131 A 
ATOM     84  C   UNL A   1      47.697  27.026  34.722  1.00  0.00     0.055 A 
ATOM     85  C   UNL A   1      46.211  25.398  35.679  1.00  0.00     0.041 A 
ATOM     86  F   UNL A   1      43.968  25.332  35.013  1.00  0.00    -0.206 F 
ATOM     87  C   UNL A   1      47.491  25.927  35.560  1.00  0.00     0.022 A 
BRANCH  84  88
ATOM     88  S   UNL A   1      49.385  27.589  34.362  1.00  0.00     0.124 S 
ATOM     89  O   UNL A   1      50.164  26.383  34.620  1.00  0.00    -0.237 OA
ATOM     90  O   UNL A   1      49.285  27.997  32.965  1.00  0.00    -0.237 OA
ATOM     91  O   UNL A   1      49.593  28.679  35.314  1.00  0.00    -0.744 OA
ENDBRANCH  84  88
ENDBRANCH  58  81
ENDBRANCH  32  33
ENDBRANCH  25  27
ENDBRANCH  24  25
ENDBRANCH  23  24
ENDBRANCH   1  23
TORSDOF 17
ENDMDL
