MODEL 1
REMARK VINA RESULT:     -12.0      0.000      0.000
REMARK SMILES C[N@H+]1Cc2ccccc2C[C@@H]1C(=O)NCCC(=O)NCC(=O)OCCOC(=O)c1ccc(-c2c3nc(c(-c4cc(S(=O)(=O)[O-])ccc4F)c4ccc([nH]4)c(-c4cc(S(=O)(=O)[O-])ccc4F)c4nc(c(-c5cc(S(=O)(=O)[O-])ccc5F)c5ccc2[nH]5)C=C4)C=C3)cc1
REMARK SMILES IDX 24 1 23 2 21 3 22 4 20 5 19 6 17 7 18 8 16 10 15 11 14 12
REMARK SMILES IDX 12 13 13 14 11 16 1 17 2 18 3 19 4 21 10 22 5 23 9 24 6 25
REMARK SMILES IDX 8 26 7 27 25 28 26 29 27 30 28 31 29 32 30 33 91 34 31 35
REMARK SMILES IDX 90 36 32 37 33 38 34 39 84 40 35 41 89 42 83 43 85 44 36 45
REMARK SMILES IDX 88 46 82 47 81 48 37 50 69 51 49 52 68 53 50 54 53 55 67 56
REMARK SMILES IDX 86 57 51 58 52 59 66 61 87 62 54 63 38 64 39 65 47 66 40 67
REMARK SMILES IDX 46 68 48 69 45 70 41 71 42 72 43 73 44 74 70 75 71 76 79 77
REMARK SMILES IDX 72 78 78 79 80 80 77 81 73 82 74 83 75 84 76 85 55 86 56 87
REMARK SMILES IDX 64 88 57 89 63 90 65 91 62 92 58 93 59 94 60 95 61 96
REMARK H PARENT 19 9 14 15 2 20 85 49 53 60
REMARK Flexibility Score: inf
ROOT
ATOM      1  C   UNL A   1      31.505  29.119  25.299  1.00  0.00     0.274 C 
ENDROOT
BRANCH   1   2
ATOM      2  O   UNL A   1      31.513  29.092  23.862  1.00  0.00    -0.461 OA
BRANCH   2   3
ATOM      3  C   UNL A   1      30.340  28.725  23.269  1.00  0.00     0.325 C 
ATOM      4  O   UNL A   1      29.332  29.424  23.251  1.00  0.00    -0.250 OA
BRANCH   3   5
ATOM      5  C   UNL A   1      30.478  27.428  22.469  1.00  0.00     0.238 C 
BRANCH   5   6
ATOM      6  N   UNL A   1      31.813  27.149  21.973  1.00  0.00    -0.345 N 
ATOM      7  C   UNL A   1      32.486  25.973  22.030  1.00  0.00     0.222 C 
ATOM      8  O   UNL A   1      33.647  25.912  21.627  1.00  0.00    -0.275 OA
ATOM      9  H   UNL A   1      32.285  27.900  21.546  1.00  0.00     0.164 HD
BRANCH   7  10
ATOM     10  C   UNL A   1      31.809  24.766  22.628  1.00  0.00     0.121 C 
BRANCH  10  11
ATOM     11  C   UNL A   1      32.310  24.524  24.047  1.00  0.00     0.126 C 
BRANCH  11  12
ATOM     12  N   UNL A   1      33.633  23.942  24.245  1.00  0.00    -0.350 N 
ATOM     13  C   UNL A   1      34.042  23.453  25.472  1.00  0.00     0.278 C 
ATOM     14  O   UNL A   1      33.891  24.068  26.524  1.00  0.00    -0.268 OA
ATOM     15  H   UNL A   1      34.254  23.898  23.482  1.00  0.00     0.163 HD
BRANCH  13  16
ATOM     16  C   UNL A   1      34.451  21.974  25.469  1.00  0.00     0.278 C 
ATOM     17  C   UNL A   1      36.852  22.413  25.581  1.00  0.00     0.333 C 
ATOM     18  N   UNL A   1      35.787  21.685  24.873  1.00  0.00    -0.323 N 
ATOM     19  C   UNL A   1      36.049  20.224  25.033  1.00  0.00     0.299 C 
ATOM     20  H   UNL A   1      35.784  21.972  23.894  1.00  0.00     0.348 HD
ATOM     21  C   UNL A   1      34.903  19.314  24.625  1.00  0.00     0.010 A 
ATOM     22  C   UNL A   1      33.365  21.286  24.618  1.00  0.00     0.111 C 
ATOM     23  C   UNL A   1      35.102  17.933  24.494  1.00  0.00     0.010 A 
ATOM     24  C   UNL A   1      33.606  19.819  24.457  1.00  0.00    -0.033 A 
ATOM     25  C   UNL A   1      34.038  17.089  24.161  1.00  0.00     0.001 A 
ATOM     26  C   UNL A   1      32.549  18.978  24.090  1.00  0.00     0.004 A 
ATOM     27  C   UNL A   1      32.765  17.613  23.947  1.00  0.00     0.000 A 
ENDBRANCH  13  16
ENDBRANCH  11  12
ENDBRANCH  10  11
ENDBRANCH   7  10
ENDBRANCH   5   6
ENDBRANCH   3   5
ENDBRANCH   2   3
ENDBRANCH   1   2
BRANCH   1  28
ATOM     28  C   UNL A   1      31.739  30.540  25.826  1.00  0.00     0.275 C 
BRANCH  28  29
ATOM     29  O   UNL A   1      32.493  30.546  27.054  1.00  0.00    -0.458 OA
BRANCH  29  30
ATOM     30  C   UNL A   1      33.213  31.668  27.282  1.00  0.00     0.338 C 
ATOM     31  O   UNL A   1      32.819  32.825  27.195  1.00  0.00    -0.246 OA
BRANCH  30  32
ATOM     32  C   UNL A   1      34.547  31.322  27.792  1.00  0.00     0.060 A 
ATOM     33  C   UNL A   1      34.794  30.001  28.170  1.00  0.00     0.016 A 
ATOM     34  C   UNL A   1      35.502  32.312  28.018  1.00  0.00     0.016 A 
ATOM     35  C   UNL A   1      35.969  29.665  28.825  1.00  0.00     0.010 A 
ATOM     36  C   UNL A   1      36.704  31.967  28.646  1.00  0.00     0.010 A 
ATOM     37  C   UNL A   1      36.932  30.646  29.073  1.00  0.00    -0.014 A 
BRANCH  37  38
ATOM     38  C   UNL A   1      38.138  30.290  29.853  1.00  0.00     0.031 A 
ATOM     39  C   UNL A   1      39.163  29.381  29.242  1.00  0.00     0.074 A 
ATOM     40  C   UNL A   1      38.337  30.833  31.069  1.00  0.00     0.049 A 
ATOM     41  N   UNL A   1      40.207  28.820  29.793  1.00  0.00    -0.248 NA
ATOM     42  C   UNL A   1      38.988  29.063  27.817  1.00  0.00     0.031 C 
ATOM     43  C   UNL A   1      37.459  31.815  31.708  1.00  0.00     0.029 A 
ATOM     44  N   UNL A   1      39.344  30.646  31.979  1.00  0.00    -0.354 N 
ATOM     45  C   UNL A   1      40.800  28.060  28.791  1.00  0.00     0.074 A 
ATOM     46  C   UNL A   1      39.990  28.224  27.602  1.00  0.00     0.031 C 
ATOM     47  C   UNL A   1      37.972  32.151  32.903  1.00  0.00     0.029 A 
ATOM     48  C   UNL A   1      39.169  31.352  33.147  1.00  0.00     0.049 A 
ATOM     49  H   UNL A   1      40.119  30.061  31.814  1.00  0.00     0.167 HD
ATOM     50  C   UNL A   1      41.917  27.295  28.866  1.00  0.00     0.034 A 
ATOM     51  C   UNL A   1      39.869  31.319  34.297  1.00  0.00     0.034 A 
ATOM     52  C   UNL A   1      42.704  27.154  30.065  1.00  0.00     0.049 A 
ATOM     53  C   UNL A   1      41.048  30.383  34.387  1.00  0.00     0.074 A 
ATOM     54  C   UNL A   1      43.810  26.354  30.290  1.00  0.00     0.029 A 
ATOM     55  N   UNL A   1      42.467  27.842  31.249  1.00  0.00    -0.354 N 
ATOM     56  N   UNL A   1      41.539  29.582  33.469  1.00  0.00    -0.248 NA
ATOM     57  C   UNL A   1      41.759  30.339  35.671  1.00  0.00     0.031 C 
ATOM     58  C   UNL A   1      44.216  26.529  31.618  1.00  0.00     0.029 A 
ATOM     59  C   UNL A   1      43.399  27.480  32.208  1.00  0.00     0.049 A 
ATOM     60  H   UNL A   1      41.741  28.494  31.386  1.00  0.00     0.167 HD
ATOM     61  C   UNL A   1      42.630  28.953  34.060  1.00  0.00     0.074 A 
ATOM     62  C   UNL A   1      42.734  29.480  35.406  1.00  0.00     0.031 C 
ATOM     63  C   UNL A   1      43.472  28.024  33.542  1.00  0.00     0.034 A 
BRANCH  50  64
ATOM     64  C   UNL A   1      42.293  26.506  27.637  1.00  0.00     0.023 A 
ATOM     65  C   UNL A   1      41.916  25.162  27.473  1.00  0.00     0.031 A 
ATOM     66  C   UNL A   1      43.086  27.096  26.636  1.00  0.00     0.131 A 
ATOM     67  C   UNL A   1      42.385  24.434  26.368  1.00  0.00     0.055 A 
ATOM     68  C   UNL A   1      43.491  26.387  25.504  1.00  0.00     0.041 A 
ATOM     69  F   UNL A   1      43.497  28.369  26.753  1.00  0.00    -0.206 F 
ATOM     70  C   UNL A   1      43.152  25.044  25.371  1.00  0.00     0.022 A 
BRANCH  67  71
ATOM     71  S   UNL A   1      42.088  22.646  26.312  1.00  0.00     0.124 S 
ATOM     72  O   UNL A   1      40.632  22.586  26.422  1.00  0.00    -0.237 OA
ATOM     73  O   UNL A   1      42.647  22.273  25.018  1.00  0.00    -0.237 OA
ATOM     74  O   UNL A   1      42.815  22.140  27.474  1.00  0.00    -0.744 OA
ENDBRANCH  67  71
ENDBRANCH  50  64
BRANCH  51  75
ATOM     75  C   UNL A   1      39.439  32.126  35.474  1.00  0.00     0.023 A 
ATOM     76  C   UNL A   1      38.714  31.548  36.527  1.00  0.00     0.031 A 
ATOM     77  C   UNL A   1      39.700  33.508  35.536  1.00  0.00     0.131 A 
ATOM     78  C   UNL A   1      38.237  32.353  37.573  1.00  0.00     0.055 A 
ATOM     79  C   UNL A   1      39.271  34.295  36.605  1.00  0.00     0.041 A 
ATOM     80  F   UNL A   1      40.385  34.116  34.554  1.00  0.00    -0.206 F 
ATOM     81  C   UNL A   1      38.522  33.720  37.627  1.00  0.00     0.022 A 
BRANCH  78  82
ATOM     82  S   UNL A   1      37.149  31.608  38.819  1.00  0.00     0.124 S 
ATOM     83  O   UNL A   1      37.959  31.714  40.026  1.00  0.00    -0.237 OA
ATOM     84  O   UNL A   1      35.977  32.475  38.753  1.00  0.00    -0.237 OA
ATOM     85  O   UNL A   1      36.944  30.248  38.322  1.00  0.00    -0.744 OA
ENDBRANCH  78  82
ENDBRANCH  51  75
BRANCH  63  86
ATOM     86  C   UNL A   1      44.600  27.570  34.430  1.00  0.00     0.023 A 
ATOM     87  C   UNL A   1      44.459  26.474  35.296  1.00  0.00     0.031 A 
ATOM     88  C   UNL A   1      45.823  28.261  34.420  1.00  0.00     0.131 A 
ATOM     89  C   UNL A   1      45.510  26.129  36.158  1.00  0.00     0.055 A 
ATOM     90  C   UNL A   1      46.882  27.886  35.245  1.00  0.00     0.041 A 
ATOM     91  F   UNL A   1      46.005  29.316  33.608  1.00  0.00    -0.206 F 
ATOM     92  C   UNL A   1      46.724  26.820  36.129  1.00  0.00     0.022 A 
BRANCH  89  93
ATOM     93  S   UNL A   1      45.244  24.808  37.371  1.00  0.00     0.124 S 
ATOM     94  O   UNL A   1      46.511  24.800  38.094  1.00  0.00    -0.237 OA
ATOM     95  O   UNL A   1      44.087  25.294  38.116  1.00  0.00    -0.237 OA
ATOM     96  O   UNL A   1      44.995  23.628  36.544  1.00  0.00    -0.744 OA
ENDBRANCH  89  93
ENDBRANCH  63  86
ENDBRANCH  37  38
ENDBRANCH  30  32
ENDBRANCH  29  30
ENDBRANCH  28  29
ENDBRANCH   1  28
TORSDOF 19
ENDMDL
MODEL 2
REMARK VINA RESULT:     -11.6      1.343      1.583
REMARK SMILES C[N@H+]1Cc2ccccc2C[C@@H]1C(=O)NCCC(=O)NCC(=O)OCCOC(=O)c1ccc(-c2c3nc(c(-c4cc(S(=O)(=O)[O-])ccc4F)c4ccc([nH]4)c(-c4cc(S(=O)(=O)[O-])ccc4F)c4nc(c(-c5cc(S(=O)(=O)[O-])ccc5F)c5ccc2[nH]5)C=C4)C=C3)cc1
REMARK SMILES IDX 24 1 23 2 21 3 22 4 20 5 19 6 17 7 18 8 16 10 15 11 14 12
REMARK SMILES IDX 12 13 13 14 11 16 1 17 2 18 3 19 4 21 10 22 5 23 9 24 6 25
REMARK SMILES IDX 8 26 7 27 25 28 26 29 27 30 28 31 29 32 30 33 91 34 31 35
REMARK SMILES IDX 90 36 32 37 33 38 34 39 84 40 35 41 89 42 83 43 85 44 36 45
REMARK SMILES IDX 88 46 82 47 81 48 37 50 69 51 49 52 68 53 50 54 53 55 67 56
REMARK SMILES IDX 86 57 51 58 52 59 66 61 87 62 54 63 38 64 39 65 47 66 40 67
REMARK SMILES IDX 46 68 48 69 45 70 41 71 42 72 43 73 44 74 70 75 71 76 79 77
REMARK SMILES IDX 72 78 78 79 80 80 77 81 73 82 74 83 75 84 76 85 55 86 56 87
REMARK SMILES IDX 64 88 57 89 63 90 65 91 62 92 58 93 59 94 60 95 61 96
REMARK H PARENT 19 9 14 15 2 20 85 49 53 60
REMARK Flexibility Score: inf
ROOT
ATOM      1  C   UNL A   1      31.418  29.159  25.357  1.00  0.00     0.274 C 
ENDROOT
BRANCH   1   2
ATOM      2  O   UNL A   1      31.604  29.063  23.934  1.00  0.00    -0.461 OA
BRANCH   2   3
ATOM      3  C   UNL A   1      30.479  28.811  23.205  1.00  0.00     0.325 C 
ATOM      4  O   UNL A   1      29.430  29.437  23.321  1.00  0.00    -0.250 OA
BRANCH   3   5
ATOM      5  C   UNL A   1      30.727  27.787  22.095  1.00  0.00     0.238 C 
BRANCH   5   6
ATOM      6  N   UNL A   1      32.107  27.364  21.944  1.00  0.00    -0.345 N 
ATOM      7  C   UNL A   1      32.616  26.122  22.134  1.00  0.00     0.222 C 
ATOM      8  O   UNL A   1      33.828  25.935  22.035  1.00  0.00    -0.275 OA
ATOM      9  H   UNL A   1      32.748  28.059  21.670  1.00  0.00     0.164 HD
BRANCH   7  10
ATOM     10  C   UNL A   1      31.687  24.995  22.508  1.00  0.00     0.121 C 
BRANCH  10  11
ATOM     11  C   UNL A   1      32.093  24.393  23.849  1.00  0.00     0.126 C 
BRANCH  11  12
ATOM     12  N   UNL A   1      33.442  23.864  24.012  1.00  0.00    -0.350 N 
ATOM     13  C   UNL A   1      33.932  23.475  25.245  1.00  0.00     0.278 C 
ATOM     14  O   UNL A   1      33.819  24.158  26.259  1.00  0.00    -0.268 OA
ATOM     15  H   UNL A   1      34.022  23.782  23.220  1.00  0.00     0.163 HD
BRANCH  13  16
ATOM     16  C   UNL A   1      34.387  22.011  25.321  1.00  0.00     0.278 C 
ATOM     17  C   UNL A   1      36.771  22.531  25.441  1.00  0.00     0.333 C 
ATOM     18  N   UNL A   1      35.739  21.735  24.758  1.00  0.00    -0.323 N 
ATOM     19  C   UNL A   1      36.045  20.292  24.993  1.00  0.00     0.299 C 
ATOM     20  H   UNL A   1      35.742  21.973  23.765  1.00  0.00     0.348 HD
ATOM     21  C   UNL A   1      34.933  19.328  24.617  1.00  0.00     0.010 A 
ATOM     22  C   UNL A   1      33.335  21.247  24.492  1.00  0.00     0.111 C 
ATOM     23  C   UNL A   1      35.177  17.949  24.558  1.00  0.00     0.010 A 
ATOM     24  C   UNL A   1      33.624  19.783  24.408  1.00  0.00    -0.033 A 
ATOM     25  C   UNL A   1      34.145  17.056  24.254  1.00  0.00     0.001 A 
ATOM     26  C   UNL A   1      32.599  18.891  24.071  1.00  0.00     0.004 A 
ATOM     27  C   UNL A   1      32.859  17.528  23.998  1.00  0.00     0.000 A 
ENDBRANCH  13  16
ENDBRANCH  11  12
ENDBRANCH  10  11
ENDBRANCH   7  10
ENDBRANCH   5   6
ENDBRANCH   3   5
ENDBRANCH   2   3
ENDBRANCH   1   2
BRANCH   1  28
ATOM     28  C   UNL A   1      31.746  30.569  25.862  1.00  0.00     0.275 C 
BRANCH  28  29
ATOM     29  O   UNL A   1      32.524  30.543  27.075  1.00  0.00    -0.458 OA
BRANCH  29  30
ATOM     30  C   UNL A   1      33.224  31.671  27.334  1.00  0.00     0.338 C 
ATOM     31  O   UNL A   1      32.808  32.822  27.289  1.00  0.00    -0.246 OA
BRANCH  30  32
ATOM     32  C   UNL A   1      34.569  31.334  27.821  1.00  0.00     0.060 A 
ATOM     33  C   UNL A   1      34.826  30.018  28.214  1.00  0.00     0.016 A 
ATOM     34  C   UNL A   1      35.527  32.328  28.013  1.00  0.00     0.016 A 
ATOM     35  C   UNL A   1      36.015  29.694  28.848  1.00  0.00     0.010 A 
ATOM     36  C   UNL A   1      36.742  31.993  28.621  1.00  0.00     0.010 A 
ATOM     37  C   UNL A   1      36.981  30.679  29.062  1.00  0.00    -0.014 A 
BRANCH  37  38
ATOM     38  C   UNL A   1      38.204  30.336  29.823  1.00  0.00     0.031 A 
ATOM     39  C   UNL A   1      39.226  29.433  29.197  1.00  0.00     0.074 A 
ATOM     40  C   UNL A   1      38.420  30.886  31.033  1.00  0.00     0.049 A 
ATOM     41  N   UNL A   1      40.284  28.883  29.731  1.00  0.00    -0.248 NA
ATOM     42  C   UNL A   1      39.028  29.109  27.776  1.00  0.00     0.031 C 
ATOM     43  C   UNL A   1      37.544  31.863  31.684  1.00  0.00     0.029 A 
ATOM     44  N   UNL A   1      39.443  30.710  31.925  1.00  0.00    -0.354 N 
ATOM     45  C   UNL A   1      40.866  28.125  28.721  1.00  0.00     0.074 A 
ATOM     46  C   UNL A   1      40.033  28.277  27.546  1.00  0.00     0.031 C 
ATOM     47  C   UNL A   1      38.075  32.207  32.868  1.00  0.00     0.029 A 
ATOM     48  C   UNL A   1      39.283  31.419  33.094  1.00  0.00     0.049 A 
ATOM     49  H   UNL A   1      40.221  30.131  31.749  1.00  0.00     0.167 HD
ATOM     50  C   UNL A   1      41.990  27.370  28.779  1.00  0.00     0.034 A 
ATOM     51  C   UNL A   1      40.004  31.396  34.231  1.00  0.00     0.034 A 
ATOM     52  C   UNL A   1      42.798  27.239  29.965  1.00  0.00     0.049 A 
ATOM     53  C   UNL A   1      41.192  30.470  34.304  1.00  0.00     0.074 A 
ATOM     54  C   UNL A   1      43.916  26.450  30.173  1.00  0.00     0.029 A 
ATOM     55  N   UNL A   1      42.577  27.930  31.151  1.00  0.00    -0.354 N 
ATOM     56  N   UNL A   1      41.673  29.670  33.381  1.00  0.00    -0.248 NA
ATOM     57  C   UNL A   1      41.926  30.436  35.575  1.00  0.00     0.031 C 
ATOM     58  C   UNL A   1      44.343  26.633  31.494  1.00  0.00     0.029 A 
ATOM     59  C   UNL A   1      43.528  27.579  32.094  1.00  0.00     0.049 A 
ATOM     60  H   UNL A   1      41.848  28.576  31.298  1.00  0.00     0.167 HD
ATOM     61  C   UNL A   1      42.780  29.052  33.954  1.00  0.00     0.074 A 
ATOM     62  C   UNL A   1      42.903  29.585  35.296  1.00  0.00     0.031 C 
ATOM     63  C   UNL A   1      43.621  28.128  33.425  1.00  0.00     0.034 A 
BRANCH  50  64
ATOM     64  C   UNL A   1      42.351  26.579  27.546  1.00  0.00     0.023 A 
ATOM     65  C   UNL A   1      41.983  25.231  27.394  1.00  0.00     0.031 A 
ATOM     66  C   UNL A   1      43.121  27.173  26.530  1.00  0.00     0.131 A 
ATOM     67  C   UNL A   1      42.439  24.504  26.284  1.00  0.00     0.055 A 
ATOM     68  C   UNL A   1      43.511  26.463  25.393  1.00  0.00     0.041 A 
ATOM     69  F   UNL A   1      43.522  28.450  26.635  1.00  0.00    -0.206 F 
ATOM     70  C   UNL A   1      43.182  25.116  25.271  1.00  0.00     0.022 A 
BRANCH  67  71
ATOM     71  S   UNL A   1      42.157  22.713  26.239  1.00  0.00     0.124 S 
ATOM     72  O   UNL A   1      42.896  22.269  27.419  1.00  0.00    -0.237 OA
ATOM     73  O   UNL A   1      40.704  22.619  26.322  1.00  0.00    -0.237 OA
ATOM     74  O   UNL A   1      42.735  22.305  24.961  1.00  0.00    -0.744 OA
ENDBRANCH  67  71
ENDBRANCH  50  64
BRANCH  51  75
ATOM     75  C   UNL A   1      39.588  32.203  35.413  1.00  0.00     0.023 A 
ATOM     76  C   UNL A   1      40.058  33.513  35.601  1.00  0.00     0.031 A 
ATOM     77  C   UNL A   1      38.755  31.655  36.406  1.00  0.00     0.131 A 
ATOM     78  C   UNL A   1      39.730  34.213  36.773  1.00  0.00     0.055 A 
ATOM     79  C   UNL A   1      38.386  32.374  37.544  1.00  0.00     0.041 A 
ATOM     80  F   UNL A   1      38.280  30.405  36.282  1.00  0.00    -0.206 F 
ATOM     81  C   UNL A   1      38.886  33.658  37.739  1.00  0.00     0.022 A 
BRANCH  78  82
ATOM     82  S   UNL A   1      40.502  35.827  37.068  1.00  0.00     0.124 S 
ATOM     83  O   UNL A   1      39.777  36.681  36.135  1.00  0.00    -0.237 OA
ATOM     84  O   UNL A   1      40.223  36.040  38.484  1.00  0.00    -0.237 OA
ATOM     85  O   UNL A   1      41.908  35.596  36.739  1.00  0.00    -0.744 OA
ENDBRANCH  78  82
ENDBRANCH  51  75
BRANCH  63  86
ATOM     86  C   UNL A   1      44.768  27.687  34.295  1.00  0.00     0.023 A 
ATOM     87  C   UNL A   1      44.638  26.619  35.197  1.00  0.00     0.031 A 
ATOM     88  C   UNL A   1      45.998  28.362  34.229  1.00  0.00     0.131 A 
ATOM     89  C   UNL A   1      45.708  26.288  36.040  1.00  0.00     0.055 A 
ATOM     90  C   UNL A   1      47.076  27.998  35.036  1.00  0.00     0.041 A 
ATOM     91  F   UNL A   1      46.170  29.389  33.381  1.00  0.00    -0.206 F 
ATOM     92  C   UNL A   1      46.930  26.962  35.955  1.00  0.00     0.022 A 
BRANCH  89  93
ATOM     93  S   UNL A   1      45.461  25.007  37.299  1.00  0.00     0.124 S 
ATOM     94  O   UNL A   1      46.551  25.283  38.231  1.00  0.00    -0.237 OA
ATOM     95  O   UNL A   1      44.117  25.301  37.785  1.00  0.00    -0.237 OA
ATOM     96  O   UNL A   1      45.588  23.759  36.549  1.00  0.00    -0.744 OA
ENDBRANCH  89  93
ENDBRANCH  63  86
ENDBRANCH  37  38
ENDBRANCH  30  32
ENDBRANCH  29  30
ENDBRANCH  28  29
ENDBRANCH   1  28
TORSDOF 19
ENDMDL
MODEL 3
REMARK VINA RESULT:     -11.5      2.416      2.752
REMARK SMILES C[N@H+]1Cc2ccccc2C[C@@H]1C(=O)NCCC(=O)NCC(=O)OCCOC(=O)c1ccc(-c2c3nc(c(-c4cc(S(=O)(=O)[O-])ccc4F)c4ccc([nH]4)c(-c4cc(S(=O)(=O)[O-])ccc4F)c4nc(c(-c5cc(S(=O)(=O)[O-])ccc5F)c5ccc2[nH]5)C=C4)C=C3)cc1
REMARK SMILES IDX 24 1 23 2 21 3 22 4 20 5 19 6 17 7 18 8 16 10 15 11 14 12
REMARK SMILES IDX 12 13 13 14 11 16 1 17 2 18 3 19 4 21 10 22 5 23 9 24 6 25
REMARK SMILES IDX 8 26 7 27 25 28 26 29 27 30 28 31 29 32 30 33 91 34 31 35
REMARK SMILES IDX 90 36 32 37 33 38 34 39 84 40 35 41 89 42 83 43 85 44 36 45
REMARK SMILES IDX 88 46 82 47 81 48 37 50 69 51 49 52 68 53 50 54 53 55 67 56
REMARK SMILES IDX 86 57 51 58 52 59 66 61 87 62 54 63 38 64 39 65 47 66 40 67
REMARK SMILES IDX 46 68 48 69 45 70 41 71 42 72 43 73 44 74 70 75 71 76 79 77
REMARK SMILES IDX 72 78 78 79 80 80 77 81 73 82 74 83 75 84 76 85 55 86 56 87
REMARK SMILES IDX 64 88 57 89 63 90 65 91 62 92 58 93 59 94 60 95 61 96
REMARK H PARENT 19 9 14 15 2 20 85 49 53 60
REMARK Flexibility Score: inf
ROOT
ATOM      1  C   UNL A   1      31.715  28.795  25.489  1.00  0.00     0.274 C 
ENDROOT
BRANCH   1   2
ATOM      2  O   UNL A   1      31.701  28.995  24.065  1.00  0.00    -0.461 OA
BRANCH   2   3
ATOM      3  C   UNL A   1      30.471  29.181  23.504  1.00  0.00     0.325 C 
ATOM      4  O   UNL A   1      29.725  30.115  23.780  1.00  0.00    -0.250 OA
BRANCH   3   5
ATOM      5  C   UNL A   1      30.205  28.202  22.359  1.00  0.00     0.238 C 
BRANCH   5   6
ATOM      6  N   UNL A   1      31.307  27.315  22.036  1.00  0.00    -0.345 N 
ATOM      7  C   UNL A   1      31.482  26.033  22.442  1.00  0.00     0.222 C 
ATOM      8  O   UNL A   1      32.512  25.431  22.140  1.00  0.00    -0.275 OA
ATOM      9  H   UNL A   1      32.009  27.687  21.455  1.00  0.00     0.164 HD
BRANCH   7  10
ATOM     10  C   UNL A   1      30.425  25.381  23.295  1.00  0.00     0.121 C 
BRANCH  10  11
ATOM     11  C   UNL A   1      30.779  23.922  23.559  1.00  0.00     0.126 C 
BRANCH  11  12
ATOM     12  N   UNL A   1      31.967  23.608  24.344  1.00  0.00    -0.350 N 
ATOM     13  C   UNL A   1      31.901  22.863  25.507  1.00  0.00     0.278 C 
ATOM     14  O   UNL A   1      31.077  23.072  26.393  1.00  0.00    -0.268 OA
ATOM     15  H   UNL A   1      32.843  23.938  24.037  1.00  0.00     0.163 HD
BRANCH  13  16
ATOM     16  C   UNL A   1      32.749  21.584  25.497  1.00  0.00     0.278 C 
ATOM     17  C   UNL A   1      34.745  22.639  26.430  1.00  0.00     0.333 C 
ATOM     18  N   UNL A   1      34.217  21.795  25.347  1.00  0.00    -0.323 N 
ATOM     19  C   UNL A   1      34.881  20.460  25.444  1.00  0.00     0.299 C 
ATOM     20  H   UNL A   1      34.398  22.252  24.453  1.00  0.00     0.348 HD
ATOM     21  C   UNL A   1      34.253  19.365  24.599  1.00  0.00     0.010 A 
ATOM     22  C   UNL A   1      32.230  20.799  24.276  1.00  0.00     0.111 C 
ATOM     23  C   UNL A   1      34.916  18.145  24.409  1.00  0.00     0.010 A 
ATOM     24  C   UNL A   1      32.966  19.514  24.064  1.00  0.00    -0.033 A 
ATOM     25  C   UNL A   1      34.321  17.119  23.667  1.00  0.00     0.001 A 
ATOM     26  C   UNL A   1      32.386  18.500  23.293  1.00  0.00     0.004 A 
ATOM     27  C   UNL A   1      33.062  17.302  23.099  1.00  0.00     0.000 A 
ENDBRANCH  13  16
ENDBRANCH  11  12
ENDBRANCH  10  11
ENDBRANCH   7  10
ENDBRANCH   5   6
ENDBRANCH   3   5
ENDBRANCH   2   3
ENDBRANCH   1   2
BRANCH   1  28
ATOM     28  C   UNL A   1      32.052  30.097  26.225  1.00  0.00     0.275 C 
BRANCH  28  29
ATOM     29  O   UNL A   1      33.473  30.279  26.382  1.00  0.00    -0.458 OA
BRANCH  29  30
ATOM     30  C   UNL A   1      33.837  31.295  27.197  1.00  0.00     0.338 C 
ATOM     31  O   UNL A   1      33.168  32.279  27.489  1.00  0.00    -0.246 OA
BRANCH  30  32
ATOM     32  C   UNL A   1      35.135  31.008  27.821  1.00  0.00     0.060 A 
ATOM     33  C   UNL A   1      35.349  29.737  28.361  1.00  0.00     0.016 A 
ATOM     34  C   UNL A   1      36.084  32.015  27.990  1.00  0.00     0.016 A 
ATOM     35  C   UNL A   1      36.481  29.476  29.117  1.00  0.00     0.010 A 
ATOM     36  C   UNL A   1      37.244  31.742  28.723  1.00  0.00     0.010 A 
ATOM     37  C   UNL A   1      37.436  30.477  29.309  1.00  0.00    -0.014 A 
BRANCH  37  38
ATOM     38  C   UNL A   1      38.591  30.210  30.195  1.00  0.00     0.031 A 
ATOM     39  C   UNL A   1      39.687  29.305  29.716  1.00  0.00     0.074 A 
ATOM     40  C   UNL A   1      38.682  30.829  31.387  1.00  0.00     0.049 A 
ATOM     41  N   UNL A   1      40.704  28.814  30.373  1.00  0.00    -0.248 NA
ATOM     42  C   UNL A   1      39.628  28.899  28.303  1.00  0.00     0.031 C 
ATOM     43  C   UNL A   1      37.728  31.815  31.901  1.00  0.00     0.029 A 
ATOM     44  N   UNL A   1      39.623  30.731  32.377  1.00  0.00    -0.354 N 
ATOM     45  C   UNL A   1      41.394  28.020  29.464  1.00  0.00     0.074 A 
ATOM     46  C   UNL A   1      40.669  28.085  28.212  1.00  0.00     0.031 C 
ATOM     47  C   UNL A   1      38.140  32.236  33.107  1.00  0.00     0.029 A 
ATOM     48  C   UNL A   1      39.339  31.497  33.485  1.00  0.00     0.049 A 
ATOM     49  H   UNL A   1      40.427  30.166  32.304  1.00  0.00     0.167 HD
ATOM     50  C   UNL A   1      42.525  27.301  29.666  1.00  0.00     0.034 A 
ATOM     51  C   UNL A   1      39.953  31.555  34.683  1.00  0.00     0.034 A 
ATOM     52  C   UNL A   1      43.224  27.257  30.926  1.00  0.00     0.049 A 
ATOM     53  C   UNL A   1      41.151  30.669  34.914  1.00  0.00     0.074 A 
ATOM     54  C   UNL A   1      44.336  26.512  31.277  1.00  0.00     0.029 A 
ATOM     55  N   UNL A   1      42.878  28.004  32.046  1.00  0.00    -0.354 N 
ATOM     56  N   UNL A   1      41.734  29.834  34.084  1.00  0.00    -0.248 NA
ATOM     57  C   UNL A   1      41.766  30.724  36.246  1.00  0.00     0.031 C 
ATOM     58  C   UNL A   1      44.636  26.777  32.619  1.00  0.00     0.029 A 
ATOM     59  C   UNL A   1      43.747  27.731  33.090  1.00  0.00     0.049 A 
ATOM     60  H   UNL A   1      42.125  28.636  32.090  1.00  0.00     0.167 HD
ATOM     61  C   UNL A   1      42.798  29.280  34.789  1.00  0.00     0.074 A 
ATOM     62  C   UNL A   1      42.784  29.887  36.105  1.00  0.00     0.031 C 
ATOM     63  C   UNL A   1      43.704  28.353  34.390  1.00  0.00     0.034 A 
BRANCH  50  64
ATOM     64  C   UNL A   1      43.016  26.456  28.517  1.00  0.00     0.023 A 
ATOM     65  C   UNL A   1      44.115  26.841  27.729  1.00  0.00     0.031 A 
ATOM     66  C   UNL A   1      42.340  25.272  28.174  1.00  0.00     0.131 A 
ATOM     67  C   UNL A   1      44.464  26.083  26.600  1.00  0.00     0.055 A 
ATOM     68  C   UNL A   1      42.737  24.484  27.092  1.00  0.00     0.041 A 
ATOM     69  F   UNL A   1      41.268  24.870  28.876  1.00  0.00    -0.206 F 
ATOM     70  C   UNL A   1      43.797  24.895  26.289  1.00  0.00     0.022 A 
BRANCH  67  71
ATOM     71  S   UNL A   1      45.723  26.734  25.468  1.00  0.00     0.124 S 
ATOM     72  O   UNL A   1      46.784  27.117  26.397  1.00  0.00    -0.237 OA
ATOM     73  O   UNL A   1      46.004  25.587  24.613  1.00  0.00    -0.237 OA
ATOM     74  O   UNL A   1      45.048  27.851  24.810  1.00  0.00    -0.744 OA
ENDBRANCH  67  71
ENDBRANCH  50  64
BRANCH  51  75
ATOM     75  C   UNL A   1      39.412  32.413  35.775  1.00  0.00     0.023 A 
ATOM     76  C   UNL A   1      39.819  33.748  35.921  1.00  0.00     0.031 A 
ATOM     77  C   UNL A   1      38.518  31.890  36.728  1.00  0.00     0.131 A 
ATOM     78  C   UNL A   1      39.369  34.501  37.016  1.00  0.00     0.055 A 
ATOM     79  C   UNL A   1      38.030  32.659  37.786  1.00  0.00     0.041 A 
ATOM     80  F   UNL A   1      38.099  30.617  36.642  1.00  0.00    -0.206 F 
ATOM     81  C   UNL A   1      38.467  33.970  37.943  1.00  0.00     0.022 A 
BRANCH  78  82
ATOM     82  S   UNL A   1      40.058  36.159  37.275  1.00  0.00     0.124 S 
ATOM     83  O   UNL A   1      39.904  36.756  35.954  1.00  0.00    -0.237 OA
ATOM     84  O   UNL A   1      39.189  36.686  38.323  1.00  0.00    -0.237 OA
ATOM     85  O   UNL A   1      41.436  35.895  37.684  1.00  0.00    -0.744 OA
ENDBRANCH  78  82
ENDBRANCH  51  75
BRANCH  63  86
ATOM     86  C   UNL A   1      44.777  27.992  35.383  1.00  0.00     0.023 A 
ATOM     87  C   UNL A   1      45.995  28.690  35.436  1.00  0.00     0.031 A 
ATOM     88  C   UNL A   1      44.580  26.922  36.271  1.00  0.00     0.131 A 
ATOM     89  C   UNL A   1      46.995  28.275  36.327  1.00  0.00     0.055 A 
ATOM     90  C   UNL A   1      45.560  26.543  37.188  1.00  0.00     0.041 A 
ATOM     91  F   UNL A   1      43.432  26.226  36.258  1.00  0.00    -0.206 F 
ATOM     92  C   UNL A   1      46.780  27.214  37.211  1.00  0.00     0.022 A 
BRANCH  89  93
ATOM     93  S   UNL A   1      48.610  29.096  36.267  1.00  0.00     0.124 S 
ATOM     94  O   UNL A   1      49.490  28.078  36.833  1.00  0.00    -0.237 OA
ATOM     95  O   UNL A   1      48.775  29.359  34.841  1.00  0.00    -0.237 OA
ATOM     96  O   UNL A   1      48.422  30.284  37.096  1.00  0.00    -0.744 OA
ENDBRANCH  89  93
ENDBRANCH  63  86
ENDBRANCH  37  38
ENDBRANCH  30  32
ENDBRANCH  29  30
ENDBRANCH  28  29
ENDBRANCH   1  28
TORSDOF 19
ENDMDL
