MODEL 1
REMARK VINA RESULT:     -12.0      0.000      0.000
REMARK SMILES COc1cc(/C=N/c2cccc(F)c2)ccc1OCc1cccc(C(=O)OCCOC(=O)c2ccc(-c3c4nc(c(-c5cc(S(=O)(=O)[O-])ccc5F)c5ccc([nH]5)c(-c5cc(S(=O)(=O)[O-])ccc5F)c5nc(c(-c6cc(S(=O)(=O)[O-])ccc6F)c6ccc3[nH]6)C=C5)C=C4)cc2)c1
REMARK SMILES IDX 28 1 27 2 25 3 26 4 24 5 20 6 21 7 96 8 22 9 23 10 19 11
REMARK SMILES IDX 18 12 17 13 3 14 4 15 5 16 16 17 15 18 2 19 1 20 6 21 7 22
REMARK SMILES IDX 8 23 9 24 14 25 10 26 12 27 11 28 13 29 29 30 30 31 31 32
REMARK SMILES IDX 32 33 33 34 34 35 95 36 35 37 94 38 36 39 37 40 38 41 88 42
REMARK SMILES IDX 39 43 93 44 87 45 89 46 40 47 92 48 86 49 85 50 41 52 73 53
REMARK SMILES IDX 53 54 72 55 54 56 57 57 71 58 90 59 55 60 56 61 70 63 91 64
REMARK SMILES IDX 58 65 42 66 43 67 51 68 44 69 50 70 52 71 49 72 45 73 46 74
REMARK SMILES IDX 47 75 48 76 74 77 75 78 83 79 76 80 82 81 84 82 81 83 77 84
REMARK SMILES IDX 78 85 79 86 80 87 59 88 60 89 68 90 61 91 67 92 69 93 66 94
REMARK SMILES IDX 62 95 63 96 64 97 65 98
REMARK H PARENT 89 51 57 62
REMARK Flexibility Score: inf
ROOT
ATOM      1  C   UNL A   1      31.942  29.677  24.570  1.00  0.00     0.275 C 
ENDROOT
BRANCH   1   2
ATOM      2  O   UNL A   1      30.583  29.508  24.122  1.00  0.00    -0.458 OA
BRANCH   2   3
ATOM      3  C   UNL A   1      30.410  28.825  22.962  1.00  0.00     0.338 C 
ATOM      4  O   UNL A   1      30.234  29.302  21.853  1.00  0.00    -0.246 OA
BRANCH   3   5
ATOM      5  C   UNL A   1      30.666  27.386  23.204  1.00  0.00     0.060 A 
ATOM      6  C   UNL A   1      31.744  25.281  22.663  1.00  0.00    -0.010 A 
ATOM      7  C   UNL A   1      30.753  24.622  23.406  1.00  0.00     0.007 A 
ATOM      8  C   UNL A   1      31.629  26.670  22.490  1.00  0.00     0.023 A 
ATOM      9  C   UNL A   1      29.861  25.342  24.194  1.00  0.00     0.001 A 
ATOM     10  C   UNL A   1      29.879  26.727  24.153  1.00  0.00     0.016 A 
BRANCH   6  11
ATOM     11  C   UNL A   1      32.994  24.592  22.137  1.00  0.00     0.265 C 
BRANCH  11  12
ATOM     12  O   UNL A   1      33.155  23.183  22.328  1.00  0.00    -0.485 OA
BRANCH  12  13
ATOM     13  C   UNL A   1      34.088  22.697  23.204  1.00  0.00     0.161 A 
ATOM     14  C   UNL A   1      33.959  21.636  24.118  1.00  0.00     0.161 A 
ATOM     15  C   UNL A   1      35.094  21.178  24.810  1.00  0.00     0.060 A 
ATOM     16  C   UNL A   1      36.343  21.771  24.578  1.00  0.00    -0.003 A 
ATOM     17  C   UNL A   1      35.334  23.316  23.033  1.00  0.00     0.051 A 
ATOM     18  C   UNL A   1      36.461  22.847  23.698  1.00  0.00     0.014 A 
BRANCH  14  19
ATOM     19  O   UNL A   1      32.717  21.108  24.351  1.00  0.00    -0.493 OA
ATOM     20  C   UNL A   1      32.709  19.925  25.154  1.00  0.00     0.278 C 
ENDBRANCH  14  19
BRANCH  16  21
ATOM     21  C   UNL A   1      37.562  21.348  25.291  1.00  0.00     0.120 C 
ATOM     22  N   UNL A   1      38.282  22.162  25.998  1.00  0.00    -0.256 NA
BRANCH  22  23
ATOM     23  C   UNL A   1      39.500  21.636  26.467  1.00  0.00     0.066 A 
ATOM     24  C   UNL A   1      40.311  22.361  27.345  1.00  0.00     0.028 A 
ATOM     25  C   UNL A   1      39.944  20.394  26.000  1.00  0.00     0.067 A 
ATOM     26  C   UNL A   1      41.547  21.848  27.759  1.00  0.00     0.005 A 
ATOM     27  C   UNL A   1      41.169  19.891  26.417  1.00  0.00     0.125 A 
ATOM     28  C   UNL A   1      41.977  20.607  27.290  1.00  0.00     0.039 A 
ATOM     29  F   UNL A   1      41.580  18.699  25.961  1.00  0.00    -0.207 F 
ENDBRANCH  22  23
ENDBRANCH  16  21
ENDBRANCH  12  13
ENDBRANCH  11  12
ENDBRANCH   6  11
ENDBRANCH   3   5
ENDBRANCH   2   3
ENDBRANCH   1   2
BRANCH   1  30
ATOM     30  C   UNL A   1      31.982  29.800  26.094  1.00  0.00     0.275 C 
BRANCH  30  31
ATOM     31  O   UNL A   1      33.349  29.845  26.545  1.00  0.00    -0.458 OA
BRANCH  31  32
ATOM     32  C   UNL A   1      33.730  30.990  27.161  1.00  0.00     0.338 C 
ATOM     33  O   UNL A   1      33.096  32.026  27.255  1.00  0.00    -0.246 OA
BRANCH  32  34
ATOM     34  C   UNL A   1      35.050  30.794  27.785  1.00  0.00     0.060 A 
ATOM     35  C   UNL A   1      35.362  29.532  28.273  1.00  0.00     0.016 A 
ATOM     36  C   UNL A   1      35.911  31.860  28.024  1.00  0.00     0.016 A 
ATOM     37  C   UNL A   1      36.457  29.346  29.112  1.00  0.00     0.010 A 
ATOM     38  C   UNL A   1      37.089  31.640  28.756  1.00  0.00     0.010 A 
ATOM     39  C   UNL A   1      37.357  30.392  29.352  1.00  0.00    -0.014 A 
BRANCH  39  40
ATOM     40  C   UNL A   1      38.542  30.182  30.244  1.00  0.00     0.031 A 
ATOM     41  C   UNL A   1      39.739  29.403  29.754  1.00  0.00     0.074 A 
ATOM     42  C   UNL A   1      38.567  30.704  31.490  1.00  0.00     0.049 A 
ATOM     43  N   UNL A   1      40.784  28.976  30.421  1.00  0.00    -0.248 NA
ATOM     44  C   UNL A   1      39.751  29.038  28.331  1.00  0.00     0.031 C 
ATOM     45  C   UNL A   1      37.507  31.517  32.090  1.00  0.00     0.029 A 
ATOM     46  N   UNL A   1      39.523  30.637  32.477  1.00  0.00    -0.354 N 
ATOM     47  C   UNL A   1      41.547  28.245  29.513  1.00  0.00     0.074 A 
ATOM     48  C   UNL A   1      40.828  28.270  28.255  1.00  0.00     0.031 C 
ATOM     49  C   UNL A   1      37.888  31.911  33.315  1.00  0.00     0.029 A 
ATOM     50  C   UNL A   1      39.169  31.293  33.635  1.00  0.00     0.049 A 
ATOM     51  H   UNL A   1      40.380  30.165  32.366  1.00  0.00     0.167 HD
ATOM     52  C   UNL A   1      42.733  27.613  29.708  1.00  0.00     0.034 A 
ATOM     53  C   UNL A   1      39.771  31.355  34.841  1.00  0.00     0.034 A 
ATOM     54  C   UNL A   1      43.462  27.633  30.956  1.00  0.00     0.049 A 
ATOM     55  C   UNL A   1      41.061  30.607  35.051  1.00  0.00     0.074 A 
ATOM     56  C   UNL A   1      44.684  27.050  31.251  1.00  0.00     0.029 A 
ATOM     57  N   UNL A   1      43.042  28.270  32.118  1.00  0.00    -0.354 N 
ATOM     58  N   UNL A   1      41.742  29.879  34.197  1.00  0.00    -0.248 NA
ATOM     59  C   UNL A   1      41.657  30.683  36.389  1.00  0.00     0.031 C 
ATOM     60  C   UNL A   1      44.966  27.274  32.603  1.00  0.00     0.029 A 
ATOM     61  C   UNL A   1      43.963  28.067  33.136  1.00  0.00     0.049 A 
ATOM     62  H   UNL A   1      42.210  28.790  32.205  1.00  0.00     0.167 HD
ATOM     63  C   UNL A   1      42.856  29.420  34.895  1.00  0.00     0.074 A 
ATOM     64  C   UNL A   1      42.767  29.979  36.229  1.00  0.00     0.031 C 
ATOM     65  C   UNL A   1      43.857  28.608  34.472  1.00  0.00     0.034 A 
BRANCH  52  66
ATOM     66  C   UNL A   1      43.286  26.796  28.560  1.00  0.00     0.023 A 
ATOM     67  C   UNL A   1      44.382  27.222  27.792  1.00  0.00     0.031 A 
ATOM     68  C   UNL A   1      42.673  25.578  28.206  1.00  0.00     0.131 A 
ATOM     69  C   UNL A   1      44.777  26.486  26.663  1.00  0.00     0.055 A 
ATOM     70  C   UNL A   1      43.127  24.805  27.135  1.00  0.00     0.041 A 
ATOM     71  F   UNL A   1      41.610  25.123  28.888  1.00  0.00    -0.206 F 
ATOM     72  C   UNL A   1      44.174  25.267  26.345  1.00  0.00     0.022 A 
BRANCH  69  73
ATOM     73  S   UNL A   1      45.983  27.223  25.525  1.00  0.00     0.124 S 
ATOM     74  O   UNL A   1      47.117  27.465  26.414  1.00  0.00    -0.237 OA
ATOM     75  O   UNL A   1      46.164  26.173  24.532  1.00  0.00    -0.237 OA
ATOM     76  O   UNL A   1      45.311  28.428  25.045  1.00  0.00    -0.744 OA
ENDBRANCH  69  73
ENDBRANCH  52  66
BRANCH  53  77
ATOM     77  C   UNL A   1      39.126  32.092  35.967  1.00  0.00     0.023 A 
ATOM     78  C   UNL A   1      38.390  31.417  36.953  1.00  0.00     0.031 A 
ATOM     79  C   UNL A   1      39.212  33.494  36.054  1.00  0.00     0.131 A 
ATOM     80  C   UNL A   1      37.743  32.147  37.965  1.00  0.00     0.055 A 
ATOM     81  C   UNL A   1      38.617  34.209  37.094  1.00  0.00     0.041 A 
ATOM     82  F   UNL A   1      39.898  34.192  35.134  1.00  0.00    -0.206 F 
ATOM     83  C   UNL A   1      37.867  33.535  38.052  1.00  0.00     0.022 A 
BRANCH  80  84
ATOM     84  S   UNL A   1      36.670  31.258  39.126  1.00  0.00     0.124 S 
ATOM     85  O   UNL A   1      35.523  32.156  39.218  1.00  0.00    -0.237 OA
ATOM     86  O   UNL A   1      36.444  29.998  38.428  1.00  0.00    -0.237 OA
ATOM     87  O   UNL A   1      37.485  31.162  40.336  1.00  0.00    -0.744 OA
ENDBRANCH  80  84
ENDBRANCH  53  77
BRANCH  65  88
ATOM     88  C   UNL A   1      44.958  28.312  35.464  1.00  0.00     0.023 A 
ATOM     89  C   UNL A   1      44.809  27.331  36.461  1.00  0.00     0.031 A 
ATOM     90  C   UNL A   1      46.155  29.046  35.434  1.00  0.00     0.131 A 
ATOM     91  C   UNL A   1      45.812  27.159  37.428  1.00  0.00     0.055 A 
ATOM     92  C   UNL A   1      47.178  28.825  36.359  1.00  0.00     0.041 A 
ATOM     93  F   UNL A   1      46.351  29.998  34.508  1.00  0.00    -0.206 F 
ATOM     94  C   UNL A   1      47.002  27.888  37.373  1.00  0.00     0.022 A 
BRANCH  91  95
ATOM     95  S   UNL A   1      45.491  26.051  38.828  1.00  0.00     0.124 S 
ATOM     96  O   UNL A   1      44.700  26.900  39.713  1.00  0.00    -0.237 OA
ATOM     97  O   UNL A   1      44.777  24.947  38.196  1.00  0.00    -0.237 OA
ATOM     98  O   UNL A   1      46.829  25.722  39.319  1.00  0.00    -0.744 OA
ENDBRANCH  91  95
ENDBRANCH  65  88
ENDBRANCH  39  40
ENDBRANCH  32  34
ENDBRANCH  31  32
ENDBRANCH  30  31
ENDBRANCH   1  30
TORSDOF 20
ENDMDL
MODEL 2
REMARK VINA RESULT:     -12.0      4.330     10.990
REMARK SMILES COc1cc(/C=N/c2cccc(F)c2)ccc1OCc1cccc(C(=O)OCCOC(=O)c2ccc(-c3c4nc(c(-c5cc(S(=O)(=O)[O-])ccc5F)c5ccc([nH]5)c(-c5cc(S(=O)(=O)[O-])ccc5F)c5nc(c(-c6cc(S(=O)(=O)[O-])ccc6F)c6ccc3[nH]6)C=C5)C=C4)cc2)c1
REMARK SMILES IDX 28 1 27 2 25 3 26 4 24 5 20 6 21 7 96 8 22 9 23 10 19 11
REMARK SMILES IDX 18 12 17 13 3 14 4 15 5 16 16 17 15 18 2 19 1 20 6 21 7 22
REMARK SMILES IDX 8 23 9 24 14 25 10 26 12 27 11 28 13 29 29 30 30 31 31 32
REMARK SMILES IDX 32 33 33 34 34 35 95 36 35 37 94 38 36 39 37 40 38 41 88 42
REMARK SMILES IDX 39 43 93 44 87 45 89 46 40 47 92 48 86 49 85 50 41 52 73 53
REMARK SMILES IDX 53 54 72 55 54 56 57 57 71 58 90 59 55 60 56 61 70 63 91 64
REMARK SMILES IDX 58 65 42 66 43 67 51 68 44 69 50 70 52 71 49 72 45 73 46 74
REMARK SMILES IDX 47 75 48 76 74 77 75 78 83 79 76 80 82 81 84 82 81 83 77 84
REMARK SMILES IDX 78 85 79 86 80 87 59 88 60 89 68 90 61 91 67 92 69 93 66 94
REMARK SMILES IDX 62 95 63 96 64 97 65 98
REMARK H PARENT 89 51 57 62
REMARK Flexibility Score: inf
ROOT
ATOM      1  C   UNL A   1      36.173  20.422  25.015  1.00  0.00     0.275 C 
ENDROOT
BRANCH   1   2
ATOM      2  O   UNL A   1      34.993  21.209  25.269  1.00  0.00    -0.458 OA
BRANCH   2   3
ATOM      3  C   UNL A   1      33.822  20.713  24.797  1.00  0.00     0.338 C 
ATOM      4  O   UNL A   1      33.474  19.543  24.789  1.00  0.00    -0.246 OA
BRANCH   3   5
ATOM      5  C   UNL A   1      32.919  21.839  24.461  1.00  0.00     0.060 A 
ATOM      6  C   UNL A   1      31.160  23.413  25.017  1.00  0.00    -0.010 A 
ATOM      7  C   UNL A   1      30.952  23.614  23.645  1.00  0.00     0.007 A 
ATOM      8  C   UNL A   1      32.091  22.438  25.411  1.00  0.00     0.023 A 
ATOM      9  C   UNL A   1      31.841  23.095  22.709  1.00  0.00     0.001 A 
ATOM     10  C   UNL A   1      32.875  22.275  23.134  1.00  0.00     0.016 A 
BRANCH   6  11
ATOM     11  C   UNL A   1      30.518  24.273  26.097  1.00  0.00     0.265 C 
BRANCH  11  12
ATOM     12  O   UNL A   1      29.942  25.534  25.743  1.00  0.00    -0.485 OA
BRANCH  12  13
ATOM     13  C   UNL A   1      30.705  26.671  25.726  1.00  0.00     0.161 A 
ATOM     14  C   UNL A   1      30.952  27.542  24.650  1.00  0.00     0.161 A 
ATOM     15  C   UNL A   1      31.625  28.753  24.881  1.00  0.00     0.060 A 
ATOM     16  C   UNL A   1      32.032  29.092  26.179  1.00  0.00    -0.003 A 
ATOM     17  C   UNL A   1      31.175  27.000  27.005  1.00  0.00     0.051 A 
ATOM     18  C   UNL A   1      31.818  28.211  27.238  1.00  0.00     0.014 A 
BRANCH  14  19
ATOM     19  O   UNL A   1      30.577  27.160  23.388  1.00  0.00    -0.493 OA
ATOM     20  C   UNL A   1      31.637  27.132  22.429  1.00  0.00     0.278 C 
ENDBRANCH  14  19
BRANCH  16  21
ATOM     21  C   UNL A   1      32.761  30.339  26.477  1.00  0.00     0.120 C 
ATOM     22  N   UNL A   1      33.577  30.455  27.478  1.00  0.00    -0.256 NA
BRANCH  22  23
ATOM     23  C   UNL A   1      34.052  31.757  27.719  1.00  0.00     0.066 A 
ATOM     24  C   UNL A   1      35.423  32.036  27.730  1.00  0.00     0.028 A 
ATOM     25  C   UNL A   1      33.148  32.782  28.016  1.00  0.00     0.067 A 
ATOM     26  C   UNL A   1      35.883  33.325  28.027  1.00  0.00     0.005 A 
ATOM     27  C   UNL A   1      33.611  34.058  28.306  1.00  0.00     0.125 A 
ATOM     28  C   UNL A   1      34.971  34.340  28.317  1.00  0.00     0.039 A 
ATOM     29  F   UNL A   1      32.730  35.029  28.588  1.00  0.00    -0.207 F 
ENDBRANCH  22  23
ENDBRANCH  16  21
ENDBRANCH  12  13
ENDBRANCH  11  12
ENDBRANCH   6  11
ENDBRANCH   3   5
ENDBRANCH   2   3
ENDBRANCH   1   2
BRANCH   1  30
ATOM     30  C   UNL A   1      37.338  21.332  24.622  1.00  0.00     0.275 C 
BRANCH  30  31
ATOM     31  O   UNL A   1      37.804  22.056  25.777  1.00  0.00    -0.458 OA
BRANCH  31  32
ATOM     32  C   UNL A   1      39.050  21.744  26.206  1.00  0.00     0.338 C 
ATOM     33  O   UNL A   1      39.616  20.669  26.116  1.00  0.00    -0.246 OA
BRANCH  32  34
ATOM     34  C   UNL A   1      39.687  22.944  26.773  1.00  0.00     0.060 A 
ATOM     35  C   UNL A   1      39.318  24.182  26.264  1.00  0.00     0.016 A 
ATOM     36  C   UNL A   1      40.737  22.856  27.682  1.00  0.00     0.016 A 
ATOM     37  C   UNL A   1      40.069  25.320  26.548  1.00  0.00     0.010 A 
ATOM     38  C   UNL A   1      41.407  24.026  28.074  1.00  0.00     0.010 A 
ATOM     39  C   UNL A   1      41.116  25.269  27.477  1.00  0.00    -0.014 A 
BRANCH  39  40
ATOM     40  C   UNL A   1      41.912  26.499  27.790  1.00  0.00     0.031 A 
ATOM     41  C   UNL A   1      41.330  27.585  28.664  1.00  0.00     0.074 A 
ATOM     42  C   UNL A   1      43.167  26.646  27.313  1.00  0.00     0.049 A 
ATOM     43  N   UNL A   1      41.790  28.786  28.916  1.00  0.00    -0.248 NA
ATOM     44  C   UNL A   1      40.053  27.285  29.324  1.00  0.00     0.031 C 
ATOM     45  C   UNL A   1      43.883  25.666  26.493  1.00  0.00     0.029 A 
ATOM     46  N   UNL A   1      44.072  27.673  27.456  1.00  0.00    -0.354 N 
ATOM     47  C   UNL A   1      40.831  29.404  29.715  1.00  0.00     0.074 A 
ATOM     48  C   UNL A   1      39.755  28.449  29.884  1.00  0.00     0.031 C 
ATOM     49  C   UNL A   1      45.124  26.115  26.247  1.00  0.00     0.029 A 
ATOM     50  C   UNL A   1      45.261  27.458  26.795  1.00  0.00     0.049 A 
ATOM     51  H   UNL A   1      43.887  28.485  27.981  1.00  0.00     0.167 HD
ATOM     52  C   UNL A   1      40.845  30.649  30.258  1.00  0.00     0.034 A 
ATOM     53  C   UNL A   1      46.327  28.262  26.601  1.00  0.00     0.034 A 
ATOM     54  C   UNL A   1      41.945  31.577  30.118  1.00  0.00     0.049 A 
ATOM     55  C   UNL A   1      46.302  29.656  27.168  1.00  0.00     0.074 A 
ATOM     56  C   UNL A   1      42.072  32.850  30.650  1.00  0.00     0.029 A 
ATOM     57  N   UNL A   1      43.110  31.335  29.399  1.00  0.00    -0.354 N 
ATOM     58  N   UNL A   1      45.366  30.243  27.878  1.00  0.00    -0.248 NA
ATOM     59  C   UNL A   1      47.474  30.498  26.901  1.00  0.00     0.031 C 
ATOM     60  C   UNL A   1      43.276  33.401  30.196  1.00  0.00     0.029 A 
ATOM     61  C   UNL A   1      43.943  32.445  29.448  1.00  0.00     0.049 A 
ATOM     62  H   UNL A   1      43.314  30.497  28.924  1.00  0.00     0.167 HD
ATOM     63  C   UNL A   1      45.845  31.522  28.152  1.00  0.00     0.074 A 
ATOM     64  C   UNL A   1      47.163  31.607  27.555  1.00  0.00     0.031 C 
ATOM     65  C   UNL A   1      45.246  32.533  28.831  1.00  0.00     0.034 A 
BRANCH  52  66
ATOM     66  C   UNL A   1      39.606  31.101  31.001  1.00  0.00     0.023 A 
ATOM     67  C   UNL A   1      39.581  31.255  32.397  1.00  0.00     0.031 A 
ATOM     68  C   UNL A   1      38.414  31.347  30.293  1.00  0.00     0.131 A 
ATOM     69  C   UNL A   1      38.374  31.558  33.048  1.00  0.00     0.055 A 
ATOM     70  C   UNL A   1      37.237  31.735  30.939  1.00  0.00     0.041 A 
ATOM     71  F   UNL A   1      38.366  31.201  28.960  1.00  0.00    -0.206 F 
ATOM     72  C   UNL A   1      37.208  31.825  32.326  1.00  0.00     0.022 A 
BRANCH  69  73
ATOM     73  S   UNL A   1      38.312  31.442  34.858  1.00  0.00     0.124 S 
ATOM     74  O   UNL A   1      37.144  32.265  35.165  1.00  0.00    -0.237 OA
ATOM     75  O   UNL A   1      38.159  30.009  35.077  1.00  0.00    -0.237 OA
ATOM     76  O   UNL A   1      39.590  32.006  35.283  1.00  0.00    -0.744 OA
ENDBRANCH  69  73
ENDBRANCH  52  66
BRANCH  53  77
ATOM     77  C   UNL A   1      47.477  27.798  25.771  1.00  0.00     0.023 A 
ATOM     78  C   UNL A   1      47.498  27.991  24.380  1.00  0.00     0.031 A 
ATOM     79  C   UNL A   1      48.564  27.122  26.357  1.00  0.00     0.131 A 
ATOM     80  C   UNL A   1      48.567  27.487  23.620  1.00  0.00     0.055 A 
ATOM     81  C   UNL A   1      49.651  26.676  25.605  1.00  0.00     0.041 A 
ATOM     82  F   UNL A   1      48.594  26.905  27.682  1.00  0.00    -0.206 F 
ATOM     83  C   UNL A   1      49.651  26.847  24.226  1.00  0.00     0.022 A 
BRANCH  80  84
ATOM     84  S   UNL A   1      48.483  27.612  21.812  1.00  0.00     0.124 S 
ATOM     85  O   UNL A   1      49.612  28.488  21.522  1.00  0.00    -0.237 OA
ATOM     86  O   UNL A   1      48.630  26.219  21.404  1.00  0.00    -0.237 OA
ATOM     87  O   UNL A   1      47.163  28.194  21.573  1.00  0.00    -0.744 OA
ENDBRANCH  80  84
ENDBRANCH  53  77
BRANCH  65  88
ATOM     88  C   UNL A   1      46.042  33.807  28.993  1.00  0.00     0.023 A 
ATOM     89  C   UNL A   1      45.974  34.845  28.047  1.00  0.00     0.031 A 
ATOM     90  C   UNL A   1      46.906  33.968  30.089  1.00  0.00     0.131 A 
ATOM     91  C   UNL A   1      46.807  35.967  28.179  1.00  0.00     0.055 A 
ATOM     92  C   UNL A   1      47.684  35.116  30.250  1.00  0.00     0.041 A 
ATOM     93  F   UNL A   1      47.015  33.008  31.022  1.00  0.00    -0.206 F 
ATOM     94  C   UNL A   1      47.649  36.117  29.283  1.00  0.00     0.022 A 
BRANCH  91  95
ATOM     95  S   UNL A   1      46.861  37.176  26.827  1.00  0.00     0.124 S 
ATOM     96  O   UNL A   1      47.352  36.366  25.716  1.00  0.00    -0.237 OA
ATOM     97  O   UNL A   1      45.470  37.607  26.737  1.00  0.00    -0.237 OA
ATOM     98  O   UNL A   1      47.794  38.192  27.313  1.00  0.00    -0.744 OA
ENDBRANCH  91  95
ENDBRANCH  65  88
ENDBRANCH  39  40
ENDBRANCH  32  34
ENDBRANCH  31  32
ENDBRANCH  30  31
ENDBRANCH   1  30
TORSDOF 20
ENDMDL
MODEL 3
REMARK VINA RESULT:     -11.8      2.928      8.662
REMARK SMILES COc1cc(/C=N/c2cccc(F)c2)ccc1OCc1cccc(C(=O)OCCOC(=O)c2ccc(-c3c4nc(c(-c5cc(S(=O)(=O)[O-])ccc5F)c5ccc([nH]5)c(-c5cc(S(=O)(=O)[O-])ccc5F)c5nc(c(-c6cc(S(=O)(=O)[O-])ccc6F)c6ccc3[nH]6)C=C5)C=C4)cc2)c1
REMARK SMILES IDX 28 1 27 2 25 3 26 4 24 5 20 6 21 7 96 8 22 9 23 10 19 11
REMARK SMILES IDX 18 12 17 13 3 14 4 15 5 16 16 17 15 18 2 19 1 20 6 21 7 22
REMARK SMILES IDX 8 23 9 24 14 25 10 26 12 27 11 28 13 29 29 30 30 31 31 32
REMARK SMILES IDX 32 33 33 34 34 35 95 36 35 37 94 38 36 39 37 40 38 41 88 42
REMARK SMILES IDX 39 43 93 44 87 45 89 46 40 47 92 48 86 49 85 50 41 52 73 53
REMARK SMILES IDX 53 54 72 55 54 56 57 57 71 58 90 59 55 60 56 61 70 63 91 64
REMARK SMILES IDX 58 65 42 66 43 67 51 68 44 69 50 70 52 71 49 72 45 73 46 74
REMARK SMILES IDX 47 75 48 76 74 77 75 78 83 79 76 80 82 81 84 82 81 83 77 84
REMARK SMILES IDX 78 85 79 86 80 87 59 88 60 89 68 90 61 91 67 92 69 93 66 94
REMARK SMILES IDX 62 95 63 96 64 97 65 98
REMARK H PARENT 89 51 57 62
REMARK Flexibility Score: inf
ROOT
ATOM      1  C   UNL A   1      33.817  35.308  28.650  1.00  0.00     0.275 C 
ENDROOT
BRANCH   1   2
ATOM      2  O   UNL A   1      33.496  33.903  28.661  1.00  0.00    -0.458 OA
BRANCH   2   3
ATOM      3  C   UNL A   1      34.496  33.057  29.016  1.00  0.00     0.338 C 
ATOM      4  O   UNL A   1      35.247  33.174  29.970  1.00  0.00    -0.246 OA
BRANCH   3   5
ATOM      5  C   UNL A   1      34.422  31.841  28.174  1.00  0.00     0.060 A 
ATOM      6  C   UNL A   1      33.205  30.268  26.785  1.00  0.00    -0.010 A 
ATOM      7  C   UNL A   1      34.227  29.334  27.005  1.00  0.00     0.007 A 
ATOM      8  C   UNL A   1      33.271  31.496  27.463  1.00  0.00     0.023 A 
ATOM      9  C   UNL A   1      35.413  29.713  27.627  1.00  0.00     0.001 A 
ATOM     10  C   UNL A   1      35.535  30.997  28.134  1.00  0.00     0.016 A 
BRANCH   6  11
ATOM     11  C   UNL A   1      32.093  30.069  25.764  1.00  0.00     0.265 C 
BRANCH  11  12
ATOM     12  O   UNL A   1      31.398  28.820  25.715  1.00  0.00    -0.485 OA
BRANCH  12  13
ATOM     13  C   UNL A   1      32.059  27.663  25.400  1.00  0.00     0.161 A 
ATOM     14  C   UNL A   1      32.812  27.372  24.248  1.00  0.00     0.161 A 
ATOM     15  C   UNL A   1      33.559  26.183  24.192  1.00  0.00     0.060 A 
ATOM     16  C   UNL A   1      33.559  25.304  25.284  1.00  0.00    -0.003 A 
ATOM     17  C   UNL A   1      32.024  26.741  26.455  1.00  0.00     0.051 A 
ATOM     18  C   UNL A   1      32.783  25.577  26.411  1.00  0.00     0.014 A 
BRANCH  14  19
ATOM     19  O   UNL A   1      32.756  28.233  23.184  1.00  0.00    -0.493 OA
ATOM     20  C   UNL A   1      34.025  28.580  22.625  1.00  0.00     0.278 C 
ENDBRANCH  14  19
BRANCH  16  21
ATOM     21  C   UNL A   1      34.305  24.032  25.273  1.00  0.00     0.120 C 
ATOM     22  N   UNL A   1      35.436  23.873  25.887  1.00  0.00    -0.256 NA
BRANCH  22  23
ATOM     23  C   UNL A   1      36.094  22.656  25.631  1.00  0.00     0.066 A 
ATOM     24  C   UNL A   1      37.489  22.568  25.662  1.00  0.00     0.028 A 
ATOM     25  C   UNL A   1      35.350  21.526  25.277  1.00  0.00     0.067 A 
ATOM     26  C   UNL A   1      38.132  21.363  25.350  1.00  0.00     0.005 A 
ATOM     27  C   UNL A   1      35.994  20.335  24.972  1.00  0.00     0.125 A 
ATOM     28  C   UNL A   1      37.379  20.242  25.002  1.00  0.00     0.039 A 
ATOM     29  F   UNL A   1      35.265  19.261  24.635  1.00  0.00    -0.207 F 
ENDBRANCH  22  23
ENDBRANCH  16  21
ENDBRANCH  12  13
ENDBRANCH  11  12
ENDBRANCH   6  11
ENDBRANCH   3   5
ENDBRANCH   2   3
ENDBRANCH   1   2
BRANCH   1  30
ATOM     30  C   UNL A   1      32.848  36.077  29.549  1.00  0.00     0.275 C 
BRANCH  30  31
ATOM     31  O   UNL A   1      32.504  35.276  30.695  1.00  0.00    -0.458 OA
BRANCH  31  32
ATOM     32  C   UNL A   1      32.743  35.841  31.903  1.00  0.00     0.338 C 
ATOM     33  O   UNL A   1      32.149  36.773  32.415  1.00  0.00    -0.246 OA
BRANCH  32  34
ATOM     34  C   UNL A   1      33.829  35.111  32.579  1.00  0.00     0.060 A 
ATOM     35  C   UNL A   1      35.109  35.644  32.522  1.00  0.00     0.016 A 
ATOM     36  C   UNL A   1      33.630  33.851  33.133  1.00  0.00     0.016 A 
ATOM     37  C   UNL A   1      36.214  34.881  32.889  1.00  0.00     0.010 A 
ATOM     38  C   UNL A   1      34.732  33.137  33.631  1.00  0.00     0.010 A 
ATOM     39  C   UNL A   1      36.046  33.619  33.473  1.00  0.00    -0.014 A 
BRANCH  39  40
ATOM     40  C   UNL A   1      37.238  32.807  33.879  1.00  0.00     0.031 A 
ATOM     41  C   UNL A   1      37.970  33.114  35.164  1.00  0.00     0.074 A 
ATOM     42  C   UNL A   1      37.663  31.778  33.115  1.00  0.00     0.049 A 
ATOM     43  N   UNL A   1      39.108  32.639  35.608  1.00  0.00    -0.248 NA
ATOM     44  C   UNL A   1      37.348  34.101  36.057  1.00  0.00     0.031 C 
ATOM     45  C   UNL A   1      37.035  31.330  31.870  1.00  0.00     0.029 A 
ATOM     46  N   UNL A   1      38.719  30.911  33.275  1.00  0.00    -0.354 N 
ATOM     47  C   UNL A   1      39.366  33.311  36.801  1.00  0.00     0.074 A 
ATOM     48  C   UNL A   1      38.273  34.242  36.995  1.00  0.00     0.031 C 
ATOM     49  C   UNL A   1      37.684  30.251  31.408  1.00  0.00     0.029 A 
ATOM     50  C   UNL A   1      38.839  29.991  32.258  1.00  0.00     0.049 A 
ATOM     51  H   UNL A   1      39.332  30.945  34.045  1.00  0.00     0.167 HD
ATOM     52  C   UNL A   1      40.413  33.166  37.654  1.00  0.00     0.034 A 
ATOM     53  C   UNL A   1      39.792  29.072  31.999  1.00  0.00     0.034 A 
ATOM     54  C   UNL A   1      41.475  32.202  37.471  1.00  0.00     0.049 A 
ATOM     55  C   UNL A   1      40.971  28.961  32.930  1.00  0.00     0.074 A 
ATOM     56  C   UNL A   1      42.565  31.954  38.288  1.00  0.00     0.029 A 
ATOM     57  N   UNL A   1      41.581  31.322  36.399  1.00  0.00    -0.354 N 
ATOM     58  N   UNL A   1      41.225  29.639  34.025  1.00  0.00    -0.248 NA
ATOM     59  C   UNL A   1      41.993  27.966  32.584  1.00  0.00     0.031 C 
ATOM     60  C   UNL A   1      43.363  30.980  37.678  1.00  0.00     0.029 A 
ATOM     61  C   UNL A   1      42.732  30.556  36.520  1.00  0.00     0.049 A 
ATOM     62  H   UNL A   1      40.933  31.253  35.661  1.00  0.00     0.167 HD
ATOM     63  C   UNL A   1      42.434  29.141  34.505  1.00  0.00     0.074 A 
ATOM     64  C   UNL A   1      42.839  28.089  33.596  1.00  0.00     0.031 C 
ATOM     65  C   UNL A   1      43.144  29.524  35.596  1.00  0.00     0.034 A 
BRANCH  52  66
ATOM     66  C   UNL A   1      40.492  34.115  38.830  1.00  0.00     0.023 A 
ATOM     67  C   UNL A   1      39.780  33.896  40.022  1.00  0.00     0.031 A 
ATOM     68  C   UNL A   1      41.271  35.284  38.738  1.00  0.00     0.131 A 
ATOM     69  C   UNL A   1      39.793  34.869  41.035  1.00  0.00     0.055 A 
ATOM     70  C   UNL A   1      41.349  36.206  39.785  1.00  0.00     0.041 A 
ATOM     71  F   UNL A   1      41.960  35.561  37.620  1.00  0.00    -0.206 F 
ATOM     72  C   UNL A   1      40.593  36.009  40.935  1.00  0.00     0.022 A 
BRANCH  69  73
ATOM     73  S   UNL A   1      38.625  34.700  42.413  1.00  0.00     0.124 S 
ATOM     74  O   UNL A   1      39.283  35.485  43.455  1.00  0.00    -0.237 OA
ATOM     75  O   UNL A   1      37.401  35.268  41.863  1.00  0.00    -0.237 OA
ATOM     76  O   UNL A   1      38.589  33.260  42.659  1.00  0.00    -0.744 OA
ENDBRANCH  69  73
ENDBRANCH  52  66
BRANCH  53  77
ATOM     77  C   UNL A   1      39.714  28.234  30.766  1.00  0.00     0.023 A 
ATOM     78  C   UNL A   1      40.416  28.583  29.602  1.00  0.00     0.031 A 
ATOM     79  C   UNL A   1      38.906  27.083  30.726  1.00  0.00     0.131 A 
ATOM     80  C   UNL A   1      40.272  27.807  28.439  1.00  0.00     0.055 A 
ATOM     81  C   UNL A   1      38.812  26.283  29.587  1.00  0.00     0.041 A 
ATOM     82  F   UNL A   1      38.207  26.705  31.810  1.00  0.00    -0.206 F 
ATOM     83  C   UNL A   1      39.489  26.650  28.430  1.00  0.00     0.022 A 
BRANCH  80  84
ATOM     84  S   UNL A   1      41.064  28.377  26.910  1.00  0.00     0.124 S 
ATOM     85  O   UNL A   1      40.085  29.335  26.407  1.00  0.00    -0.237 OA
ATOM     86  O   UNL A   1      42.315  28.939  27.406  1.00  0.00    -0.237 OA
ATOM     87  O   UNL A   1      41.201  27.153  26.122  1.00  0.00    -0.744 OA
ENDBRANCH  80  84
ENDBRANCH  53  77
BRANCH  65  88
ATOM     88  C   UNL A   1      44.418  28.763  35.880  1.00  0.00     0.023 A 
ATOM     89  C   UNL A   1      44.420  27.587  36.652  1.00  0.00     0.031 A 
ATOM     90  C   UNL A   1      45.650  29.240  35.401  1.00  0.00     0.131 A 
ATOM     91  C   UNL A   1      45.636  26.968  36.980  1.00  0.00     0.055 A 
ATOM     92  C   UNL A   1      46.851  28.583  35.676  1.00  0.00     0.041 A 
ATOM     93  F   UNL A   1      45.710  30.360  34.662  1.00  0.00    -0.206 F 
ATOM     94  C   UNL A   1      46.849  27.448  36.482  1.00  0.00     0.022 A 
BRANCH  91  95
ATOM     95  S   UNL A   1      45.621  25.591  38.162  1.00  0.00     0.124 S 
ATOM     96  O   UNL A   1      45.057  26.220  39.352  1.00  0.00    -0.237 OA
ATOM     97  O   UNL A   1      44.771  24.613  37.492  1.00  0.00    -0.237 OA
ATOM     98  O   UNL A   1      47.031  25.217  38.269  1.00  0.00    -0.744 OA
ENDBRANCH  91  95
ENDBRANCH  65  88
ENDBRANCH  39  40
ENDBRANCH  32  34
ENDBRANCH  31  32
ENDBRANCH  30  31
ENDBRANCH   1  30
TORSDOF 20
ENDMDL
