MODEL 1
REMARK VINA RESULT:     -12.7      0.000      0.000
REMARK SMILES Cc1ccc(NC(=O)C[C@H]2SC[C@H](C(=O)OCCOC(=O)c3ccc(-c4c5nc(c(-c6cc(S(=O)(=O)[O-])ccc6F)c6ccc([nH]6)c(-c6cc(S(=O)(=O)[O-])ccc6F)c6nc(c(-c7cc(S(=O)(=O)[O-])ccc7F)c7ccc4[nH]7)C=C6)C=C5)cc3)NC2=O)cc1
REMARK SMILES IDX 17 1 16 2 14 3 15 4 13 5 10 6 11 7 86 8 12 9 85 10 87 11
REMARK SMILES IDX 9 13 7 14 6 15 8 17 5 18 1 19 2 20 3 21 89 22 4 23 88 24
REMARK SMILES IDX 18 25 19 26 20 27 21 28 22 29 23 30 84 31 24 32 83 33 25 34
REMARK SMILES IDX 26 35 27 36 77 37 28 38 82 39 76 40 78 41 29 42 81 43 75 44
REMARK SMILES IDX 74 45 30 47 62 48 42 49 61 50 43 51 46 52 60 53 79 54 44 55
REMARK SMILES IDX 45 56 59 58 80 59 47 60 31 61 32 62 40 63 33 64 39 65 41 66
REMARK SMILES IDX 38 67 34 68 35 69 36 70 37 71 63 72 64 73 72 74 65 75 71 76
REMARK SMILES IDX 73 77 70 78 66 79 67 80 68 81 69 82 48 83 49 84 57 85 50 86
REMARK SMILES IDX 56 87 58 88 55 89 51 90 52 91 53 92 54 93
REMARK H PARENT 85 12 6 16 78 46 46 57
REMARK Flexibility Score: inf
ROOT
ATOM      1  C   UNL A   1      37.966  21.696  25.540  1.00  0.00     0.274 C 
ENDROOT
BRANCH   1   2
ATOM      2  O   UNL A   1      37.647  22.967  24.962  1.00  0.00    -0.461 OA
BRANCH   2   3
ATOM      3  C   UNL A   1      36.616  22.982  24.077  1.00  0.00     0.329 C 
ATOM      4  O   UNL A   1      36.709  23.299  22.909  1.00  0.00    -0.250 OA
BRANCH   3   5
ATOM      5  C   UNL A   1      35.325  22.591  24.805  1.00  0.00     0.202 C 
ATOM      6  C   UNL A   1      32.338  22.968  25.000  1.00  0.00     0.145 C 
ATOM      7  S   UNL A   1      33.303  23.461  26.489  1.00  0.00    -0.145 SA
ATOM      8  C   UNL A   1      33.024  21.805  24.284  1.00  0.00     0.234 C 
ATOM      9  C   UNL A   1      34.878  23.784  25.637  1.00  0.00     0.107 C 
ATOM     10  N   UNL A   1      34.321  22.038  23.892  1.00  0.00    -0.341 N 
ATOM     11  O   UNL A   1      32.482  20.757  23.955  1.00  0.00    -0.274 OA
ATOM     12  H   UNL A   1      34.585  21.825  22.968  1.00  0.00     0.164 HD
BRANCH   6  13
ATOM     13  C   UNL A   1      30.860  22.826  25.357  1.00  0.00     0.124 C 
BRANCH  13  14
ATOM     14  C   UNL A   1      30.294  23.617  26.520  1.00  0.00     0.226 C 
ATOM     15  N   UNL A   1      29.966  24.933  26.459  1.00  0.00    -0.326 N 
ATOM     16  H   UNL A   1      29.483  25.249  27.258  1.00  0.00     0.169 HD
ATOM     17  O   UNL A   1      30.144  23.047  27.610  1.00  0.00    -0.275 OA
BRANCH  15  18
ATOM     18  C   UNL A   1      30.166  25.938  25.505  1.00  0.00     0.041 A 
ATOM     19  C   UNL A   1      30.555  28.920  22.419  1.00  0.00     0.044 C 
ATOM     20  C   UNL A   1      30.405  27.888  23.494  1.00  0.00    -0.051 A 
ATOM     21  C   UNL A   1      31.425  27.702  24.432  1.00  0.00     0.005 A 
ATOM     22  C   UNL A   1      29.254  27.101  23.576  1.00  0.00     0.005 A 
ATOM     23  C   UNL A   1      31.296  26.747  25.444  1.00  0.00     0.026 A 
ATOM     24  C   UNL A   1      29.133  26.143  24.583  1.00  0.00     0.026 A 
ENDBRANCH  15  18
ENDBRANCH  13  14
ENDBRANCH   6  13
ENDBRANCH   3   5
ENDBRANCH   2   3
ENDBRANCH   1   2
BRANCH   1  25
ATOM     25  C   UNL A   1      39.402  21.765  26.089  1.00  0.00     0.275 C 
BRANCH  25  26
ATOM     26  O   UNL A   1      39.677  22.741  27.127  1.00  0.00    -0.458 OA
BRANCH  26  27
ATOM     27  C   UNL A   1      40.567  23.740  26.869  1.00  0.00     0.338 C 
ATOM     28  O   UNL A   1      41.549  23.622  26.152  1.00  0.00    -0.246 OA
BRANCH  27  29
ATOM     29  C   UNL A   1      39.983  25.036  27.318  1.00  0.00     0.060 A 
ATOM     30  C   UNL A   1      39.355  25.138  28.571  1.00  0.00     0.016 A 
ATOM     31  C   UNL A   1      40.368  26.186  26.637  1.00  0.00     0.016 A 
ATOM     32  C   UNL A   1      39.277  26.381  29.215  1.00  0.00     0.010 A 
ATOM     33  C   UNL A   1      40.397  27.380  27.315  1.00  0.00     0.010 A 
ATOM     34  C   UNL A   1      39.875  27.487  28.613  1.00  0.00    -0.014 A 
BRANCH  34  35
ATOM     35  C   UNL A   1      39.872  28.861  29.115  1.00  0.00     0.031 A 
ATOM     36  C   UNL A   1      38.859  29.886  28.783  1.00  0.00     0.074 A 
ATOM     37  C   UNL A   1      40.775  29.069  30.098  1.00  0.00     0.049 A 
ATOM     38  N   UNL A   1      38.949  31.124  29.138  1.00  0.00    -0.248 NA
ATOM     39  C   UNL A   1      37.659  29.627  28.004  1.00  0.00     0.031 C 
ATOM     40  C   UNL A   1      40.870  30.135  31.078  1.00  0.00     0.029 A 
ATOM     41  N   UNL A   1      41.962  28.358  30.273  1.00  0.00    -0.354 N 
ATOM     42  C   UNL A   1      37.742  31.749  28.891  1.00  0.00     0.074 A 
ATOM     43  C   UNL A   1      37.006  30.794  28.102  1.00  0.00     0.031 C 
ATOM     44  C   UNL A   1      42.151  30.203  31.490  1.00  0.00     0.029 A 
ATOM     45  C   UNL A   1      42.914  29.314  30.618  1.00  0.00     0.049 A 
ATOM     46  H   UNL A   1      42.098  27.389  30.173  1.00  0.00     0.167 HD
ATOM     47  C   UNL A   1      37.495  32.954  29.488  1.00  0.00     0.034 A 
ATOM     48  C   UNL A   1      43.886  29.703  29.735  1.00  0.00     0.034 A 
ATOM     49  C   UNL A   1      38.699  33.436  30.170  1.00  0.00     0.049 A 
ATOM     50  C   UNL A   1      43.837  31.198  29.467  1.00  0.00     0.074 A 
ATOM     51  C   UNL A   1      39.127  33.426  31.486  1.00  0.00     0.029 A 
ATOM     52  N   UNL A   1      39.798  33.774  29.404  1.00  0.00    -0.354 N 
ATOM     53  N   UNL A   1      42.782  31.942  29.654  1.00  0.00    -0.248 NA
ATOM     54  C   UNL A   1      44.955  31.950  28.906  1.00  0.00     0.031 C 
ATOM     55  C   UNL A   1      40.524  33.709  31.488  1.00  0.00     0.029 A 
ATOM     56  C   UNL A   1      40.926  33.927  30.182  1.00  0.00     0.049 A 
ATOM     57  H   UNL A   1      39.779  33.891  28.426  1.00  0.00     0.167 HD
ATOM     58  C   UNL A   1      43.072  33.239  29.334  1.00  0.00     0.074 A 
ATOM     59  C   UNL A   1      44.424  33.180  28.802  1.00  0.00     0.031 C 
ATOM     60  C   UNL A   1      42.186  34.260  29.538  1.00  0.00     0.034 A 
BRANCH  47  61
ATOM     61  C   UNL A   1      36.165  33.673  29.647  1.00  0.00     0.023 A 
ATOM     62  C   UNL A   1      35.736  34.026  30.950  1.00  0.00     0.031 A 
ATOM     63  C   UNL A   1      35.255  33.999  28.626  1.00  0.00     0.131 A 
ATOM     64  C   UNL A   1      34.475  34.606  31.194  1.00  0.00     0.055 A 
ATOM     65  C   UNL A   1      34.008  34.603  28.861  1.00  0.00     0.041 A 
ATOM     66  F   UNL A   1      35.515  33.757  27.342  1.00  0.00    -0.206 F 
ATOM     67  C   UNL A   1      33.606  34.902  30.152  1.00  0.00     0.022 A 
BRANCH  64  68
ATOM     68  S   UNL A   1      33.950  34.896  32.906  1.00  0.00     0.124 S 
ATOM     69  O   UNL A   1      35.190  35.336  33.536  1.00  0.00    -0.237 OA
ATOM     70  O   UNL A   1      32.909  35.905  32.747  1.00  0.00    -0.237 OA
ATOM     71  O   UNL A   1      33.475  33.582  33.343  1.00  0.00    -0.744 OA
ENDBRANCH  64  68
ENDBRANCH  47  61
BRANCH  48  72
ATOM     72  C   UNL A   1      44.246  28.679  28.688  1.00  0.00     0.023 A 
ATOM     73  C   UNL A   1      44.738  27.420  29.109  1.00  0.00     0.031 A 
ATOM     74  C   UNL A   1      43.791  28.781  27.364  1.00  0.00     0.131 A 
ATOM     75  C   UNL A   1      44.593  26.290  28.286  1.00  0.00     0.055 A 
ATOM     76  C   UNL A   1      43.731  27.667  26.517  1.00  0.00     0.041 A 
ATOM     77  F   UNL A   1      43.296  29.935  26.894  1.00  0.00    -0.206 F 
ATOM     78  C   UNL A   1      44.093  26.406  26.990  1.00  0.00     0.022 A 
BRANCH  75  79
ATOM     79  S   UNL A   1      44.763  24.636  29.035  1.00  0.00     0.124 S 
ATOM     80  O   UNL A   1      45.561  23.931  28.040  1.00  0.00    -0.237 OA
ATOM     81  O   UNL A   1      45.428  24.932  30.301  1.00  0.00    -0.237 OA
ATOM     82  O   UNL A   1      43.379  24.186  29.172  1.00  0.00    -0.744 OA
ENDBRANCH  75  79
ENDBRANCH  48  72
BRANCH  60  83
ATOM     83  C   UNL A   1      42.449  35.688  29.149  1.00  0.00     0.023 A 
ATOM     84  C   UNL A   1      43.222  36.545  29.942  1.00  0.00     0.031 A 
ATOM     85  C   UNL A   1      41.884  36.250  27.981  1.00  0.00     0.131 A 
ATOM     86  C   UNL A   1      43.497  37.854  29.517  1.00  0.00     0.055 A 
ATOM     87  C   UNL A   1      42.076  37.584  27.616  1.00  0.00     0.041 A 
ATOM     88  F   UNL A   1      41.163  35.519  27.120  1.00  0.00    -0.206 F 
ATOM     89  C   UNL A   1      42.908  38.390  28.374  1.00  0.00     0.022 A 
BRANCH  86  90
ATOM     90  S   UNL A   1      44.732  38.803  30.439  1.00  0.00     0.124 S 
ATOM     91  O   UNL A   1      45.167  39.794  29.460  1.00  0.00    -0.237 OA
ATOM     92  O   UNL A   1      43.935  39.319  31.549  1.00  0.00    -0.237 OA
ATOM     93  O   UNL A   1      45.732  37.804  30.805  1.00  0.00    -0.744 OA
ENDBRANCH  86  90
ENDBRANCH  60  83
ENDBRANCH  34  35
ENDBRANCH  27  29
ENDBRANCH  26  27
ENDBRANCH  25  26
ENDBRANCH   1  25
TORSDOF 17
ENDMDL
MODEL 2
REMARK VINA RESULT:     -12.6      4.123     10.507
REMARK SMILES Cc1ccc(NC(=O)C[C@H]2SC[C@H](C(=O)OCCOC(=O)c3ccc(-c4c5nc(c(-c6cc(S(=O)(=O)[O-])ccc6F)c6ccc([nH]6)c(-c6cc(S(=O)(=O)[O-])ccc6F)c6nc(c(-c7cc(S(=O)(=O)[O-])ccc7F)c7ccc4[nH]7)C=C6)C=C5)cc3)NC2=O)cc1
REMARK SMILES IDX 17 1 16 2 14 3 15 4 13 5 10 6 11 7 86 8 12 9 85 10 87 11
REMARK SMILES IDX 9 13 7 14 6 15 8 17 5 18 1 19 2 20 3 21 89 22 4 23 88 24
REMARK SMILES IDX 18 25 19 26 20 27 21 28 22 29 23 30 84 31 24 32 83 33 25 34
REMARK SMILES IDX 26 35 27 36 77 37 28 38 82 39 76 40 78 41 29 42 81 43 75 44
REMARK SMILES IDX 74 45 30 47 62 48 42 49 61 50 43 51 46 52 60 53 79 54 44 55
REMARK SMILES IDX 45 56 59 58 80 59 47 60 31 61 32 62 40 63 33 64 39 65 41 66
REMARK SMILES IDX 38 67 34 68 35 69 36 70 37 71 63 72 64 73 72 74 65 75 71 76
REMARK SMILES IDX 73 77 70 78 66 79 67 80 68 81 69 82 48 83 49 84 57 85 50 86
REMARK SMILES IDX 56 87 58 88 55 89 51 90 52 91 53 92 54 93
REMARK H PARENT 85 12 6 16 78 46 46 57
REMARK Flexibility Score: inf
ROOT
ATOM      1  C   UNL A   1      33.354  30.278  26.507  1.00  0.00     0.274 C 
ENDROOT
BRANCH   1   2
ATOM      2  O   UNL A   1      32.156  29.962  27.226  1.00  0.00    -0.461 OA
BRANCH   2   3
ATOM      3  C   UNL A   1      31.730  28.674  27.147  1.00  0.00     0.329 C 
ATOM      4  O   UNL A   1      31.175  28.070  28.041  1.00  0.00    -0.250 OA
BRANCH   3   5
ATOM      5  C   UNL A   1      32.115  28.104  25.777  1.00  0.00     0.202 C 
ATOM      6  C   UNL A   1      31.545  26.014  23.676  1.00  0.00     0.145 C 
ATOM      7  S   UNL A   1      33.223  25.949  24.432  1.00  0.00    -0.145 SA
ATOM      8  C   UNL A   1      31.040  27.456  23.630  1.00  0.00     0.234 C 
ATOM      9  C   UNL A   1      32.792  26.761  26.003  1.00  0.00     0.107 C 
ATOM     10  N   UNL A   1      30.985  28.100  24.844  1.00  0.00    -0.341 N 
ATOM     11  O   UNL A   1      30.598  28.020  22.637  1.00  0.00    -0.274 OA
ATOM     12  H   UNL A   1      30.160  28.575  25.094  1.00  0.00     0.164 HD
BRANCH   6  13
ATOM     13  C   UNL A   1      31.520  25.197  22.386  1.00  0.00     0.124 C 
BRANCH  13  14
ATOM     14  C   UNL A   1      32.825  24.847  21.699  1.00  0.00     0.226 C 
ATOM     15  N   UNL A   1      33.455  23.651  21.823  1.00  0.00    -0.326 N 
ATOM     16  H   UNL A   1      34.211  23.545  21.200  1.00  0.00     0.169 HD
ATOM     17  O   UNL A   1      33.378  25.708  21.000  1.00  0.00    -0.275 OA
BRANCH  15  18
ATOM     18  C   UNL A   1      33.261  22.535  22.646  1.00  0.00     0.041 A 
ATOM     19  C   UNL A   1      32.927  19.155  25.297  1.00  0.00     0.044 C 
ATOM     20  C   UNL A   1      33.045  20.339  24.388  1.00  0.00    -0.051 A 
ATOM     21  C   UNL A   1      32.159  20.489  23.316  1.00  0.00     0.005 A 
ATOM     22  C   UNL A   1      34.033  21.305  24.594  1.00  0.00     0.005 A 
ATOM     23  C   UNL A   1      32.254  21.592  22.464  1.00  0.00     0.026 A 
ATOM     24  C   UNL A   1      34.129  22.400  23.736  1.00  0.00     0.026 A 
ENDBRANCH  15  18
ENDBRANCH  13  14
ENDBRANCH   6  13
ENDBRANCH   3   5
ENDBRANCH   2   3
ENDBRANCH   1   2
BRANCH   1  25
ATOM     25  C   UNL A   1      34.548  30.097  27.461  1.00  0.00     0.275 C 
BRANCH  25  26
ATOM     26  O   UNL A   1      35.261  31.290  27.878  1.00  0.00    -0.458 OA
BRANCH  26  27
ATOM     27  C   UNL A   1      36.149  31.199  28.908  1.00  0.00     0.338 C 
ATOM     28  O   UNL A   1      36.034  31.788  29.972  1.00  0.00    -0.246 OA
BRANCH  27  29
ATOM     29  C   UNL A   1      37.064  30.050  28.658  1.00  0.00     0.060 A 
ATOM     30  C   UNL A   1      37.953  30.072  27.569  1.00  0.00     0.016 A 
ATOM     31  C   UNL A   1      37.254  29.141  29.694  1.00  0.00     0.016 A 
ATOM     32  C   UNL A   1      39.126  29.305  27.609  1.00  0.00     0.010 A 
ATOM     33  C   UNL A   1      38.455  28.482  29.786  1.00  0.00     0.010 A 
ATOM     34  C   UNL A   1      39.410  28.572  28.761  1.00  0.00    -0.014 A 
BRANCH  34  35
ATOM     35  C   UNL A   1      40.562  27.697  28.975  1.00  0.00     0.031 A 
ATOM     36  C   UNL A   1      40.590  26.244  28.700  1.00  0.00     0.074 A 
ATOM     37  C   UNL A   1      41.697  28.372  29.256  1.00  0.00     0.049 A 
ATOM     38  N   UNL A   1      41.576  25.474  29.016  1.00  0.00    -0.248 NA
ATOM     39  C   UNL A   1      39.507  25.512  28.063  1.00  0.00     0.031 C 
ATOM     40  C   UNL A   1      43.084  27.948  29.198  1.00  0.00     0.029 A 
ATOM     41  N   UNL A   1      41.766  29.629  29.857  1.00  0.00    -0.354 N 
ATOM     42  C   UNL A   1      41.398  24.246  28.407  1.00  0.00     0.074 A 
ATOM     43  C   UNL A   1      40.049  24.297  27.901  1.00  0.00     0.031 C 
ATOM     44  C   UNL A   1      43.794  28.745  30.020  1.00  0.00     0.029 A 
ATOM     45  C   UNL A   1      42.823  29.546  30.760  1.00  0.00     0.049 A 
ATOM     46  H   UNL A   1      41.190  30.408  29.682  1.00  0.00     0.167 HD
ATOM     47  C   UNL A   1      42.466  23.397  28.323  1.00  0.00     0.034 A 
ATOM     48  C   UNL A   1      42.603  29.488  32.110  1.00  0.00     0.034 A 
ATOM     49  C   UNL A   1      43.596  23.929  29.088  1.00  0.00     0.049 A 
ATOM     50  C   UNL A   1      43.201  28.233  32.724  1.00  0.00     0.074 A 
ATOM     51  C   UNL A   1      44.745  24.621  28.750  1.00  0.00     0.029 A 
ATOM     52  N   UNL A   1      43.475  24.019  30.462  1.00  0.00    -0.354 N 
ATOM     53  N   UNL A   1      43.473  27.147  32.053  1.00  0.00    -0.248 NA
ATOM     54  C   UNL A   1      43.476  28.089  34.150  1.00  0.00     0.031 C 
ATOM     55  C   UNL A   1      45.282  25.179  29.947  1.00  0.00     0.029 A 
ATOM     56  C   UNL A   1      44.479  24.791  31.006  1.00  0.00     0.049 A 
ATOM     57  H   UNL A   1      42.763  23.586  30.986  1.00  0.00     0.167 HD
ATOM     58  C   UNL A   1      44.013  26.212  32.892  1.00  0.00     0.074 A 
ATOM     59  C   UNL A   1      43.927  26.825  34.208  1.00  0.00     0.031 C 
ATOM     60  C   UNL A   1      44.496  25.015  32.442  1.00  0.00     0.034 A 
BRANCH  47  61
ATOM     61  C   UNL A   1      42.627  22.168  27.441  1.00  0.00     0.023 A 
ATOM     62  C   UNL A   1      43.690  22.139  26.506  1.00  0.00     0.031 A 
ATOM     63  C   UNL A   1      41.790  21.039  27.407  1.00  0.00     0.131 A 
ATOM     64  C   UNL A   1      43.852  21.084  25.586  1.00  0.00     0.055 A 
ATOM     65  C   UNL A   1      41.964  19.970  26.511  1.00  0.00     0.041 A 
ATOM     66  F   UNL A   1      40.758  20.897  28.238  1.00  0.00    -0.206 F 
ATOM     67  C   UNL A   1      42.994  19.992  25.587  1.00  0.00     0.022 A 
BRANCH  64  68
ATOM     68  S   UNL A   1      45.157  21.195  24.330  1.00  0.00     0.124 S 
ATOM     69  O   UNL A   1      44.787  20.125  23.410  1.00  0.00    -0.237 OA
ATOM     70  O   UNL A   1      45.001  22.558  23.837  1.00  0.00    -0.237 OA
ATOM     71  O   UNL A   1      46.383  20.950  25.092  1.00  0.00    -0.744 OA
ENDBRANCH  64  68
ENDBRANCH  47  61
BRANCH  48  72
ATOM     72  C   UNL A   1      41.311  30.109  32.576  1.00  0.00     0.023 A 
ATOM     73  C   UNL A   1      41.117  31.499  32.388  1.00  0.00     0.031 A 
ATOM     74  C   UNL A   1      40.174  29.335  32.854  1.00  0.00     0.131 A 
ATOM     75  C   UNL A   1      39.819  32.030  32.298  1.00  0.00     0.055 A 
ATOM     76  C   UNL A   1      38.886  29.887  32.851  1.00  0.00     0.041 A 
ATOM     77  F   UNL A   1      40.271  28.009  33.030  1.00  0.00    -0.206 F 
ATOM     78  C   UNL A   1      38.700  31.230  32.531  1.00  0.00     0.022 A 
BRANCH  75  79
ATOM     79  S   UNL A   1      39.600  33.685  31.565  1.00  0.00     0.124 S 
ATOM     80  O   UNL A   1      38.913  33.378  30.317  1.00  0.00    -0.237 OA
ATOM     81  O   UNL A   1      38.810  34.376  32.581  1.00  0.00    -0.237 OA
ATOM     82  O   UNL A   1      40.970  34.177  31.431  1.00  0.00    -0.744 OA
ENDBRANCH  75  79
ENDBRANCH  48  72
BRANCH  60  83
ATOM     83  C   UNL A   1      45.047  23.943  33.340  1.00  0.00     0.023 A 
ATOM     84  C   UNL A   1      46.409  23.860  33.651  1.00  0.00     0.031 A 
ATOM     85  C   UNL A   1      44.215  22.932  33.876  1.00  0.00     0.131 A 
ATOM     86  C   UNL A   1      46.878  22.882  34.541  1.00  0.00     0.055 A 
ATOM     87  C   UNL A   1      44.705  21.900  34.679  1.00  0.00     0.041 A 
ATOM     88  F   UNL A   1      42.889  22.930  33.686  1.00  0.00    -0.206 F 
ATOM     89  C   UNL A   1      46.042  21.883  35.037  1.00  0.00     0.022 A 
BRANCH  86  90
ATOM     90  S   UNL A   1      48.587  23.012  35.121  1.00  0.00     0.124 S 
ATOM     91  O   UNL A   1      48.943  24.379  34.758  1.00  0.00    -0.237 OA
ATOM     92  O   UNL A   1      48.431  22.758  36.551  1.00  0.00    -0.237 OA
ATOM     93  O   UNL A   1      49.284  21.965  34.378  1.00  0.00    -0.744 OA
ENDBRANCH  86  90
ENDBRANCH  60  83
ENDBRANCH  34  35
ENDBRANCH  27  29
ENDBRANCH  26  27
ENDBRANCH  25  26
ENDBRANCH   1  25
TORSDOF 17
ENDMDL
MODEL 3
REMARK VINA RESULT:     -12.6      3.807     10.110
REMARK SMILES Cc1ccc(NC(=O)C[C@H]2SC[C@H](C(=O)OCCOC(=O)c3ccc(-c4c5nc(c(-c6cc(S(=O)(=O)[O-])ccc6F)c6ccc([nH]6)c(-c6cc(S(=O)(=O)[O-])ccc6F)c6nc(c(-c7cc(S(=O)(=O)[O-])ccc7F)c7ccc4[nH]7)C=C6)C=C5)cc3)NC2=O)cc1
REMARK SMILES IDX 17 1 16 2 14 3 15 4 13 5 10 6 11 7 86 8 12 9 85 10 87 11
REMARK SMILES IDX 9 13 7 14 6 15 8 17 5 18 1 19 2 20 3 21 89 22 4 23 88 24
REMARK SMILES IDX 18 25 19 26 20 27 21 28 22 29 23 30 84 31 24 32 83 33 25 34
REMARK SMILES IDX 26 35 27 36 77 37 28 38 82 39 76 40 78 41 29 42 81 43 75 44
REMARK SMILES IDX 74 45 30 47 62 48 42 49 61 50 43 51 46 52 60 53 79 54 44 55
REMARK SMILES IDX 45 56 59 58 80 59 47 60 31 61 32 62 40 63 33 64 39 65 41 66
REMARK SMILES IDX 38 67 34 68 35 69 36 70 37 71 63 72 64 73 72 74 65 75 71 76
REMARK SMILES IDX 73 77 70 78 66 79 67 80 68 81 69 82 48 83 49 84 57 85 50 86
REMARK SMILES IDX 56 87 58 88 55 89 51 90 52 91 53 92 54 93
REMARK H PARENT 85 12 6 16 78 46 46 57
REMARK Flexibility Score: inf
ROOT
ATOM      1  C   UNL A   1      32.194  29.473  25.804  1.00  0.00     0.274 C 
ENDROOT
BRANCH   1   2
ATOM      2  O   UNL A   1      31.476  28.263  26.075  1.00  0.00    -0.461 OA
BRANCH   2   3
ATOM      3  C   UNL A   1      30.994  27.597  24.992  1.00  0.00     0.329 C 
ATOM      4  O   UNL A   1      30.272  28.080  24.145  1.00  0.00    -0.250 OA
BRANCH   3   5
ATOM      5  C   UNL A   1      31.465  26.139  25.053  1.00  0.00     0.202 C 
ATOM      6  C   UNL A   1      33.458  24.189  26.203  1.00  0.00     0.145 C 
ATOM      7  S   UNL A   1      33.479  24.362  24.370  1.00  0.00    -0.145 SA
ATOM      8  C   UNL A   1      32.045  24.408  26.741  1.00  0.00     0.234 C 
ATOM      9  C   UNL A   1      32.781  26.042  24.297  1.00  0.00     0.107 C 
ATOM     10  N   UNL A   1      31.474  25.618  26.422  1.00  0.00    -0.341 N 
ATOM     11  O   UNL A   1      31.450  23.650  27.497  1.00  0.00    -0.274 OA
ATOM     12  H   UNL A   1      31.058  26.151  27.137  1.00  0.00     0.164 HD
BRANCH   6  13
ATOM     13  C   UNL A   1      34.202  22.921  26.617  1.00  0.00     0.124 C 
BRANCH  13  14
ATOM     14  C   UNL A   1      35.578  22.642  26.046  1.00  0.00     0.226 C 
ATOM     15  N   UNL A   1      35.880  21.569  25.271  1.00  0.00    -0.326 N 
ATOM     16  H   UNL A   1      36.779  21.620  24.872  1.00  0.00     0.169 HD
ATOM     17  O   UNL A   1      36.503  23.420  26.319  1.00  0.00    -0.275 OA
BRANCH  15  18
ATOM     18  C   UNL A   1      35.186  20.406  24.917  1.00  0.00     0.041 A 
ATOM     19  C   UNL A   1      33.312  16.694  23.786  1.00  0.00     0.044 C 
ATOM     20  C   UNL A   1      33.971  17.977  24.190  1.00  0.00    -0.051 A 
ATOM     21  C   UNL A   1      33.220  19.154  24.272  1.00  0.00     0.005 A 
ATOM     22  C   UNL A   1      35.335  18.018  24.489  1.00  0.00     0.005 A 
ATOM     23  C   UNL A   1      33.821  20.356  24.655  1.00  0.00     0.026 A 
ATOM     24  C   UNL A   1      35.932  19.223  24.862  1.00  0.00     0.026 A 
ENDBRANCH  15  18
ENDBRANCH  13  14
ENDBRANCH   6  13
ENDBRANCH   3   5
ENDBRANCH   2   3
ENDBRANCH   1   2
BRANCH   1  25
ATOM     25  C   UNL A   1      33.692  29.202  26.027  1.00  0.00     0.275 C 
BRANCH  25  26
ATOM     26  O   UNL A   1      34.191  29.266  27.389  1.00  0.00    -0.458 OA
BRANCH  26  27
ATOM     27  C   UNL A   1      34.649  30.458  27.865  1.00  0.00     0.338 C 
ATOM     28  O   UNL A   1      33.944  31.433  28.077  1.00  0.00    -0.246 OA
BRANCH  27  29
ATOM     29  C   UNL A   1      36.036  30.273  28.379  1.00  0.00     0.060 A 
ATOM     30  C   UNL A   1      36.258  29.648  29.618  1.00  0.00     0.016 A 
ATOM     31  C   UNL A   1      37.082  30.419  27.474  1.00  0.00     0.016 A 
ATOM     32  C   UNL A   1      37.483  29.014  29.871  1.00  0.00     0.010 A 
ATOM     33  C   UNL A   1      38.235  29.700  27.674  1.00  0.00     0.010 A 
ATOM     34  C   UNL A   1      38.440  28.975  28.857  1.00  0.00    -0.014 A 
BRANCH  34  35
ATOM     35  C   UNL A   1      39.778  28.390  28.944  1.00  0.00     0.031 A 
ATOM     36  C   UNL A   1      40.114  26.984  28.632  1.00  0.00     0.074 A 
ATOM     37  C   UNL A   1      40.748  29.310  29.136  1.00  0.00     0.049 A 
ATOM     38  N   UNL A   1      41.276  26.462  28.838  1.00  0.00    -0.248 NA
ATOM     39  C   UNL A   1      39.173  26.022  28.080  1.00  0.00     0.031 C 
ATOM     40  C   UNL A   1      42.183  29.218  28.940  1.00  0.00     0.029 A 
ATOM     41  N   UNL A   1      40.582  30.547  29.758  1.00  0.00    -0.354 N 
ATOM     42  C   UNL A   1      41.328  25.228  28.219  1.00  0.00     0.074 A 
ATOM     43  C   UNL A   1      39.962  24.966  27.840  1.00  0.00     0.031 C 
ATOM     44  C   UNL A   1      42.765  30.156  29.713  1.00  0.00     0.029 A 
ATOM     45  C   UNL A   1      41.710  30.709  30.558  1.00  0.00     0.049 A 
ATOM     46  H   UNL A   1      39.829  31.171  29.655  1.00  0.00     0.167 HD
ATOM     47  C   UNL A   1      42.550  24.650  28.016  1.00  0.00     0.034 A 
ATOM     48  C   UNL A   1      41.638  30.598  31.921  1.00  0.00     0.034 A 
ATOM     49  C   UNL A   1      43.594  25.426  28.688  1.00  0.00     0.049 A 
ATOM     50  C   UNL A   1      42.565  29.514  32.447  1.00  0.00     0.074 A 
ATOM     51  C   UNL A   1      44.516  26.367  28.263  1.00  0.00     0.029 A 
ATOM     52  N   UNL A   1      43.587  25.483  30.069  1.00  0.00    -0.354 N 
ATOM     53  N   UNL A   1      43.015  28.522  31.728  1.00  0.00    -0.248 NA
ATOM     54  C   UNL A   1      42.999  29.435  33.838  1.00  0.00     0.031 C 
ATOM     55  C   UNL A   1      45.021  27.031  29.419  1.00  0.00     0.029 A 
ATOM     56  C   UNL A   1      44.433  26.466  30.537  1.00  0.00     0.049 A 
ATOM     57  H   UNL A   1      43.046  24.896  30.645  1.00  0.00     0.167 HD
ATOM     58  C   UNL A   1      43.833  27.736  32.491  1.00  0.00     0.074 A 
ATOM     59  C   UNL A   1      43.733  28.309  33.825  1.00  0.00     0.031 C 
ATOM     60  C   UNL A   1      44.533  26.684  31.970  1.00  0.00     0.034 A 
BRANCH  47  61
ATOM     61  C   UNL A   1      42.906  23.493  27.094  1.00  0.00     0.023 A 
ATOM     62  C   UNL A   1      42.221  22.263  27.254  1.00  0.00     0.031 A 
ATOM     63  C   UNL A   1      43.900  23.483  26.100  1.00  0.00     0.131 A 
ATOM     64  C   UNL A   1      42.557  21.115  26.509  1.00  0.00     0.055 A 
ATOM     65  C   UNL A   1      44.220  22.348  25.335  1.00  0.00     0.041 A 
ATOM     66  F   UNL A   1      44.620  24.564  25.807  1.00  0.00    -0.206 F 
ATOM     67  C   UNL A   1      43.554  21.152  25.542  1.00  0.00     0.022 A 
BRANCH  64  68
ATOM     68  S   UNL A   1      41.725  19.546  26.876  1.00  0.00     0.124 S 
ATOM     69  O   UNL A   1      40.798  19.932  27.935  1.00  0.00    -0.237 OA
ATOM     70  O   UNL A   1      41.133  19.197  25.590  1.00  0.00    -0.237 OA
ATOM     71  O   UNL A   1      42.819  18.674  27.308  1.00  0.00    -0.744 OA
ENDBRANCH  64  68
ENDBRANCH  47  61
BRANCH  48  72
ATOM     72  C   UNL A   1      40.288  30.902  32.518  1.00  0.00     0.023 A 
ATOM     73  C   UNL A   1      39.752  32.203  32.362  1.00  0.00     0.031 A 
ATOM     74  C   UNL A   1      39.401  29.885  32.901  1.00  0.00     0.131 A 
ATOM     75  C   UNL A   1      38.362  32.410  32.406  1.00  0.00     0.055 A 
ATOM     76  C   UNL A   1      38.025  30.115  33.031  1.00  0.00     0.041 A 
ATOM     77  F   UNL A   1      39.827  28.622  33.056  1.00  0.00    -0.206 F 
ATOM     78  C   UNL A   1      37.494  31.371  32.742  1.00  0.00     0.022 A 
BRANCH  75  79
ATOM     79  S   UNL A   1      37.685  33.954  31.712  1.00  0.00     0.124 S 
ATOM     80  O   UNL A   1      38.891  34.743  31.490  1.00  0.00    -0.237 OA
ATOM     81  O   UNL A   1      36.995  33.484  30.514  1.00  0.00    -0.237 OA
ATOM     82  O   UNL A   1      36.798  34.436  32.769  1.00  0.00    -0.744 OA
ENDBRANCH  75  79
ENDBRANCH  48  72
BRANCH  60  83
ATOM     83  C   UNL A   1      45.399  25.767  32.788  1.00  0.00     0.023 A 
ATOM     84  C   UNL A   1      44.860  24.781  33.621  1.00  0.00     0.031 A 
ATOM     85  C   UNL A   1      46.808  25.892  32.790  1.00  0.00     0.131 A 
ATOM     86  C   UNL A   1      45.700  23.903  34.323  1.00  0.00     0.055 A 
ATOM     87  C   UNL A   1      47.636  25.084  33.571  1.00  0.00     0.041 A 
ATOM     88  F   UNL A   1      47.443  26.770  32.001  1.00  0.00    -0.206 F 
ATOM     89  C   UNL A   1      47.084  24.063  34.327  1.00  0.00     0.022 A 
BRANCH  86  90
ATOM     90  S   UNL A   1      44.944  22.479  35.144  1.00  0.00     0.124 S 
ATOM     91  O   UNL A   1      45.602  21.350  34.493  1.00  0.00    -0.237 OA
ATOM     92  O   UNL A   1      45.319  22.711  36.537  1.00  0.00    -0.237 OA
ATOM     93  O   UNL A   1      43.521  22.627  34.852  1.00  0.00    -0.744 OA
ENDBRANCH  86  90
ENDBRANCH  60  83
ENDBRANCH  34  35
ENDBRANCH  27  29
ENDBRANCH  26  27
ENDBRANCH  25  26
ENDBRANCH   1  25
TORSDOF 17
ENDMDL
