MODEL 1
REMARK VINA RESULT:      -9.6      0.000      0.000
REMARK SMILES COCCS(=O)(=O)CCn1cc(C(=O)OCCOC(=O)c2ccc(-c3c4nc(c(-c5cc(S(=O)(=O)[O-])ccc5F)c5ccc([nH]5)c(-c5cc(S(=O)(=O)[O-])ccc5F)c5nc(c(-c6cc(S(=O)(=O)[O-])ccc6F)c6ccc3[nH]6)C=C5)C=C4)cc2)nn1
REMARK SMILES IDX 15 1 13 2 14 3 12 4 10 5 11 6 85 7 84 8 9 9 8 10 5 11 6 12
REMARK SMILES IDX 7 13 4 14 3 15 2 16 1 17 16 18 17 19 18 20 19 21 20 22 21 23
REMARK SMILES IDX 22 24 83 25 23 26 82 27 24 28 25 29 26 30 76 31 27 32 81 33
REMARK SMILES IDX 75 34 77 35 28 36 80 37 74 38 73 39 29 41 61 42 41 43 60 44
REMARK SMILES IDX 42 45 45 46 59 47 78 48 43 49 44 50 58 52 79 53 46 54 30 55
REMARK SMILES IDX 31 56 39 57 32 58 38 59 40 60 37 61 33 62 34 63 35 64 36 65
REMARK SMILES IDX 62 66 63 67 71 68 64 69 70 70 72 71 69 72 65 73 66 74 67 75
REMARK SMILES IDX 68 76 47 77 48 78 56 79 49 80 55 81 57 82 54 83 50 84 51 85
REMARK SMILES IDX 52 86 53 87
REMARK H PARENT 77 40 45 51
REMARK Flexibility Score: inf
ROOT
ATOM      1  O   UNL A   1      34.207  32.848  30.862  1.00  0.00    -0.457 OA
ENDROOT
BRANCH   1   2
ATOM      2  C   UNL A   1      34.618  32.942  32.167  1.00  0.00     0.360 C 
ATOM      3  O   UNL A   1      33.874  33.257  33.093  1.00  0.00    -0.244 OA
BRANCH   2   4
ATOM      4  C   UNL A   1      35.996  32.531  32.361  1.00  0.00     0.190 A 
ATOM      5  N   UNL A   1      38.097  32.372  32.792  1.00  0.00    -0.251 N 
ATOM      6  C   UNL A   1      37.148  33.293  32.466  1.00  0.00     0.147 A 
ATOM      7  N   UNL A   1      37.645  31.123  32.650  1.00  0.00    -0.067 NA
ATOM      8  N   UNL A   1      36.336  31.203  32.481  1.00  0.00    -0.123 NA
BRANCH   5   9
ATOM      9  C   UNL A   1      39.417  32.569  33.332  1.00  0.00     0.162 C 
BRANCH   9  10
ATOM     10  C   UNL A   1      39.774  31.673  34.498  1.00  0.00     0.160 C 
BRANCH  10  11
ATOM     11  S   UNL A   1      39.026  31.957  36.090  1.00  0.00     0.154 S 
ATOM     12  O   UNL A   1      39.963  31.402  37.058  1.00  0.00    -0.229 OA
ATOM     13  O   UNL A   1      37.692  31.389  36.016  1.00  0.00    -0.229 OA
BRANCH  11  14
ATOM     14  C   UNL A   1      38.846  33.680  36.507  1.00  0.00     0.165 C 
BRANCH  14  15
ATOM     15  C   UNL A   1      39.705  34.169  37.655  1.00  0.00     0.176 C 
BRANCH  15  16
ATOM     16  O   UNL A   1      39.032  35.112  38.481  1.00  0.00    -0.384 OA
ATOM     17  C   UNL A   1      39.532  36.436  38.420  1.00  0.00     0.194 C 
ENDBRANCH  15  16
ENDBRANCH  14  15
ENDBRANCH  11  14
ENDBRANCH  10  11
ENDBRANCH   9  10
ENDBRANCH   5   9
ENDBRANCH   2   4
ENDBRANCH   1   2
BRANCH   1  18
ATOM     18  C   UNL A   1      34.309  34.076  30.120  1.00  0.00     0.275 C 
BRANCH  18  19
ATOM     19  C   UNL A   1      34.679  33.826  28.661  1.00  0.00     0.275 C 
BRANCH  19  20
ATOM     20  O   UNL A   1      35.952  33.190  28.521  1.00  0.00    -0.458 OA
BRANCH  20  21
ATOM     21  C   UNL A   1      35.885  31.906  28.094  1.00  0.00     0.338 C 
ATOM     22  O   UNL A   1      35.012  31.429  27.386  1.00  0.00    -0.246 OA
BRANCH  21  23
ATOM     23  C   UNL A   1      36.880  31.092  28.799  1.00  0.00     0.060 A 
ATOM     24  C   UNL A   1      38.071  31.704  29.197  1.00  0.00     0.016 A 
ATOM     25  C   UNL A   1      36.739  29.697  28.778  1.00  0.00     0.016 A 
ATOM     26  C   UNL A   1      39.175  30.906  29.440  1.00  0.00     0.010 A 
ATOM     27  C   UNL A   1      37.847  28.907  28.993  1.00  0.00     0.010 A 
ATOM     28  C   UNL A   1      39.069  29.520  29.264  1.00  0.00    -0.014 A 
BRANCH  28  29
ATOM     29  C   UNL A   1      40.230  28.690  29.522  1.00  0.00     0.031 A 
ATOM     30  C   UNL A   1      40.558  28.594  30.963  1.00  0.00     0.074 A 
ATOM     31  C   UNL A   1      40.860  27.963  28.579  1.00  0.00     0.049 A 
ATOM     32  N   UNL A   1      41.588  29.086  31.561  1.00  0.00    -0.248 NA
ATOM     33  C   UNL A   1      39.542  28.045  31.873  1.00  0.00     0.031 C 
ATOM     34  C   UNL A   1      40.468  27.762  27.184  1.00  0.00     0.029 A 
ATOM     35  N   UNL A   1      41.948  27.153  28.709  1.00  0.00    -0.354 N 
ATOM     36  C   UNL A   1      41.467  28.709  32.893  1.00  0.00     0.074 A 
ATOM     37  C   UNL A   1      40.109  28.270  33.060  1.00  0.00     0.031 C 
ATOM     38  C   UNL A   1      41.167  26.722  26.671  1.00  0.00     0.029 A 
ATOM     39  C   UNL A   1      42.132  26.260  27.658  1.00  0.00     0.049 A 
ATOM     40  H   UNL A   1      42.553  27.196  29.485  1.00  0.00     0.167 HD
ATOM     41  C   UNL A   1      42.566  28.561  33.680  1.00  0.00     0.034 A 
ATOM     42  C   UNL A   1      42.965  25.181  27.634  1.00  0.00     0.034 A 
ATOM     43  C   UNL A   1      43.719  29.194  33.081  1.00  0.00     0.049 A 
ATOM     44  C   UNL A   1      44.006  25.415  28.669  1.00  0.00     0.074 A 
ATOM     45  C   UNL A   1      44.008  30.483  32.673  1.00  0.00     0.029 A 
ATOM     46  N   UNL A   1      44.648  28.389  32.455  1.00  0.00    -0.354 N 
ATOM     47  N   UNL A   1      44.902  26.359  28.582  1.00  0.00    -0.248 NA
ATOM     48  C   UNL A   1      43.750  24.936  30.022  1.00  0.00     0.031 C 
ATOM     49  C   UNL A   1      44.741  30.328  31.461  1.00  0.00     0.029 A 
ATOM     50  C   UNL A   1      44.938  28.963  31.242  1.00  0.00     0.049 A 
ATOM     51  H   UNL A   1      45.032  27.557  32.812  1.00  0.00     0.167 HD
ATOM     52  C   UNL A   1      44.978  26.901  29.856  1.00  0.00     0.074 A 
ATOM     53  C   UNL A   1      44.324  25.919  30.722  1.00  0.00     0.031 C 
ATOM     54  C   UNL A   1      45.301  28.214  30.052  1.00  0.00     0.034 A 
BRANCH  41  55
ATOM     55  C   UNL A   1      42.698  27.543  34.788  1.00  0.00     0.023 A 
ATOM     56  C   UNL A   1      43.503  26.419  34.526  1.00  0.00     0.031 A 
ATOM     57  C   UNL A   1      41.874  27.455  35.934  1.00  0.00     0.131 A 
ATOM     58  C   UNL A   1      43.382  25.249  35.292  1.00  0.00     0.055 A 
ATOM     59  C   UNL A   1      41.814  26.314  36.739  1.00  0.00     0.041 A 
ATOM     60  F   UNL A   1      41.011  28.413  36.287  1.00  0.00    -0.206 F 
ATOM     61  C   UNL A   1      42.543  25.188  36.400  1.00  0.00     0.022 A 
BRANCH  58  62
ATOM     62  S   UNL A   1      44.198  23.749  34.693  1.00  0.00     0.124 S 
ATOM     63  O   UNL A   1      44.649  23.146  35.942  1.00  0.00    -0.237 OA
ATOM     64  O   UNL A   1      43.108  23.068  34.003  1.00  0.00    -0.237 OA
ATOM     65  O   UNL A   1      45.257  24.265  33.828  1.00  0.00    -0.744 OA
ENDBRANCH  58  62
ENDBRANCH  41  55
BRANCH  42  66
ATOM     66  C   UNL A   1      42.727  23.853  26.993  1.00  0.00     0.023 A 
ATOM     67  C   UNL A   1      43.719  23.158  26.261  1.00  0.00     0.031 A 
ATOM     68  C   UNL A   1      41.557  23.125  27.309  1.00  0.00     0.131 A 
ATOM     69  C   UNL A   1      43.514  21.806  25.883  1.00  0.00     0.055 A 
ATOM     70  C   UNL A   1      41.359  21.796  26.929  1.00  0.00     0.041 A 
ATOM     71  F   UNL A   1      40.595  23.654  28.081  1.00  0.00    -0.206 F 
ATOM     72  C   UNL A   1      42.343  21.126  26.221  1.00  0.00     0.022 A 
BRANCH  69  73
ATOM     73  S   UNL A   1      44.819  20.866  25.020  1.00  0.00     0.124 S 
ATOM     74  O   UNL A   1      44.611  21.247  23.628  1.00  0.00    -0.237 OA
ATOM     75  O   UNL A   1      46.036  21.359  25.654  1.00  0.00    -0.237 OA
ATOM     76  O   UNL A   1      44.496  19.471  25.328  1.00  0.00    -0.744 OA
ENDBRANCH  69  73
ENDBRANCH  42  66
BRANCH  54  77
ATOM     77  C   UNL A   1      45.878  29.004  28.894  1.00  0.00     0.023 A 
ATOM     78  C   UNL A   1      47.245  29.037  28.531  1.00  0.00     0.031 A 
ATOM     79  C   UNL A   1      44.966  29.663  28.049  1.00  0.00     0.131 A 
ATOM     80  C   UNL A   1      47.649  29.724  27.368  1.00  0.00     0.055 A 
ATOM     81  C   UNL A   1      45.365  30.317  26.886  1.00  0.00     0.041 A 
ATOM     82  F   UNL A   1      43.651  29.651  28.325  1.00  0.00    -0.206 F 
ATOM     83  C   UNL A   1      46.711  30.356  26.544  1.00  0.00     0.022 A 
BRANCH  80  84
ATOM     84  S   UNL A   1      49.410  29.837  26.912  1.00  0.00     0.124 S 
ATOM     85  O   UNL A   1      50.104  29.358  28.101  1.00  0.00    -0.237 OA
ATOM     86  O   UNL A   1      49.488  28.977  25.735  1.00  0.00    -0.237 OA
ATOM     87  O   UNL A   1      49.597  31.262  26.634  1.00  0.00    -0.744 OA
ENDBRANCH  80  84
ENDBRANCH  54  77
ENDBRANCH  28  29
ENDBRANCH  21  23
ENDBRANCH  20  21
ENDBRANCH  19  20
ENDBRANCH  18  19
ENDBRANCH   1  18
TORSDOF 20
ENDMDL
MODEL 2
REMARK VINA RESULT:      -9.4      4.325      6.962
REMARK SMILES COCCS(=O)(=O)CCn1cc(C(=O)OCCOC(=O)c2ccc(-c3c4nc(c(-c5cc(S(=O)(=O)[O-])ccc5F)c5ccc([nH]5)c(-c5cc(S(=O)(=O)[O-])ccc5F)c5nc(c(-c6cc(S(=O)(=O)[O-])ccc6F)c6ccc3[nH]6)C=C5)C=C4)cc2)nn1
REMARK SMILES IDX 15 1 13 2 14 3 12 4 10 5 11 6 85 7 84 8 9 9 8 10 5 11 6 12
REMARK SMILES IDX 7 13 4 14 3 15 2 16 1 17 16 18 17 19 18 20 19 21 20 22 21 23
REMARK SMILES IDX 22 24 83 25 23 26 82 27 24 28 25 29 26 30 76 31 27 32 81 33
REMARK SMILES IDX 75 34 77 35 28 36 80 37 74 38 73 39 29 41 61 42 41 43 60 44
REMARK SMILES IDX 42 45 45 46 59 47 78 48 43 49 44 50 58 52 79 53 46 54 30 55
REMARK SMILES IDX 31 56 39 57 32 58 38 59 40 60 37 61 33 62 34 63 35 64 36 65
REMARK SMILES IDX 62 66 63 67 71 68 64 69 70 70 72 71 69 72 65 73 66 74 67 75
REMARK SMILES IDX 68 76 47 77 48 78 56 79 49 80 55 81 57 82 54 83 50 84 51 85
REMARK SMILES IDX 52 86 53 87
REMARK H PARENT 77 40 45 51
REMARK Flexibility Score: inf
ROOT
ATOM      1  O   UNL A   1      33.067  28.734  26.907  1.00  0.00    -0.457 OA
ENDROOT
BRANCH   1   2
ATOM      2  C   UNL A   1      32.019  27.886  27.155  1.00  0.00     0.360 C 
ATOM      3  O   UNL A   1      31.423  27.838  28.229  1.00  0.00    -0.244 OA
BRANCH   2   4
ATOM      4  C   UNL A   1      31.615  27.123  25.989  1.00  0.00     0.190 A 
ATOM      5  N   UNL A   1      31.480  26.012  24.152  1.00  0.00    -0.251 N 
ATOM      6  C   UNL A   1      32.260  26.937  24.777  1.00  0.00     0.147 A 
ATOM      7  N   UNL A   1      30.323  25.827  24.792  1.00  0.00    -0.067 NA
ATOM      8  N   UNL A   1      30.429  26.425  25.966  1.00  0.00    -0.123 NA
BRANCH   5   9
ATOM      9  C   UNL A   1      31.775  25.187  23.010  1.00  0.00     0.162 C 
BRANCH   9  10
ATOM     10  C   UNL A   1      31.496  23.711  23.195  1.00  0.00     0.160 C 
BRANCH  10  11
ATOM     11  S   UNL A   1      32.772  22.520  22.836  1.00  0.00     0.154 S 
ATOM     12  O   UNL A   1      33.772  23.250  22.068  1.00  0.00    -0.229 OA
ATOM     13  O   UNL A   1      32.107  21.391  22.210  1.00  0.00    -0.229 OA
BRANCH  11  14
ATOM     14  C   UNL A   1      33.613  21.905  24.282  1.00  0.00     0.165 C 
BRANCH  14  15
ATOM     15  C   UNL A   1      32.718  21.456  25.419  1.00  0.00     0.176 C 
BRANCH  15  16
ATOM     16  O   UNL A   1      31.950  20.304  25.092  1.00  0.00    -0.384 OA
ATOM     17  C   UNL A   1      32.657  19.076  25.124  1.00  0.00     0.194 C 
ENDBRANCH  15  16
ENDBRANCH  14  15
ENDBRANCH  11  14
ENDBRANCH  10  11
ENDBRANCH   9  10
ENDBRANCH   5   9
ENDBRANCH   2   4
ENDBRANCH   1   2
BRANCH   1  18
ATOM     18  C   UNL A   1      32.675  30.066  26.533  1.00  0.00     0.275 C 
BRANCH  18  19
ATOM     19  C   UNL A   1      33.459  31.124  27.305  1.00  0.00     0.275 C 
BRANCH  19  20
ATOM     20  O   UNL A   1      34.850  30.810  27.402  1.00  0.00    -0.458 OA
BRANCH  20  21
ATOM     21  C   UNL A   1      35.564  31.687  28.150  1.00  0.00     0.338 C 
ATOM     22  O   UNL A   1      35.477  32.904  28.108  1.00  0.00    -0.246 OA
BRANCH  21  23
ATOM     23  C   UNL A   1      36.641  30.983  28.854  1.00  0.00     0.060 A 
ATOM     24  C   UNL A   1      37.842  31.664  29.072  1.00  0.00     0.016 A 
ATOM     25  C   UNL A   1      36.544  29.593  29.006  1.00  0.00     0.016 A 
ATOM     26  C   UNL A   1      38.987  30.925  29.307  1.00  0.00     0.010 A 
ATOM     27  C   UNL A   1      37.691  28.859  29.212  1.00  0.00     0.010 A 
ATOM     28  C   UNL A   1      38.911  29.526  29.302  1.00  0.00    -0.014 A 
BRANCH  28  29
ATOM     29  C   UNL A   1      40.116  28.757  29.551  1.00  0.00     0.031 A 
ATOM     30  C   UNL A   1      40.452  28.665  30.990  1.00  0.00     0.074 A 
ATOM     31  C   UNL A   1      40.783  28.074  28.600  1.00  0.00     0.049 A 
ATOM     32  N   UNL A   1      41.455  29.208  31.592  1.00  0.00    -0.248 NA
ATOM     33  C   UNL A   1      39.468  28.054  31.897  1.00  0.00     0.031 C 
ATOM     34  C   UNL A   1      40.399  27.865  27.203  1.00  0.00     0.029 A 
ATOM     35  N   UNL A   1      41.913  27.323  28.721  1.00  0.00    -0.354 N 
ATOM     36  C   UNL A   1      41.357  28.812  32.920  1.00  0.00     0.074 A 
ATOM     37  C   UNL A   1      40.024  28.298  33.084  1.00  0.00     0.031 C 
ATOM     38  C   UNL A   1      41.152  26.869  26.680  1.00  0.00     0.029 A 
ATOM     39  C   UNL A   1      42.143  26.451  27.662  1.00  0.00     0.049 A 
ATOM     40  H   UNL A   1      42.517  27.391  29.497  1.00  0.00     0.167 HD
ATOM     41  C   UNL A   1      42.463  28.716  33.704  1.00  0.00     0.034 A 
ATOM     42  C   UNL A   1      43.033  25.419  27.626  1.00  0.00     0.034 A 
ATOM     43  C   UNL A   1      43.580  29.417  33.109  1.00  0.00     0.049 A 
ATOM     44  C   UNL A   1      44.062  25.699  28.662  1.00  0.00     0.074 A 
ATOM     45  C   UNL A   1      43.798  30.723  32.713  1.00  0.00     0.029 A 
ATOM     46  N   UNL A   1      44.549  28.669  32.475  1.00  0.00    -0.354 N 
ATOM     47  N   UNL A   1      44.905  26.691  28.582  1.00  0.00    -0.248 NA
ATOM     48  C   UNL A   1      43.834  25.194  30.010  1.00  0.00     0.031 C 
ATOM     49  C   UNL A   1      44.536  30.619  31.498  1.00  0.00     0.029 A 
ATOM     50  C   UNL A   1      44.806  29.269  31.266  1.00  0.00     0.049 A 
ATOM     51  H   UNL A   1      44.979  27.856  32.823  1.00  0.00     0.167 HD
ATOM     52  C   UNL A   1      44.955  27.224  29.861  1.00  0.00     0.074 A 
ATOM     53  C   UNL A   1      44.356  26.201  30.719  1.00  0.00     0.031 C 
ATOM     54  C   UNL A   1      45.206  28.551  30.069  1.00  0.00     0.034 A 
BRANCH  41  55
ATOM     55  C   UNL A   1      42.653  27.697  34.802  1.00  0.00     0.023 A 
ATOM     56  C   UNL A   1      43.395  26.545  34.480  1.00  0.00     0.031 A 
ATOM     57  C   UNL A   1      41.924  27.640  36.013  1.00  0.00     0.131 A 
ATOM     58  C   UNL A   1      43.298  25.382  35.259  1.00  0.00     0.055 A 
ATOM     59  C   UNL A   1      41.893  26.503  36.826  1.00  0.00     0.041 A 
ATOM     60  F   UNL A   1      41.127  28.628  36.432  1.00  0.00    -0.206 F 
ATOM     61  C   UNL A   1      42.552  25.353  36.433  1.00  0.00     0.022 A 
BRANCH  58  62
ATOM     62  S   UNL A   1      44.010  23.854  34.602  1.00  0.00     0.124 S 
ATOM     63  O   UNL A   1      44.697  23.326  35.776  1.00  0.00    -0.237 OA
ATOM     64  O   UNL A   1      42.822  23.130  34.168  1.00  0.00    -0.237 OA
ATOM     65  O   UNL A   1      44.881  24.324  33.527  1.00  0.00    -0.744 OA
ENDBRANCH  58  62
ENDBRANCH  41  55
BRANCH  42  66
ATOM     66  C   UNL A   1      42.866  24.085  26.973  1.00  0.00     0.023 A 
ATOM     67  C   UNL A   1      43.840  23.513  26.122  1.00  0.00     0.031 A 
ATOM     68  C   UNL A   1      41.816  23.233  27.386  1.00  0.00     0.131 A 
ATOM     69  C   UNL A   1      43.736  22.155  25.726  1.00  0.00     0.055 A 
ATOM     70  C   UNL A   1      41.717  21.898  26.989  1.00  0.00     0.041 A 
ATOM     71  F   UNL A   1      40.892  23.643  28.269  1.00  0.00    -0.206 F 
ATOM     72  C   UNL A   1      42.683  21.349  26.163  1.00  0.00     0.022 A 
BRANCH  69  73
ATOM     73  S   UNL A   1      45.032  21.373  24.706  1.00  0.00     0.124 S 
ATOM     74  O   UNL A   1      44.841  19.955  24.988  1.00  0.00    -0.237 OA
ATOM     75  O   UNL A   1      44.689  21.821  23.361  1.00  0.00    -0.237 OA
ATOM     76  O   UNL A   1      46.274  21.941  25.236  1.00  0.00    -0.744 OA
ENDBRANCH  69  73
ENDBRANCH  42  66
BRANCH  54  77
ATOM     77  C   UNL A   1      45.738  29.382  28.917  1.00  0.00     0.023 A 
ATOM     78  C   UNL A   1      45.049  30.451  28.297  1.00  0.00     0.031 A 
ATOM     79  C   UNL A   1      47.064  29.144  28.514  1.00  0.00     0.131 A 
ATOM     80  C   UNL A   1      45.689  31.220  27.304  1.00  0.00     0.055 A 
ATOM     81  C   UNL A   1      47.703  29.924  27.553  1.00  0.00     0.041 A 
ATOM     82  F   UNL A   1      47.782  28.158  29.079  1.00  0.00    -0.206 F 
ATOM     83  C   UNL A   1      47.015  30.962  26.938  1.00  0.00     0.022 A 
BRANCH  80  84
ATOM     84  S   UNL A   1      44.803  32.560  26.443  1.00  0.00     0.124 S 
ATOM     85  O   UNL A   1      43.786  31.858  25.670  1.00  0.00    -0.237 OA
ATOM     86  O   UNL A   1      44.315  33.379  27.549  1.00  0.00    -0.237 OA
ATOM     87  O   UNL A   1      45.848  33.193  25.636  1.00  0.00    -0.744 OA
ENDBRANCH  80  84
ENDBRANCH  54  77
ENDBRANCH  28  29
ENDBRANCH  21  23
ENDBRANCH  20  21
ENDBRANCH  19  20
ENDBRANCH  18  19
ENDBRANCH   1  18
TORSDOF 20
ENDMDL
MODEL 3
REMARK VINA RESULT:      -9.4      2.158      2.762
REMARK SMILES COCCS(=O)(=O)CCn1cc(C(=O)OCCOC(=O)c2ccc(-c3c4nc(c(-c5cc(S(=O)(=O)[O-])ccc5F)c5ccc([nH]5)c(-c5cc(S(=O)(=O)[O-])ccc5F)c5nc(c(-c6cc(S(=O)(=O)[O-])ccc6F)c6ccc3[nH]6)C=C5)C=C4)cc2)nn1
REMARK SMILES IDX 15 1 13 2 14 3 12 4 10 5 11 6 85 7 84 8 9 9 8 10 5 11 6 12
REMARK SMILES IDX 7 13 4 14 3 15 2 16 1 17 16 18 17 19 18 20 19 21 20 22 21 23
REMARK SMILES IDX 22 24 83 25 23 26 82 27 24 28 25 29 26 30 76 31 27 32 81 33
REMARK SMILES IDX 75 34 77 35 28 36 80 37 74 38 73 39 29 41 61 42 41 43 60 44
REMARK SMILES IDX 42 45 45 46 59 47 78 48 43 49 44 50 58 52 79 53 46 54 30 55
REMARK SMILES IDX 31 56 39 57 32 58 38 59 40 60 37 61 33 62 34 63 35 64 36 65
REMARK SMILES IDX 62 66 63 67 71 68 64 69 70 70 72 71 69 72 65 73 66 74 67 75
REMARK SMILES IDX 68 76 47 77 48 78 56 79 49 80 55 81 57 82 54 83 50 84 51 85
REMARK SMILES IDX 52 86 53 87
REMARK H PARENT 77 40 45 51
REMARK Flexibility Score: inf
ROOT
ATOM      1  O   UNL A   1      34.831  34.460  31.721  1.00  0.00    -0.457 OA
ENDROOT
BRANCH   1   2
ATOM      2  C   UNL A   1      34.527  33.591  32.736  1.00  0.00     0.360 C 
ATOM      3  O   UNL A   1      33.384  33.389  33.139  1.00  0.00    -0.244 OA
BRANCH   2   4
ATOM      4  C   UNL A   1      35.680  32.853  33.219  1.00  0.00     0.190 A 
ATOM      5  N   UNL A   1      37.296  31.987  34.343  1.00  0.00    -0.251 N 
ATOM      6  C   UNL A   1      36.492  33.086  34.317  1.00  0.00     0.147 A 
ATOM      7  N   UNL A   1      37.180  31.262  33.227  1.00  0.00    -0.067 NA
ATOM      8  N   UNL A   1      36.128  31.724  32.573  1.00  0.00    -0.123 NA
BRANCH   5   9
ATOM      9  C   UNL A   1      38.131  31.489  35.404  1.00  0.00     0.162 C 
BRANCH   9  10
ATOM     10  C   UNL A   1      39.619  31.654  35.183  1.00  0.00     0.160 C 
BRANCH  10  11
ATOM     11  S   UNL A   1      40.315  33.290  35.055  1.00  0.00     0.154 S 
ATOM     12  O   UNL A   1      41.758  33.092  35.042  1.00  0.00    -0.229 OA
ATOM     13  O   UNL A   1      39.733  34.062  36.138  1.00  0.00    -0.229 OA
BRANCH  11  14
ATOM     14  C   UNL A   1      39.918  34.128  33.534  1.00  0.00     0.165 C 
BRANCH  14  15
ATOM     15  C   UNL A   1      40.137  33.326  32.267  1.00  0.00     0.176 C 
BRANCH  15  16
ATOM     16  O   UNL A   1      40.689  34.104  31.213  1.00  0.00    -0.384 OA
ATOM     17  C   UNL A   1      41.764  33.503  30.513  1.00  0.00     0.194 C 
ENDBRANCH  15  16
ENDBRANCH  14  15
ENDBRANCH  11  14
ENDBRANCH  10  11
ENDBRANCH   9  10
ENDBRANCH   5   9
ENDBRANCH   2   4
ENDBRANCH   1   2
BRANCH   1  18
ATOM     18  C   UNL A   1      33.830  34.540  30.691  1.00  0.00     0.275 C 
BRANCH  18  19
ATOM     19  C   UNL A   1      34.329  33.954  29.372  1.00  0.00     0.275 C 
BRANCH  19  20
ATOM     20  O   UNL A   1      35.404  33.031  29.555  1.00  0.00    -0.458 OA
BRANCH  20  21
ATOM     21  C   UNL A   1      35.348  31.948  28.743  1.00  0.00     0.338 C 
ATOM     22  O   UNL A   1      34.332  31.396  28.351  1.00  0.00    -0.246 OA
BRANCH  21  23
ATOM     23  C   UNL A   1      36.686  31.369  28.586  1.00  0.00     0.060 A 
ATOM     24  C   UNL A   1      36.786  30.047  28.145  1.00  0.00     0.016 A 
ATOM     25  C   UNL A   1      37.776  32.039  29.161  1.00  0.00     0.016 A 
ATOM     26  C   UNL A   1      37.950  29.348  28.413  1.00  0.00     0.010 A 
ATOM     27  C   UNL A   1      38.921  31.332  29.451  1.00  0.00     0.010 A 
ATOM     28  C   UNL A   1      38.977  29.978  29.128  1.00  0.00    -0.014 A 
BRANCH  28  29
ATOM     29  C   UNL A   1      40.194  29.238  29.404  1.00  0.00     0.031 A 
ATOM     30  C   UNL A   1      40.461  29.091  30.853  1.00  0.00     0.074 A 
ATOM     31  C   UNL A   1      40.930  28.621  28.458  1.00  0.00     0.049 A 
ATOM     32  N   UNL A   1      41.414  29.638  31.528  1.00  0.00    -0.248 NA
ATOM     33  C   UNL A   1      39.455  28.408  31.680  1.00  0.00     0.031 C 
ATOM     34  C   UNL A   1      40.624  28.463  27.036  1.00  0.00     0.029 A 
ATOM     35  N   UNL A   1      42.078  27.902  28.604  1.00  0.00    -0.354 N 
ATOM     36  C   UNL A   1      41.264  29.178  32.831  1.00  0.00     0.074 A 
ATOM     37  C   UNL A   1      39.943  28.615  32.904  1.00  0.00     0.031 C 
ATOM     38  C   UNL A   1      41.436  27.517  26.509  1.00  0.00     0.029 A 
ATOM     39  C   UNL A   1      42.391  27.087  27.520  1.00  0.00     0.049 A 
ATOM     40  H   UNL A   1      42.640  27.954  29.412  1.00  0.00     0.167 HD
ATOM     41  C   UNL A   1      42.332  29.082  33.665  1.00  0.00     0.034 A 
ATOM     42  C   UNL A   1      43.316  26.087  27.485  1.00  0.00     0.034 A 
ATOM     43  C   UNL A   1      43.452  29.845  33.160  1.00  0.00     0.049 A 
ATOM     44  C   UNL A   1      44.283  26.353  28.583  1.00  0.00     0.074 A 
ATOM     45  C   UNL A   1      43.644  31.175  32.833  1.00  0.00     0.029 A 
ATOM     46  N   UNL A   1      44.477  29.159  32.543  1.00  0.00    -0.354 N 
ATOM     47  N   UNL A   1      45.094  27.374  28.590  1.00  0.00    -0.248 NA
ATOM     48  C   UNL A   1      44.006  25.780  29.894  1.00  0.00     0.031 C 
ATOM     49  C   UNL A   1      44.445  31.150  31.654  1.00  0.00     0.029 A 
ATOM     50  C   UNL A   1      44.772  29.822  31.377  1.00  0.00     0.049 A 
ATOM     51  H   UNL A   1      44.917  28.345  32.877  1.00  0.00     0.167 HD
ATOM     52  C   UNL A   1      45.061  27.849  29.892  1.00  0.00     0.074 A 
ATOM     53  C   UNL A   1      44.457  26.769  30.673  1.00  0.00     0.031 C 
ATOM     54  C   UNL A   1      45.256  29.173  30.171  1.00  0.00     0.034 A 
BRANCH  41  55
ATOM     55  C   UNL A   1      42.503  28.021  34.726  1.00  0.00     0.023 A 
ATOM     56  C   UNL A   1      43.223  26.868  34.361  1.00  0.00     0.031 A 
ATOM     57  C   UNL A   1      41.773  27.934  35.934  1.00  0.00     0.131 A 
ATOM     58  C   UNL A   1      43.103  25.679  35.098  1.00  0.00     0.055 A 
ATOM     59  C   UNL A   1      41.719  26.769  36.706  1.00  0.00     0.041 A 
ATOM     60  F   UNL A   1      40.994  28.921  36.389  1.00  0.00    -0.206 F 
ATOM     61  C   UNL A   1      42.357  25.621  36.271  1.00  0.00     0.022 A 
BRANCH  58  62
ATOM     62  S   UNL A   1      43.787  24.163  34.386  1.00  0.00     0.124 S 
ATOM     63  O   UNL A   1      44.944  23.936  35.244  1.00  0.00    -0.237 OA
ATOM     64  O   UNL A   1      42.676  23.230  34.539  1.00  0.00    -0.237 OA
ATOM     65  O   UNL A   1      44.093  24.546  33.010  1.00  0.00    -0.744 OA
ENDBRANCH  58  62
ENDBRANCH  41  55
BRANCH  42  66
ATOM     66  C   UNL A   1      43.228  24.781  26.766  1.00  0.00     0.023 A 
ATOM     67  C   UNL A   1      42.305  23.767  27.114  1.00  0.00     0.031 A 
ATOM     68  C   UNL A   1      43.913  24.610  25.541  1.00  0.00     0.131 A 
ATOM     69  C   UNL A   1      42.104  22.655  26.255  1.00  0.00     0.055 A 
ATOM     70  C   UNL A   1      43.715  23.511  24.702  1.00  0.00     0.041 A 
ATOM     71  F   UNL A   1      44.739  25.556  25.067  1.00  0.00    -0.206 F 
ATOM     72  C   UNL A   1      42.801  22.532  25.052  1.00  0.00     0.022 A 
BRANCH  69  73
ATOM     73  S   UNL A   1      40.851  21.386  26.641  1.00  0.00     0.124 S 
ATOM     74  O   UNL A   1      41.460  20.172  26.111  1.00  0.00    -0.237 OA
ATOM     75  O   UNL A   1      40.744  21.478  28.093  1.00  0.00    -0.237 OA
ATOM     76  O   UNL A   1      39.665  21.844  25.914  1.00  0.00    -0.744 OA
ENDBRANCH  69  73
ENDBRANCH  42  66
BRANCH  54  77
ATOM     77  C   UNL A   1      45.815  30.073  29.086  1.00  0.00     0.023 A 
ATOM     78  C   UNL A   1      45.052  30.950  28.281  1.00  0.00     0.031 A 
ATOM     79  C   UNL A   1      47.215  30.120  28.951  1.00  0.00     0.131 A 
ATOM     80  C   UNL A   1      45.697  31.817  27.376  1.00  0.00     0.055 A 
ATOM     81  C   UNL A   1      47.850  30.998  28.076  1.00  0.00     0.041 A 
ATOM     82  F   UNL A   1      47.999  29.329  29.702  1.00  0.00    -0.206 F 
ATOM     83  C   UNL A   1      47.092  31.846  27.278  1.00  0.00     0.022 A 
BRANCH  80  84
ATOM     84  S   UNL A   1      44.734  32.910  26.280  1.00  0.00     0.124 S 
ATOM     85  O   UNL A   1      44.079  33.829  27.202  1.00  0.00    -0.237 OA
ATOM     86  O   UNL A   1      45.766  33.489  25.425  1.00  0.00    -0.237 OA
ATOM     87  O   UNL A   1      43.827  31.988  25.594  1.00  0.00    -0.744 OA
ENDBRANCH  80  84
ENDBRANCH  54  77
ENDBRANCH  28  29
ENDBRANCH  21  23
ENDBRANCH  20  21
ENDBRANCH  19  20
ENDBRANCH  18  19
ENDBRANCH   1  18
TORSDOF 20
ENDMDL
