MODEL 1
REMARK VINA RESULT:     -11.4      0.000      0.000
REMARK SMILES CC(C)[C@H]([NH2+]C[C@H]1CC[C@@H](C(=O)OCCOC(=O)c2ccc(-c3c4nc(c(-c5cc(S(=O)(=O)[O-])ccc5F)c5ccc([nH]5)c(-c5cc(S(=O)(=O)[O-])ccc5F)c5nc(c(-c6cc(S(=O)(=O)[O-])ccc6F)c6ccc3[nH]6)C=C5)C=C4)cc2)CC1)c1ccccc1
REMARK SMILES IDX 14 1 13 2 11 3 12 4 10 5 7 6 8 7 83 8 9 9 82 10 6 11 5 12
REMARK SMILES IDX 4 15 2 16 1 17 3 18 84 19 85 20 89 21 86 22 88 23 87 24
REMARK SMILES IDX 15 25 16 26 17 27 18 28 19 29 20 30 81 31 21 32 80 33 22 34
REMARK SMILES IDX 23 35 24 36 74 37 25 38 79 39 73 40 75 41 26 42 78 43 72 44
REMARK SMILES IDX 71 45 27 47 59 48 39 49 58 50 40 51 43 52 57 53 76 54 41 55
REMARK SMILES IDX 42 56 56 58 77 59 44 60 28 61 29 62 37 63 30 64 36 65 38 66
REMARK SMILES IDX 35 67 31 68 32 69 33 70 34 71 60 72 61 73 69 74 62 75 68 76
REMARK SMILES IDX 70 77 67 78 63 79 64 80 65 81 66 82 45 83 46 84 54 85 47 86
REMARK SMILES IDX 53 87 55 88 52 89 48 90 49 91 50 92 51 93
REMARK H PARENT 5 13 5 14 75 46 43 57
REMARK Flexibility Score: inf
ROOT
ATOM      1  C   UNL A   1      35.401  20.586  24.977  1.00  0.00     0.274 C 
ENDROOT
BRANCH   1   2
ATOM      2  O   UNL A   1      34.456  21.568  24.519  1.00  0.00    -0.462 OA
BRANCH   2   3
ATOM      3  C   UNL A   1      33.680  22.186  25.441  1.00  0.00     0.309 C 
ATOM      4  O   UNL A   1      32.669  21.704  25.936  1.00  0.00    -0.252 OA
BRANCH   3   5
ATOM      5  C   UNL A   1      34.164  23.601  25.762  1.00  0.00     0.099 C 
ATOM      6  C   UNL A   1      32.829  25.450  23.840  1.00  0.00     0.044 C 
ATOM      7  C   UNL A   1      32.089  24.820  25.034  1.00  0.00     0.010 C 
ATOM      8  C   UNL A   1      34.140  24.742  23.467  1.00  0.00     0.010 C 
ATOM      9  C   UNL A   1      33.003  24.482  26.201  1.00  0.00     0.016 C 
ATOM     10  C   UNL A   1      34.973  24.289  24.659  1.00  0.00     0.016 C 
BRANCH   6  11
ATOM     11  C   UNL A   1      31.860  25.469  22.642  1.00  0.00     0.264 C 
BRANCH  11  12
ATOM     12  N   UNL A   1      31.823  26.775  21.971  1.00  0.00    -0.340 N 
ATOM     13  H   UNL A   1      32.715  26.931  21.501  1.00  0.00     0.346 HD
ATOM     14  H   UNL A   1      31.057  26.769  21.298  1.00  0.00     0.346 HD
BRANCH  12  15
ATOM     15  C   UNL A   1      31.590  27.866  22.936  1.00  0.00     0.216 C 
BRANCH  15  16
ATOM     16  C   UNL A   1      32.816  28.840  23.122  1.00  0.00     0.046 C 
ATOM     17  C   UNL A   1      33.185  29.074  24.598  1.00  0.00     0.014 C 
ATOM     18  C   UNL A   1      34.103  28.520  22.362  1.00  0.00     0.014 C 
ENDBRANCH  15  16
BRANCH  15  19
ATOM     19  C   UNL A   1      30.232  28.519  22.653  1.00  0.00     0.009 A 
ATOM     20  C   UNL A   1      30.163  29.728  21.939  1.00  0.00     0.010 A 
ATOM     21  C   UNL A   1      29.040  28.020  23.206  1.00  0.00     0.010 A 
ATOM     22  C   UNL A   1      28.943  30.390  21.759  1.00  0.00     0.001 A 
ATOM     23  C   UNL A   1      27.816  28.657  22.991  1.00  0.00     0.001 A 
ATOM     24  C   UNL A   1      27.767  29.845  22.269  1.00  0.00     0.000 A 
ENDBRANCH  15  19
ENDBRANCH  12  15
ENDBRANCH  11  12
ENDBRANCH   6  11
ENDBRANCH   3   5
ENDBRANCH   2   3
ENDBRANCH   1   2
BRANCH   1  25
ATOM     25  C   UNL A   1      36.823  21.033  24.643  1.00  0.00     0.275 C 
BRANCH  25  26
ATOM     26  O   UNL A   1      37.415  21.689  25.777  1.00  0.00    -0.458 OA
BRANCH  26  27
ATOM     27  C   UNL A   1      38.690  21.326  26.060  1.00  0.00     0.338 C 
ATOM     28  O   UNL A   1      39.221  20.251  25.859  1.00  0.00    -0.246 OA
BRANCH  27  29
ATOM     29  C   UNL A   1      39.408  22.512  26.546  1.00  0.00     0.060 A 
ATOM     30  C   UNL A   1      39.035  23.761  26.047  1.00  0.00     0.016 A 
ATOM     31  C   UNL A   1      40.460  22.397  27.453  1.00  0.00     0.016 A 
ATOM     32  C   UNL A   1      39.695  24.910  26.464  1.00  0.00     0.010 A 
ATOM     33  C   UNL A   1      41.120  23.554  27.879  1.00  0.00     0.010 A 
ATOM     34  C   UNL A   1      40.739  24.817  27.390  1.00  0.00    -0.014 A 
BRANCH  34  35
ATOM     35  C   UNL A   1      41.442  26.044  27.831  1.00  0.00     0.031 A 
ATOM     36  C   UNL A   1      40.704  27.080  28.625  1.00  0.00     0.074 A 
ATOM     37  C   UNL A   1      42.741  26.213  27.520  1.00  0.00     0.049 A 
ATOM     38  N   UNL A   1      41.092  28.274  28.991  1.00  0.00    -0.248 NA
ATOM     39  C   UNL A   1      39.346  26.723  29.061  1.00  0.00     0.031 C 
ATOM     40  C   UNL A   1      43.571  25.240  26.808  1.00  0.00     0.029 A 
ATOM     41  N   UNL A   1      43.589  27.266  27.755  1.00  0.00    -0.354 N 
ATOM     42  C   UNL A   1      40.019  28.824  29.683  1.00  0.00     0.074 A 
ATOM     43  C   UNL A   1      38.960  27.836  29.669  1.00  0.00     0.031 C 
ATOM     44  C   UNL A   1      44.806  25.746  26.657  1.00  0.00     0.029 A 
ATOM     45  C   UNL A   1      44.837  27.099  27.203  1.00  0.00     0.049 A 
ATOM     46  H   UNL A   1      43.329  28.063  28.270  1.00  0.00     0.167 HD
ATOM     47  C   UNL A   1      39.933  30.043  30.269  1.00  0.00     0.034 A 
ATOM     48  C   UNL A   1      45.871  27.958  27.104  1.00  0.00     0.034 A 
ATOM     49  C   UNL A   1      41.004  31.011  30.265  1.00  0.00     0.049 A 
ATOM     50  C   UNL A   1      45.718  29.341  27.684  1.00  0.00     0.074 A 
ATOM     51  C   UNL A   1      41.033  32.270  30.838  1.00  0.00     0.029 A 
ATOM     52  N   UNL A   1      42.237  30.830  29.650  1.00  0.00    -0.354 N 
ATOM     53  N   UNL A   1      44.689  29.863  28.313  1.00  0.00    -0.248 NA
ATOM     54  C   UNL A   1      46.860  30.251  27.533  1.00  0.00     0.031 C 
ATOM     55  C   UNL A   1      42.253  32.875  30.512  1.00  0.00     0.029 A 
ATOM     56  C   UNL A   1      43.018  31.967  29.795  1.00  0.00     0.049 A 
ATOM     57  H   UNL A   1      42.517  30.012  29.177  1.00  0.00     0.167 HD
ATOM     58  C   UNL A   1      45.067  31.161  28.645  1.00  0.00     0.074 A 
ATOM     59  C   UNL A   1      46.425  31.331  28.167  1.00  0.00     0.031 C 
ATOM     60  C   UNL A   1      44.360  32.126  29.287  1.00  0.00     0.034 A 
BRANCH  47  61
ATOM     61  C   UNL A   1      38.613  30.418  30.897  1.00  0.00     0.023 A 
ATOM     62  C   UNL A   1      37.601  31.071  30.174  1.00  0.00     0.031 A 
ATOM     63  C   UNL A   1      38.379  30.142  32.257  1.00  0.00     0.131 A 
ATOM     64  C   UNL A   1      36.427  31.482  30.827  1.00  0.00     0.055 A 
ATOM     65  C   UNL A   1      37.181  30.490  32.884  1.00  0.00     0.041 A 
ATOM     66  F   UNL A   1      39.319  29.541  33.004  1.00  0.00    -0.206 F 
ATOM     67  C   UNL A   1      36.201  31.176  32.172  1.00  0.00     0.022 A 
BRANCH  64  68
ATOM     68  S   UNL A   1      35.255  32.536  29.930  1.00  0.00     0.124 S 
ATOM     69  O   UNL A   1      36.116  33.632  29.493  1.00  0.00    -0.237 OA
ATOM     70  O   UNL A   1      34.769  31.647  28.881  1.00  0.00    -0.237 OA
ATOM     71  O   UNL A   1      34.269  32.896  30.947  1.00  0.00    -0.744 OA
ENDBRANCH  64  68
ENDBRANCH  47  61
BRANCH  48  72
ATOM     72  C   UNL A   1      47.107  27.569  26.368  1.00  0.00     0.023 A 
ATOM     73  C   UNL A   1      47.251  27.825  24.996  1.00  0.00     0.031 A 
ATOM     74  C   UNL A   1      48.152  26.893  27.026  1.00  0.00     0.131 A 
ATOM     75  C   UNL A   1      48.394  27.377  24.317  1.00  0.00     0.055 A 
ATOM     76  C   UNL A   1      49.311  26.496  26.358  1.00  0.00     0.041 A 
ATOM     77  F   UNL A   1      48.064  26.618  28.337  1.00  0.00    -0.206 F 
ATOM     78  C   UNL A   1      49.431  26.727  24.991  1.00  0.00     0.022 A 
BRANCH  75  79
ATOM     79  S   UNL A   1      48.475  27.584  22.517  1.00  0.00     0.124 S 
ATOM     80  O   UNL A   1      49.678  28.396  22.365  1.00  0.00    -0.237 OA
ATOM     81  O   UNL A   1      48.571  26.203  22.056  1.00  0.00    -0.237 OA
ATOM     82  O   UNL A   1      47.221  28.261  22.195  1.00  0.00    -0.744 OA
ENDBRANCH  75  79
ENDBRANCH  48  72
BRANCH  60  83
ATOM     83  C   UNL A   1      45.065  33.438  29.522  1.00  0.00     0.023 A 
ATOM     84  C   UNL A   1      45.813  33.673  30.689  1.00  0.00     0.031 A 
ATOM     85  C   UNL A   1      44.966  34.474  28.577  1.00  0.00     0.131 A 
ATOM     86  C   UNL A   1      46.387  34.934  30.907  1.00  0.00     0.055 A 
ATOM     87  C   UNL A   1      45.588  35.707  28.773  1.00  0.00     0.041 A 
ATOM     88  F   UNL A   1      44.262  34.304  27.446  1.00  0.00    -0.206 F 
ATOM     89  C   UNL A   1      46.293  35.947  29.949  1.00  0.00     0.022 A 
BRANCH  86  90
ATOM     90  S   UNL A   1      47.188  35.264  32.500  1.00  0.00     0.124 S 
ATOM     91  O   UNL A   1      46.872  34.055  33.255  1.00  0.00    -0.237 OA
ATOM     92  O   UNL A   1      48.587  35.429  32.119  1.00  0.00    -0.237 OA
ATOM     93  O   UNL A   1      46.528  36.479  32.972  1.00  0.00    -0.744 OA
ENDBRANCH  86  90
ENDBRANCH  60  83
ENDBRANCH  34  35
ENDBRANCH  27  29
ENDBRANCH  26  27
ENDBRANCH  25  26
ENDBRANCH   1  25
TORSDOF 19
ENDMDL
MODEL 2
REMARK VINA RESULT:     -11.1      1.707      2.673
REMARK SMILES CC(C)[C@H]([NH2+]C[C@H]1CC[C@@H](C(=O)OCCOC(=O)c2ccc(-c3c4nc(c(-c5cc(S(=O)(=O)[O-])ccc5F)c5ccc([nH]5)c(-c5cc(S(=O)(=O)[O-])ccc5F)c5nc(c(-c6cc(S(=O)(=O)[O-])ccc6F)c6ccc3[nH]6)C=C5)C=C4)cc2)CC1)c1ccccc1
REMARK SMILES IDX 14 1 13 2 11 3 12 4 10 5 7 6 8 7 83 8 9 9 82 10 6 11 5 12
REMARK SMILES IDX 4 15 2 16 1 17 3 18 84 19 85 20 89 21 86 22 88 23 87 24
REMARK SMILES IDX 15 25 16 26 17 27 18 28 19 29 20 30 81 31 21 32 80 33 22 34
REMARK SMILES IDX 23 35 24 36 74 37 25 38 79 39 73 40 75 41 26 42 78 43 72 44
REMARK SMILES IDX 71 45 27 47 59 48 39 49 58 50 40 51 43 52 57 53 76 54 41 55
REMARK SMILES IDX 42 56 56 58 77 59 44 60 28 61 29 62 37 63 30 64 36 65 38 66
REMARK SMILES IDX 35 67 31 68 32 69 33 70 34 71 60 72 61 73 69 74 62 75 68 76
REMARK SMILES IDX 70 77 67 78 63 79 64 80 65 81 66 82 45 83 46 84 54 85 47 86
REMARK SMILES IDX 53 87 55 88 52 89 48 90 49 91 50 92 51 93
REMARK H PARENT 5 13 5 14 75 46 43 57
REMARK Flexibility Score: inf
ROOT
ATOM      1  C   UNL A   1      34.977  20.630  25.407  1.00  0.00     0.274 C 
ENDROOT
BRANCH   1   2
ATOM      2  O   UNL A   1      34.134  20.476  24.252  1.00  0.00    -0.462 OA
BRANCH   2   3
ATOM      3  C   UNL A   1      32.909  21.054  24.275  1.00  0.00     0.309 C 
ATOM      4  O   UNL A   1      31.972  20.672  24.966  1.00  0.00    -0.252 OA
BRANCH   3   5
ATOM      5  C   UNL A   1      32.786  22.211  23.284  1.00  0.00     0.099 C 
ATOM      6  C   UNL A   1      32.085  24.649  24.854  1.00  0.00     0.044 C 
ATOM      7  C   UNL A   1      33.502  24.046  24.848  1.00  0.00     0.010 C 
ATOM      8  C   UNL A   1      30.990  23.691  24.361  1.00  0.00     0.010 C 
ATOM      9  C   UNL A   1      33.829  23.283  23.574  1.00  0.00     0.016 C 
ATOM     10  C   UNL A   1      31.393  22.836  23.166  1.00  0.00     0.016 C 
BRANCH   6  11
ATOM     11  C   UNL A   1      31.784  25.129  26.286  1.00  0.00     0.264 C 
BRANCH  11  12
ATOM     12  N   UNL A   1      31.073  26.414  26.309  1.00  0.00    -0.340 N 
ATOM     13  H   UNL A   1      30.087  26.251  26.106  1.00  0.00     0.346 HD
ATOM     14  H   UNL A   1      31.187  26.829  27.234  1.00  0.00     0.346 HD
BRANCH  12  15
ATOM     15  C   UNL A   1      31.622  27.348  25.308  1.00  0.00     0.216 C 
BRANCH  15  16
ATOM     16  C   UNL A   1      30.556  27.904  24.287  1.00  0.00     0.046 C 
ATOM     17  C   UNL A   1      31.179  28.405  22.971  1.00  0.00     0.014 C 
ATOM     18  C   UNL A   1      29.370  27.006  23.933  1.00  0.00     0.014 C 
ENDBRANCH  15  16
BRANCH  15  19
ATOM     19  C   UNL A   1      32.510  28.384  26.005  1.00  0.00     0.009 A 
ATOM     20  C   UNL A   1      33.878  28.125  26.203  1.00  0.00     0.010 A 
ATOM     21  C   UNL A   1      31.975  29.547  26.586  1.00  0.00     0.010 A 
ATOM     22  C   UNL A   1      34.682  29.015  26.926  1.00  0.00     0.001 A 
ATOM     23  C   UNL A   1      32.786  30.456  27.271  1.00  0.00     0.001 A 
ATOM     24  C   UNL A   1      34.140  30.188  27.443  1.00  0.00     0.000 A 
ENDBRANCH  15  19
ENDBRANCH  12  15
ENDBRANCH  11  12
ENDBRANCH   6  11
ENDBRANCH   3   5
ENDBRANCH   2   3
ENDBRANCH   1   2
BRANCH   1  25
ATOM     25  C   UNL A   1      36.446  20.557  24.996  1.00  0.00     0.275 C 
BRANCH  25  26
ATOM     26  O   UNL A   1      37.215  21.520  25.737  1.00  0.00    -0.458 OA
BRANCH  26  27
ATOM     27  C   UNL A   1      38.519  21.204  25.925  1.00  0.00     0.338 C 
ATOM     28  O   UNL A   1      39.069  20.142  25.699  1.00  0.00    -0.246 OA
BRANCH  27  29
ATOM     29  C   UNL A   1      39.233  22.421  26.335  1.00  0.00     0.060 A 
ATOM     30  C   UNL A   1      40.384  22.280  27.112  1.00  0.00     0.016 A 
ATOM     31  C   UNL A   1      38.759  23.685  25.991  1.00  0.00     0.016 A 
ATOM     32  C   UNL A   1      41.085  23.402  27.538  1.00  0.00     0.010 A 
ATOM     33  C   UNL A   1      39.468  24.815  26.414  1.00  0.00     0.010 A 
ATOM     34  C   UNL A   1      40.636  24.679  27.185  1.00  0.00    -0.014 A 
BRANCH  34  35
ATOM     35  C   UNL A   1      41.384  25.873  27.643  1.00  0.00     0.031 A 
ATOM     36  C   UNL A   1      40.688  26.918  28.463  1.00  0.00     0.074 A 
ATOM     37  C   UNL A   1      42.686  26.005  27.326  1.00  0.00     0.049 A 
ATOM     38  N   UNL A   1      41.117  28.091  28.849  1.00  0.00    -0.248 NA
ATOM     39  C   UNL A   1      39.321  26.598  28.903  1.00  0.00     0.031 C 
ATOM     40  C   UNL A   1      43.477  25.018  26.588  1.00  0.00     0.029 A 
ATOM     41  N   UNL A   1      43.570  27.024  27.574  1.00  0.00    -0.354 N 
ATOM     42  C   UNL A   1      40.069  28.663  29.560  1.00  0.00     0.074 A 
ATOM     43  C   UNL A   1      38.977  27.711  29.536  1.00  0.00     0.031 C 
ATOM     44  C   UNL A   1      44.727  25.485  26.437  1.00  0.00     0.029 A 
ATOM     45  C   UNL A   1      44.808  26.825  27.009  1.00  0.00     0.049 A 
ATOM     46  H   UNL A   1      43.341  27.819  28.107  1.00  0.00     0.167 HD
ATOM     47  C   UNL A   1      40.028  29.873  30.170  1.00  0.00     0.034 A 
ATOM     48  C   UNL A   1      45.870  27.651  26.919  1.00  0.00     0.034 A 
ATOM     49  C   UNL A   1      41.132  30.804  30.176  1.00  0.00     0.049 A 
ATOM     50  C   UNL A   1      45.768  29.027  27.526  1.00  0.00     0.074 A 
ATOM     51  C   UNL A   1      41.207  32.050  30.773  1.00  0.00     0.029 A 
ATOM     52  N   UNL A   1      42.353  30.594  29.548  1.00  0.00    -0.354 N 
ATOM     53  N   UNL A   1      44.762  29.571  28.174  1.00  0.00    -0.248 NA
ATOM     54  C   UNL A   1      46.938  29.901  27.384  1.00  0.00     0.031 C 
ATOM     55  C   UNL A   1      42.444  32.619  30.448  1.00  0.00     0.029 A 
ATOM     56  C   UNL A   1      43.173  31.700  29.709  1.00  0.00     0.049 A 
ATOM     57  H   UNL A   1      42.602  29.776  29.057  1.00  0.00     0.167 HD
ATOM     58  C   UNL A   1      45.186  30.849  28.527  1.00  0.00     0.074 A 
ATOM     59  C   UNL A   1      46.545  30.983  28.041  1.00  0.00     0.031 C 
ATOM     60  C   UNL A   1      44.516  31.824  29.193  1.00  0.00     0.034 A 
BRANCH  47  61
ATOM     61  C   UNL A   1      38.727  30.279  30.816  1.00  0.00     0.023 A 
ATOM     62  C   UNL A   1      37.826  31.159  30.191  1.00  0.00     0.031 A 
ATOM     63  C   UNL A   1      38.398  29.798  32.096  1.00  0.00     0.131 A 
ATOM     64  C   UNL A   1      36.672  31.580  30.872  1.00  0.00     0.055 A 
ATOM     65  C   UNL A   1      37.214  30.166  32.740  1.00  0.00     0.041 A 
ATOM     66  F   UNL A   1      39.230  28.974  32.751  1.00  0.00    -0.206 F 
ATOM     67  C   UNL A   1      36.349  31.072  32.134  1.00  0.00     0.022 A 
BRANCH  64  68
ATOM     68  S   UNL A   1      35.664  32.901  30.144  1.00  0.00     0.124 S 
ATOM     69  O   UNL A   1      36.124  32.894  28.757  1.00  0.00    -0.237 OA
ATOM     70  O   UNL A   1      34.306  32.422  30.369  1.00  0.00    -0.237 OA
ATOM     71  O   UNL A   1      36.043  34.085  30.912  1.00  0.00    -0.744 OA
ENDBRANCH  64  68
ENDBRANCH  47  61
BRANCH  48  72
ATOM     72  C   UNL A   1      47.087  27.235  26.166  1.00  0.00     0.023 A 
ATOM     73  C   UNL A   1      47.282  27.614  24.828  1.00  0.00     0.031 A 
ATOM     74  C   UNL A   1      48.057  26.412  26.767  1.00  0.00     0.131 A 
ATOM     75  C   UNL A   1      48.401  27.141  24.124  1.00  0.00     0.055 A 
ATOM     76  C   UNL A   1      49.195  25.988  26.079  1.00  0.00     0.041 A 
ATOM     77  F   UNL A   1      47.917  26.017  28.043  1.00  0.00    -0.206 F 
ATOM     78  C   UNL A   1      49.365  26.342  24.745  1.00  0.00     0.022 A 
BRANCH  75  79
ATOM     79  S   UNL A   1      48.540  27.519  22.357  1.00  0.00     0.124 S 
ATOM     80  O   UNL A   1      47.317  28.277  22.117  1.00  0.00    -0.237 OA
ATOM     81  O   UNL A   1      49.786  28.278  22.306  1.00  0.00    -0.237 OA
ATOM     82  O   UNL A   1      48.591  26.201  21.729  1.00  0.00    -0.744 OA
ENDBRANCH  75  79
ENDBRANCH  48  72
BRANCH  60  83
ATOM     83  C   UNL A   1      45.266  33.107  29.447  1.00  0.00     0.023 A 
ATOM     84  C   UNL A   1      45.272  34.155  28.510  1.00  0.00     0.031 A 
ATOM     85  C   UNL A   1      46.006  33.272  30.632  1.00  0.00     0.131 A 
ATOM     86  C   UNL A   1      46.047  35.300  28.748  1.00  0.00     0.055 A 
ATOM     87  C   UNL A   1      46.730  34.437  30.889  1.00  0.00     0.041 A 
ATOM     88  F   UNL A   1      46.038  32.301  31.559  1.00  0.00    -0.206 F 
ATOM     89  C   UNL A   1      46.763  35.453  29.938  1.00  0.00     0.022 A 
BRANCH  86  90
ATOM     90  S   UNL A   1      46.179  36.551  27.442  1.00  0.00     0.124 S 
ATOM     91  O   UNL A   1      47.609  36.845  27.447  1.00  0.00    -0.237 OA
ATOM     92  O   UNL A   1      45.682  35.835  26.271  1.00  0.00    -0.237 OA
ATOM     93  O   UNL A   1      45.320  37.634  27.915  1.00  0.00    -0.744 OA
ENDBRANCH  86  90
ENDBRANCH  60  83
ENDBRANCH  34  35
ENDBRANCH  27  29
ENDBRANCH  26  27
ENDBRANCH  25  26
ENDBRANCH   1  25
TORSDOF 19
ENDMDL
MODEL 3
REMARK VINA RESULT:     -11.1      4.905      9.961
REMARK SMILES CC(C)[C@H]([NH2+]C[C@H]1CC[C@@H](C(=O)OCCOC(=O)c2ccc(-c3c4nc(c(-c5cc(S(=O)(=O)[O-])ccc5F)c5ccc([nH]5)c(-c5cc(S(=O)(=O)[O-])ccc5F)c5nc(c(-c6cc(S(=O)(=O)[O-])ccc6F)c6ccc3[nH]6)C=C5)C=C4)cc2)CC1)c1ccccc1
REMARK SMILES IDX 14 1 13 2 11 3 12 4 10 5 7 6 8 7 83 8 9 9 82 10 6 11 5 12
REMARK SMILES IDX 4 15 2 16 1 17 3 18 84 19 85 20 89 21 86 22 88 23 87 24
REMARK SMILES IDX 15 25 16 26 17 27 18 28 19 29 20 30 81 31 21 32 80 33 22 34
REMARK SMILES IDX 23 35 24 36 74 37 25 38 79 39 73 40 75 41 26 42 78 43 72 44
REMARK SMILES IDX 71 45 27 47 59 48 39 49 58 50 40 51 43 52 57 53 76 54 41 55
REMARK SMILES IDX 42 56 56 58 77 59 44 60 28 61 29 62 37 63 30 64 36 65 38 66
REMARK SMILES IDX 35 67 31 68 32 69 33 70 34 71 60 72 61 73 69 74 62 75 68 76
REMARK SMILES IDX 70 77 67 78 63 79 64 80 65 81 66 82 45 83 46 84 54 85 47 86
REMARK SMILES IDX 53 87 55 88 52 89 48 90 49 91 50 92 51 93
REMARK H PARENT 5 13 5 14 75 46 43 57
REMARK Flexibility Score: inf
ROOT
ATOM      1  C   UNL A   1      31.787  28.757  26.985  1.00  0.00     0.274 C 
ENDROOT
BRANCH   1   2
ATOM      2  O   UNL A   1      31.489  27.721  26.033  1.00  0.00    -0.462 OA
BRANCH   2   3
ATOM      3  C   UNL A   1      32.521  27.151  25.367  1.00  0.00     0.309 C 
ATOM      4  O   UNL A   1      33.547  26.739  25.895  1.00  0.00    -0.252 OA
BRANCH   3   5
ATOM      5  C   UNL A   1      32.306  27.131  23.853  1.00  0.00     0.099 C 
ATOM      6  C   UNL A   1      31.693  24.314  23.084  1.00  0.00     0.044 C 
ATOM      7  C   UNL A   1      30.670  25.222  23.791  1.00  0.00     0.010 C 
ATOM      8  C   UNL A   1      33.146  24.801  23.192  1.00  0.00     0.010 C 
ATOM      9  C   UNL A   1      30.884  26.702  23.516  1.00  0.00     0.016 C 
ATOM     10  C   UNL A   1      33.318  26.308  23.051  1.00  0.00     0.016 C 
BRANCH   6  11
ATOM     11  C   UNL A   1      31.549  22.897  23.670  1.00  0.00     0.264 C 
BRANCH  11  12
ATOM     12  N   UNL A   1      32.683  22.030  23.326  1.00  0.00    -0.340 N 
ATOM     13  H   UNL A   1      32.346  21.253  22.757  1.00  0.00     0.346 HD
ATOM     14  H   UNL A   1      33.368  22.583  22.813  1.00  0.00     0.346 HD
BRANCH  12  15
ATOM     15  C   UNL A   1      33.331  21.492  24.538  1.00  0.00     0.216 C 
BRANCH  15  16
ATOM     16  C   UNL A   1      33.361  19.917  24.612  1.00  0.00     0.046 C 
ATOM     17  C   UNL A   1      32.511  19.242  23.520  1.00  0.00     0.014 C 
ATOM     18  C   UNL A   1      34.727  19.230  24.634  1.00  0.00     0.014 C 
ENDBRANCH  15  16
BRANCH  15  19
ATOM     19  C   UNL A   1      34.661  22.215  24.772  1.00  0.00     0.009 A 
ATOM     20  C   UNL A   1      34.866  22.958  25.948  1.00  0.00     0.010 A 
ATOM     21  C   UNL A   1      35.655  22.279  23.780  1.00  0.00     0.010 A 
ATOM     22  C   UNL A   1      36.034  23.707  26.134  1.00  0.00     0.001 A 
ATOM     23  C   UNL A   1      36.839  22.992  23.982  1.00  0.00     0.001 A 
ATOM     24  C   UNL A   1      37.029  23.708  25.159  1.00  0.00     0.000 A 
ENDBRANCH  15  19
ENDBRANCH  12  15
ENDBRANCH  11  12
ENDBRANCH   6  11
ENDBRANCH   3   5
ENDBRANCH   2   3
ENDBRANCH   1   2
BRANCH   1  25
ATOM     25  C   UNL A   1      31.967  30.092  26.266  1.00  0.00     0.275 C 
BRANCH  25  26
ATOM     26  O   UNL A   1      33.346  30.498  26.315  1.00  0.00    -0.458 OA
BRANCH  26  27
ATOM     27  C   UNL A   1      33.631  31.489  27.194  1.00  0.00     0.338 C 
ATOM     28  O   UNL A   1      32.937  32.442  27.494  1.00  0.00    -0.246 OA
BRANCH  27  29
ATOM     29  C   UNL A   1      34.900  31.163  27.859  1.00  0.00     0.060 A 
ATOM     30  C   UNL A   1      35.059  29.879  28.384  1.00  0.00     0.016 A 
ATOM     31  C   UNL A   1      35.906  32.116  28.000  1.00  0.00     0.016 A 
ATOM     32  C   UNL A   1      36.234  29.528  29.036  1.00  0.00     0.010 A 
ATOM     33  C   UNL A   1      37.093  31.761  28.650  1.00  0.00     0.010 A 
ATOM     34  C   UNL A   1      37.265  30.464  29.168  1.00  0.00    -0.014 A 
BRANCH  34  35
ATOM     35  C   UNL A   1      38.515  30.087  29.867  1.00  0.00     0.031 A 
ATOM     36  C   UNL A   1      39.445  29.090  29.242  1.00  0.00     0.074 A 
ATOM     37  C   UNL A   1      38.810  30.650  31.054  1.00  0.00     0.049 A 
ATOM     38  N   UNL A   1      40.514  28.528  29.742  1.00  0.00    -0.248 NA
ATOM     39  C   UNL A   1      39.123  28.668  27.870  1.00  0.00     0.031 C 
ATOM     40  C   UNL A   1      38.008  31.678  31.720  1.00  0.00     0.029 A 
ATOM     41  N   UNL A   1      39.856  30.433  31.914  1.00  0.00    -0.354 N 
ATOM     42  C   UNL A   1      40.985  27.667  28.757  1.00  0.00     0.074 A 
ATOM     43  C   UNL A   1      40.071  27.771  27.638  1.00  0.00     0.031 C 
ATOM     44  C   UNL A   1      38.588  31.994  32.889  1.00  0.00     0.029 A 
ATOM     45  C   UNL A   1      39.763  31.150  33.083  1.00  0.00     0.049 A 
ATOM     46  H   UNL A   1      40.602  29.822  31.713  1.00  0.00     0.167 HD
ATOM     47  C   UNL A   1      42.076  26.863  28.794  1.00  0.00     0.034 A 
ATOM     48  C   UNL A   1      40.510  31.096  34.203  1.00  0.00     0.034 A 
ATOM     49  C   UNL A   1      42.968  26.777  29.926  1.00  0.00     0.049 A 
ATOM     50  C   UNL A   1      41.665  30.129  34.254  1.00  0.00     0.074 A 
ATOM     51  C   UNL A   1      44.111  26.009  30.068  1.00  0.00     0.029 A 
ATOM     52  N   UNL A   1      42.814  27.478  31.115  1.00  0.00    -0.354 N 
ATOM     53  N   UNL A   1      42.087  29.297  33.328  1.00  0.00    -0.248 NA
ATOM     54  C   UNL A   1      42.437  30.086  35.502  1.00  0.00     0.031 C 
ATOM     55  C   UNL A   1      44.606  26.193  31.364  1.00  0.00     0.029 A 
ATOM     56  C   UNL A   1      43.816  27.132  32.009  1.00  0.00     0.049 A 
ATOM     57  H   UNL A   1      42.096  28.127  31.298  1.00  0.00     0.167 HD
ATOM     58  C   UNL A   1      43.184  28.642  33.879  1.00  0.00     0.074 A 
ATOM     59  C   UNL A   1      43.370  29.192  35.207  1.00  0.00     0.031 C 
ATOM     60  C   UNL A   1      43.968  27.673  33.340  1.00  0.00     0.034 A 
BRANCH  47  61
ATOM     61  C   UNL A   1      42.317  25.969  27.603  1.00  0.00     0.023 A 
ATOM     62  C   UNL A   1      41.782  24.672  27.524  1.00  0.00     0.031 A 
ATOM     63  C   UNL A   1      43.126  26.415  26.542  1.00  0.00     0.131 A 
ATOM     64  C   UNL A   1      42.112  23.844  26.438  1.00  0.00     0.055 A 
ATOM     65  C   UNL A   1      43.394  25.612  25.432  1.00  0.00     0.041 A 
ATOM     66  F   UNL A   1      43.684  27.635  26.574  1.00  0.00    -0.206 F 
ATOM     67  C   UNL A   1      42.896  24.313  25.381  1.00  0.00     0.022 A 
BRANCH  64  68
ATOM     68  S   UNL A   1      41.610  22.101  26.488  1.00  0.00     0.124 S 
ATOM     69  O   UNL A   1      41.905  21.748  27.875  1.00  0.00    -0.237 OA
ATOM     70  O   UNL A   1      40.198  22.169  26.132  1.00  0.00    -0.237 OA
ATOM     71  O   UNL A   1      42.474  21.466  25.495  1.00  0.00    -0.744 OA
ENDBRANCH  64  68
ENDBRANCH  47  61
BRANCH  48  72
ATOM     72  C   UNL A   1      40.151  31.922  35.391  1.00  0.00     0.023 A 
ATOM     73  C   UNL A   1      39.187  31.490  36.315  1.00  0.00     0.031 A 
ATOM     74  C   UNL A   1      40.741  33.183  35.594  1.00  0.00     0.131 A 
ATOM     75  C   UNL A   1      38.815  32.326  37.380  1.00  0.00     0.055 A 
ATOM     76  C   UNL A   1      40.407  33.988  36.684  1.00  0.00     0.041 A 
ATOM     77  F   UNL A   1      41.665  33.647  34.738  1.00  0.00    -0.206 F 
ATOM     78  C   UNL A   1      39.429  33.566  37.578  1.00  0.00     0.022 A 
BRANCH  75  79
ATOM     79  S   UNL A   1      37.457  31.805  38.462  1.00  0.00     0.124 S 
ATOM     80  O   UNL A   1      36.430  32.793  38.148  1.00  0.00    -0.237 OA
ATOM     81  O   UNL A   1      37.203  30.445  37.998  1.00  0.00    -0.237 OA
ATOM     82  O   UNL A   1      38.031  31.906  39.802  1.00  0.00    -0.744 OA
ENDBRANCH  75  79
ENDBRANCH  48  72
BRANCH  60  83
ATOM     83  C   UNL A   1      45.109  27.176  34.190  1.00  0.00     0.023 A 
ATOM     84  C   UNL A   1      44.976  26.042  35.010  1.00  0.00     0.031 A 
ATOM     85  C   UNL A   1      46.337  27.861  34.199  1.00  0.00     0.131 A 
ATOM     86  C   UNL A   1      46.035  25.658  35.847  1.00  0.00     0.055 A 
ATOM     87  C   UNL A   1      47.406  27.441  34.990  1.00  0.00     0.041 A 
ATOM     88  F   UNL A   1      46.517  28.952  33.437  1.00  0.00    -0.206 F 
ATOM     89  C   UNL A   1      47.254  26.341  35.830  1.00  0.00     0.022 A 
BRANCH  86  90
ATOM     90  S   UNL A   1      45.769  24.304  37.024  1.00  0.00     0.124 S 
ATOM     91  O   UNL A   1      45.065  24.980  38.109  1.00  0.00    -0.237 OA
ATOM     92  O   UNL A   1      44.978  23.360  36.242  1.00  0.00    -0.237 OA
ATOM     93  O   UNL A   1      47.123  23.859  37.347  1.00  0.00    -0.744 OA
ENDBRANCH  86  90
ENDBRANCH  60  83
ENDBRANCH  34  35
ENDBRANCH  27  29
ENDBRANCH  26  27
ENDBRANCH  25  26
ENDBRANCH   1  25
TORSDOF 19
ENDMDL
