MODEL 1
REMARK VINA RESULT:     -12.0      0.000      0.000
REMARK SMILES Cn1ncc(C(=O)OCCOC(=O)c2ccc(-c3c4nc(c(-c5cc(S(=O)(=O)[O-])ccc5F)c5ccc([nH]5)c(-c5cc(S(=O)(=O)[O-])ccc5F)c5nc(c(-c6cc(S(=O)(=O)[O-])ccc6F)c6ccc3[nH]6)C=C5)C=C4)cc2)c1C(=O)N1CCN(S(C)(=O)=O)CC1
REMARK SMILES IDX 10 1 9 2 8 3 6 4 7 5 5 6 1 7 2 8 3 9 77 10 4 11 78 12 79 13
REMARK SMILES IDX 80 14 81 15 89 16 82 17 88 18 83 19 84 20 85 21 86 22 87 23
REMARK SMILES IDX 11 24 12 25 13 26 14 27 15 28 76 29 16 30 75 31 17 32 18 33
REMARK SMILES IDX 19 34 69 35 20 36 74 37 68 38 70 39 21 40 73 41 67 42 66 43
REMARK SMILES IDX 22 45 54 46 34 47 53 48 35 49 38 50 52 51 71 52 36 53 37 54
REMARK SMILES IDX 51 56 72 57 39 58 23 59 24 60 32 61 25 62 31 63 33 64 30 65
REMARK SMILES IDX 26 66 27 67 28 68 29 69 55 70 56 71 64 72 57 73 63 74 65 75
REMARK SMILES IDX 62 76 58 77 59 78 60 79 61 80 40 81 41 82 49 83 42 84 48 85
REMARK SMILES IDX 50 86 47 87 43 88 44 89 45 90 46 91
REMARK H PARENT 70 44 38 55
REMARK Flexibility Score: inf
ROOT
ATOM      1  C   UNL A   1      31.781  29.918  26.703  1.00  0.00     0.275 C 
ENDROOT
BRANCH   1   2
ATOM      2  C   UNL A   1      31.756  28.539  27.355  1.00  0.00     0.275 C 
BRANCH   2   3
ATOM      3  O   UNL A   1      32.353  27.550  26.492  1.00  0.00    -0.458 OA
BRANCH   3   4
ATOM      4  C   UNL A   1      31.490  26.674  25.903  1.00  0.00     0.342 C 
ATOM      5  O   UNL A   1      30.609  26.065  26.499  1.00  0.00    -0.246 OA
BRANCH   4   6
ATOM      6  C   UNL A   1      31.605  26.616  24.455  1.00  0.00     0.111 A 
ATOM      7  C   UNL A   1      32.535  25.648  21.094  1.00  0.00     0.174 C 
ATOM      8  N   UNL A   1      32.091  26.183  22.358  1.00  0.00    -0.262 N 
ATOM      9  N   UNL A   1      31.049  27.026  22.289  1.00  0.00    -0.180 NA
ATOM     10  C   UNL A   1      32.484  25.881  23.651  1.00  0.00     0.140 A 
ATOM     11  C   UNL A   1      30.711  27.223  23.554  1.00  0.00     0.151 A 
BRANCH  10  12
ATOM     12  C   UNL A   1      33.424  24.882  24.121  1.00  0.00     0.273 C 
ATOM     13  O   UNL A   1      34.526  25.176  24.587  1.00  0.00    -0.267 OA
ATOM     14  N   UNL A   1      32.982  23.573  24.243  1.00  0.00    -0.335 N 
ATOM     15  C   UNL A   1      33.358  22.893  25.478  1.00  0.00     0.136 C 
ATOM     16  C   UNL A   1      32.865  22.697  23.076  1.00  0.00     0.136 C 
ATOM     17  C   UNL A   1      32.385  21.765  25.797  1.00  0.00     0.123 C 
ATOM     18  C   UNL A   1      31.948  21.487  23.348  1.00  0.00     0.123 C 
ATOM     19  N   UNL A   1      32.253  20.831  24.650  1.00  0.00    -0.199 NA
BRANCH  19  20
ATOM     20  S   UNL A   1      33.029  19.347  24.686  1.00  0.00     0.211 S 
ATOM     21  C   UNL A   1      32.540  18.600  23.146  1.00  0.00     0.176 C 
ATOM     22  O   UNL A   1      34.455  19.578  24.629  1.00  0.00    -0.213 OA
ATOM     23  O   UNL A   1      32.439  18.565  25.753  1.00  0.00    -0.213 OA
ENDBRANCH  19  20
ENDBRANCH  10  12
ENDBRANCH   4   6
ENDBRANCH   3   4
ENDBRANCH   2   3
ENDBRANCH   1   2
BRANCH   1  24
ATOM     24  O   UNL A   1      33.141  30.331  26.479  1.00  0.00    -0.458 OA
BRANCH  24  25
ATOM     25  C   UNL A   1      33.574  31.352  27.256  1.00  0.00     0.338 C 
ATOM     26  O   UNL A   1      32.961  32.357  27.571  1.00  0.00    -0.246 OA
BRANCH  25  27
ATOM     27  C   UNL A   1      34.911  31.028  27.772  1.00  0.00     0.060 A 
ATOM     28  C   UNL A   1      35.155  29.717  28.167  1.00  0.00     0.016 A 
ATOM     29  C   UNL A   1      35.867  32.013  27.993  1.00  0.00     0.016 A 
ATOM     30  C   UNL A   1      36.320  29.385  28.849  1.00  0.00     0.010 A 
ATOM     31  C   UNL A   1      37.079  31.664  28.606  1.00  0.00     0.010 A 
ATOM     32  C   UNL A   1      37.307  30.352  29.070  1.00  0.00    -0.014 A 
BRANCH  32  33
ATOM     33  C   UNL A   1      38.537  30.004  29.838  1.00  0.00     0.031 A 
ATOM     34  C   UNL A   1      39.539  29.043  29.250  1.00  0.00     0.074 A 
ATOM     35  C   UNL A   1      38.782  30.562  31.041  1.00  0.00     0.049 A 
ATOM     36  N   UNL A   1      40.565  28.461  29.817  1.00  0.00    -0.248 NA
ATOM     37  C   UNL A   1      39.347  28.679  27.839  1.00  0.00     0.031 C 
ATOM     38  C   UNL A   1      37.939  31.565  31.698  1.00  0.00     0.029 A 
ATOM     39  N   UNL A   1      39.813  30.372  31.929  1.00  0.00    -0.354 N 
ATOM     40  C   UNL A   1      41.108  27.621  28.850  1.00  0.00     0.074 A 
ATOM     41  C   UNL A   1      40.286  27.761  27.665  1.00  0.00     0.031 C 
ATOM     42  C   UNL A   1      38.501  31.920  32.863  1.00  0.00     0.029 A 
ATOM     43  C   UNL A   1      39.688  31.104  33.088  1.00  0.00     0.049 A 
ATOM     44  H   UNL A   1      40.571  29.769  31.753  1.00  0.00     0.167 HD
ATOM     45  C   UNL A   1      42.192  26.808  28.943  1.00  0.00     0.034 A 
ATOM     46  C   UNL A   1      40.411  31.085  34.226  1.00  0.00     0.034 A 
ATOM     47  C   UNL A   1      43.025  26.716  30.119  1.00  0.00     0.049 A 
ATOM     48  C   UNL A   1      41.568  30.126  34.334  1.00  0.00     0.074 A 
ATOM     49  C   UNL A   1      44.149  25.934  30.320  1.00  0.00     0.029 A 
ATOM     50  N   UNL A   1      42.831  27.436  31.292  1.00  0.00    -0.354 N 
ATOM     51  N   UNL A   1      42.028  29.280  33.440  1.00  0.00    -0.248 NA
ATOM     52  C   UNL A   1      42.296  30.107  35.610  1.00  0.00     0.031 C 
ATOM     53  C   UNL A   1      44.597  26.133  31.630  1.00  0.00     0.029 A 
ATOM     54  C   UNL A   1      43.798  27.095  32.227  1.00  0.00     0.049 A 
ATOM     55  H   UNL A   1      42.113  28.093  31.438  1.00  0.00     0.167 HD
ATOM     56  C   UNL A   1      43.107  28.641  34.042  1.00  0.00     0.074 A 
ATOM     57  C   UNL A   1      43.245  29.215  35.365  1.00  0.00     0.031 C 
ATOM     58  C   UNL A   1      43.911  27.666  33.549  1.00  0.00     0.034 A 
BRANCH  45  59
ATOM     59  C   UNL A   1      42.492  25.909  27.767  1.00  0.00     0.023 A 
ATOM     60  C   UNL A   1      41.916  24.635  27.628  1.00  0.00     0.031 A 
ATOM     61  C   UNL A   1      43.402  26.330  26.779  1.00  0.00     0.131 A 
ATOM     62  C   UNL A   1      42.309  23.801  26.569  1.00  0.00     0.055 A 
ATOM     63  C   UNL A   1      43.728  25.528  25.684  1.00  0.00     0.041 A 
ATOM     64  F   UNL A   1      44.002  27.529  26.868  1.00  0.00    -0.206 F 
ATOM     65  C   UNL A   1      43.192  24.249  25.583  1.00  0.00     0.022 A 
BRANCH  62  66
ATOM     66  S   UNL A   1      41.760  22.072  26.573  1.00  0.00     0.124 S 
ATOM     67  O   UNL A   1      42.417  21.550  25.377  1.00  0.00    -0.237 OA
ATOM     68  O   UNL A   1      42.272  21.582  27.848  1.00  0.00    -0.237 OA
ATOM     69  O   UNL A   1      40.305  22.172  26.482  1.00  0.00    -0.744 OA
ENDBRANCH  62  66
ENDBRANCH  45  59
BRANCH  46  70
ATOM     70  C   UNL A   1      40.018  31.936  35.388  1.00  0.00     0.023 A 
ATOM     71  C   UNL A   1      39.114  31.473  36.357  1.00  0.00     0.031 A 
ATOM     72  C   UNL A   1      40.506  33.250  35.519  1.00  0.00     0.131 A 
ATOM     73  C   UNL A   1      38.697  32.329  37.390  1.00  0.00     0.055 A 
ATOM     74  C   UNL A   1      40.135  34.075  36.582  1.00  0.00     0.041 A 
ATOM     75  F   UNL A   1      41.367  33.748  34.617  1.00  0.00    -0.206 F 
ATOM     76  C   UNL A   1      39.214  33.619  37.518  1.00  0.00     0.022 A 
BRANCH  73  77
ATOM     77  S   UNL A   1      37.393  31.761  38.518  1.00  0.00     0.124 S 
ATOM     78  O   UNL A   1      37.135  30.415  38.021  1.00  0.00    -0.237 OA
ATOM     79  O   UNL A   1      38.056  31.851  39.816  1.00  0.00    -0.237 OA
ATOM     80  O   UNL A   1      36.315  32.724  38.304  1.00  0.00    -0.744 OA
ENDBRANCH  73  77
ENDBRANCH  46  70
BRANCH  58  81
ATOM     81  C   UNL A   1      45.034  27.193  34.439  1.00  0.00     0.023 A 
ATOM     82  C   UNL A   1      44.897  26.062  35.263  1.00  0.00     0.031 A 
ATOM     83  C   UNL A   1      46.249  27.899  34.480  1.00  0.00     0.131 A 
ATOM     84  C   UNL A   1      45.936  25.702  36.134  1.00  0.00     0.055 A 
ATOM     85  C   UNL A   1      47.301  27.503  35.307  1.00  0.00     0.041 A 
ATOM     86  F   UNL A   1      46.432  28.988  33.717  1.00  0.00    -0.206 F 
ATOM     87  C   UNL A   1      47.143  26.406  36.149  1.00  0.00     0.022 A 
BRANCH  84  88
ATOM     88  S   UNL A   1      45.658  24.352  37.313  1.00  0.00     0.124 S 
ATOM     89  O   UNL A   1      44.912  25.024  38.372  1.00  0.00    -0.237 OA
ATOM     90  O   UNL A   1      44.904  23.389  36.516  1.00  0.00    -0.237 OA
ATOM     91  O   UNL A   1      47.009  23.930  37.677  1.00  0.00    -0.744 OA
ENDBRANCH  84  88
ENDBRANCH  58  81
ENDBRANCH  32  33
ENDBRANCH  25  27
ENDBRANCH  24  25
ENDBRANCH   1  24
TORSDOF 16
ENDMDL
MODEL 2
REMARK VINA RESULT:     -11.9      5.245     10.068
REMARK SMILES Cn1ncc(C(=O)OCCOC(=O)c2ccc(-c3c4nc(c(-c5cc(S(=O)(=O)[O-])ccc5F)c5ccc([nH]5)c(-c5cc(S(=O)(=O)[O-])ccc5F)c5nc(c(-c6cc(S(=O)(=O)[O-])ccc6F)c6ccc3[nH]6)C=C5)C=C4)cc2)c1C(=O)N1CCN(S(C)(=O)=O)CC1
REMARK SMILES IDX 10 1 9 2 8 3 6 4 7 5 5 6 1 7 2 8 3 9 77 10 4 11 78 12 79 13
REMARK SMILES IDX 80 14 81 15 89 16 82 17 88 18 83 19 84 20 85 21 86 22 87 23
REMARK SMILES IDX 11 24 12 25 13 26 14 27 15 28 76 29 16 30 75 31 17 32 18 33
REMARK SMILES IDX 19 34 69 35 20 36 74 37 68 38 70 39 21 40 73 41 67 42 66 43
REMARK SMILES IDX 22 45 54 46 34 47 53 48 35 49 38 50 52 51 71 52 36 53 37 54
REMARK SMILES IDX 51 56 72 57 39 58 23 59 24 60 32 61 25 62 31 63 33 64 30 65
REMARK SMILES IDX 26 66 27 67 28 68 29 69 55 70 56 71 64 72 57 73 63 74 65 75
REMARK SMILES IDX 62 76 58 77 59 78 60 79 61 80 40 81 41 82 49 83 42 84 48 85
REMARK SMILES IDX 50 86 47 87 43 88 44 89 45 90 46 91
REMARK H PARENT 70 44 38 55
REMARK Flexibility Score: inf
ROOT
ATOM      1  C   UNL A   1      36.752  21.794  24.215  1.00  0.00     0.275 C 
ENDROOT
BRANCH   1   2
ATOM      2  C   UNL A   1      35.995  23.095  23.962  1.00  0.00     0.275 C 
BRANCH   2   3
ATOM      3  O   UNL A   1      35.169  22.990  22.786  1.00  0.00    -0.458 OA
BRANCH   3   4
ATOM      4  C   UNL A   1      33.969  23.636  22.840  1.00  0.00     0.342 C 
ATOM      5  O   UNL A   1      33.570  24.425  21.991  1.00  0.00    -0.246 OA
BRANCH   4   6
ATOM      6  C   UNL A   1      33.118  23.209  23.937  1.00  0.00     0.111 A 
ATOM      7  C   UNL A   1      30.873  23.203  26.776  1.00  0.00     0.174 C 
ATOM      8  N   UNL A   1      31.791  23.028  25.677  1.00  0.00    -0.262 N 
ATOM      9  N   UNL A   1      31.857  21.782  25.181  1.00  0.00    -0.180 NA
ATOM     10  C   UNL A   1      32.530  23.956  24.965  1.00  0.00     0.140 A 
ATOM     11  C   UNL A   1      32.596  21.911  24.089  1.00  0.00     0.151 A 
BRANCH  10  12
ATOM     12  C   UNL A   1      32.553  25.402  25.077  1.00  0.00     0.273 C 
ATOM     13  O   UNL A   1      33.418  26.004  25.714  1.00  0.00    -0.267 OA
ATOM     14  N   UNL A   1      31.696  26.134  24.269  1.00  0.00    -0.335 N 
ATOM     15  C   UNL A   1      32.288  27.292  23.609  1.00  0.00     0.136 C 
ATOM     16  C   UNL A   1      30.277  26.280  24.599  1.00  0.00     0.136 C 
ATOM     17  C   UNL A   1      31.517  27.652  22.344  1.00  0.00     0.123 C 
ATOM     18  C   UNL A   1      29.439  26.715  23.379  1.00  0.00     0.123 C 
ATOM     19  N   UNL A   1      30.073  27.838  22.634  1.00  0.00    -0.199 NA
BRANCH  19  20
ATOM     20  S   UNL A   1      29.431  29.383  22.729  1.00  0.00     0.211 S 
ATOM     21  C   UNL A   1      27.695  29.082  22.985  1.00  0.00     0.176 C 
ATOM     22  O   UNL A   1      29.947  30.017  23.921  1.00  0.00    -0.213 OA
ATOM     23  O   UNL A   1      29.576  30.004  21.429  1.00  0.00    -0.213 OA
ENDBRANCH  19  20
ENDBRANCH  10  12
ENDBRANCH   4   6
ENDBRANCH   3   4
ENDBRANCH   2   3
ENDBRANCH   1   2
BRANCH   1  24
ATOM     24  O   UNL A   1      37.106  21.694  25.606  1.00  0.00    -0.458 OA
BRANCH  24  25
ATOM     25  C   UNL A   1      38.391  21.350  25.856  1.00  0.00     0.338 C 
ATOM     26  O   UNL A   1      38.955  20.314  25.552  1.00  0.00    -0.246 OA
BRANCH  25  27
ATOM     27  C   UNL A   1      39.076  22.486  26.488  1.00  0.00     0.060 A 
ATOM     28  C   UNL A   1      38.623  23.766  26.191  1.00  0.00     0.016 A 
ATOM     29  C   UNL A   1      40.226  22.312  27.252  1.00  0.00     0.016 A 
ATOM     30  C   UNL A   1      39.345  24.886  26.588  1.00  0.00     0.010 A 
ATOM     31  C   UNL A   1      40.910  23.441  27.725  1.00  0.00     0.010 A 
ATOM     32  C   UNL A   1      40.495  24.742  27.372  1.00  0.00    -0.014 A 
BRANCH  32  33
ATOM     33  C   UNL A   1      41.292  25.941  27.761  1.00  0.00     0.031 A 
ATOM     34  C   UNL A   1      40.650  27.029  28.586  1.00  0.00     0.074 A 
ATOM     35  C   UNL A   1      42.589  26.053  27.411  1.00  0.00     0.049 A 
ATOM     36  N   UNL A   1      41.091  28.228  28.869  1.00  0.00    -0.248 NA
ATOM     37  C   UNL A   1      39.328  26.727  29.152  1.00  0.00     0.031 C 
ATOM     38  C   UNL A   1      43.360  25.045  26.680  1.00  0.00     0.029 A 
ATOM     39  N   UNL A   1      43.495  27.064  27.626  1.00  0.00    -0.354 N 
ATOM     40  C   UNL A   1      40.079  28.843  29.598  1.00  0.00     0.074 A 
ATOM     41  C   UNL A   1      38.996  27.887  29.701  1.00  0.00     0.031 C 
ATOM     42  C   UNL A   1      44.623  25.473  26.535  1.00  0.00     0.029 A 
ATOM     43  C   UNL A   1      44.733  26.825  27.071  1.00  0.00     0.049 A 
ATOM     44  H   UNL A   1      43.281  27.882  28.129  1.00  0.00     0.167 HD
ATOM     45  C   UNL A   1      40.057  30.091  30.132  1.00  0.00     0.034 A 
ATOM     46  C   UNL A   1      45.816  27.619  26.955  1.00  0.00     0.034 A 
ATOM     47  C   UNL A   1      41.165  31.015  30.058  1.00  0.00     0.049 A 
ATOM     48  C   UNL A   1      45.746  29.025  27.495  1.00  0.00     0.074 A 
ATOM     49  C   UNL A   1      41.254  32.298  30.569  1.00  0.00     0.029 A 
ATOM     50  N   UNL A   1      42.381  30.752  29.439  1.00  0.00    -0.354 N 
ATOM     51  N   UNL A   1      44.756  29.623  28.117  1.00  0.00    -0.248 NA
ATOM     52  C   UNL A   1      46.933  29.868  27.303  1.00  0.00     0.031 C 
ATOM     53  C   UNL A   1      42.495  32.832  30.208  1.00  0.00     0.029 A 
ATOM     54  C   UNL A   1      43.214  31.858  29.533  1.00  0.00     0.049 A 
ATOM     55  H   UNL A   1      42.618  29.905  28.998  1.00  0.00     0.167 HD
ATOM     56  C   UNL A   1      45.209  30.907  28.404  1.00  0.00     0.074 A 
ATOM     57  C   UNL A   1      46.568  30.988  27.908  1.00  0.00     0.031 C 
ATOM     58  C   UNL A   1      44.561  31.928  29.018  1.00  0.00     0.034 A 
BRANCH  45  59
ATOM     59  C   UNL A   1      38.772  30.548  30.783  1.00  0.00     0.023 A 
ATOM     60  C   UNL A   1      37.754  31.196  30.062  1.00  0.00     0.031 A 
ATOM     61  C   UNL A   1      38.579  30.356  32.163  1.00  0.00     0.131 A 
ATOM     62  C   UNL A   1      36.626  31.691  30.736  1.00  0.00     0.055 A 
ATOM     63  C   UNL A   1      37.419  30.779  32.814  1.00  0.00     0.041 A 
ATOM     64  F   UNL A   1      39.526  29.763  32.910  1.00  0.00    -0.206 F 
ATOM     65  C   UNL A   1      36.440  31.464  32.102  1.00  0.00     0.022 A 
BRANCH  62  66
ATOM     66  S   UNL A   1      35.470  32.758  29.832  1.00  0.00     0.124 S 
ATOM     67  O   UNL A   1      36.383  33.676  29.155  1.00  0.00    -0.237 OA
ATOM     68  O   UNL A   1      34.768  31.808  28.976  1.00  0.00    -0.237 OA
ATOM     69  O   UNL A   1      34.661  33.362  30.888  1.00  0.00    -0.744 OA
ENDBRANCH  62  66
ENDBRANCH  45  59
BRANCH  46  70
ATOM     70  C   UNL A   1      47.031  27.143  26.229  1.00  0.00     0.023 A 
ATOM     71  C   UNL A   1      48.052  26.448  26.895  1.00  0.00     0.031 A 
ATOM     72  C   UNL A   1      47.210  27.423  24.862  1.00  0.00     0.131 A 
ATOM     73  C   UNL A   1      49.221  26.090  26.204  1.00  0.00     0.055 A 
ATOM     74  C   UNL A   1      48.347  27.012  24.165  1.00  0.00     0.041 A 
ATOM     75  F   UNL A   1      46.270  28.093  24.176  1.00  0.00    -0.206 F 
ATOM     76  C   UNL A   1      49.367  26.352  24.840  1.00  0.00     0.022 A 
BRANCH  73  77
ATOM     77  S   UNL A   1      50.594  25.355  27.136  1.00  0.00     0.124 S 
ATOM     78  O   UNL A   1      49.926  24.265  27.838  1.00  0.00    -0.237 OA
ATOM     79  O   UNL A   1      51.510  24.966  26.069  1.00  0.00    -0.237 OA
ATOM     80  O   UNL A   1      51.057  26.453  27.982  1.00  0.00    -0.744 OA
ENDBRANCH  73  77
ENDBRANCH  46  70
BRANCH  58  81
ATOM     81  C   UNL A   1      45.339  33.206  29.219  1.00  0.00     0.023 A 
ATOM     82  C   UNL A   1      45.236  34.282  28.319  1.00  0.00     0.031 A 
ATOM     83  C   UNL A   1      46.211  33.338  30.313  1.00  0.00     0.131 A 
ATOM     84  C   UNL A   1      46.035  35.420  28.498  1.00  0.00     0.055 A 
ATOM     85  C   UNL A   1      46.962  34.496  30.518  1.00  0.00     0.041 A 
ATOM     86  F   UNL A   1      46.350  32.340  31.200  1.00  0.00    -0.206 F 
ATOM     87  C   UNL A   1      46.885  35.541  29.601  1.00  0.00     0.022 A 
BRANCH  84  88
ATOM     88  S   UNL A   1      46.016  36.709  27.223  1.00  0.00     0.124 S 
ATOM     89  O   UNL A   1      44.586  36.921  27.027  1.00  0.00    -0.237 OA
ATOM     90  O   UNL A   1      46.739  37.800  27.869  1.00  0.00    -0.237 OA
ATOM     91  O   UNL A   1      46.711  36.089  26.097  1.00  0.00    -0.744 OA
ENDBRANCH  84  88
ENDBRANCH  58  81
ENDBRANCH  32  33
ENDBRANCH  25  27
ENDBRANCH  24  25
ENDBRANCH   1  24
TORSDOF 16
ENDMDL
MODEL 3
REMARK VINA RESULT:     -11.8      4.985      9.886
REMARK SMILES Cn1ncc(C(=O)OCCOC(=O)c2ccc(-c3c4nc(c(-c5cc(S(=O)(=O)[O-])ccc5F)c5ccc([nH]5)c(-c5cc(S(=O)(=O)[O-])ccc5F)c5nc(c(-c6cc(S(=O)(=O)[O-])ccc6F)c6ccc3[nH]6)C=C5)C=C4)cc2)c1C(=O)N1CCN(S(C)(=O)=O)CC1
REMARK SMILES IDX 10 1 9 2 8 3 6 4 7 5 5 6 1 7 2 8 3 9 77 10 4 11 78 12 79 13
REMARK SMILES IDX 80 14 81 15 89 16 82 17 88 18 83 19 84 20 85 21 86 22 87 23
REMARK SMILES IDX 11 24 12 25 13 26 14 27 15 28 76 29 16 30 75 31 17 32 18 33
REMARK SMILES IDX 19 34 69 35 20 36 74 37 68 38 70 39 21 40 73 41 67 42 66 43
REMARK SMILES IDX 22 45 54 46 34 47 53 48 35 49 38 50 52 51 71 52 36 53 37 54
REMARK SMILES IDX 51 56 72 57 39 58 23 59 24 60 32 61 25 62 31 63 33 64 30 65
REMARK SMILES IDX 26 66 27 67 28 68 29 69 55 70 56 71 64 72 57 73 63 74 65 75
REMARK SMILES IDX 62 76 58 77 59 78 60 79 61 80 40 81 41 82 49 83 42 84 48 85
REMARK SMILES IDX 50 86 47 87 43 88 44 89 45 90 46 91
REMARK H PARENT 70 44 38 55
REMARK Flexibility Score: inf
ROOT
ATOM      1  C   UNL A   1      37.061  21.394  24.484  1.00  0.00     0.275 C 
ENDROOT
BRANCH   1   2
ATOM      2  C   UNL A   1      36.673  22.597  23.627  1.00  0.00     0.275 C 
BRANCH   2   3
ATOM      3  O   UNL A   1      35.572  23.316  24.218  1.00  0.00    -0.458 OA
BRANCH   3   4
ATOM      4  C   UNL A   1      34.369  23.188  23.588  1.00  0.00     0.342 C 
ATOM      5  O   UNL A   1      34.212  23.274  22.376  1.00  0.00    -0.246 OA
BRANCH   4   6
ATOM      6  C   UNL A   1      33.281  22.799  24.469  1.00  0.00     0.111 A 
ATOM      7  C   UNL A   1      30.449  22.893  26.722  1.00  0.00     0.174 C 
ATOM      8  N   UNL A   1      31.589  22.678  25.863  1.00  0.00    -0.262 N 
ATOM      9  N   UNL A   1      31.736  21.422  25.411  1.00  0.00    -0.180 NA
ATOM     10  C   UNL A   1      32.493  23.577  25.326  1.00  0.00     0.140 A 
ATOM     11  C   UNL A   1      32.706  21.515  24.515  1.00  0.00     0.151 A 
BRANCH  10  12
ATOM     12  C   UNL A   1      32.525  25.024  25.421  1.00  0.00     0.273 C 
ATOM     13  O   UNL A   1      33.350  25.625  26.111  1.00  0.00    -0.267 OA
ATOM     14  N   UNL A   1      31.737  25.755  24.544  1.00  0.00    -0.335 N 
ATOM     15  C   UNL A   1      32.389  26.897  23.913  1.00  0.00     0.136 C 
ATOM     16  C   UNL A   1      30.300  25.921  24.770  1.00  0.00     0.136 C 
ATOM     17  C   UNL A   1      31.715  27.249  22.592  1.00  0.00     0.123 C 
ATOM     18  C   UNL A   1      29.557  26.349  23.488  1.00  0.00     0.123 C 
ATOM     19  N   UNL A   1      30.256  27.455  22.776  1.00  0.00    -0.199 NA
BRANCH  19  20
ATOM     20  S   UNL A   1      29.627  29.008  22.805  1.00  0.00     0.211 S 
ATOM     21  C   UNL A   1      30.429  29.740  24.215  1.00  0.00     0.176 C 
ATOM     22  O   UNL A   1      30.088  29.706  21.626  1.00  0.00    -0.213 OA
ATOM     23  O   UNL A   1      28.215  28.909  23.112  1.00  0.00    -0.213 OA
ENDBRANCH  19  20
ENDBRANCH  10  12
ENDBRANCH   4   6
ENDBRANCH   3   4
ENDBRANCH   2   3
ENDBRANCH   1   2
BRANCH   1  24
ATOM     24  O   UNL A   1      37.483  21.836  25.787  1.00  0.00    -0.458 OA
BRANCH  24  25
ATOM     25  C   UNL A   1      38.785  21.613  26.083  1.00  0.00     0.338 C 
ATOM     26  O   UNL A   1      39.450  20.629  25.810  1.00  0.00    -0.246 OA
BRANCH  25  27
ATOM     27  C   UNL A   1      39.343  22.811  26.724  1.00  0.00     0.060 A 
ATOM     28  C   UNL A   1      38.869  24.050  26.310  1.00  0.00     0.016 A 
ATOM     29  C   UNL A   1      40.407  22.733  27.617  1.00  0.00     0.016 A 
ATOM     30  C   UNL A   1      39.491  25.224  26.722  1.00  0.00     0.010 A 
ATOM     31  C   UNL A   1      40.982  23.918  28.100  1.00  0.00     0.010 A 
ATOM     32  C   UNL A   1      40.551  25.177  27.634  1.00  0.00    -0.014 A 
BRANCH  32  33
ATOM     33  C   UNL A   1      41.244  26.433  28.042  1.00  0.00     0.031 A 
ATOM     34  C   UNL A   1      40.490  27.484  28.817  1.00  0.00     0.074 A 
ATOM     35  C   UNL A   1      42.547  26.629  27.755  1.00  0.00     0.049 A 
ATOM     36  N   UNL A   1      40.835  28.714  29.102  1.00  0.00    -0.248 NA
ATOM     37  C   UNL A   1      39.165  27.100  29.323  1.00  0.00     0.031 C 
ATOM     38  C   UNL A   1      43.420  25.666  27.079  1.00  0.00     0.029 A 
ATOM     39  N   UNL A   1      43.371  27.701  27.997  1.00  0.00    -0.354 N 
ATOM     40  C   UNL A   1      39.748  29.268  29.771  1.00  0.00     0.074 A 
ATOM     41  C   UNL A   1      38.729  28.242  29.835  1.00  0.00     0.031 C 
ATOM     42  C   UNL A   1      44.657  26.177  26.989  1.00  0.00     0.029 A 
ATOM     43  C   UNL A   1      44.648  27.540  27.508  1.00  0.00     0.049 A 
ATOM     44  H   UNL A   1      43.077  28.509  28.476  1.00  0.00     0.167 HD
ATOM     45  C   UNL A   1      39.615  30.519  30.283  1.00  0.00     0.034 A 
ATOM     46  C   UNL A   1      45.680  28.405  27.432  1.00  0.00     0.034 A 
ATOM     47  C   UNL A   1      40.660  31.515  30.248  1.00  0.00     0.049 A 
ATOM     48  C   UNL A   1      45.488  29.810  27.945  1.00  0.00     0.074 A 
ATOM     49  C   UNL A   1      40.636  32.808  30.742  1.00  0.00     0.029 A 
ATOM     50  N   UNL A   1      41.921  31.328  29.693  1.00  0.00    -0.354 N 
ATOM     51  N   UNL A   1      44.429  30.346  28.509  1.00  0.00    -0.248 NA
ATOM     52  C   UNL A   1      46.623  30.729  27.798  1.00  0.00     0.031 C 
ATOM     53  C   UNL A   1      41.855  33.420  30.433  1.00  0.00     0.029 A 
ATOM     54  C   UNL A   1      42.671  32.489  29.810  1.00  0.00     0.049 A 
ATOM     55  H   UNL A   1      42.236  30.493  29.279  1.00  0.00     0.167 HD
ATOM     56  C   UNL A   1      44.780  31.662  28.796  1.00  0.00     0.074 A 
ATOM     57  C   UNL A   1      46.153  31.830  28.366  1.00  0.00     0.031 C 
ATOM     58  C   UNL A   1      44.034  32.645  29.362  1.00  0.00     0.034 A 
BRANCH  45  59
ATOM     59  C   UNL A   1      38.271  30.895  30.862  1.00  0.00     0.023 A 
ATOM     60  C   UNL A   1      37.265  31.506  30.093  1.00  0.00     0.031 A 
ATOM     61  C   UNL A   1      38.006  30.663  32.224  1.00  0.00     0.131 A 
ATOM     62  C   UNL A   1      36.074  31.927  30.705  1.00  0.00     0.055 A 
ATOM     63  C   UNL A   1      36.788  31.012  32.810  1.00  0.00     0.041 A 
ATOM     64  F   UNL A   1      38.936  30.104  33.016  1.00  0.00    -0.206 F 
ATOM     65  C   UNL A   1      35.819  31.662  32.053  1.00  0.00     0.022 A 
BRANCH  62  66
ATOM     66  S   UNL A   1      34.921  32.953  29.752  1.00  0.00     0.124 S 
ATOM     67  O   UNL A   1      35.827  33.910  29.123  1.00  0.00    -0.237 OA
ATOM     68  O   UNL A   1      34.298  31.981  28.860  1.00  0.00    -0.237 OA
ATOM     69  O   UNL A   1      34.040  33.518  30.772  1.00  0.00    -0.744 OA
ENDBRANCH  62  66
ENDBRANCH  45  59
BRANCH  46  70
ATOM     70  C   UNL A   1      46.958  28.004  26.775  1.00  0.00     0.023 A 
ATOM     71  C   UNL A   1      47.098  28.029  25.378  1.00  0.00     0.031 A 
ATOM     72  C   UNL A   1      48.047  27.539  27.536  1.00  0.00     0.131 A 
ATOM     73  C   UNL A   1      48.283  27.564  24.785  1.00  0.00     0.055 A 
ATOM     74  C   UNL A   1      49.245  27.135  26.945  1.00  0.00     0.041 A 
ATOM     75  F   UNL A   1      47.966  27.485  28.875  1.00  0.00    -0.206 F 
ATOM     76  C   UNL A   1      49.363  27.133  25.560  1.00  0.00     0.022 A 
BRANCH  73  77
ATOM     77  S   UNL A   1      48.363  27.441  22.976  1.00  0.00     0.124 S 
ATOM     78  O   UNL A   1      48.293  25.999  22.773  1.00  0.00    -0.237 OA
ATOM     79  O   UNL A   1      47.188  28.205  22.569  1.00  0.00    -0.237 OA
ATOM     80  O   UNL A   1      49.647  28.057  22.650  1.00  0.00    -0.744 OA
ENDBRANCH  73  77
ENDBRANCH  46  70
BRANCH  58  81
ATOM     81  C   UNL A   1      44.713  33.975  29.579  1.00  0.00     0.023 A 
ATOM     82  C   UNL A   1      45.435  34.252  30.753  1.00  0.00     0.031 A 
ATOM     83  C   UNL A   1      44.616  34.985  28.607  1.00  0.00     0.131 A 
ATOM     84  C   UNL A   1      45.985  35.527  30.950  1.00  0.00     0.055 A 
ATOM     85  C   UNL A   1      45.214  36.234  28.783  1.00  0.00     0.041 A 
ATOM     86  F   UNL A   1      43.936  34.775  27.469  1.00  0.00    -0.206 F 
ATOM     87  C   UNL A   1      45.893  36.514  29.966  1.00  0.00     0.022 A 
BRANCH  84  88
ATOM     88  S   UNL A   1      46.749  35.911  32.550  1.00  0.00     0.124 S 
ATOM     89  O   UNL A   1      46.266  34.816  33.387  1.00  0.00    -0.237 OA
ATOM     90  O   UNL A   1      48.173  35.888  32.231  1.00  0.00    -0.237 OA
ATOM     91  O   UNL A   1      46.211  37.228  32.881  1.00  0.00    -0.744 OA
ENDBRANCH  84  88
ENDBRANCH  58  81
ENDBRANCH  32  33
ENDBRANCH  25  27
ENDBRANCH  24  25
ENDBRANCH   1  24
TORSDOF 16
ENDMDL
