MODEL 1
REMARK VINA RESULT:     -12.6      0.000      0.000
REMARK SMILES C[C@@]1(CN2C(=O)c3ccc(C(=O)OCCOC(=O)c4ccc(-c5c6nc(c(-c7cc(S(=O)(=O)[O-])ccc7F)c7ccc([nH]7)c(-c7cc(S(=O)(=O)[O-])ccc7F)c7nc(c(-c8cc(S(=O)(=O)[O-])ccc8F)c8ccc5[nH]8)C=C7)C=C6)cc4)cc3C2=O)CCCO1
REMARK SMILES IDX 15 1 14 2 13 3 11 4 12 5 10 6 4 7 5 8 84 9 6 10 7 11 83 12
REMARK SMILES IDX 85 13 8 14 82 15 9 16 3 17 2 18 1 19 86 20 89 21 87 22 88 23
REMARK SMILES IDX 16 24 17 25 18 26 19 27 20 28 81 29 21 30 80 31 22 32 23 33
REMARK SMILES IDX 24 34 74 35 25 36 79 37 73 38 75 39 26 40 78 41 72 42 71 43
REMARK SMILES IDX 27 45 59 46 39 47 58 48 40 49 43 50 57 51 76 52 41 53 42 54
REMARK SMILES IDX 56 56 77 57 44 58 28 59 29 60 37 61 30 62 36 63 38 64 35 65
REMARK SMILES IDX 31 66 32 67 33 68 34 69 60 70 61 71 69 72 62 73 68 74 70 75
REMARK SMILES IDX 67 76 63 77 64 78 65 79 66 80 45 81 46 82 54 83 47 84 53 85
REMARK SMILES IDX 55 86 52 87 48 88 49 89 50 90 51 91
REMARK H PARENT 75 44 43 55
REMARK Flexibility Score: inf
ROOT
ATOM      1  C   UNL A   1      36.501  20.488  24.859  1.00  0.00     0.275 C 
ENDROOT
BRANCH   1   2
ATOM      2  C   UNL A   1      35.067  20.500  25.398  1.00  0.00     0.275 C 
BRANCH   2   3
ATOM      3  O   UNL A   1      34.244  19.500  24.760  1.00  0.00    -0.458 OA
BRANCH   3   4
ATOM      4  C   UNL A   1      32.907  19.611  24.962  1.00  0.00     0.338 C 
ATOM      5  O   UNL A   1      32.185  18.784  25.495  1.00  0.00    -0.246 OA
BRANCH   4   6
ATOM      6  C   UNL A   1      32.416  20.949  24.541  1.00  0.00     0.060 A 
ATOM      7  N   UNL A   1      30.890  25.252  25.093  1.00  0.00    -0.271 N 
ATOM      8  C   UNL A   1      31.129  24.881  23.795  1.00  0.00     0.261 C 
ATOM      9  C   UNL A   1      31.205  24.249  25.966  1.00  0.00     0.261 C 
ATOM     10  O   UNL A   1      31.012  25.520  22.769  1.00  0.00    -0.269 OA
ATOM     11  C   UNL A   1      31.582  23.489  23.833  1.00  0.00     0.053 A 
ATOM     12  C   UNL A   1      31.605  23.105  25.155  1.00  0.00     0.054 A 
ATOM     13  O   UNL A   1      31.238  24.243  27.184  1.00  0.00    -0.269 OA
ATOM     14  C   UNL A   1      31.941  22.621  22.817  1.00  0.00     0.015 A 
ATOM     15  C   UNL A   1      31.973  21.832  25.538  1.00  0.00     0.030 A 
ATOM     16  C   UNL A   1      32.382  21.339  23.182  1.00  0.00     0.016 A 
BRANCH   7  17
ATOM     17  C   UNL A   1      30.422  26.569  25.508  1.00  0.00     0.164 C 
BRANCH  17  18
ATOM     18  C   UNL A   1      31.560  27.549  25.915  1.00  0.00     0.084 C 
ATOM     19  C   UNL A   1      31.581  27.839  27.415  1.00  0.00     0.044 C 
ATOM     20  C   UNL A   1      31.458  28.857  25.120  1.00  0.00     0.039 C 
ATOM     21  O   UNL A   1      32.838  26.977  25.562  1.00  0.00    -0.373 OA
ATOM     22  C   UNL A   1      32.294  28.580  23.895  1.00  0.00     0.031 C 
ATOM     23  C   UNL A   1      33.387  27.689  24.442  1.00  0.00     0.161 C 
ENDBRANCH  17  18
ENDBRANCH   7  17
ENDBRANCH   4   6
ENDBRANCH   3   4
ENDBRANCH   2   3
ENDBRANCH   1   2
BRANCH   1  24
ATOM     24  O   UNL A   1      37.261  21.593  25.383  1.00  0.00    -0.458 OA
BRANCH  24  25
ATOM     25  C   UNL A   1      38.507  21.272  25.799  1.00  0.00     0.338 C 
ATOM     26  O   UNL A   1      39.134  20.260  25.534  1.00  0.00    -0.246 OA
BRANCH  25  27
ATOM     27  C   UNL A   1      39.110  22.393  26.535  1.00  0.00     0.060 A 
ATOM     28  C   UNL A   1      38.636  23.662  26.238  1.00  0.00     0.016 A 
ATOM     29  C   UNL A   1      40.255  22.243  27.312  1.00  0.00     0.016 A 
ATOM     30  C   UNL A   1      39.375  24.789  26.576  1.00  0.00     0.010 A 
ATOM     31  C   UNL A   1      40.923  23.388  27.776  1.00  0.00     0.010 A 
ATOM     32  C   UNL A   1      40.522  24.678  27.371  1.00  0.00    -0.014 A 
BRANCH  32  33
ATOM     33  C   UNL A   1      41.303  25.904  27.734  1.00  0.00     0.031 A 
ATOM     34  C   UNL A   1      40.658  27.016  28.530  1.00  0.00     0.074 A 
ATOM     35  C   UNL A   1      42.603  26.018  27.380  1.00  0.00     0.049 A 
ATOM     36  N   UNL A   1      41.113  28.214  28.804  1.00  0.00    -0.248 NA
ATOM     37  C   UNL A   1      39.316  26.755  29.072  1.00  0.00     0.031 C 
ATOM     38  C   UNL A   1      43.374  25.004  26.654  1.00  0.00     0.029 A 
ATOM     39  N   UNL A   1      43.513  27.028  27.587  1.00  0.00    -0.354 N 
ATOM     40  C   UNL A   1      40.095  28.865  29.495  1.00  0.00     0.074 A 
ATOM     41  C   UNL A   1      38.991  27.934  29.582  1.00  0.00     0.031 C 
ATOM     42  C   UNL A   1      44.641  25.419  26.524  1.00  0.00     0.029 A 
ATOM     43  C   UNL A   1      44.752  26.776  27.042  1.00  0.00     0.049 A 
ATOM     44  H   UNL A   1      43.298  27.854  28.078  1.00  0.00     0.167 HD
ATOM     45  C   UNL A   1      40.085  30.123  30.005  1.00  0.00     0.034 A 
ATOM     46  C   UNL A   1      45.844  27.558  26.911  1.00  0.00     0.034 A 
ATOM     47  C   UNL A   1      41.217  31.020  29.955  1.00  0.00     0.049 A 
ATOM     48  C   UNL A   1      45.788  28.968  27.438  1.00  0.00     0.074 A 
ATOM     49  C   UNL A   1      41.324  32.297  30.477  1.00  0.00     0.029 A 
ATOM     50  N   UNL A   1      42.436  30.738  29.351  1.00  0.00    -0.354 N 
ATOM     51  N   UNL A   1      44.803  29.581  28.054  1.00  0.00    -0.248 NA
ATOM     52  C   UNL A   1      46.986  29.795  27.246  1.00  0.00     0.031 C 
ATOM     53  C   UNL A   1      42.570  32.819  30.115  1.00  0.00     0.029 A 
ATOM     54  C   UNL A   1      43.283  31.833  29.452  1.00  0.00     0.049 A 
ATOM     55  H   UNL A   1      42.666  29.886  28.915  1.00  0.00     0.167 HD
ATOM     56  C   UNL A   1      45.275  30.858  28.343  1.00  0.00     0.074 A 
ATOM     57  C   UNL A   1      46.638  30.918  27.856  1.00  0.00     0.031 C 
ATOM     58  C   UNL A   1      44.638  31.888  28.956  1.00  0.00     0.034 A 
BRANCH  45  59
ATOM     59  C   UNL A   1      38.794  30.636  30.603  1.00  0.00     0.023 A 
ATOM     60  C   UNL A   1      37.789  31.243  29.831  1.00  0.00     0.031 A 
ATOM     61  C   UNL A   1      38.567  30.506  31.987  1.00  0.00     0.131 A 
ATOM     62  C   UNL A   1      36.636  31.748  30.453  1.00  0.00     0.055 A 
ATOM     63  C   UNL A   1      37.382  30.938  32.588  1.00  0.00     0.041 A 
ATOM     64  F   UNL A   1      39.498  29.956  32.783  1.00  0.00    -0.206 F 
ATOM     65  C   UNL A   1      36.414  31.575  31.821  1.00  0.00     0.022 A 
BRANCH  62  66
ATOM     66  S   UNL A   1      35.488  32.755  29.474  1.00  0.00     0.124 S 
ATOM     67  O   UNL A   1      35.418  31.997  28.227  1.00  0.00    -0.237 OA
ATOM     68  O   UNL A   1      34.282  32.749  30.294  1.00  0.00    -0.237 OA
ATOM     69  O   UNL A   1      36.165  34.047  29.371  1.00  0.00    -0.744 OA
ENDBRANCH  62  66
ENDBRANCH  45  59
BRANCH  46  70
ATOM     70  C   UNL A   1      47.047  27.064  26.174  1.00  0.00     0.023 A 
ATOM     71  C   UNL A   1      48.081  26.382  26.835  1.00  0.00     0.031 A 
ATOM     72  C   UNL A   1      47.206  27.320  24.799  1.00  0.00     0.131 A 
ATOM     73  C   UNL A   1      49.245  26.026  26.133  1.00  0.00     0.055 A 
ATOM     74  C   UNL A   1      48.330  26.896  24.089  1.00  0.00     0.041 A 
ATOM     75  F   UNL A   1      46.257  27.980  24.115  1.00  0.00    -0.206 F 
ATOM     76  C   UNL A   1      49.367  26.259  24.761  1.00  0.00     0.022 A 
BRANCH  73  77
ATOM     77  S   UNL A   1      50.652  25.360  27.063  1.00  0.00     0.124 S 
ATOM     78  O   UNL A   1      51.086  26.529  27.820  1.00  0.00    -0.237 OA
ATOM     79  O   UNL A   1      50.029  24.291  27.836  1.00  0.00    -0.237 OA
ATOM     80  O   UNL A   1      51.573  24.917  26.018  1.00  0.00    -0.744 OA
ENDBRANCH  73  77
ENDBRANCH  46  70
BRANCH  58  81
ATOM     81  C   UNL A   1      45.435  33.149  29.183  1.00  0.00     0.023 A 
ATOM     82  C   UNL A   1      45.436  34.206  28.255  1.00  0.00     0.031 A 
ATOM     83  C   UNL A   1      46.222  33.288  30.341  1.00  0.00     0.131 A 
ATOM     84  C   UNL A   1      46.255  35.324  28.470  1.00  0.00     0.055 A 
ATOM     85  C   UNL A   1      46.979  34.434  30.585  1.00  0.00     0.041 A 
ATOM     86  F   UNL A   1      46.266  32.309  31.259  1.00  0.00    -0.206 F 
ATOM     87  C   UNL A   1      47.010  35.455  29.639  1.00  0.00     0.022 A 
BRANCH  84  88
ATOM     88  S   UNL A   1      46.408  36.559  27.151  1.00  0.00     0.124 S 
ATOM     89  O   UNL A   1      47.524  37.372  27.625  1.00  0.00    -0.237 OA
ATOM     90  O   UNL A   1      46.675  35.733  25.978  1.00  0.00    -0.237 OA
ATOM     91  O   UNL A   1      45.109  37.228  27.154  1.00  0.00    -0.744 OA
ENDBRANCH  84  88
ENDBRANCH  58  81
ENDBRANCH  32  33
ENDBRANCH  25  27
ENDBRANCH  24  25
ENDBRANCH   1  24
TORSDOF 16
ENDMDL
MODEL 2
REMARK VINA RESULT:     -12.4      1.807      7.760
REMARK SMILES C[C@@]1(CN2C(=O)c3ccc(C(=O)OCCOC(=O)c4ccc(-c5c6nc(c(-c7cc(S(=O)(=O)[O-])ccc7F)c7ccc([nH]7)c(-c7cc(S(=O)(=O)[O-])ccc7F)c7nc(c(-c8cc(S(=O)(=O)[O-])ccc8F)c8ccc5[nH]8)C=C7)C=C6)cc4)cc3C2=O)CCCO1
REMARK SMILES IDX 15 1 14 2 13 3 11 4 12 5 10 6 4 7 5 8 84 9 6 10 7 11 83 12
REMARK SMILES IDX 85 13 8 14 82 15 9 16 3 17 2 18 1 19 86 20 89 21 87 22 88 23
REMARK SMILES IDX 16 24 17 25 18 26 19 27 20 28 81 29 21 30 80 31 22 32 23 33
REMARK SMILES IDX 24 34 74 35 25 36 79 37 73 38 75 39 26 40 78 41 72 42 71 43
REMARK SMILES IDX 27 45 59 46 39 47 58 48 40 49 43 50 57 51 76 52 41 53 42 54
REMARK SMILES IDX 56 56 77 57 44 58 28 59 29 60 37 61 30 62 36 63 38 64 35 65
REMARK SMILES IDX 31 66 32 67 33 68 34 69 60 70 61 71 69 72 62 73 68 74 70 75
REMARK SMILES IDX 67 76 63 77 64 78 65 79 66 80 45 81 46 82 54 83 47 84 53 85
REMARK SMILES IDX 55 86 52 87 48 88 49 89 50 90 51 91
REMARK H PARENT 75 44 43 55
REMARK Flexibility Score: inf
ROOT
ATOM      1  C   UNL A   1      36.611  20.175  25.000  1.00  0.00     0.275 C 
ENDROOT
BRANCH   1   2
ATOM      2  C   UNL A   1      35.195  20.679  24.707  1.00  0.00     0.275 C 
BRANCH   2   3
ATOM      3  O   UNL A   1      34.289  20.402  25.797  1.00  0.00    -0.458 OA
BRANCH   3   4
ATOM      4  C   UNL A   1      32.966  20.501  25.512  1.00  0.00     0.338 C 
ATOM      5  O   UNL A   1      32.218  19.581  25.226  1.00  0.00    -0.246 OA
BRANCH   4   6
ATOM      6  C   UNL A   1      32.486  21.896  25.697  1.00  0.00     0.060 A 
ATOM      7  N   UNL A   1      30.406  25.831  24.544  1.00  0.00    -0.271 N 
ATOM      8  C   UNL A   1      30.840  25.761  25.843  1.00  0.00     0.261 C 
ATOM      9  C   UNL A   1      30.655  24.671  23.870  1.00  0.00     0.261 C 
ATOM     10  O   UNL A   1      30.748  26.575  26.739  1.00  0.00    -0.269 OA
ATOM     11  C   UNL A   1      31.484  24.456  25.999  1.00  0.00     0.053 A 
ATOM     12  C   UNL A   1      31.387  23.806  24.789  1.00  0.00     0.054 A 
ATOM     13  O   UNL A   1      30.318  24.317  22.754  1.00  0.00    -0.269 OA
ATOM     14  C   UNL A   1      32.106  23.873  27.089  1.00  0.00     0.015 A 
ATOM     15  C   UNL A   1      31.914  22.547  24.593  1.00  0.00     0.030 A 
ATOM     16  C   UNL A   1      32.596  22.566  26.937  1.00  0.00     0.016 A 
BRANCH   7  17
ATOM     17  C   UNL A   1      29.705  26.971  23.964  1.00  0.00     0.164 C 
BRANCH  17  18
ATOM     18  C   UNL A   1      30.640  28.021  23.298  1.00  0.00     0.084 C 
ATOM     19  C   UNL A   1      32.064  27.501  23.099  1.00  0.00     0.044 C 
ATOM     20  C   UNL A   1      30.655  29.323  24.108  1.00  0.00     0.039 C 
ATOM     21  O   UNL A   1      30.118  28.376  21.999  1.00  0.00    -0.373 OA
ATOM     22  C   UNL A   1      29.526  30.118  23.501  1.00  0.00     0.031 C 
ATOM     23  C   UNL A   1      29.584  29.707  22.047  1.00  0.00     0.161 C 
ENDBRANCH  17  18
ENDBRANCH   7  17
ENDBRANCH   4   6
ENDBRANCH   3   4
ENDBRANCH   2   3
ENDBRANCH   1   2
BRANCH   1  24
ATOM     24  O   UNL A   1      37.548  21.267  25.056  1.00  0.00    -0.458 OA
BRANCH  24  25
ATOM     25  C   UNL A   1      38.683  21.002  25.743  1.00  0.00     0.338 C 
ATOM     26  O   UNL A   1      39.306  19.954  25.757  1.00  0.00    -0.246 OA
BRANCH  25  27
ATOM     27  C   UNL A   1      39.184  22.217  26.401  1.00  0.00     0.060 A 
ATOM     28  C   UNL A   1      38.512  23.399  26.125  1.00  0.00     0.016 A 
ATOM     29  C   UNL A   1      40.402  22.251  27.073  1.00  0.00     0.016 A 
ATOM     30  C   UNL A   1      39.112  24.628  26.375  1.00  0.00     0.010 A 
ATOM     31  C   UNL A   1      40.941  23.491  27.453  1.00  0.00     0.010 A 
ATOM     32  C   UNL A   1      40.329  24.701  27.064  1.00  0.00    -0.014 A 
BRANCH  32  33
ATOM     33  C   UNL A   1      40.958  26.034  27.332  1.00  0.00     0.031 A 
ATOM     34  C   UNL A   1      42.300  26.383  26.732  1.00  0.00     0.074 A 
ATOM     35  C   UNL A   1      40.317  26.952  28.090  1.00  0.00     0.049 A 
ATOM     36  N   UNL A   1      43.075  27.412  26.970  1.00  0.00    -0.248 NA
ATOM     37  C   UNL A   1      42.855  25.441  25.747  1.00  0.00     0.031 C 
ATOM     38  C   UNL A   1      38.994  26.777  28.695  1.00  0.00     0.029 A 
ATOM     39  N   UNL A   1      40.683  28.220  28.477  1.00  0.00    -0.354 N 
ATOM     40  C   UNL A   1      44.228  27.211  26.216  1.00  0.00     0.074 A 
ATOM     41  C   UNL A   1      44.057  25.952  25.524  1.00  0.00     0.031 C 
ATOM     42  C   UNL A   1      38.641  27.904  29.327  1.00  0.00     0.029 A 
ATOM     43  C   UNL A   1      39.755  28.841  29.284  1.00  0.00     0.049 A 
ATOM     44  H   UNL A   1      41.528  28.644  28.204  1.00  0.00     0.167 HD
ATOM     45  C   UNL A   1      45.324  28.005  26.113  1.00  0.00     0.034 A 
ATOM     46  C   UNL A   1      39.805  30.003  29.967  1.00  0.00     0.034 A 
ATOM     47  C   UNL A   1      45.454  29.286  26.770  1.00  0.00     0.049 A 
ATOM     48  C   UNL A   1      41.054  30.838  29.880  1.00  0.00     0.074 A 
ATOM     49  C   UNL A   1      46.504  30.185  26.698  1.00  0.00     0.029 A 
ATOM     50  N   UNL A   1      44.508  29.852  27.615  1.00  0.00    -0.354 N 
ATOM     51  N   UNL A   1      42.151  30.615  29.192  1.00  0.00    -0.248 NA
ATOM     52  C   UNL A   1      41.079  32.079  30.665  1.00  0.00     0.031 C 
ATOM     53  C   UNL A   1      46.234  31.248  27.565  1.00  0.00     0.029 A 
ATOM     54  C   UNL A   1      44.970  31.067  28.102  1.00  0.00     0.049 A 
ATOM     55  H   UNL A   1      43.636  29.451  27.835  1.00  0.00     0.167 HD
ATOM     56  C   UNL A   1      42.984  31.701  29.445  1.00  0.00     0.074 A 
ATOM     57  C   UNL A   1      42.254  32.587  30.327  1.00  0.00     0.031 C 
ATOM     58  C   UNL A   1      44.240  31.942  28.989  1.00  0.00     0.034 A 
BRANCH  45  59
ATOM     59  C   UNL A   1      46.502  27.488  25.318  1.00  0.00     0.023 A 
ATOM     60  C   UNL A   1      46.813  27.956  24.030  1.00  0.00     0.031 A 
ATOM     61  C   UNL A   1      47.338  26.500  25.874  1.00  0.00     0.131 A 
ATOM     62  C   UNL A   1      47.888  27.396  23.321  1.00  0.00     0.055 A 
ATOM     63  C   UNL A   1      48.454  26.006  25.196  1.00  0.00     0.041 A 
ATOM     64  F   UNL A   1      47.082  25.995  27.091  1.00  0.00    -0.206 F 
ATOM     65  C   UNL A   1      48.727  26.445  23.906  1.00  0.00     0.022 A 
BRANCH  62  66
ATOM     66  S   UNL A   1      48.098  27.829  21.572  1.00  0.00     0.124 S 
ATOM     67  O   UNL A   1      46.793  28.402  21.249  1.00  0.00    -0.237 OA
ATOM     68  O   UNL A   1      49.215  28.766  21.609  1.00  0.00    -0.237 OA
ATOM     69  O   UNL A   1      48.381  26.546  20.930  1.00  0.00    -0.744 OA
ENDBRANCH  62  66
ENDBRANCH  45  59
BRANCH  46  70
ATOM     70  C   UNL A   1      38.679  30.402  30.867  1.00  0.00     0.023 A 
ATOM     71  C   UNL A   1      37.569  31.111  30.380  1.00  0.00     0.031 A 
ATOM     72  C   UNL A   1      38.726  30.128  32.247  1.00  0.00     0.131 A 
ATOM     73  C   UNL A   1      36.581  31.563  31.271  1.00  0.00     0.055 A 
ATOM     74  C   UNL A   1      37.705  30.512  33.116  1.00  0.00     0.041 A 
ATOM     75  F   UNL A   1      39.768  29.465  32.774  1.00  0.00    -0.206 F 
ATOM     76  C   UNL A   1      36.632  31.250  32.632  1.00  0.00     0.022 A 
BRANCH  73  77
ATOM     77  S   UNL A   1      35.289  32.672  30.648  1.00  0.00     0.124 S 
ATOM     78  O   UNL A   1      36.034  33.909  30.442  1.00  0.00    -0.237 OA
ATOM     79  O   UNL A   1      34.849  31.980  29.441  1.00  0.00    -0.237 OA
ATOM     80  O   UNL A   1      34.315  32.705  31.736  1.00  0.00    -0.744 OA
ENDBRANCH  73  77
ENDBRANCH  46  70
BRANCH  58  81
ATOM     81  C   UNL A   1      44.878  33.247  29.396  1.00  0.00     0.023 A 
ATOM     82  C   UNL A   1      44.745  34.413  28.621  1.00  0.00     0.031 A 
ATOM     83  C   UNL A   1      45.649  33.320  30.570  1.00  0.00     0.131 A 
ATOM     84  C   UNL A   1      45.424  35.583  28.997  1.00  0.00     0.055 A 
ATOM     85  C   UNL A   1      46.261  34.505  30.977  1.00  0.00     0.041 A 
ATOM     86  F   UNL A   1      45.816  32.236  31.346  1.00  0.00    -0.206 F 
ATOM     87  C   UNL A   1      46.163  35.642  30.181  1.00  0.00     0.022 A 
BRANCH  84  88
ATOM     88  S   UNL A   1      45.418  36.997  27.861  1.00  0.00     0.124 S 
ATOM     89  O   UNL A   1      46.589  37.746  28.304  1.00  0.00    -0.237 OA
ATOM     90  O   UNL A   1      45.531  36.351  26.557  1.00  0.00    -0.237 OA
ATOM     91  O   UNL A   1      44.134  37.642  28.122  1.00  0.00    -0.744 OA
ENDBRANCH  84  88
ENDBRANCH  58  81
ENDBRANCH  32  33
ENDBRANCH  25  27
ENDBRANCH  24  25
ENDBRANCH   1  24
TORSDOF 16
ENDMDL
MODEL 3
REMARK VINA RESULT:     -12.4      1.446      1.795
REMARK SMILES C[C@@]1(CN2C(=O)c3ccc(C(=O)OCCOC(=O)c4ccc(-c5c6nc(c(-c7cc(S(=O)(=O)[O-])ccc7F)c7ccc([nH]7)c(-c7cc(S(=O)(=O)[O-])ccc7F)c7nc(c(-c8cc(S(=O)(=O)[O-])ccc8F)c8ccc5[nH]8)C=C7)C=C6)cc4)cc3C2=O)CCCO1
REMARK SMILES IDX 15 1 14 2 13 3 11 4 12 5 10 6 4 7 5 8 84 9 6 10 7 11 83 12
REMARK SMILES IDX 85 13 8 14 82 15 9 16 3 17 2 18 1 19 86 20 89 21 87 22 88 23
REMARK SMILES IDX 16 24 17 25 18 26 19 27 20 28 81 29 21 30 80 31 22 32 23 33
REMARK SMILES IDX 24 34 74 35 25 36 79 37 73 38 75 39 26 40 78 41 72 42 71 43
REMARK SMILES IDX 27 45 59 46 39 47 58 48 40 49 43 50 57 51 76 52 41 53 42 54
REMARK SMILES IDX 56 56 77 57 44 58 28 59 29 60 37 61 30 62 36 63 38 64 35 65
REMARK SMILES IDX 31 66 32 67 33 68 34 69 60 70 61 71 69 72 62 73 68 74 70 75
REMARK SMILES IDX 67 76 63 77 64 78 65 79 66 80 45 81 46 82 54 83 47 84 53 85
REMARK SMILES IDX 55 86 52 87 48 88 49 89 50 90 51 91
REMARK H PARENT 75 44 43 55
REMARK Flexibility Score: inf
ROOT
ATOM      1  C   UNL A   1      36.774  20.359  24.698  1.00  0.00     0.275 C 
ENDROOT
BRANCH   1   2
ATOM      2  C   UNL A   1      35.300  20.574  25.058  1.00  0.00     0.275 C 
BRANCH   2   3
ATOM      3  O   UNL A   1      34.493  19.422  24.732  1.00  0.00    -0.458 OA
BRANCH   3   4
ATOM      4  C   UNL A   1      33.189  19.485  25.101  1.00  0.00     0.338 C 
ATOM      5  O   UNL A   1      32.587  18.662  25.769  1.00  0.00    -0.246 OA
BRANCH   4   6
ATOM      6  C   UNL A   1      32.577  20.771  24.674  1.00  0.00     0.060 A 
ATOM      7  N   UNL A   1      30.850  25.001  25.190  1.00  0.00    -0.271 N 
ATOM      8  C   UNL A   1      30.984  24.582  23.892  1.00  0.00     0.261 C 
ATOM      9  C   UNL A   1      31.309  24.062  26.069  1.00  0.00     0.261 C 
ATOM     10  O   UNL A   1      30.729  25.161  22.856  1.00  0.00    -0.269 OA
ATOM     11  C   UNL A   1      31.524  23.222  23.944  1.00  0.00     0.053 A 
ATOM     12  C   UNL A   1      31.698  22.904  25.272  1.00  0.00     0.054 A 
ATOM     13  O   UNL A   1      31.460  24.118  27.277  1.00  0.00    -0.269 OA
ATOM     14  C   UNL A   1      31.836  22.327  22.936  1.00  0.00     0.015 A 
ATOM     15  C   UNL A   1      32.180  21.675  25.671  1.00  0.00     0.030 A 
ATOM     16  C   UNL A   1      32.388  21.092  23.310  1.00  0.00     0.016 A 
BRANCH   7  17
ATOM     17  C   UNL A   1      30.344  26.308  25.592  1.00  0.00     0.164 C 
BRANCH  17  18
ATOM     18  C   UNL A   1      31.294  27.491  25.248  1.00  0.00     0.084 C 
ATOM     19  C   UNL A   1      30.806  28.312  24.054  1.00  0.00     0.044 C 
ATOM     20  C   UNL A   1      32.721  26.985  25.000  1.00  0.00     0.039 C 
ATOM     21  O   UNL A   1      31.387  28.380  26.381  1.00  0.00    -0.373 OA
ATOM     22  C   UNL A   1      33.346  27.037  26.372  1.00  0.00     0.031 C 
ATOM     23  C   UNL A   1      32.682  28.249  26.986  1.00  0.00     0.161 C 
ENDBRANCH  17  18
ENDBRANCH   7  17
ENDBRANCH   4   6
ENDBRANCH   3   4
ENDBRANCH   2   3
ENDBRANCH   1   2
BRANCH   1  24
ATOM     24  O   UNL A   1      37.580  21.473  25.124  1.00  0.00    -0.458 OA
BRANCH  24  25
ATOM     25  C   UNL A   1      38.719  21.132  25.767  1.00  0.00     0.338 C 
ATOM     26  O   UNL A   1      39.323  20.075  25.683  1.00  0.00    -0.246 OA
BRANCH  25  27
ATOM     27  C   UNL A   1      39.255  22.279  26.514  1.00  0.00     0.060 A 
ATOM     28  C   UNL A   1      38.737  23.526  26.198  1.00  0.00     0.016 A 
ATOM     29  C   UNL A   1      40.384  22.179  27.322  1.00  0.00     0.016 A 
ATOM     30  C   UNL A   1      39.418  24.684  26.552  1.00  0.00     0.010 A 
ATOM     31  C   UNL A   1      40.990  23.352  27.799  1.00  0.00     0.010 A 
ATOM     32  C   UNL A   1      40.548  24.624  27.378  1.00  0.00    -0.014 A 
BRANCH  32  33
ATOM     33  C   UNL A   1      41.266  25.882  27.757  1.00  0.00     0.031 A 
ATOM     34  C   UNL A   1      40.567  26.952  28.564  1.00  0.00     0.074 A 
ATOM     35  C   UNL A   1      42.559  26.064  27.406  1.00  0.00     0.049 A 
ATOM     36  N   UNL A   1      40.961  28.167  28.854  1.00  0.00    -0.248 NA
ATOM     37  C   UNL A   1      39.238  26.618  29.101  1.00  0.00     0.031 C 
ATOM     38  C   UNL A   1      43.380  25.099  26.670  1.00  0.00     0.029 A 
ATOM     39  N   UNL A   1      43.418  27.115  27.626  1.00  0.00    -0.354 N 
ATOM     40  C   UNL A   1      39.911  28.759  29.550  1.00  0.00     0.074 A 
ATOM     41  C   UNL A   1      38.854  27.773  29.625  1.00  0.00     0.031 C 
ATOM     42  C   UNL A   1      44.626  25.577  26.547  1.00  0.00     0.029 A 
ATOM     43  C   UNL A   1      44.669  26.931  27.081  1.00  0.00     0.049 A 
ATOM     44  H   UNL A   1      43.163  27.924  28.127  1.00  0.00     0.167 HD
ATOM     45  C   UNL A   1      39.839  30.009  30.076  1.00  0.00     0.034 A 
ATOM     46  C   UNL A   1      45.720  27.768  26.961  1.00  0.00     0.034 A 
ATOM     47  C   UNL A   1      40.925  30.961  30.038  1.00  0.00     0.049 A 
ATOM     48  C   UNL A   1      45.595  29.167  27.504  1.00  0.00     0.074 A 
ATOM     49  C   UNL A   1      40.969  32.236  30.576  1.00  0.00     0.029 A 
ATOM     50  N   UNL A   1      42.157  30.747  29.432  1.00  0.00    -0.354 N 
ATOM     51  N   UNL A   1      44.580  29.723  28.126  1.00  0.00    -0.248 NA
ATOM     52  C   UNL A   1      46.750  30.055  27.325  1.00  0.00     0.031 C 
ATOM     53  C   UNL A   1      42.187  32.822  30.222  1.00  0.00     0.029 A 
ATOM     54  C   UNL A   1      42.949  31.881  29.549  1.00  0.00     0.049 A 
ATOM     55  H   UNL A   1      42.429  29.912  28.987  1.00  0.00     0.167 HD
ATOM     56  C   UNL A   1      44.988  31.018  28.432  1.00  0.00     0.074 A 
ATOM     57  C   UNL A   1      46.346  31.151  27.948  1.00  0.00     0.031 C 
ATOM     58  C   UNL A   1      44.300  32.009  29.056  1.00  0.00     0.034 A 
BRANCH  45  59
ATOM     59  C   UNL A   1      38.523  30.450  30.677  1.00  0.00     0.023 A 
ATOM     60  C   UNL A   1      37.512  31.067  29.921  1.00  0.00     0.031 A 
ATOM     61  C   UNL A   1      38.279  30.239  32.048  1.00  0.00     0.131 A 
ATOM     62  C   UNL A   1      36.334  31.504  30.549  1.00  0.00     0.055 A 
ATOM     63  C   UNL A   1      37.072  30.602  32.650  1.00  0.00     0.041 A 
ATOM     64  F   UNL A   1      39.213  29.675  32.830  1.00  0.00    -0.206 F 
ATOM     65  C   UNL A   1      36.096  31.250  31.902  1.00  0.00     0.022 A 
BRANCH  62  66
ATOM     66  S   UNL A   1      35.172  32.528  29.605  1.00  0.00     0.124 S 
ATOM     67  O   UNL A   1      34.308  33.047  30.663  1.00  0.00    -0.237 OA
ATOM     68  O   UNL A   1      36.051  33.497  28.964  1.00  0.00    -0.237 OA
ATOM     69  O   UNL A   1      34.529  31.574  28.701  1.00  0.00    -0.744 OA
ENDBRANCH  62  66
ENDBRANCH  45  59
BRANCH  46  70
ATOM     70  C   UNL A   1      46.948  27.343  26.220  1.00  0.00     0.023 A 
ATOM     71  C   UNL A   1      47.190  27.765  24.903  1.00  0.00     0.031 A 
ATOM     72  C   UNL A   1      47.871  26.455  26.804  1.00  0.00     0.131 A 
ATOM     73  C   UNL A   1      48.298  27.262  24.201  1.00  0.00     0.055 A 
ATOM     74  C   UNL A   1      49.011  26.018  26.128  1.00  0.00     0.041 A 
ATOM     75  F   UNL A   1      47.686  26.006  28.056  1.00  0.00    -0.206 F 
ATOM     76  C   UNL A   1      49.220  26.408  24.811  1.00  0.00     0.022 A 
BRANCH  73  77
ATOM     77  S   UNL A   1      48.452  27.642  22.433  1.00  0.00     0.124 S 
ATOM     78  O   UNL A   1      47.184  28.309  22.163  1.00  0.00    -0.237 OA
ATOM     79  O   UNL A   1      49.640  28.487  22.406  1.00  0.00    -0.237 OA
ATOM     80  O   UNL A   1      48.609  26.327  21.815  1.00  0.00    -0.744 OA
ENDBRANCH  73  77
ENDBRANCH  46  70
BRANCH  58  81
ATOM     81  C   UNL A   1      45.033  33.305  29.299  1.00  0.00     0.023 A 
ATOM     82  C   UNL A   1      44.896  34.410  28.440  1.00  0.00     0.031 A 
ATOM     83  C   UNL A   1      45.900  33.430  30.400  1.00  0.00     0.131 A 
ATOM     84  C   UNL A   1      45.660  35.566  28.661  1.00  0.00     0.055 A 
ATOM     85  C   UNL A   1      46.601  34.608  30.656  1.00  0.00     0.041 A 
ATOM     86  F   UNL A   1      46.076  32.405  31.250  1.00  0.00    -0.206 F 
ATOM     87  C   UNL A   1      46.495  35.680  29.775  1.00  0.00     0.022 A 
BRANCH  84  88
ATOM     88  S   UNL A   1      45.632  36.881  27.412  1.00  0.00     0.124 S 
ATOM     89  O   UNL A   1      46.595  36.389  26.432  1.00  0.00    -0.237 OA
ATOM     90  O   UNL A   1      44.235  36.881  26.989  1.00  0.00    -0.237 OA
ATOM     91  O   UNL A   1      46.053  38.068  28.153  1.00  0.00    -0.744 OA
ENDBRANCH  84  88
ENDBRANCH  58  81
ENDBRANCH  32  33
ENDBRANCH  25  27
ENDBRANCH  24  25
ENDBRANCH   1  24
TORSDOF 16
ENDMDL
