MODEL 1
REMARK VINA RESULT:      -9.7      0.000      0.000
REMARK SMILES Cc1nonc1CSCC(=O)OCCOC(=O)c1ccc(-c2c3nc(c(-c4cc(S(=O)(=O)[O-])ccc4F)c4ccc([nH]4)c(-c4cc(S(=O)(=O)[O-])ccc4F)c4nc(c(-c5cc(S(=O)(=O)[O-])ccc5F)c5ccc2[nH]5)C=C4)C=C3)cc1
REMARK SMILES IDX 13 1 12 2 10 3 11 4 9 5 8 6 7 7 6 8 1 9 2 10 3 11 4 12 5 13
REMARK SMILES IDX 14 14 15 15 16 16 17 17 18 18 19 19 80 20 20 21 79 22 21 23
REMARK SMILES IDX 22 24 23 25 73 26 24 27 78 28 72 29 74 30 25 31 77 32 71 33
REMARK SMILES IDX 70 34 26 36 58 37 38 38 57 39 39 40 42 41 56 42 75 43 40 44
REMARK SMILES IDX 41 45 55 47 76 48 43 49 27 50 28 51 36 52 29 53 35 54 37 55
REMARK SMILES IDX 34 56 30 57 31 58 32 59 33 60 59 61 60 62 68 63 61 64 67 65
REMARK SMILES IDX 69 66 66 67 62 68 63 69 64 70 65 71 44 72 45 73 53 74 46 75
REMARK SMILES IDX 52 76 54 77 51 78 47 79 48 80 49 81 50 82
REMARK H PARENT 74 35 42 46
REMARK Flexibility Score: inf
ROOT
ATOM      1  C   UNL A   1      33.588  34.361  28.526  1.00  0.00     0.274 C 
ENDROOT
BRANCH   1   2
ATOM      2  O   UNL A   1      32.688  34.807  29.560  1.00  0.00    -0.461 OA
BRANCH   2   3
ATOM      3  C   UNL A   1      32.906  36.065  30.023  1.00  0.00     0.316 C 
ATOM      4  O   UNL A   1      33.248  37.005  29.309  1.00  0.00    -0.251 OA
BRANCH   3   5
ATOM      5  C   UNL A   1      32.743  36.240  31.516  1.00  0.00     0.192 C 
BRANCH   5   6
ATOM      6  S   UNL A   1      34.216  35.991  32.554  1.00  0.00    -0.144 SA
BRANCH   6   7
ATOM      7  C   UNL A   1      34.047  34.231  33.013  1.00  0.00     0.132 C 
BRANCH   7   8
ATOM      8  C   UNL A   1      35.196  33.578  33.702  1.00  0.00     0.117 A 
ATOM      9  C   UNL A   1      36.445  32.389  31.723  1.00  0.00     0.073 C 
ATOM     10  C   UNL A   1      36.212  32.780  33.128  1.00  0.00     0.106 A 
ATOM     11  N   UNL A   1      37.037  32.357  34.086  1.00  0.00    -0.055 NA
ATOM     12  O   UNL A   1      36.571  32.938  35.254  1.00  0.00    -0.244 OA
ATOM     13  N   UNL A   1      35.432  33.698  35.012  1.00  0.00    -0.054 NA
ENDBRANCH   7   8
ENDBRANCH   6   7
ENDBRANCH   5   6
ENDBRANCH   3   5
ENDBRANCH   2   3
ENDBRANCH   1   2
BRANCH   1  14
ATOM     14  C   UNL A   1      34.350  33.102  28.933  1.00  0.00     0.275 C 
BRANCH  14  15
ATOM     15  O   UNL A   1      34.843  32.397  27.780  1.00  0.00    -0.458 OA
BRANCH  15  16
ATOM     16  C   UNL A   1      34.611  31.065  27.784  1.00  0.00     0.338 C 
ATOM     17  O   UNL A   1      33.575  30.492  27.494  1.00  0.00    -0.246 OA
BRANCH  16  18
ATOM     18  C   UNL A   1      35.821  30.342  28.188  1.00  0.00     0.060 A 
ATOM     19  C   UNL A   1      35.849  29.686  29.420  1.00  0.00     0.016 A 
ATOM     20  C   UNL A   1      36.975  30.462  27.412  1.00  0.00     0.016 A 
ATOM     21  C   UNL A   1      37.054  29.173  29.900  1.00  0.00     0.010 A 
ATOM     22  C   UNL A   1      38.173  29.923  27.883  1.00  0.00     0.010 A 
ATOM     23  C   UNL A   1      38.224  29.296  29.139  1.00  0.00    -0.014 A 
BRANCH  23  24
ATOM     24  C   UNL A   1      39.512  28.779  29.658  1.00  0.00     0.031 A 
ATOM     25  C   UNL A   1      40.240  29.511  30.748  1.00  0.00     0.074 A 
ATOM     26  C   UNL A   1      40.032  27.659  29.123  1.00  0.00     0.049 A 
ATOM     27  N   UNL A   1      41.423  29.275  31.254  1.00  0.00    -0.248 NA
ATOM     28  C   UNL A   1      39.547  30.664  31.341  1.00  0.00     0.031 C 
ATOM     29  C   UNL A   1      39.401  26.855  28.076  1.00  0.00     0.029 A 
ATOM     30  N   UNL A   1      41.216  27.018  29.373  1.00  0.00    -0.354 N 
ATOM     31  C   UNL A   1      41.622  30.250  32.225  1.00  0.00     0.074 A 
ATOM     32  C   UNL A   1      40.446  31.098  32.213  1.00  0.00     0.031 C 
ATOM     33  C   UNL A   1      40.215  25.835  27.759  1.00  0.00     0.029 A 
ATOM     34  C   UNL A   1      41.437  25.939  28.552  1.00  0.00     0.049 A 
ATOM     35  H   UNL A   1      41.848  27.302  30.073  1.00  0.00     0.167 HD
ATOM     36  C   UNL A   1      42.684  30.414  33.052  1.00  0.00     0.034 A 
ATOM     37  C   UNL A   1      42.517  25.147  28.424  1.00  0.00     0.034 A 
ATOM     38  C   UNL A   1      43.845  29.559  33.054  1.00  0.00     0.049 A 
ATOM     39  C   UNL A   1      43.716  25.397  29.293  1.00  0.00     0.074 A 
ATOM     40  C   UNL A   1      44.951  29.602  33.886  1.00  0.00     0.029 A 
ATOM     41  N   UNL A   1      44.059  28.509  32.170  1.00  0.00    -0.354 N 
ATOM     42  N   UNL A   1      43.895  26.326  30.203  1.00  0.00    -0.248 NA
ATOM     43  C   UNL A   1      44.862  24.496  29.113  1.00  0.00     0.031 C 
ATOM     44  C   UNL A   1      45.855  28.614  33.471  1.00  0.00     0.029 A 
ATOM     45  C   UNL A   1      45.292  27.922  32.411  1.00  0.00     0.049 A 
ATOM     46  H   UNL A   1      43.426  28.222  31.472  1.00  0.00     0.167 HD
ATOM     47  C   UNL A   1      45.172  26.118  30.710  1.00  0.00     0.074 A 
ATOM     48  C   UNL A   1      45.716  24.970  30.010  1.00  0.00     0.031 C 
ATOM     49  C   UNL A   1      45.835  26.808  31.673  1.00  0.00     0.034 A 
BRANCH  36  50
ATOM     50  C   UNL A   1      42.653  31.594  33.989  1.00  0.00     0.023 A 
ATOM     51  C   UNL A   1      42.134  31.494  35.293  1.00  0.00     0.031 A 
ATOM     52  C   UNL A   1      43.139  32.843  33.563  1.00  0.00     0.131 A 
ATOM     53  C   UNL A   1      42.069  32.635  36.107  1.00  0.00     0.055 A 
ATOM     54  C   UNL A   1      43.123  33.961  34.398  1.00  0.00     0.041 A 
ATOM     55  F   UNL A   1      43.626  32.998  32.322  1.00  0.00    -0.206 F 
ATOM     56  C   UNL A   1      42.577  33.863  35.675  1.00  0.00     0.022 A 
BRANCH  53  57
ATOM     57  S   UNL A   1      41.230  32.521  37.711  1.00  0.00     0.124 S 
ATOM     58  O   UNL A   1      39.921  32.000  37.324  1.00  0.00    -0.237 OA
ATOM     59  O   UNL A   1      42.089  31.607  38.455  1.00  0.00    -0.237 OA
ATOM     60  O   UNL A   1      41.223  33.900  38.195  1.00  0.00    -0.744 OA
ENDBRANCH  53  57
ENDBRANCH  36  50
BRANCH  37  61
ATOM     61  C   UNL A   1      42.538  24.089  27.381  1.00  0.00     0.023 A 
ATOM     62  C   UNL A   1      41.941  22.840  27.599  1.00  0.00     0.031 A 
ATOM     63  C   UNL A   1      43.163  24.326  26.145  1.00  0.00     0.131 A 
ATOM     64  C   UNL A   1      41.997  21.860  26.595  1.00  0.00     0.055 A 
ATOM     65  C   UNL A   1      43.191  23.359  25.139  1.00  0.00     0.041 A 
ATOM     66  F   UNL A   1      43.738  25.512  25.892  1.00  0.00    -0.206 F 
ATOM     67  C   UNL A   1      42.611  22.115  25.364  1.00  0.00     0.022 A 
BRANCH  64  68
ATOM     68  S   UNL A   1      41.280  20.229  26.929  1.00  0.00     0.124 S 
ATOM     69  O   UNL A   1      40.885  20.355  28.327  1.00  0.00    -0.237 OA
ATOM     70  O   UNL A   1      40.194  20.170  25.957  1.00  0.00    -0.237 OA
ATOM     71  O   UNL A   1      42.389  19.310  26.675  1.00  0.00    -0.744 OA
ENDBRANCH  64  68
ENDBRANCH  37  61
BRANCH  49  72
ATOM     72  C   UNL A   1      47.215  26.317  32.016  1.00  0.00     0.023 A 
ATOM     73  C   UNL A   1      47.425  25.411  33.069  1.00  0.00     0.031 A 
ATOM     74  C   UNL A   1      48.332  26.791  31.308  1.00  0.00     0.131 A 
ATOM     75  C   UNL A   1      48.733  25.041  33.417  1.00  0.00     0.055 A 
ATOM     76  C   UNL A   1      49.628  26.388  31.633  1.00  0.00     0.041 A 
ATOM     77  F   UNL A   1      48.181  27.662  30.298  1.00  0.00    -0.206 F 
ATOM     78  C   UNL A   1      49.834  25.517  32.700  1.00  0.00     0.022 A 
BRANCH  75  79
ATOM     79  S   UNL A   1      48.983  23.984  34.870  1.00  0.00     0.124 S 
ATOM     80  O   UNL A   1      50.425  24.080  35.072  1.00  0.00    -0.237 OA
ATOM     81  O   UNL A   1      48.153  24.635  35.878  1.00  0.00    -0.237 OA
ATOM     82  O   UNL A   1      48.506  22.674  34.428  1.00  0.00    -0.744 OA
ENDBRANCH  75  79
ENDBRANCH  49  72
ENDBRANCH  23  24
ENDBRANCH  16  18
ENDBRANCH  15  16
ENDBRANCH  14  15
ENDBRANCH   1  14
TORSDOF 17
ENDMDL
MODEL 2
REMARK VINA RESULT:      -9.4      3.867      9.539
REMARK SMILES Cc1nonc1CSCC(=O)OCCOC(=O)c1ccc(-c2c3nc(c(-c4cc(S(=O)(=O)[O-])ccc4F)c4ccc([nH]4)c(-c4cc(S(=O)(=O)[O-])ccc4F)c4nc(c(-c5cc(S(=O)(=O)[O-])ccc5F)c5ccc2[nH]5)C=C4)C=C3)cc1
REMARK SMILES IDX 13 1 12 2 10 3 11 4 9 5 8 6 7 7 6 8 1 9 2 10 3 11 4 12 5 13
REMARK SMILES IDX 14 14 15 15 16 16 17 17 18 18 19 19 80 20 20 21 79 22 21 23
REMARK SMILES IDX 22 24 23 25 73 26 24 27 78 28 72 29 74 30 25 31 77 32 71 33
REMARK SMILES IDX 70 34 26 36 58 37 38 38 57 39 39 40 42 41 56 42 75 43 40 44
REMARK SMILES IDX 41 45 55 47 76 48 43 49 27 50 28 51 36 52 29 53 35 54 37 55
REMARK SMILES IDX 34 56 30 57 31 58 32 59 33 60 59 61 60 62 68 63 61 64 67 65
REMARK SMILES IDX 69 66 66 67 62 68 63 69 64 70 65 71 44 72 45 73 53 74 46 75
REMARK SMILES IDX 52 76 54 77 51 78 47 79 48 80 49 81 50 82
REMARK H PARENT 74 35 42 46
REMARK Flexibility Score: inf
ROOT
ATOM      1  C   UNL A   1      32.488  29.399  24.811  1.00  0.00     0.274 C 
ENDROOT
BRANCH   1   2
ATOM      2  O   UNL A   1      31.659  28.292  24.404  1.00  0.00    -0.461 OA
BRANCH   2   3
ATOM      3  C   UNL A   1      31.281  28.292  23.100  1.00  0.00     0.316 C 
ATOM      4  O   UNL A   1      30.776  29.261  22.536  1.00  0.00    -0.251 OA
BRANCH   3   5
ATOM      5  C   UNL A   1      31.480  26.983  22.370  1.00  0.00     0.192 C 
BRANCH   5   6
ATOM      6  S   UNL A   1      32.682  25.810  23.069  1.00  0.00    -0.144 SA
BRANCH   6   7
ATOM      7  C   UNL A   1      31.594  24.434  23.581  1.00  0.00     0.132 C 
BRANCH   7   8
ATOM      8  C   UNL A   1      31.622  24.021  25.013  1.00  0.00     0.117 A 
ATOM      9  C   UNL A   1      29.943  25.705  26.123  1.00  0.00     0.073 C 
ATOM     10  C   UNL A   1      30.910  24.589  26.093  1.00  0.00     0.106 A 
ATOM     11  N   UNL A   1      31.234  23.954  27.220  1.00  0.00    -0.055 NA
ATOM     12  O   UNL A   1      32.107  22.949  26.835  1.00  0.00    -0.244 OA
ATOM     13  N   UNL A   1      32.342  22.989  25.466  1.00  0.00    -0.054 NA
ENDBRANCH   7   8
ENDBRANCH   6   7
ENDBRANCH   5   6
ENDBRANCH   3   5
ENDBRANCH   2   3
ENDBRANCH   1   2
BRANCH   1  14
ATOM     14  C   UNL A   1      31.741  30.369  25.723  1.00  0.00     0.275 C 
BRANCH  14  15
ATOM     15  O   UNL A   1      32.360  30.447  27.019  1.00  0.00    -0.458 OA
BRANCH  15  16
ATOM     16  C   UNL A   1      33.100  31.558  27.232  1.00  0.00     0.338 C 
ATOM     17  O   UNL A   1      32.762  32.717  27.065  1.00  0.00    -0.246 OA
BRANCH  16  18
ATOM     18  C   UNL A   1      34.430  31.192  27.729  1.00  0.00     0.060 A 
ATOM     19  C   UNL A   1      34.691  29.865  28.078  1.00  0.00     0.016 A 
ATOM     20  C   UNL A   1      35.356  32.201  28.000  1.00  0.00     0.016 A 
ATOM     21  C   UNL A   1      35.878  29.548  28.738  1.00  0.00     0.010 A 
ATOM     22  C   UNL A   1      36.555  31.875  28.635  1.00  0.00     0.010 A 
ATOM     23  C   UNL A   1      36.812  30.551  29.029  1.00  0.00    -0.014 A 
BRANCH  23  24
ATOM     24  C   UNL A   1      38.061  30.223  29.756  1.00  0.00     0.031 A 
ATOM     25  C   UNL A   1      39.039  29.241  29.178  1.00  0.00     0.074 A 
ATOM     26  C   UNL A   1      38.295  30.798  30.950  1.00  0.00     0.049 A 
ATOM     27  N   UNL A   1      40.126  28.748  29.712  1.00  0.00    -0.248 NA
ATOM     28  C   UNL A   1      38.748  28.743  27.825  1.00  0.00     0.031 C 
ATOM     29  C   UNL A   1      37.426  31.783  31.595  1.00  0.00     0.029 A 
ATOM     30  N   UNL A   1      39.323  30.622  31.838  1.00  0.00    -0.354 N 
ATOM     31  C   UNL A   1      40.654  27.879  28.763  1.00  0.00     0.074 A 
ATOM     32  C   UNL A   1      39.747  27.892  27.633  1.00  0.00     0.031 C 
ATOM     33  C   UNL A   1      37.950  32.111  32.787  1.00  0.00     0.029 A 
ATOM     34  C   UNL A   1      39.165  31.331  33.003  1.00  0.00     0.049 A 
ATOM     35  H   UNL A   1      40.099  30.043  31.658  1.00  0.00     0.167 HD
ATOM     36  C   UNL A   1      41.793  27.147  28.830  1.00  0.00     0.034 A 
ATOM     37  C   UNL A   1      39.895  31.325  34.134  1.00  0.00     0.034 A 
ATOM     38  C   UNL A   1      42.689  27.148  29.961  1.00  0.00     0.049 A 
ATOM     39  C   UNL A   1      41.108  30.444  34.218  1.00  0.00     0.074 A 
ATOM     40  C   UNL A   1      43.897  26.487  30.110  1.00  0.00     0.029 A 
ATOM     41  N   UNL A   1      42.467  27.836  31.148  1.00  0.00    -0.354 N 
ATOM     42  N   UNL A   1      41.594  29.622  33.317  1.00  0.00    -0.248 NA
ATOM     43  C   UNL A   1      41.867  30.484  35.474  1.00  0.00     0.031 C 
ATOM     44  C   UNL A   1      44.378  26.732  31.404  1.00  0.00     0.029 A 
ATOM     45  C   UNL A   1      43.495  27.586  32.045  1.00  0.00     0.049 A 
ATOM     46  H   UNL A   1      41.693  28.417  31.326  1.00  0.00     0.167 HD
ATOM     47  C   UNL A   1      42.721  29.050  33.895  1.00  0.00     0.074 A 
ATOM     48  C   UNL A   1      42.848  29.628  35.219  1.00  0.00     0.031 C 
ATOM     49  C   UNL A   1      43.580  28.136  33.376  1.00  0.00     0.034 A 
BRANCH  36  50
ATOM     50  C   UNL A   1      42.106  26.248  27.661  1.00  0.00     0.023 A 
ATOM     51  C   UNL A   1      41.673  24.910  27.617  1.00  0.00     0.031 A 
ATOM     52  C   UNL A   1      42.861  26.736  26.581  1.00  0.00     0.131 A 
ATOM     53  C   UNL A   1      42.043  24.093  26.537  1.00  0.00     0.055 A 
ATOM     54  C   UNL A   1      43.177  25.934  25.483  1.00  0.00     0.041 A 
ATOM     55  F   UNL A   1      43.315  27.999  26.582  1.00  0.00    -0.206 F 
ATOM     56  C   UNL A   1      42.775  24.602  25.461  1.00  0.00     0.022 A 
BRANCH  53  57
ATOM     57  S   UNL A   1      41.630  22.327  26.592  1.00  0.00     0.124 S 
ATOM     58  O   UNL A   1      42.261  21.837  25.370  1.00  0.00    -0.237 OA
ATOM     59  O   UNL A   1      42.239  21.897  27.846  1.00  0.00    -0.237 OA
ATOM     60  O   UNL A   1      40.168  22.316  26.575  1.00  0.00    -0.744 OA
ENDBRANCH  53  57
ENDBRANCH  36  50
BRANCH  37  61
ATOM     61  C   UNL A   1      39.452  32.128  35.303  1.00  0.00     0.023 A 
ATOM     62  C   UNL A   1      38.678  31.562  36.324  1.00  0.00     0.031 A 
ATOM     63  C   UNL A   1      39.806  33.484  35.404  1.00  0.00     0.131 A 
ATOM     64  C   UNL A   1      38.266  32.358  37.404  1.00  0.00     0.055 A 
ATOM     65  C   UNL A   1      39.418  34.265  36.494  1.00  0.00     0.041 A 
ATOM     66  F   UNL A   1      40.555  34.063  34.452  1.00  0.00    -0.206 F 
ATOM     67  C   UNL A   1      38.638  33.703  37.499  1.00  0.00     0.022 A 
BRANCH  64  68
ATOM     68  S   UNL A   1      37.206  31.620  38.676  1.00  0.00     0.124 S 
ATOM     69  O   UNL A   1      37.027  30.264  38.168  1.00  0.00    -0.237 OA
ATOM     70  O   UNL A   1      38.031  31.754  39.873  1.00  0.00    -0.237 OA
ATOM     71  O   UNL A   1      36.009  32.458  38.653  1.00  0.00    -0.744 OA
ENDBRANCH  64  68
ENDBRANCH  37  61
BRANCH  49  72
ATOM     72  C   UNL A   1      44.729  27.726  34.256  1.00  0.00     0.023 A 
ATOM     73  C   UNL A   1      44.632  26.616  35.112  1.00  0.00     0.031 A 
ATOM     74  C   UNL A   1      45.916  28.477  34.266  1.00  0.00     0.131 A 
ATOM     75  C   UNL A   1      45.690  26.313  35.981  1.00  0.00     0.055 A 
ATOM     76  C   UNL A   1      46.982  28.147  35.104  1.00  0.00     0.041 A 
ATOM     77  F   UNL A   1      46.053  29.548  33.469  1.00  0.00    -0.206 F 
ATOM     78  C   UNL A   1      46.868  27.066  35.976  1.00  0.00     0.022 A 
BRANCH  75  79
ATOM     79  S   UNL A   1      45.480  24.963  37.175  1.00  0.00     0.124 S 
ATOM     80  O   UNL A   1      44.565  24.073  36.469  1.00  0.00    -0.237 OA
ATOM     81  O   UNL A   1      46.845  24.475  37.340  1.00  0.00    -0.237 OA
ATOM     82  O   UNL A   1      44.915  25.628  38.349  1.00  0.00    -0.744 OA
ENDBRANCH  75  79
ENDBRANCH  49  72
ENDBRANCH  23  24
ENDBRANCH  16  18
ENDBRANCH  15  16
ENDBRANCH  14  15
ENDBRANCH   1  14
TORSDOF 17
ENDMDL
MODEL 3
REMARK VINA RESULT:      -9.2      4.292      9.864
REMARK SMILES Cc1nonc1CSCC(=O)OCCOC(=O)c1ccc(-c2c3nc(c(-c4cc(S(=O)(=O)[O-])ccc4F)c4ccc([nH]4)c(-c4cc(S(=O)(=O)[O-])ccc4F)c4nc(c(-c5cc(S(=O)(=O)[O-])ccc5F)c5ccc2[nH]5)C=C4)C=C3)cc1
REMARK SMILES IDX 13 1 12 2 10 3 11 4 9 5 8 6 7 7 6 8 1 9 2 10 3 11 4 12 5 13
REMARK SMILES IDX 14 14 15 15 16 16 17 17 18 18 19 19 80 20 20 21 79 22 21 23
REMARK SMILES IDX 22 24 23 25 73 26 24 27 78 28 72 29 74 30 25 31 77 32 71 33
REMARK SMILES IDX 70 34 26 36 58 37 38 38 57 39 39 40 42 41 56 42 75 43 40 44
REMARK SMILES IDX 41 45 55 47 76 48 43 49 27 50 28 51 36 52 29 53 35 54 37 55
REMARK SMILES IDX 34 56 30 57 31 58 32 59 33 60 59 61 60 62 68 63 61 64 67 65
REMARK SMILES IDX 69 66 66 67 62 68 63 69 64 70 65 71 44 72 45 73 53 74 46 75
REMARK SMILES IDX 52 76 54 77 51 78 47 79 48 80 49 81 50 82
REMARK H PARENT 74 35 42 46
REMARK Flexibility Score: inf
ROOT
ATOM      1  C   UNL A   1      33.287  29.258  24.874  1.00  0.00     0.274 C 
ENDROOT
BRANCH   1   2
ATOM      2  O   UNL A   1      32.760  28.031  24.332  1.00  0.00    -0.461 OA
BRANCH   2   3
ATOM      3  C   UNL A   1      32.888  26.937  25.126  1.00  0.00     0.316 C 
ATOM      4  O   UNL A   1      33.640  26.884  26.097  1.00  0.00    -0.251 OA
BRANCH   3   5
ATOM      5  C   UNL A   1      32.063  25.740  24.713  1.00  0.00     0.192 C 
BRANCH   5   6
ATOM      6  S   UNL A   1      31.068  25.891  23.198  1.00  0.00    -0.144 SA
BRANCH   6   7
ATOM      7  C   UNL A   1      29.774  27.068  23.726  1.00  0.00     0.132 C 
BRANCH   7   8
ATOM      8  C   UNL A   1      29.448  28.199  22.813  1.00  0.00     0.117 A 
ATOM      9  C   UNL A   1      26.925  28.667  23.365  1.00  0.00     0.073 C 
ATOM     10  C   UNL A   1      28.211  28.867  22.666  1.00  0.00     0.106 A 
ATOM     11  N   UNL A   1      28.320  29.802  21.722  1.00  0.00    -0.055 NA
ATOM     12  O   UNL A   1      29.645  29.759  21.317  1.00  0.00    -0.244 OA
ATOM     13  N   UNL A   1      30.343  28.768  21.998  1.00  0.00    -0.054 NA
ENDBRANCH   7   8
ENDBRANCH   6   7
ENDBRANCH   5   6
ENDBRANCH   3   5
ENDBRANCH   2   3
ENDBRANCH   1   2
BRANCH   1  14
ATOM     14  C   UNL A   1      32.212  30.084  25.576  1.00  0.00     0.275 C 
BRANCH  14  15
ATOM     15  O   UNL A   1      32.512  30.249  26.973  1.00  0.00    -0.458 OA
BRANCH  15  16
ATOM     16  C   UNL A   1      33.171  31.388  27.284  1.00  0.00     0.338 C 
ATOM     17  O   UNL A   1      32.746  32.529  27.227  1.00  0.00    -0.246 OA
BRANCH  16  18
ATOM     18  C   UNL A   1      34.531  31.078  27.736  1.00  0.00     0.060 A 
ATOM     19  C   UNL A   1      34.851  29.768  28.100  1.00  0.00     0.016 A 
ATOM     20  C   UNL A   1      35.430  32.123  27.953  1.00  0.00     0.016 A 
ATOM     21  C   UNL A   1      36.072  29.505  28.720  1.00  0.00     0.010 A 
ATOM     22  C   UNL A   1      36.663  31.852  28.549  1.00  0.00     0.010 A 
ATOM     23  C   UNL A   1      36.981  30.545  28.957  1.00  0.00    -0.014 A 
BRANCH  23  24
ATOM     24  C   UNL A   1      38.267  30.276  29.641  1.00  0.00     0.031 A 
ATOM     25  C   UNL A   1      39.271  29.343  29.028  1.00  0.00     0.074 A 
ATOM     26  C   UNL A   1      38.512  30.857  30.829  1.00  0.00     0.049 A 
ATOM     27  N   UNL A   1      40.398  28.901  29.524  1.00  0.00    -0.248 NA
ATOM     28  C   UNL A   1      38.961  28.836  27.683  1.00  0.00     0.031 C 
ATOM     29  C   UNL A   1      37.618  31.797  31.507  1.00  0.00     0.029 A 
ATOM     30  N   UNL A   1      39.575  30.728  31.683  1.00  0.00    -0.354 N 
ATOM     31  C   UNL A   1      40.935  28.061  28.555  1.00  0.00     0.074 A 
ATOM     32  C   UNL A   1      39.992  28.034  27.455  1.00  0.00     0.031 C 
ATOM     33  C   UNL A   1      38.164  32.146  32.683  1.00  0.00     0.029 A 
ATOM     34  C   UNL A   1      39.421  31.425  32.856  1.00  0.00     0.049 A 
ATOM     35  H   UNL A   1      40.372  30.187  31.476  1.00  0.00     0.167 HD
ATOM     36  C   UNL A   1      42.110  27.384  28.581  1.00  0.00     0.034 A 
ATOM     37  C   UNL A   1      40.187  31.450  33.963  1.00  0.00     0.034 A 
ATOM     38  C   UNL A   1      43.040  27.424  29.683  1.00  0.00     0.049 A 
ATOM     39  C   UNL A   1      41.443  30.628  34.003  1.00  0.00     0.074 A 
ATOM     40  C   UNL A   1      44.283  26.822  29.790  1.00  0.00     0.029 A 
ATOM     41  N   UNL A   1      42.825  28.097  30.879  1.00  0.00    -0.354 N 
ATOM     42  N   UNL A   1      41.938  29.833  33.084  1.00  0.00    -0.248 NA
ATOM     43  C   UNL A   1      42.240  30.700  35.235  1.00  0.00     0.031 C 
ATOM     44  C   UNL A   1      44.793  27.086  31.068  1.00  0.00     0.029 A 
ATOM     45  C   UNL A   1      43.892  27.894  31.742  1.00  0.00     0.049 A 
ATOM     46  H   UNL A   1      42.030  28.640  31.085  1.00  0.00     0.167 HD
ATOM     47  C   UNL A   1      43.109  29.314  33.623  1.00  0.00     0.074 A 
ATOM     48  C   UNL A   1      43.251  29.894  34.944  1.00  0.00     0.031 C 
ATOM     49  C   UNL A   1      43.993  28.443  33.072  1.00  0.00     0.034 A 
BRANCH  36  50
ATOM     50  C   UNL A   1      42.426  26.504  27.399  1.00  0.00     0.023 A 
ATOM     51  C   UNL A   1      42.078  25.142  27.373  1.00  0.00     0.031 A 
ATOM     52  C   UNL A   1      43.101  27.038  26.287  1.00  0.00     0.131 A 
ATOM     53  C   UNL A   1      42.451  24.348  26.276  1.00  0.00     0.055 A 
ATOM     54  C   UNL A   1      43.419  26.256  25.176  1.00  0.00     0.041 A 
ATOM     55  F   UNL A   1      43.473  28.327  26.269  1.00  0.00    -0.206 F 
ATOM     56  C   UNL A   1      43.101  24.900  25.170  1.00  0.00     0.022 A 
BRANCH  53  57
ATOM     57  S   UNL A   1      42.153  22.560  26.348  1.00  0.00     0.124 S 
ATOM     58  O   UNL A   1      42.695  22.118  25.065  1.00  0.00    -0.237 OA
ATOM     59  O   UNL A   1      42.904  22.160  27.533  1.00  0.00    -0.237 OA
ATOM     60  O   UNL A   1      40.700  22.458  26.469  1.00  0.00    -0.744 OA
ENDBRANCH  53  57
ENDBRANCH  36  50
BRANCH  37  61
ATOM     61  C   UNL A   1      39.745  32.228  35.149  1.00  0.00     0.023 A 
ATOM     62  C   UNL A   1      40.203  33.532  35.377  1.00  0.00     0.031 A 
ATOM     63  C   UNL A   1      38.850  31.661  36.073  1.00  0.00     0.131 A 
ATOM     64  C   UNL A   1      39.776  34.227  36.519  1.00  0.00     0.055 A 
ATOM     65  C   UNL A   1      38.405  32.367  37.191  1.00  0.00     0.041 A 
ATOM     66  F   UNL A   1      38.379  30.418  35.887  1.00  0.00    -0.206 F 
ATOM     67  C   UNL A   1      38.874  33.656  37.422  1.00  0.00     0.022 A 
BRANCH  64  68
ATOM     68  S   UNL A   1      40.439  35.886  36.828  1.00  0.00     0.124 S 
ATOM     69  O   UNL A   1      39.638  36.703  35.922  1.00  0.00    -0.237 OA
ATOM     70  O   UNL A   1      40.174  36.059  38.252  1.00  0.00    -0.237 OA
ATOM     71  O   UNL A   1      41.851  35.761  36.471  1.00  0.00    -0.744 OA
ENDBRANCH  64  68
ENDBRANCH  37  61
BRANCH  49  72
ATOM     72  C   UNL A   1      45.189  28.086  33.913  1.00  0.00     0.023 A 
ATOM     73  C   UNL A   1      46.381  28.825  33.834  1.00  0.00     0.031 A 
ATOM     74  C   UNL A   1      45.147  26.973  34.768  1.00  0.00     0.131 A 
ATOM     75  C   UNL A   1      47.504  28.413  34.566  1.00  0.00     0.055 A 
ATOM     76  C   UNL A   1      46.255  26.591  35.525  1.00  0.00     0.041 A 
ATOM     77  F   UNL A   1      44.031  26.234  34.872  1.00  0.00    -0.206 F 
ATOM     78  C   UNL A   1      47.445  27.306  35.418  1.00  0.00     0.022 A 
BRANCH  75  79
ATOM     79  S   UNL A   1      49.071  29.299  34.336  1.00  0.00     0.124 S 
ATOM     80  O   UNL A   1      49.255  29.220  32.890  1.00  0.00    -0.237 OA
ATOM     81  O   UNL A   1      48.763  30.622  34.868  1.00  0.00    -0.237 OA
ATOM     82  O   UNL A   1      50.025  28.521  35.125  1.00  0.00    -0.744 OA
ENDBRANCH  75  79
ENDBRANCH  49  72
ENDBRANCH  23  24
ENDBRANCH  16  18
ENDBRANCH  15  16
ENDBRANCH  14  15
ENDBRANCH   1  14
TORSDOF 17
ENDMDL
