MODEL 1
REMARK VINA RESULT:     -10.2      0.000      0.000
REMARK SMILES C[C@H](CC[NH2+][C@@H]1CCOC2(CCC2)C1)CCC(=O)OCCOC(=O)c1ccc(-c2c3nc(c(-c4cc(S(=O)(=O)[O-])ccc4F)c4ccc([nH]4)c(-c4cc(S(=O)(=O)[O-])ccc4F)c4nc(c(-c5cc(S(=O)(=O)[O-])ccc5F)c5ccc2[nH]5)C=C4)C=C3)cc1
REMARK SMILES IDX 19 1 17 2 18 3 16 4 15 5 2 6 1 7 3 8 4 9 5 10 6 13 7 14
REMARK SMILES IDX 14 15 8 16 10 17 9 18 11 19 13 20 12 21 20 22 21 23 22 24
REMARK SMILES IDX 23 25 24 26 25 27 26 28 87 29 27 30 86 31 28 32 29 33 30 34
REMARK SMILES IDX 80 35 31 36 85 37 79 38 81 39 32 40 84 41 78 42 77 43 33 45
REMARK SMILES IDX 65 46 45 47 64 48 46 49 49 50 63 51 82 52 47 53 48 54 62 56
REMARK SMILES IDX 83 57 50 58 34 59 35 60 43 61 36 62 42 63 44 64 41 65 37 66
REMARK SMILES IDX 38 67 39 68 40 69 66 70 67 71 75 72 68 73 74 74 76 75 73 76
REMARK SMILES IDX 69 77 70 78 71 79 72 80 51 81 52 82 60 83 53 84 59 85 61 86
REMARK SMILES IDX 58 87 54 88 55 89 56 90 57 91
REMARK H PARENT 5 11 5 12 81 44 49 55
REMARK Flexibility Score: inf
ROOT
ATOM      1  O   UNL A   1      32.517  29.707  24.611  1.00  0.00    -0.462 OA
ENDROOT
BRANCH   1   2
ATOM      2  C   UNL A   1      32.310  28.743  23.680  1.00  0.00     0.305 C 
ATOM      3  O   UNL A   1      32.873  28.691  22.593  1.00  0.00    -0.252 OA
BRANCH   2   4
ATOM      4  C   UNL A   1      31.240  27.755  24.090  1.00  0.00     0.123 C 
BRANCH   4   5
ATOM      5  C   UNL A   1      31.397  26.320  23.571  1.00  0.00     0.015 C 
BRANCH   5   6
ATOM      6  C   UNL A   1      30.332  25.296  24.016  1.00  0.00    -0.008 C 
ATOM      7  C   UNL A   1      30.240  25.299  25.547  1.00  0.00     0.008 C 
BRANCH   6   8
ATOM      8  C   UNL A   1      30.652  23.898  23.460  1.00  0.00     0.064 C 
BRANCH   8   9
ATOM      9  C   UNL A   1      32.132  23.536  23.352  1.00  0.00     0.261 C 
BRANCH   9  10
ATOM     10  N   UNL A   1      32.650  23.106  24.640  1.00  0.00    -0.344 N 
ATOM     11  H   UNL A   1      31.896  23.209  25.320  1.00  0.00     0.346 HD
ATOM     12  H   UNL A   1      33.469  23.693  24.794  1.00  0.00     0.346 HD
BRANCH  10  13
ATOM     13  C   UNL A   1      33.157  21.733  24.758  1.00  0.00     0.187 C 
ATOM     14  C   UNL A   1      33.088  21.012  26.116  1.00  0.00     0.093 C 
ATOM     15  C   UNL A   1      34.604  21.720  24.234  1.00  0.00     0.100 C 
ATOM     16  C   UNL A   1      34.156  21.452  27.109  1.00  0.00     0.167 C 
ATOM     17  C   UNL A   1      35.564  22.268  25.292  1.00  0.00     0.074 C 
ATOM     18  O   UNL A   1      35.442  21.472  26.501  1.00  0.00    -0.375 OA
ATOM     19  C   UNL A   1      37.034  22.390  24.785  1.00  0.00     0.036 C 
ATOM     20  C   UNL A   1      35.604  23.819  25.472  1.00  0.00     0.036 C 
ATOM     21  C   UNL A   1      37.135  23.721  25.551  1.00  0.00     0.006 C 
ENDBRANCH  10  13
ENDBRANCH   9  10
ENDBRANCH   8   9
ENDBRANCH   6   8
ENDBRANCH   5   6
ENDBRANCH   4   5
ENDBRANCH   2   4
ENDBRANCH   1   2
BRANCH   1  22
ATOM     22  C   UNL A   1      31.347  30.269  25.228  1.00  0.00     0.274 C 
BRANCH  22  23
ATOM     23  C   UNL A   1      31.696  30.936  26.559  1.00  0.00     0.275 C 
BRANCH  23  24
ATOM     24  O   UNL A   1      33.091  30.768  26.870  1.00  0.00    -0.458 OA
BRANCH  24  25
ATOM     25  C   UNL A   1      33.691  31.841  27.438  1.00  0.00     0.338 C 
ATOM     26  O   UNL A   1      33.234  32.964  27.561  1.00  0.00    -0.246 OA
BRANCH  25  27
ATOM     27  C   UNL A   1      34.976  31.420  28.016  1.00  0.00     0.060 A 
ATOM     28  C   UNL A   1      35.089  30.119  28.510  1.00  0.00     0.016 A 
ATOM     29  C   UNL A   1      36.038  32.316  28.134  1.00  0.00     0.016 A 
ATOM     30  C   UNL A   1      36.260  29.703  29.133  1.00  0.00     0.010 A 
ATOM     31  C   UNL A   1      37.221  31.894  28.751  1.00  0.00     0.010 A 
ATOM     32  C   UNL A   1      37.334  30.589  29.263  1.00  0.00    -0.014 A 
BRANCH  32  33
ATOM     33  C   UNL A   1      38.552  30.159  29.990  1.00  0.00     0.031 A 
ATOM     34  C   UNL A   1      39.475  29.157  29.359  1.00  0.00     0.074 A 
ATOM     35  C   UNL A   1      38.837  30.688  31.194  1.00  0.00     0.049 A 
ATOM     36  N   UNL A   1      40.532  28.573  29.859  1.00  0.00    -0.248 NA
ATOM     37  C   UNL A   1      39.158  28.758  27.981  1.00  0.00     0.031 C 
ATOM     38  C   UNL A   1      38.044  31.714  31.874  1.00  0.00     0.029 A 
ATOM     39  N   UNL A   1      39.868  30.432  32.062  1.00  0.00    -0.354 N 
ATOM     40  C   UNL A   1      41.001  27.723  28.865  1.00  0.00     0.074 A 
ATOM     41  C   UNL A   1      40.092  27.851  27.743  1.00  0.00     0.031 C 
ATOM     42  C   UNL A   1      38.614  31.994  33.057  1.00  0.00     0.029 A 
ATOM     43  C   UNL A   1      39.780  31.133  33.242  1.00  0.00     0.049 A 
ATOM     44  H   UNL A   1      40.602  29.808  31.860  1.00  0.00     0.167 HD
ATOM     45  C   UNL A   1      42.089  26.913  28.888  1.00  0.00     0.034 A 
ATOM     46  C   UNL A   1      40.529  31.058  34.360  1.00  0.00     0.034 A 
ATOM     47  C   UNL A   1      42.977  26.799  30.021  1.00  0.00     0.049 A 
ATOM     48  C   UNL A   1      41.684  30.091  34.395  1.00  0.00     0.074 A 
ATOM     49  C   UNL A   1      44.104  26.008  30.160  1.00  0.00     0.029 A 
ATOM     50  N   UNL A   1      42.832  27.492  31.217  1.00  0.00    -0.354 N 
ATOM     51  N   UNL A   1      42.101  29.267  33.461  1.00  0.00    -0.248 NA
ATOM     52  C   UNL A   1      42.471  30.046  35.633  1.00  0.00     0.031 C 
ATOM     53  C   UNL A   1      44.604  26.177  31.456  1.00  0.00     0.029 A 
ATOM     54  C   UNL A   1      43.832  27.126  32.106  1.00  0.00     0.049 A 
ATOM     55  H   UNL A   1      42.122  28.149  31.406  1.00  0.00     0.167 HD
ATOM     56  C   UNL A   1      43.211  28.619  33.995  1.00  0.00     0.074 A 
ATOM     57  C   UNL A   1      43.407  29.161  35.324  1.00  0.00     0.031 C 
ATOM     58  C   UNL A   1      44.000  27.666  33.436  1.00  0.00     0.034 A 
BRANCH  45  59
ATOM     59  C   UNL A   1      42.331  26.049  27.674  1.00  0.00     0.023 A 
ATOM     60  C   UNL A   1      41.832  24.738  27.584  1.00  0.00     0.031 A 
ATOM     61  C   UNL A   1      43.117  26.528  26.611  1.00  0.00     0.131 A 
ATOM     62  C   UNL A   1      42.185  23.927  26.494  1.00  0.00     0.055 A 
ATOM     63  C   UNL A   1      43.400  25.743  25.492  1.00  0.00     0.041 A 
ATOM     64  F   UNL A   1      43.640  27.764  26.651  1.00  0.00    -0.206 F 
ATOM     65  C   UNL A   1      42.947  24.429  25.436  1.00  0.00     0.022 A 
BRANCH  62  66
ATOM     66  S   UNL A   1      41.760  22.164  26.549  1.00  0.00     0.124 S 
ATOM     67  O   UNL A   1      40.302  22.209  26.464  1.00  0.00    -0.237 OA
ATOM     68  O   UNL A   1      42.453  21.636  25.381  1.00  0.00    -0.237 OA
ATOM     69  O   UNL A   1      42.287  21.725  27.840  1.00  0.00    -0.744 OA
ENDBRANCH  62  66
ENDBRANCH  45  59
BRANCH  46  70
ATOM     70  C   UNL A   1      40.176  31.874  35.556  1.00  0.00     0.023 A 
ATOM     71  C   UNL A   1      39.166  31.469  36.442  1.00  0.00     0.031 A 
ATOM     72  C   UNL A   1      40.825  33.096  35.808  1.00  0.00     0.131 A 
ATOM     73  C   UNL A   1      38.810  32.296  37.519  1.00  0.00     0.055 A 
ATOM     74  C   UNL A   1      40.502  33.891  36.909  1.00  0.00     0.041 A 
ATOM     75  F   UNL A   1      41.798  33.529  34.990  1.00  0.00    -0.206 F 
ATOM     76  C   UNL A   1      39.479  33.497  37.766  1.00  0.00     0.022 A 
BRANCH  73  77
ATOM     77  S   UNL A   1      37.403  31.814  38.557  1.00  0.00     0.124 S 
ATOM     78  O   UNL A   1      36.418  32.835  38.218  1.00  0.00    -0.237 OA
ATOM     79  O   UNL A   1      37.121  30.465  38.078  1.00  0.00    -0.237 OA
ATOM     80  O   UNL A   1      37.939  31.889  39.915  1.00  0.00    -0.744 OA
ENDBRANCH  73  77
ENDBRANCH  46  70
BRANCH  58  81
ATOM     81  C   UNL A   1      45.170  27.184  34.258  1.00  0.00     0.023 A 
ATOM     82  C   UNL A   1      45.058  26.090  35.135  1.00  0.00     0.031 A 
ATOM     83  C   UNL A   1      46.409  27.842  34.175  1.00  0.00     0.131 A 
ATOM     84  C   UNL A   1      46.151  25.721  35.933  1.00  0.00     0.055 A 
ATOM     85  C   UNL A   1      47.510  27.436  34.931  1.00  0.00     0.041 A 
ATOM     86  F   UNL A   1      46.570  28.894  33.355  1.00  0.00    -0.206 F 
ATOM     87  C   UNL A   1      47.380  26.377  35.825  1.00  0.00     0.022 A 
BRANCH  84  88
ATOM     88  S   UNL A   1      45.923  24.422  37.178  1.00  0.00     0.124 S 
ATOM     89  O   UNL A   1      44.872  24.987  38.017  1.00  0.00    -0.237 OA
ATOM     90  O   UNL A   1      45.540  23.273  36.364  1.00  0.00    -0.237 OA
ATOM     91  O   UNL A   1      47.236  24.320  37.812  1.00  0.00    -0.744 OA
ENDBRANCH  84  88
ENDBRANCH  58  81
ENDBRANCH  32  33
ENDBRANCH  25  27
ENDBRANCH  24  25
ENDBRANCH  23  24
ENDBRANCH  22  23
ENDBRANCH   1  22
TORSDOF 20
ENDMDL
MODEL 2
REMARK VINA RESULT:     -10.0      2.386      8.580
REMARK SMILES C[C@H](CC[NH2+][C@@H]1CCOC2(CCC2)C1)CCC(=O)OCCOC(=O)c1ccc(-c2c3nc(c(-c4cc(S(=O)(=O)[O-])ccc4F)c4ccc([nH]4)c(-c4cc(S(=O)(=O)[O-])ccc4F)c4nc(c(-c5cc(S(=O)(=O)[O-])ccc5F)c5ccc2[nH]5)C=C4)C=C3)cc1
REMARK SMILES IDX 19 1 17 2 18 3 16 4 15 5 2 6 1 7 3 8 4 9 5 10 6 13 7 14
REMARK SMILES IDX 14 15 8 16 10 17 9 18 11 19 13 20 12 21 20 22 21 23 22 24
REMARK SMILES IDX 23 25 24 26 25 27 26 28 87 29 27 30 86 31 28 32 29 33 30 34
REMARK SMILES IDX 80 35 31 36 85 37 79 38 81 39 32 40 84 41 78 42 77 43 33 45
REMARK SMILES IDX 65 46 45 47 64 48 46 49 49 50 63 51 82 52 47 53 48 54 62 56
REMARK SMILES IDX 83 57 50 58 34 59 35 60 43 61 36 62 42 63 44 64 41 65 37 66
REMARK SMILES IDX 38 67 39 68 40 69 66 70 67 71 75 72 68 73 74 74 76 75 73 76
REMARK SMILES IDX 69 77 70 78 71 79 72 80 51 81 52 82 60 83 53 84 59 85 61 86
REMARK SMILES IDX 58 87 54 88 55 89 56 90 57 91
REMARK H PARENT 5 11 5 12 81 44 49 55
REMARK Flexibility Score: inf
ROOT
ATOM      1  O   UNL A   1      32.610  30.495  27.489  1.00  0.00    -0.462 OA
ENDROOT
BRANCH   1   2
ATOM      2  C   UNL A   1      33.825  29.951  27.231  1.00  0.00     0.305 C 
ATOM      3  O   UNL A   1      34.840  30.594  26.990  1.00  0.00    -0.252 OA
BRANCH   2   4
ATOM      4  C   UNL A   1      33.792  28.439  27.198  1.00  0.00     0.123 C 
BRANCH   4   5
ATOM      5  C   UNL A   1      33.739  27.785  25.812  1.00  0.00     0.015 C 
BRANCH   5   6
ATOM      6  C   UNL A   1      33.348  26.292  25.759  1.00  0.00    -0.008 C 
ATOM      7  C   UNL A   1      34.048  25.632  24.565  1.00  0.00     0.008 C 
BRANCH   6   8
ATOM      8  C   UNL A   1      31.820  26.130  25.694  1.00  0.00     0.064 C 
BRANCH   8   9
ATOM      9  C   UNL A   1      30.992  27.345  26.110  1.00  0.00     0.261 C 
BRANCH   9  10
ATOM     10  N   UNL A   1      30.824  28.258  24.992  1.00  0.00    -0.344 N 
ATOM     11  H   UNL A   1      31.701  28.768  24.881  1.00  0.00     0.346 HD
ATOM     12  H   UNL A   1      30.012  28.822  25.244  1.00  0.00     0.346 HD
BRANCH  10  13
ATOM     13  C   UNL A   1      30.482  27.691  23.682  1.00  0.00     0.187 C 
ATOM     14  C   UNL A   1      31.423  27.922  22.486  1.00  0.00     0.093 C 
ATOM     15  C   UNL A   1      29.060  28.157  23.324  1.00  0.00     0.100 C 
ATOM     16  C   UNL A   1      31.318  29.311  21.870  1.00  0.00     0.167 C 
ATOM     17  C   UNL A   1      29.081  29.596  22.802  1.00  0.00     0.074 C 
ATOM     18  O   UNL A   1      29.958  29.669  21.647  1.00  0.00    -0.375 OA
ATOM     19  C   UNL A   1      27.659  30.172  22.528  1.00  0.00     0.036 C 
ATOM     20  C   UNL A   1      29.226  30.730  23.867  1.00  0.00     0.036 C 
ATOM     21  C   UNL A   1      28.144  31.512  23.108  1.00  0.00     0.006 C 
ENDBRANCH  10  13
ENDBRANCH   9  10
ENDBRANCH   8   9
ENDBRANCH   6   8
ENDBRANCH   5   6
ENDBRANCH   4   5
ENDBRANCH   2   4
ENDBRANCH   1   2
BRANCH   1  22
ATOM     22  C   UNL A   1      32.115  31.448  26.532  1.00  0.00     0.274 C 
BRANCH  22  23
ATOM     23  C   UNL A   1      31.769  32.775  27.209  1.00  0.00     0.275 C 
BRANCH  23  24
ATOM     24  O   UNL A   1      32.853  33.714  27.086  1.00  0.00    -0.458 OA
BRANCH  24  25
ATOM     25  C   UNL A   1      33.272  34.271  28.246  1.00  0.00     0.338 C 
ATOM     26  O   UNL A   1      32.768  35.208  28.840  1.00  0.00    -0.246 OA
BRANCH  25  27
ATOM     27  C   UNL A   1      34.394  33.483  28.778  1.00  0.00     0.060 A 
ATOM     28  C   UNL A   1      34.136  32.562  29.796  1.00  0.00     0.016 A 
ATOM     29  C   UNL A   1      35.697  33.694  28.327  1.00  0.00     0.016 A 
ATOM     30  C   UNL A   1      35.179  31.850  30.379  1.00  0.00     0.010 A 
ATOM     31  C   UNL A   1      36.744  32.969  28.907  1.00  0.00     0.010 A 
ATOM     32  C   UNL A   1      36.492  32.052  29.943  1.00  0.00    -0.014 A 
BRANCH  32  33
ATOM     33  C   UNL A   1      37.603  31.341  30.618  1.00  0.00     0.031 A 
ATOM     34  C   UNL A   1      37.959  31.698  32.032  1.00  0.00     0.074 A 
ATOM     35  C   UNL A   1      38.266  30.364  29.972  1.00  0.00     0.049 A 
ATOM     36  N   UNL A   1      38.953  31.275  32.769  1.00  0.00    -0.248 NA
ATOM     37  C   UNL A   1      37.078  32.666  32.700  1.00  0.00     0.031 C 
ATOM     38  C   UNL A   1      37.964  29.892  28.619  1.00  0.00     0.029 A 
ATOM     39  N   UNL A   1      39.332  29.596  30.364  1.00  0.00    -0.354 N 
ATOM     40  C   UNL A   1      38.829  31.936  33.985  1.00  0.00     0.074 A 
ATOM     41  C   UNL A   1      37.678  32.809  33.872  1.00  0.00     0.031 C 
ATOM     42  C   UNL A   1      38.831  28.920  28.292  1.00  0.00     0.029 A 
ATOM     43  C   UNL A   1      39.780  28.738  29.388  1.00  0.00     0.049 A 
ATOM     44  H   UNL A   1      39.738  29.652  31.259  1.00  0.00     0.167 HD
ATOM     45  C   UNL A   1      39.605  31.823  35.092  1.00  0.00     0.034 A 
ATOM     46  C   UNL A   1      40.857  27.927  29.364  1.00  0.00     0.034 A 
ATOM     47  C   UNL A   1      40.752  30.949  35.179  1.00  0.00     0.049 A 
ATOM     48  C   UNL A   1      41.753  27.878  30.575  1.00  0.00     0.074 A 
ATOM     49  C   UNL A   1      41.614  30.757  36.245  1.00  0.00     0.029 A 
ATOM     50  N   UNL A   1      41.203  30.126  34.154  1.00  0.00    -0.354 N 
ATOM     51  N   UNL A   1      41.648  28.531  31.708  1.00  0.00    -0.248 NA
ATOM     52  C   UNL A   1      42.913  26.981  30.501  1.00  0.00     0.031 C 
ATOM     53  C   UNL A   1      42.616  29.866  35.845  1.00  0.00     0.029 A 
ATOM     54  C   UNL A   1      42.344  29.446  34.553  1.00  0.00     0.049 A 
ATOM     55  H   UNL A   1      40.773  30.037  33.272  1.00  0.00     0.167 HD
ATOM     56  C   UNL A   1      42.718  28.108  32.491  1.00  0.00     0.074 A 
ATOM     57  C   UNL A   1      43.445  27.133  31.705  1.00  0.00     0.031 C 
ATOM     58  C   UNL A   1      43.066  28.488  33.748  1.00  0.00     0.034 A 
BRANCH  45  59
ATOM     59  C   UNL A   1      39.268  32.712  36.264  1.00  0.00     0.023 A 
ATOM     60  C   UNL A   1      39.861  33.976  36.431  1.00  0.00     0.031 A 
ATOM     61  C   UNL A   1      38.378  32.266  37.256  1.00  0.00     0.131 A 
ATOM     62  C   UNL A   1      39.614  34.716  37.598  1.00  0.00     0.055 A 
ATOM     63  C   UNL A   1      38.075  33.042  38.378  1.00  0.00     0.041 A 
ATOM     64  F   UNL A   1      37.799  31.059  37.163  1.00  0.00    -0.206 F 
ATOM     65  C   UNL A   1      38.706  34.268  38.562  1.00  0.00     0.022 A 
BRANCH  62  66
ATOM     66  S   UNL A   1      40.606  36.203  37.910  1.00  0.00     0.124 S 
ATOM     67  O   UNL A   1      41.275  36.386  36.625  1.00  0.00    -0.237 OA
ATOM     68  O   UNL A   1      39.593  37.193  38.251  1.00  0.00    -0.237 OA
ATOM     69  O   UNL A   1      41.485  35.804  39.009  1.00  0.00    -0.744 OA
ENDBRANCH  62  66
ENDBRANCH  45  59
BRANCH  46  70
ATOM     70  C   UNL A   1      41.183  27.146  28.137  1.00  0.00     0.023 A 
ATOM     71  C   UNL A   1      40.927  25.769  28.060  1.00  0.00     0.031 A 
ATOM     72  C   UNL A   1      41.793  27.768  27.032  1.00  0.00     0.131 A 
ATOM     73  C   UNL A   1      41.312  25.051  26.916  1.00  0.00     0.055 A 
ATOM     74  C   UNL A   1      42.128  27.059  25.878  1.00  0.00     0.041 A 
ATOM     75  F   UNL A   1      42.060  29.084  27.055  1.00  0.00    -0.206 F 
ATOM     76  C   UNL A   1      41.898  25.688  25.821  1.00  0.00     0.022 A 
BRANCH  73  77
ATOM     77  S   UNL A   1      41.101  23.249  26.910  1.00  0.00     0.124 S 
ATOM     78  O   UNL A   1      41.886  22.861  25.745  1.00  0.00    -0.237 OA
ATOM     79  O   UNL A   1      41.650  22.875  28.209  1.00  0.00    -0.237 OA
ATOM     80  O   UNL A   1      39.656  23.076  26.776  1.00  0.00    -0.744 OA
ENDBRANCH  73  77
ENDBRANCH  46  70
BRANCH  58  81
ATOM     81  C   UNL A   1      44.269  27.809  34.354  1.00  0.00     0.023 A 
ATOM     82  C   UNL A   1      44.149  26.630  35.112  1.00  0.00     0.031 A 
ATOM     83  C   UNL A   1      45.550  28.361  34.185  1.00  0.00     0.131 A 
ATOM     84  C   UNL A   1      45.286  26.071  35.716  1.00  0.00     0.055 A 
ATOM     85  C   UNL A   1      46.685  27.771  34.743  1.00  0.00     0.041 A 
ATOM     86  F   UNL A   1      45.720  29.487  33.473  1.00  0.00    -0.206 F 
ATOM     87  C   UNL A   1      46.554  26.626  35.524  1.00  0.00     0.022 A 
BRANCH  84  88
ATOM     88  S   UNL A   1      45.075  24.654  36.829  1.00  0.00     0.124 S 
ATOM     89  O   UNL A   1      44.146  25.184  37.822  1.00  0.00    -0.237 OA
ATOM     90  O   UNL A   1      44.537  23.633  35.935  1.00  0.00    -0.237 OA
ATOM     91  O   UNL A   1      46.428  24.397  37.318  1.00  0.00    -0.744 OA
ENDBRANCH  84  88
ENDBRANCH  58  81
ENDBRANCH  32  33
ENDBRANCH  25  27
ENDBRANCH  24  25
ENDBRANCH  23  24
ENDBRANCH  22  23
ENDBRANCH   1  22
TORSDOF 20
ENDMDL
MODEL 3
REMARK VINA RESULT:      -9.9      1.969      7.979
REMARK SMILES C[C@H](CC[NH2+][C@@H]1CCOC2(CCC2)C1)CCC(=O)OCCOC(=O)c1ccc(-c2c3nc(c(-c4cc(S(=O)(=O)[O-])ccc4F)c4ccc([nH]4)c(-c4cc(S(=O)(=O)[O-])ccc4F)c4nc(c(-c5cc(S(=O)(=O)[O-])ccc5F)c5ccc2[nH]5)C=C4)C=C3)cc1
REMARK SMILES IDX 19 1 17 2 18 3 16 4 15 5 2 6 1 7 3 8 4 9 5 10 6 13 7 14
REMARK SMILES IDX 14 15 8 16 10 17 9 18 11 19 13 20 12 21 20 22 21 23 22 24
REMARK SMILES IDX 23 25 24 26 25 27 26 28 87 29 27 30 86 31 28 32 29 33 30 34
REMARK SMILES IDX 80 35 31 36 85 37 79 38 81 39 32 40 84 41 78 42 77 43 33 45
REMARK SMILES IDX 65 46 45 47 64 48 46 49 49 50 63 51 82 52 47 53 48 54 62 56
REMARK SMILES IDX 83 57 50 58 34 59 35 60 43 61 36 62 42 63 44 64 41 65 37 66
REMARK SMILES IDX 38 67 39 68 40 69 66 70 67 71 75 72 68 73 74 74 76 75 73 76
REMARK SMILES IDX 69 77 70 78 71 79 72 80 51 81 52 82 60 83 53 84 59 85 61 86
REMARK SMILES IDX 58 87 54 88 55 89 56 90 57 91
REMARK H PARENT 5 11 5 12 81 44 49 55
REMARK Flexibility Score: inf
ROOT
ATOM      1  O   UNL A   1      32.418  30.229  27.283  1.00  0.00    -0.462 OA
ENDROOT
BRANCH   1   2
ATOM      2  C   UNL A   1      33.568  29.628  26.892  1.00  0.00     0.305 C 
ATOM      3  O   UNL A   1      34.679  30.142  26.956  1.00  0.00    -0.252 OA
BRANCH   2   4
ATOM      4  C   UNL A   1      33.338  28.259  26.291  1.00  0.00     0.123 C 
BRANCH   4   5
ATOM      5  C   UNL A   1      33.568  28.126  24.781  1.00  0.00     0.015 C 
BRANCH   5   6
ATOM      6  C   UNL A   1      32.462  27.425  23.965  1.00  0.00    -0.008 C 
ATOM      7  C   UNL A   1      31.245  27.186  24.868  1.00  0.00     0.008 C 
BRANCH   6   8
ATOM      8  C   UNL A   1      32.985  26.118  23.345  1.00  0.00     0.064 C 
BRANCH   8   9
ATOM      9  C   UNL A   1      33.888  25.263  24.233  1.00  0.00     0.261 C 
BRANCH   9  10
ATOM     10  N   UNL A   1      33.589  23.851  24.060  1.00  0.00    -0.344 N 
ATOM     11  H   UNL A   1      33.914  23.367  24.896  1.00  0.00     0.346 HD
ATOM     12  H   UNL A   1      34.057  23.598  23.189  1.00  0.00     0.346 HD
BRANCH  10  13
ATOM     13  C   UNL A   1      32.189  23.462  23.848  1.00  0.00     0.187 C 
ATOM     14  C   UNL A   1      31.206  23.491  25.031  1.00  0.00     0.093 C 
ATOM     15  C   UNL A   1      32.182  22.066  23.199  1.00  0.00     0.100 C 
ATOM     16  C   UNL A   1      31.348  22.316  25.989  1.00  0.00     0.167 C 
ATOM     17  C   UNL A   1      32.425  20.983  24.252  1.00  0.00     0.074 C 
ATOM     18  O   UNL A   1      31.404  21.082  25.280  1.00  0.00    -0.375 OA
ATOM     19  C   UNL A   1      32.545  19.551  23.646  1.00  0.00     0.036 C 
ATOM     20  C   UNL A   1      33.897  20.790  24.740  1.00  0.00     0.036 C 
ATOM     21  C   UNL A   1      33.674  19.273  24.654  1.00  0.00     0.006 C 
ENDBRANCH  10  13
ENDBRANCH   9  10
ENDBRANCH   8   9
ENDBRANCH   6   8
ENDBRANCH   5   6
ENDBRANCH   4   5
ENDBRANCH   2   4
ENDBRANCH   1   2
BRANCH   1  22
ATOM     22  C   UNL A   1      31.848  31.184  26.371  1.00  0.00     0.274 C 
BRANCH  22  23
ATOM     23  C   UNL A   1      31.741  32.565  27.020  1.00  0.00     0.275 C 
BRANCH  23  24
ATOM     24  O   UNL A   1      32.969  33.301  26.872  1.00  0.00    -0.458 OA
BRANCH  24  25
ATOM     25  C   UNL A   1      33.417  33.910  27.995  1.00  0.00     0.338 C 
ATOM     26  O   UNL A   1      32.923  34.868  28.563  1.00  0.00    -0.246 OA
BRANCH  25  27
ATOM     27  C   UNL A   1      34.563  33.155  28.525  1.00  0.00     0.060 A 
ATOM     28  C   UNL A   1      34.319  32.146  29.460  1.00  0.00     0.016 A 
ATOM     29  C   UNL A   1      35.868  33.480  28.158  1.00  0.00     0.016 A 
ATOM     30  C   UNL A   1      35.377  31.459  30.043  1.00  0.00     0.010 A 
ATOM     31  C   UNL A   1      36.932  32.780  28.737  1.00  0.00     0.010 A 
ATOM     32  C   UNL A   1      36.693  31.774  29.690  1.00  0.00    -0.014 A 
BRANCH  32  33
ATOM     33  C   UNL A   1      37.816  31.084  30.368  1.00  0.00     0.031 A 
ATOM     34  C   UNL A   1      38.121  31.402  31.803  1.00  0.00     0.074 A 
ATOM     35  C   UNL A   1      38.536  30.161  29.704  1.00  0.00     0.049 A 
ATOM     36  N   UNL A   1      39.112  30.993  32.551  1.00  0.00    -0.248 NA
ATOM     37  C   UNL A   1      37.184  32.307  32.482  1.00  0.00     0.031 C 
ATOM     38  C   UNL A   1      38.289  29.729  28.327  1.00  0.00     0.029 A 
ATOM     39  N   UNL A   1      39.624  29.423  30.096  1.00  0.00    -0.354 N 
ATOM     40  C   UNL A   1      38.930  31.602  33.787  1.00  0.00     0.074 A 
ATOM     41  C   UNL A   1      37.746  32.430  33.674  1.00  0.00     0.031 C 
ATOM     42  C   UNL A   1      39.204  28.807  27.988  1.00  0.00     0.029 A 
ATOM     43  C   UNL A   1      40.132  28.622  29.102  1.00  0.00     0.049 A 
ATOM     44  H   UNL A   1      40.004  29.462  31.004  1.00  0.00     0.167 HD
ATOM     45  C   UNL A   1      39.682  31.478  34.909  1.00  0.00     0.034 A 
ATOM     46  C   UNL A   1      41.242  27.858  29.077  1.00  0.00     0.034 A 
ATOM     47  C   UNL A   1      40.863  30.650  34.994  1.00  0.00     0.049 A 
ATOM     48  C   UNL A   1      42.109  27.800  30.309  1.00  0.00     0.074 A 
ATOM     49  C   UNL A   1      41.704  30.453  36.075  1.00  0.00     0.029 A 
ATOM     50  N   UNL A   1      41.373  29.886  33.953  1.00  0.00    -0.354 N 
ATOM     51  N   UNL A   1      41.947  28.405  31.462  1.00  0.00    -0.248 NA
ATOM     52  C   UNL A   1      43.307  26.955  30.234  1.00  0.00     0.031 C 
ATOM     53  C   UNL A   1      42.754  29.621  35.670  1.00  0.00     0.029 A 
ATOM     54  C   UNL A   1      42.532  29.239  34.357  1.00  0.00     0.049 A 
ATOM     55  H   UNL A   1      40.970  29.813  33.056  1.00  0.00     0.167 HD
ATOM     56  C   UNL A   1      43.014  27.997  32.258  1.00  0.00     0.074 A 
ATOM     57  C   UNL A   1      43.802  27.083  31.456  1.00  0.00     0.031 C 
ATOM     58  C   UNL A   1      43.314  28.343  33.536  1.00  0.00     0.034 A 
BRANCH  45  59
ATOM     59  C   UNL A   1      39.278  32.308  36.104  1.00  0.00     0.023 A 
ATOM     60  C   UNL A   1      39.848  33.568  36.359  1.00  0.00     0.031 A 
ATOM     61  C   UNL A   1      38.345  31.808  37.028  1.00  0.00     0.131 A 
ATOM     62  C   UNL A   1      39.536  34.249  37.546  1.00  0.00     0.055 A 
ATOM     63  C   UNL A   1      37.979  32.526  38.169  1.00  0.00     0.041 A 
ATOM     64  F   UNL A   1      37.785  30.601  36.850  1.00  0.00    -0.206 F 
ATOM     65  C   UNL A   1      38.587  33.747  38.441  1.00  0.00     0.022 A 
BRANCH  62  66
ATOM     66  S   UNL A   1      40.496  35.728  37.977  1.00  0.00     0.124 S 
ATOM     67  O   UNL A   1      40.624  35.585  39.425  1.00  0.00    -0.237 OA
ATOM     68  O   UNL A   1      41.718  35.546  37.205  1.00  0.00    -0.237 OA
ATOM     69  O   UNL A   1      39.640  36.831  37.541  1.00  0.00    -0.744 OA
ENDBRANCH  62  66
ENDBRANCH  45  59
BRANCH  46  70
ATOM     70  C   UNL A   1      41.632  27.139  27.831  1.00  0.00     0.023 A 
ATOM     71  C   UNL A   1      41.488  25.748  27.718  1.00  0.00     0.031 A 
ATOM     72  C   UNL A   1      42.192  27.836  26.745  1.00  0.00     0.131 A 
ATOM     73  C   UNL A   1      41.931  25.093  26.557  1.00  0.00     0.055 A 
ATOM     74  C   UNL A   1      42.585  27.187  25.574  1.00  0.00     0.041 A 
ATOM     75  F   UNL A   1      42.352  29.168  26.804  1.00  0.00    -0.206 F 
ATOM     76  C   UNL A   1      42.466  25.804  25.480  1.00  0.00     0.022 A 
BRANCH  73  77
ATOM     77  S   UNL A   1      41.866  23.281  26.503  1.00  0.00     0.124 S 
ATOM     78  O   UNL A   1      42.326  23.006  25.147  1.00  0.00    -0.237 OA
ATOM     79  O   UNL A   1      42.780  22.913  27.579  1.00  0.00    -0.237 OA
ATOM     80  O   UNL A   1      40.458  22.983  26.758  1.00  0.00    -0.744 OA
ENDBRANCH  73  77
ENDBRANCH  46  70
BRANCH  58  81
ATOM     81  C   UNL A   1      44.529  27.692  34.149  1.00  0.00     0.023 A 
ATOM     82  C   UNL A   1      44.453  26.445  34.797  1.00  0.00     0.031 A 
ATOM     83  C   UNL A   1      45.776  28.338  34.100  1.00  0.00     0.131 A 
ATOM     84  C   UNL A   1      45.593  25.909  35.414  1.00  0.00     0.055 A 
ATOM     85  C   UNL A   1      46.919  27.774  34.669  1.00  0.00     0.041 A 
ATOM     86  F   UNL A   1      45.904  29.531  33.496  1.00  0.00    -0.206 F 
ATOM     87  C   UNL A   1      46.829  26.559  35.340  1.00  0.00     0.022 A 
BRANCH  84  88
ATOM     88  S   UNL A   1      45.425  24.389  36.389  1.00  0.00     0.124 S 
ATOM     89  O   UNL A   1      46.571  24.477  37.288  1.00  0.00    -0.237 OA
ATOM     90  O   UNL A   1      44.114  24.560  37.009  1.00  0.00    -0.237 OA
ATOM     91  O   UNL A   1      45.501  23.328  35.387  1.00  0.00    -0.744 OA
ENDBRANCH  84  88
ENDBRANCH  58  81
ENDBRANCH  32  33
ENDBRANCH  25  27
ENDBRANCH  24  25
ENDBRANCH  23  24
ENDBRANCH  22  23
ENDBRANCH   1  22
TORSDOF 20
ENDMDL
