MODEL 1
REMARK VINA RESULT:     -13.1      0.000      0.000
REMARK SMILES Cc1ccnc(C(=O)c2[nH]c3cc(Cl)c(F)cc3c2CC(=O)OCCOC(=O)c2ccc(-c3c4nc(c(-c5cc(S(=O)(=O)[O-])ccc5F)c5ccc([nH]5)c(-c5cc(S(=O)(=O)[O-])ccc5F)c5nc(c(-c6cc(S(=O)(=O)[O-])ccc6F)c6ccc3[nH]6)C=C5)C=C4)cc2)c1
REMARK SMILES IDX 24 1 23 2 21 3 22 4 20 5 19 6 9 7 10 8 11 9 18 11 12 12
REMARK SMILES IDX 17 13 13 14 15 15 14 16 16 17 7 18 8 19 6 20 1 21 2 22 3 23
REMARK SMILES IDX 92 24 4 25 5 26 25 27 26 28 27 29 28 30 29 31 30 32 91 33
REMARK SMILES IDX 31 34 90 35 32 36 33 37 34 38 84 39 35 40 89 41 83 42 85 43
REMARK SMILES IDX 36 44 88 45 82 46 81 47 37 49 69 50 49 51 68 52 50 53 53 54
REMARK SMILES IDX 67 55 86 56 51 57 52 58 66 60 87 61 54 62 38 63 39 64 47 65
REMARK SMILES IDX 40 66 46 67 48 68 45 69 41 70 42 71 43 72 44 73 70 74 71 75
REMARK SMILES IDX 79 76 72 77 78 78 80 79 77 80 73 81 74 82 75 83 76 84 55 85
REMARK SMILES IDX 56 86 64 87 57 88 63 89 65 90 62 91 58 92 59 93 60 94 61 95
REMARK H PARENT 10 10 85 48 53 59
REMARK Flexibility Score: inf
ROOT
ATOM      1  C   UNL A   1      34.980  29.989  27.315  1.00  0.00     0.274 C 
ENDROOT
BRANCH   1   2
ATOM      2  O   UNL A   1      34.654  28.857  26.458  1.00  0.00    -0.462 OA
BRANCH   2   3
ATOM      3  C   UNL A   1      33.551  28.182  26.859  1.00  0.00     0.310 C 
ATOM      4  O   UNL A   1      32.903  28.517  27.851  1.00  0.00    -0.252 OA
BRANCH   3   5
ATOM      5  C   UNL A   1      33.180  26.915  26.145  1.00  0.00     0.161 C 
BRANCH   5   6
ATOM      6  C   UNL A   1      31.805  26.400  25.781  1.00  0.00     0.000 A 
ATOM      7  C   UNL A   1      31.201  25.132  25.801  1.00  0.00     0.093 A 
ATOM      8  N   UNL A   1      30.082  25.199  24.999  1.00  0.00    -0.351 N 
ATOM      9  C   UNL A   1      29.871  26.458  24.522  1.00  0.00     0.048 A 
ATOM     10  H   UNL A   1      29.504  24.428  24.796  1.00  0.00     0.167 HD
ATOM     11  C   UNL A   1      30.935  27.234  24.965  1.00  0.00     0.007 A 
ATOM     12  C   UNL A   1      28.856  26.937  23.687  1.00  0.00     0.050 A 
ATOM     13  C   UNL A   1      31.015  28.566  24.496  1.00  0.00     0.051 A 
ATOM     14  C   UNL A   1      28.937  28.270  23.279  1.00  0.00     0.078 A 
ATOM     15  C   UNL A   1      30.007  29.065  23.668  1.00  0.00     0.142 A 
ATOM     16  Cl  UNL A   1      27.684  28.910  22.285  1.00  0.00    -0.081 Cl
ATOM     17  F   UNL A   1      30.092  30.341  23.262  1.00  0.00    -0.205 F 
BRANCH   7  18
ATOM     18  C   UNL A   1      31.522  23.809  26.326  1.00  0.00     0.227 C 
ATOM     19  O   UNL A   1      31.085  23.455  27.419  1.00  0.00    -0.285 OA
BRANCH  18  20
ATOM     20  C   UNL A   1      32.573  22.981  25.629  1.00  0.00     0.113 A 
ATOM     21  C   UNL A   1      32.823  19.527  24.144  1.00  0.00     0.044 C 
ATOM     22  C   UNL A   1      33.205  20.878  24.666  1.00  0.00    -0.047 A 
ATOM     23  C   UNL A   1      34.527  21.177  25.003  1.00  0.00     0.023 A 
ATOM     24  C   UNL A   1      32.212  21.810  24.968  1.00  0.00     0.036 A 
ATOM     25  C   UNL A   1      34.807  22.418  25.563  1.00  0.00     0.112 A 
ATOM     26  N   UNL A   1      33.869  23.352  25.830  1.00  0.00    -0.253 NA
ENDBRANCH  18  20
ENDBRANCH   7  18
ENDBRANCH   5   6
ENDBRANCH   3   5
ENDBRANCH   2   3
ENDBRANCH   1   2
BRANCH   1  27
ATOM     27  C   UNL A   1      36.129  29.732  28.306  1.00  0.00     0.275 C 
BRANCH  27  28
ATOM     28  O   UNL A   1      37.398  29.556  27.670  1.00  0.00    -0.458 OA
BRANCH  28  29
ATOM     29  C   UNL A   1      38.399  29.183  28.504  1.00  0.00     0.338 C 
ATOM     30  O   UNL A   1      38.273  28.419  29.437  1.00  0.00    -0.246 OA
BRANCH  29  31
ATOM     31  C   UNL A   1      39.708  29.477  27.920  1.00  0.00     0.060 A 
ATOM     32  C   UNL A   1      39.889  29.146  26.591  1.00  0.00     0.016 A 
ATOM     33  C   UNL A   1      40.782  29.532  28.826  1.00  0.00     0.016 A 
ATOM     34  C   UNL A   1      41.046  28.476  26.280  1.00  0.00     0.010 A 
ATOM     35  C   UNL A   1      41.964  28.903  28.491  1.00  0.00     0.010 A 
ATOM     36  C   UNL A   1      42.028  28.255  27.268  1.00  0.00    -0.014 A 
BRANCH  36  37
ATOM     37  C   UNL A   1      43.239  27.605  26.819  1.00  0.00     0.031 A 
ATOM     38  C   UNL A   1      42.961  26.176  26.628  1.00  0.00     0.074 A 
ATOM     39  C   UNL A   1      44.488  28.084  26.705  1.00  0.00     0.049 A 
ATOM     40  N   UNL A   1      43.095  25.282  27.545  1.00  0.00    -0.248 NA
ATOM     41  C   UNL A   1      42.179  25.769  25.461  1.00  0.00     0.031 C 
ATOM     42  C   UNL A   1      45.010  29.444  26.617  1.00  0.00     0.029 A 
ATOM     43  N   UNL A   1      45.611  27.319  26.640  1.00  0.00    -0.354 N 
ATOM     44  C   UNL A   1      42.523  24.137  27.034  1.00  0.00     0.074 A 
ATOM     45  C   UNL A   1      41.834  24.534  25.827  1.00  0.00     0.031 C 
ATOM     46  C   UNL A   1      46.335  29.393  26.311  1.00  0.00     0.029 A 
ATOM     47  C   UNL A   1      46.776  28.007  26.370  1.00  0.00     0.049 A 
ATOM     48  H   UNL A   1      45.594  26.344  26.776  1.00  0.00     0.167 HD
ATOM     49  C   UNL A   1      42.812  22.923  27.568  1.00  0.00     0.034 A 
ATOM     50  C   UNL A   1      48.006  27.455  26.208  1.00  0.00     0.034 A 
ATOM     51  C   UNL A   1      43.437  23.054  28.863  1.00  0.00     0.049 A 
ATOM     52  C   UNL A   1      48.007  26.143  26.910  1.00  0.00     0.074 A 
ATOM     53  C   UNL A   1      43.011  23.512  30.094  1.00  0.00     0.029 A 
ATOM     54  N   UNL A   1      44.813  23.082  28.902  1.00  0.00    -0.354 N 
ATOM     55  N   UNL A   1      47.998  26.016  28.207  1.00  0.00    -0.248 NA
ATOM     56  C   UNL A   1      47.575  24.967  26.167  1.00  0.00     0.031 C 
ATOM     57  C   UNL A   1      44.128  24.202  30.646  1.00  0.00     0.029 A 
ATOM     58  C   UNL A   1      45.195  24.092  29.751  1.00  0.00     0.049 A 
ATOM     59  H   UNL A   1      45.417  22.484  28.407  1.00  0.00     0.167 HD
ATOM     60  C   UNL A   1      47.135  24.957  28.447  1.00  0.00     0.074 A 
ATOM     61  C   UNL A   1      46.987  24.288  27.156  1.00  0.00     0.031 C 
ATOM     62  C   UNL A   1      46.407  24.877  29.600  1.00  0.00     0.034 A 
BRANCH  49  63
ATOM     63  C   UNL A   1      42.829  21.670  26.750  1.00  0.00     0.023 A 
ATOM     64  C   UNL A   1      43.933  21.308  25.955  1.00  0.00     0.031 A 
ATOM     65  C   UNL A   1      41.837  20.692  26.915  1.00  0.00     0.131 A 
ATOM     66  C   UNL A   1      44.023  20.058  25.344  1.00  0.00     0.055 A 
ATOM     67  C   UNL A   1      41.957  19.412  26.362  1.00  0.00     0.041 A 
ATOM     68  F   UNL A   1      40.749  20.931  27.665  1.00  0.00    -0.206 F 
ATOM     69  C   UNL A   1      43.055  19.089  25.571  1.00  0.00     0.022 A 
BRANCH  66  70
ATOM     70  S   UNL A   1      45.426  19.680  24.259  1.00  0.00     0.124 S 
ATOM     71  O   UNL A   1      46.255  20.870  24.414  1.00  0.00    -0.237 OA
ATOM     72  O   UNL A   1      45.946  18.459  24.867  1.00  0.00    -0.237 OA
ATOM     73  O   UNL A   1      44.809  19.501  22.948  1.00  0.00    -0.744 OA
ENDBRANCH  66  70
ENDBRANCH  49  63
BRANCH  50  74
ATOM     74  C   UNL A   1      48.910  27.690  25.057  1.00  0.00     0.023 A 
ATOM     75  C   UNL A   1      48.410  27.598  23.746  1.00  0.00     0.031 A 
ATOM     76  C   UNL A   1      50.307  27.655  25.224  1.00  0.00     0.131 A 
ATOM     77  C   UNL A   1      49.284  27.407  22.668  1.00  0.00     0.055 A 
ATOM     78  C   UNL A   1      51.178  27.488  24.143  1.00  0.00     0.041 A 
ATOM     79  F   UNL A   1      50.847  27.701  26.452  1.00  0.00    -0.206 F 
ATOM     80  C   UNL A   1      50.667  27.345  22.857  1.00  0.00     0.022 A 
BRANCH  77  81
ATOM     81  S   UNL A   1      48.633  27.126  20.999  1.00  0.00     0.124 S 
ATOM     82  O   UNL A   1      48.597  25.668  20.925  1.00  0.00    -0.237 OA
ATOM     83  O   UNL A   1      47.333  27.784  21.073  1.00  0.00    -0.237 OA
ATOM     84  O   UNL A   1      49.621  27.763  20.134  1.00  0.00    -0.744 OA
ENDBRANCH  77  81
ENDBRANCH  50  74
BRANCH  62  85
ATOM     85  C   UNL A   1      46.735  25.828  30.733  1.00  0.00     0.023 A 
ATOM     86  C   UNL A   1      47.477  25.307  31.809  1.00  0.00     0.031 A 
ATOM     87  C   UNL A   1      46.186  27.117  30.890  1.00  0.00     0.131 A 
ATOM     88  C   UNL A   1      47.611  26.031  32.998  1.00  0.00     0.055 A 
ATOM     89  C   UNL A   1      46.388  27.869  32.054  1.00  0.00     0.041 A 
ATOM     90  F   UNL A   1      45.377  27.653  29.966  1.00  0.00    -0.206 F 
ATOM     91  C   UNL A   1      47.087  27.320  33.123  1.00  0.00     0.022 A 
BRANCH  88  92
ATOM     92  S   UNL A   1      48.329  25.249  34.466  1.00  0.00     0.124 S 
ATOM     93  O   UNL A   1      47.346  24.215  34.778  1.00  0.00    -0.237 OA
ATOM     94  O   UNL A   1      49.611  24.761  33.962  1.00  0.00    -0.237 OA
ATOM     95  O   UNL A   1      48.422  26.335  35.437  1.00  0.00    -0.744 OA
ENDBRANCH  88  92
ENDBRANCH  62  85
ENDBRANCH  36  37
ENDBRANCH  29  31
ENDBRANCH  28  29
ENDBRANCH  27  28
ENDBRANCH   1  27
TORSDOF 17
ENDMDL
MODEL 2
REMARK VINA RESULT:     -12.7      4.637      8.698
REMARK SMILES Cc1ccnc(C(=O)c2[nH]c3cc(Cl)c(F)cc3c2CC(=O)OCCOC(=O)c2ccc(-c3c4nc(c(-c5cc(S(=O)(=O)[O-])ccc5F)c5ccc([nH]5)c(-c5cc(S(=O)(=O)[O-])ccc5F)c5nc(c(-c6cc(S(=O)(=O)[O-])ccc6F)c6ccc3[nH]6)C=C5)C=C4)cc2)c1
REMARK SMILES IDX 24 1 23 2 21 3 22 4 20 5 19 6 9 7 10 8 11 9 18 11 12 12
REMARK SMILES IDX 17 13 13 14 15 15 14 16 16 17 7 18 8 19 6 20 1 21 2 22 3 23
REMARK SMILES IDX 92 24 4 25 5 26 25 27 26 28 27 29 28 30 29 31 30 32 91 33
REMARK SMILES IDX 31 34 90 35 32 36 33 37 34 38 84 39 35 40 89 41 83 42 85 43
REMARK SMILES IDX 36 44 88 45 82 46 81 47 37 49 69 50 49 51 68 52 50 53 53 54
REMARK SMILES IDX 67 55 86 56 51 57 52 58 66 60 87 61 54 62 38 63 39 64 47 65
REMARK SMILES IDX 40 66 46 67 48 68 45 69 41 70 42 71 43 72 44 73 70 74 71 75
REMARK SMILES IDX 79 76 72 77 78 78 80 79 77 80 73 81 74 82 75 83 76 84 55 85
REMARK SMILES IDX 56 86 64 87 57 88 63 89 65 90 62 91 58 92 59 93 60 94 61 95
REMARK H PARENT 10 10 85 48 53 59
REMARK Flexibility Score: inf
ROOT
ATOM      1  C   UNL A   1      43.554  18.265  25.790  1.00  0.00     0.274 C 
ENDROOT
BRANCH   1   2
ATOM      2  O   UNL A   1      42.119  18.507  25.751  1.00  0.00    -0.462 OA
BRANCH   2   3
ATOM      3  C   UNL A   1      41.730  19.554  26.517  1.00  0.00     0.310 C 
ATOM      4  O   UNL A   1      41.748  19.507  27.747  1.00  0.00    -0.252 OA
BRANCH   3   5
ATOM      5  C   UNL A   1      41.141  20.761  25.846  1.00  0.00     0.161 C 
BRANCH   5   6
ATOM      6  C   UNL A   1      40.040  21.674  26.337  1.00  0.00     0.000 A 
ATOM      7  C   UNL A   1      38.683  21.827  26.011  1.00  0.00     0.093 A 
ATOM      8  N   UNL A   1      38.284  23.058  26.485  1.00  0.00    -0.351 N 
ATOM      9  C   UNL A   1      39.278  23.685  27.175  1.00  0.00     0.048 A 
ATOM     10  H   UNL A   1      37.387  23.439  26.342  1.00  0.00     0.167 HD
ATOM     11  C   UNL A   1      40.398  22.869  27.087  1.00  0.00     0.007 A 
ATOM     12  C   UNL A   1      39.276  24.933  27.808  1.00  0.00     0.050 A 
ATOM     13  C   UNL A   1      41.612  23.360  27.623  1.00  0.00     0.051 A 
ATOM     14  C   UNL A   1      40.477  25.370  28.369  1.00  0.00     0.078 A 
ATOM     15  C   UNL A   1      41.627  24.599  28.265  1.00  0.00     0.142 A 
ATOM     16  Cl  UNL A   1      40.505  26.882  29.194  1.00  0.00    -0.081 Cl
ATOM     17  F   UNL A   1      42.785  25.028  28.791  1.00  0.00    -0.205 F 
BRANCH   7  18
ATOM     18  C   UNL A   1      37.688  21.102  25.228  1.00  0.00     0.227 C 
ATOM     19  O   UNL A   1      37.960  20.003  24.748  1.00  0.00    -0.285 OA
BRANCH  18  20
ATOM     20  C   UNL A   1      36.418  21.808  24.822  1.00  0.00     0.113 A 
ATOM     21  C   UNL A   1      32.797  20.900  24.318  1.00  0.00     0.044 C 
ATOM     22  C   UNL A   1      34.083  21.667  24.300  1.00  0.00    -0.047 A 
ATOM     23  C   UNL A   1      34.252  22.776  23.468  1.00  0.00     0.023 A 
ATOM     24  C   UNL A   1      35.186  21.188  25.006  1.00  0.00     0.036 A 
ATOM     25  C   UNL A   1      35.495  23.397  23.430  1.00  0.00     0.112 A 
ATOM     26  N   UNL A   1      36.568  22.975  24.133  1.00  0.00    -0.253 NA
ENDBRANCH  18  20
ENDBRANCH   7  18
ENDBRANCH   5   6
ENDBRANCH   3   5
ENDBRANCH   2   3
ENDBRANCH   1   2
BRANCH   1  27
ATOM     27  C   UNL A   1      44.360  19.022  24.720  1.00  0.00     0.275 C 
BRANCH  27  28
ATOM     28  O   UNL A   1      44.974  20.217  25.212  1.00  0.00    -0.458 OA
BRANCH  28  29
ATOM     29  C   UNL A   1      44.738  21.321  24.463  1.00  0.00     0.338 C 
ATOM     30  O   UNL A   1      44.508  21.312  23.272  1.00  0.00    -0.246 OA
BRANCH  29  31
ATOM     31  C   UNL A   1      44.395  22.466  25.306  1.00  0.00     0.060 A 
ATOM     32  C   UNL A   1      43.835  23.562  24.676  1.00  0.00     0.016 A 
ATOM     33  C   UNL A   1      45.131  22.590  26.498  1.00  0.00     0.016 A 
ATOM     34  C   UNL A   1      44.359  24.788  25.001  1.00  0.00     0.010 A 
ATOM     35  C   UNL A   1      45.615  23.832  26.852  1.00  0.00     0.010 A 
ATOM     36  C   UNL A   1      45.337  24.898  26.011  1.00  0.00    -0.014 A 
BRANCH  36  37
ATOM     37  C   UNL A   1      45.769  26.242  26.326  1.00  0.00     0.031 A 
ATOM     38  C   UNL A   1      47.110  26.448  25.765  1.00  0.00     0.074 A 
ATOM     39  C   UNL A   1      45.201  27.173  27.109  1.00  0.00     0.049 A 
ATOM     40  N   UNL A   1      48.206  26.195  26.393  1.00  0.00    -0.248 NA
ATOM     41  C   UNL A   1      47.240  26.626  24.319  1.00  0.00     0.031 C 
ATOM     42  C   UNL A   1      43.837  27.339  27.602  1.00  0.00     0.029 A 
ATOM     43  N   UNL A   1      45.852  28.245  27.640  1.00  0.00    -0.354 N 
ATOM     44  C   UNL A   1      49.207  26.303  25.451  1.00  0.00     0.074 A 
ATOM     45  C   UNL A   1      48.546  26.406  24.170  1.00  0.00     0.031 C 
ATOM     46  C   UNL A   1      43.724  28.556  28.198  1.00  0.00     0.029 A 
ATOM     47  C   UNL A   1      45.047  29.159  28.288  1.00  0.00     0.049 A 
ATOM     48  H   UNL A   1      46.827  28.359  27.567  1.00  0.00     0.167 HD
ATOM     49  C   UNL A   1      50.499  26.467  25.834  1.00  0.00     0.034 A 
ATOM     50  C   UNL A   1      45.459  30.324  28.848  1.00  0.00     0.034 A 
ATOM     51  C   UNL A   1      50.679  26.150  27.230  1.00  0.00     0.049 A 
ATOM     52  C   UNL A   1      46.908  30.187  29.159  1.00  0.00     0.074 A 
ATOM     53  C   UNL A   1      50.591  24.987  27.970  1.00  0.00     0.029 A 
ATOM     54  N   UNL A   1      50.578  27.183  28.133  1.00  0.00    -0.354 N 
ATOM     55  N   UNL A   1      47.375  29.432  30.113  1.00  0.00    -0.248 NA
ATOM     56  C   UNL A   1      47.868  30.549  28.125  1.00  0.00     0.031 C 
ATOM     57  C   UNL A   1      50.006  25.373  29.210  1.00  0.00     0.029 A 
ATOM     58  C   UNL A   1      49.808  26.756  29.187  1.00  0.00     0.049 A 
ATOM     59  H   UNL A   1      50.984  28.075  28.039  1.00  0.00     0.167 HD
ATOM     60  C   UNL A   1      48.510  28.848  29.571  1.00  0.00     0.074 A 
ATOM     61  C   UNL A   1      48.821  29.649  28.388  1.00  0.00     0.031 C 
ATOM     62  C   UNL A   1      48.939  27.615  29.971  1.00  0.00     0.034 A 
BRANCH  49  63
ATOM     63  C   UNL A   1      51.486  27.237  25.013  1.00  0.00     0.023 A 
ATOM     64  C   UNL A   1      51.416  28.636  24.872  1.00  0.00     0.031 A 
ATOM     65  C   UNL A   1      52.653  26.623  24.533  1.00  0.00     0.131 A 
ATOM     66  C   UNL A   1      52.436  29.368  24.266  1.00  0.00     0.055 A 
ATOM     67  C   UNL A   1      53.709  27.363  23.988  1.00  0.00     0.041 A 
ATOM     68  F   UNL A   1      52.826  25.295  24.630  1.00  0.00    -0.206 F 
ATOM     69  C   UNL A   1      53.604  28.743  23.852  1.00  0.00     0.022 A 
BRANCH  66  70
ATOM     70  S   UNL A   1      52.251  31.157  24.033  1.00  0.00     0.124 S 
ATOM     71  O   UNL A   1      51.653  31.227  22.704  1.00  0.00    -0.237 OA
ATOM     72  O   UNL A   1      51.372  31.508  25.145  1.00  0.00    -0.237 OA
ATOM     73  O   UNL A   1      53.616  31.661  24.144  1.00  0.00    -0.744 OA
ENDBRANCH  66  70
ENDBRANCH  49  63
BRANCH  50  74
ATOM     74  C   UNL A   1      44.872  31.661  28.587  1.00  0.00     0.023 A 
ATOM     75  C   UNL A   1      44.636  32.073  27.264  1.00  0.00     0.031 A 
ATOM     76  C   UNL A   1      44.871  32.650  29.587  1.00  0.00     0.131 A 
ATOM     77  C   UNL A   1      44.479  33.433  26.965  1.00  0.00     0.055 A 
ATOM     78  C   UNL A   1      44.691  34.005  29.288  1.00  0.00     0.041 A 
ATOM     79  F   UNL A   1      45.127  32.327  30.865  1.00  0.00    -0.206 F 
ATOM     80  C   UNL A   1      44.512  34.404  27.968  1.00  0.00     0.022 A 
BRANCH  77  81
ATOM     81  S   UNL A   1      44.337  33.982  25.243  1.00  0.00     0.124 S 
ATOM     82  O   UNL A   1      45.649  34.578  25.001  1.00  0.00    -0.237 OA
ATOM     83  O   UNL A   1      44.082  32.723  24.550  1.00  0.00    -0.237 OA
ATOM     84  O   UNL A   1      43.226  34.928  25.275  1.00  0.00    -0.744 OA
ENDBRANCH  77  81
ENDBRANCH  50  74
BRANCH  62  85
ATOM     85  C   UNL A   1      48.304  26.988  31.196  1.00  0.00     0.023 A 
ATOM     86  C   UNL A   1      47.028  26.419  31.033  1.00  0.00     0.031 A 
ATOM     87  C   UNL A   1      48.794  27.113  32.512  1.00  0.00     0.131 A 
ATOM     88  C   UNL A   1      46.268  26.045  32.146  1.00  0.00     0.055 A 
ATOM     89  C   UNL A   1      48.061  26.666  33.618  1.00  0.00     0.041 A 
ATOM     90  F   UNL A   1      49.949  27.739  32.775  1.00  0.00    -0.206 F 
ATOM     91  C   UNL A   1      46.783  26.147  33.441  1.00  0.00     0.022 A 
BRANCH  88  92
ATOM     92  S   UNL A   1      44.531  25.571  31.947  1.00  0.00     0.124 S 
ATOM     93  O   UNL A   1      44.637  24.293  31.248  1.00  0.00    -0.237 OA
ATOM     94  O   UNL A   1      44.070  25.491  33.331  1.00  0.00    -0.237 OA
ATOM     95  O   UNL A   1      43.953  26.662  31.168  1.00  0.00    -0.744 OA
ENDBRANCH  88  92
ENDBRANCH  62  85
ENDBRANCH  36  37
ENDBRANCH  29  31
ENDBRANCH  28  29
ENDBRANCH  27  28
ENDBRANCH   1  27
TORSDOF 17
ENDMDL
MODEL 3
REMARK VINA RESULT:     -12.6      3.084      8.108
REMARK SMILES Cc1ccnc(C(=O)c2[nH]c3cc(Cl)c(F)cc3c2CC(=O)OCCOC(=O)c2ccc(-c3c4nc(c(-c5cc(S(=O)(=O)[O-])ccc5F)c5ccc([nH]5)c(-c5cc(S(=O)(=O)[O-])ccc5F)c5nc(c(-c6cc(S(=O)(=O)[O-])ccc6F)c6ccc3[nH]6)C=C5)C=C4)cc2)c1
REMARK SMILES IDX 24 1 23 2 21 3 22 4 20 5 19 6 9 7 10 8 11 9 18 11 12 12
REMARK SMILES IDX 17 13 13 14 15 15 14 16 16 17 7 18 8 19 6 20 1 21 2 22 3 23
REMARK SMILES IDX 92 24 4 25 5 26 25 27 26 28 27 29 28 30 29 31 30 32 91 33
REMARK SMILES IDX 31 34 90 35 32 36 33 37 34 38 84 39 35 40 89 41 83 42 85 43
REMARK SMILES IDX 36 44 88 45 82 46 81 47 37 49 69 50 49 51 68 52 50 53 53 54
REMARK SMILES IDX 67 55 86 56 51 57 52 58 66 60 87 61 54 62 38 63 39 64 47 65
REMARK SMILES IDX 40 66 46 67 48 68 45 69 41 70 42 71 43 72 44 73 70 74 71 75
REMARK SMILES IDX 79 76 72 77 78 78 80 79 77 80 73 81 74 82 75 83 76 84 55 85
REMARK SMILES IDX 56 86 64 87 57 88 63 89 65 90 62 91 58 92 59 93 60 94 61 95
REMARK H PARENT 10 10 85 48 53 59
REMARK Flexibility Score: inf
ROOT
ATOM      1  C   UNL A   1      34.469  23.741  25.277  1.00  0.00     0.274 C 
ENDROOT
BRANCH   1   2
ATOM      2  O   UNL A   1      34.975  24.449  24.110  1.00  0.00    -0.462 OA
BRANCH   2   3
ATOM      3  C   UNL A   1      34.034  25.197  23.486  1.00  0.00     0.310 C 
ATOM      4  O   UNL A   1      33.888  25.177  22.263  1.00  0.00    -0.252 OA
BRANCH   3   5
ATOM      5  C   UNL A   1      33.230  26.172  24.296  1.00  0.00     0.161 C 
BRANCH   5   6
ATOM      6  C   UNL A   1      31.735  26.214  24.516  1.00  0.00     0.000 A 
ATOM      7  C   UNL A   1      30.798  25.301  25.027  1.00  0.00     0.093 A 
ATOM      8  N   UNL A   1      29.550  25.726  24.625  1.00  0.00    -0.351 N 
ATOM      9  C   UNL A   1      29.607  26.908  23.950  1.00  0.00     0.048 A 
ATOM     10  H   UNL A   1      28.717  25.233  24.804  1.00  0.00     0.167 HD
ATOM     11  C   UNL A   1      30.952  27.237  23.838  1.00  0.00     0.007 A 
ATOM     12  C   UNL A   1      28.575  27.665  23.386  1.00  0.00     0.050 A 
ATOM     13  C   UNL A   1      31.288  28.371  23.062  1.00  0.00     0.051 A 
ATOM     14  C   UNL A   1      28.935  28.805  22.666  1.00  0.00     0.078 A 
ATOM     15  C   UNL A   1      30.271  29.143  22.498  1.00  0.00     0.142 A 
ATOM     16  Cl  UNL A   1      27.690  29.787  21.991  1.00  0.00    -0.081 Cl
ATOM     17  F   UNL A   1      30.616  30.231  21.792  1.00  0.00    -0.205 F 
BRANCH   7  18
ATOM     18  C   UNL A   1      30.833  24.021  25.727  1.00  0.00     0.227 C 
ATOM     19  O   UNL A   1      30.757  23.984  26.953  1.00  0.00    -0.285 OA
BRANCH  18  20
ATOM     20  C   UNL A   1      31.192  22.775  24.955  1.00  0.00     0.113 A 
ATOM     21  C   UNL A   1      32.899  19.491  25.660  1.00  0.00     0.044 C 
ATOM     22  C   UNL A   1      32.274  20.636  24.924  1.00  0.00    -0.047 A 
ATOM     23  C   UNL A   1      32.483  20.816  23.555  1.00  0.00     0.023 A 
ATOM     24  C   UNL A   1      31.597  21.628  25.632  1.00  0.00     0.036 A 
ATOM     25  C   UNL A   1      31.948  21.943  22.943  1.00  0.00     0.112 A 
ATOM     26  N   UNL A   1      31.256  22.899  23.599  1.00  0.00    -0.253 NA
ENDBRANCH  18  20
ENDBRANCH   7  18
ENDBRANCH   5   6
ENDBRANCH   3   5
ENDBRANCH   2   3
ENDBRANCH   1   2
BRANCH   1  27
ATOM     27  C   UNL A   1      35.452  22.728  25.889  1.00  0.00     0.275 C 
BRANCH  27  28
ATOM     28  O   UNL A   1      36.414  22.234  24.951  1.00  0.00    -0.458 OA
BRANCH  28  29
ATOM     29  C   UNL A   1      37.381  21.455  25.493  1.00  0.00     0.338 C 
ATOM     30  O   UNL A   1      37.328  20.247  25.579  1.00  0.00    -0.246 OA
BRANCH  29  31
ATOM     31  C   UNL A   1      38.648  22.181  25.592  1.00  0.00     0.060 A 
ATOM     32  C   UNL A   1      39.670  21.563  26.287  1.00  0.00     0.016 A 
ATOM     33  C   UNL A   1      38.560  23.580  25.487  1.00  0.00     0.016 A 
ATOM     34  C   UNL A   1      40.339  22.334  27.203  1.00  0.00     0.010 A 
ATOM     35  C   UNL A   1      39.274  24.358  26.375  1.00  0.00     0.010 A 
ATOM     36  C   UNL A   1      40.050  23.709  27.322  1.00  0.00    -0.014 A 
BRANCH  36  37
ATOM     37  C   UNL A   1      40.863  24.445  28.266  1.00  0.00     0.031 A 
ATOM     38  C   UNL A   1      40.226  25.743  28.522  1.00  0.00     0.074 A 
ATOM     39  C   UNL A   1      42.075  24.162  28.770  1.00  0.00     0.049 A 
ATOM     40  N   UNL A   1      40.457  26.811  27.840  1.00  0.00    -0.248 NA
ATOM     41  C   UNL A   1      39.027  25.778  29.359  1.00  0.00     0.031 C 
ATOM     42  C   UNL A   1      42.827  22.916  28.870  1.00  0.00     0.029 A 
ATOM     43  N   UNL A   1      42.910  25.072  29.342  1.00  0.00    -0.354 N 
ATOM     44  C   UNL A   1      39.506  27.723  28.246  1.00  0.00     0.074 A 
ATOM     45  C   UNL A   1      38.559  26.987  29.053  1.00  0.00     0.031 C 
ATOM     46  C   UNL A   1      43.925  23.120  29.647  1.00  0.00     0.029 A 
ATOM     47  C   UNL A   1      44.040  24.543  29.931  1.00  0.00     0.049 A 
ATOM     48  H   UNL A   1      42.723  26.039  29.334  1.00  0.00     0.167 HD
ATOM     49  C   UNL A   1      39.680  29.050  28.015  1.00  0.00     0.034 A 
ATOM     50  C   UNL A   1      44.988  25.244  30.604  1.00  0.00     0.034 A 
ATOM     51  C   UNL A   1      40.715  29.282  27.037  1.00  0.00     0.049 A 
ATOM     52  C   UNL A   1      44.931  26.652  30.125  1.00  0.00     0.074 A 
ATOM     53  C   UNL A   1      40.840  29.015  25.687  1.00  0.00     0.029 A 
ATOM     54  N   UNL A   1      41.993  29.486  27.504  1.00  0.00    -0.354 N 
ATOM     55  N   UNL A   1      45.330  27.031  28.943  1.00  0.00    -0.248 NA
ATOM     56  C   UNL A   1      44.025  27.570  30.800  1.00  0.00     0.031 C 
ATOM     57  C   UNL A   1      42.201  28.640  25.503  1.00  0.00     0.029 A 
ATOM     58  C   UNL A   1      42.853  28.741  26.734  1.00  0.00     0.049 A 
ATOM     59  H   UNL A   1      42.247  30.064  28.259  1.00  0.00     0.167 HD
ATOM     60  C   UNL A   1      44.384  27.962  28.539  1.00  0.00     0.074 A 
ATOM     61  C   UNL A   1      43.667  28.328  29.759  1.00  0.00     0.031 C 
ATOM     62  C   UNL A   1      44.087  28.150  27.220  1.00  0.00     0.034 A 
BRANCH  49  63
ATOM     63  C   UNL A   1      39.141  30.100  28.934  1.00  0.00     0.023 A 
ATOM     64  C   UNL A   1      39.880  30.593  30.026  1.00  0.00     0.031 A 
ATOM     65  C   UNL A   1      37.966  30.799  28.616  1.00  0.00     0.131 A 
ATOM     66  C   UNL A   1      39.457  31.697  30.766  1.00  0.00     0.055 A 
ATOM     67  C   UNL A   1      37.575  31.949  29.311  1.00  0.00     0.041 A 
ATOM     68  F   UNL A   1      37.194  30.420  27.585  1.00  0.00    -0.206 F 
ATOM     69  C   UNL A   1      38.322  32.404  30.393  1.00  0.00     0.022 A 
BRANCH  66  70
ATOM     70  S   UNL A   1      40.405  32.233  32.215  1.00  0.00     0.124 S 
ATOM     71  O   UNL A   1      40.466  31.007  33.005  1.00  0.00    -0.237 OA
ATOM     72  O   UNL A   1      41.661  32.658  31.604  1.00  0.00    -0.237 OA
ATOM     73  O   UNL A   1      39.597  33.311  32.776  1.00  0.00    -0.744 OA
ENDBRANCH  66  70
ENDBRANCH  49  63
BRANCH  50  74
ATOM     74  C   UNL A   1      45.481  24.935  31.968  1.00  0.00     0.023 A 
ATOM     75  C   UNL A   1      44.570  24.571  32.974  1.00  0.00     0.031 A 
ATOM     76  C   UNL A   1      46.771  25.331  32.369  1.00  0.00     0.131 A 
ATOM     77  C   UNL A   1      44.930  24.673  34.324  1.00  0.00     0.055 A 
ATOM     78  C   UNL A   1      47.134  25.410  33.718  1.00  0.00     0.041 A 
ATOM     79  F   UNL A   1      47.675  25.727  31.460  1.00  0.00    -0.206 F 
ATOM     80  C   UNL A   1      46.206  25.097  34.704  1.00  0.00     0.022 A 
BRANCH  77  81
ATOM     81  S   UNL A   1      43.707  24.359  35.625  1.00  0.00     0.124 S 
ATOM     82  O   UNL A   1      44.524  23.754  36.674  1.00  0.00    -0.237 OA
ATOM     83  O   UNL A   1      43.220  25.706  35.906  1.00  0.00    -0.237 OA
ATOM     84  O   UNL A   1      42.753  23.456  34.988  1.00  0.00    -0.744 OA
ENDBRANCH  77  81
ENDBRANCH  50  74
BRANCH  62  85
ATOM     85  C   UNL A   1      44.980  27.510  26.176  1.00  0.00     0.023 A 
ATOM     86  C   UNL A   1      44.845  26.122  25.986  1.00  0.00     0.031 A 
ATOM     87  C   UNL A   1      46.062  28.148  25.538  1.00  0.00     0.131 A 
ATOM     88  C   UNL A   1      45.786  25.411  25.234  1.00  0.00     0.055 A 
ATOM     89  C   UNL A   1      46.958  27.445  24.723  1.00  0.00     0.041 A 
ATOM     90  F   UNL A   1      46.335  29.443  25.745  1.00  0.00    -0.206 F 
ATOM     91  C   UNL A   1      46.834  26.066  24.584  1.00  0.00     0.022 A 
BRANCH  88  92
ATOM     92  S   UNL A   1      45.762  23.600  25.219  1.00  0.00     0.124 S 
ATOM     93  O   UNL A   1      46.738  23.269  26.253  1.00  0.00    -0.237 OA
ATOM     94  O   UNL A   1      44.370  23.306  25.555  1.00  0.00    -0.237 OA
ATOM     95  O   UNL A   1      46.153  23.251  23.856  1.00  0.00    -0.744 OA
ENDBRANCH  88  92
ENDBRANCH  62  85
ENDBRANCH  36  37
ENDBRANCH  29  31
ENDBRANCH  28  29
ENDBRANCH  27  28
ENDBRANCH   1  27
TORSDOF 17
ENDMDL
