MODEL 1
REMARK VINA RESULT:     -11.7      0.000      0.000
REMARK SMILES O=C(Cc1cccc(NS(=O)(=O)c2cccc(Cl)c2)c1)OCCOC(=O)c1ccc(-c2c3nc(c(-c4cc(S(=O)(=O)[O-])ccc4F)c4ccc([nH]4)c(-c4cc(S(=O)(=O)[O-])ccc4F)c4nc(c(-c5cc(S(=O)(=O)[O-])ccc5F)c5ccc2[nH]5)C=C4)C=C3)cc1
REMARK SMILES IDX 22 1 21 2 2 3 1 4 3 5 4 6 5 7 20 8 6 9 8 10 7 11 9 12 10 14
REMARK SMILES IDX 11 15 12 16 13 17 14 18 19 19 15 20 17 21 16 22 18 23 23 24
REMARK SMILES IDX 24 25 25 26 26 27 27 28 28 29 89 30 29 31 88 32 30 33 31 34
REMARK SMILES IDX 32 35 82 36 33 37 87 38 81 39 83 40 34 41 86 42 80 43 79 44
REMARK SMILES IDX 35 46 67 47 47 48 66 49 48 50 51 51 65 52 84 53 49 54 50 55
REMARK SMILES IDX 64 57 85 58 52 59 36 60 37 61 45 62 38 63 44 64 46 65 43 66
REMARK SMILES IDX 39 67 40 68 41 69 42 70 68 71 69 72 77 73 70 74 76 75 78 76
REMARK SMILES IDX 75 77 71 78 72 79 73 80 74 81 53 82 54 83 62 84 55 85 61 86
REMARK SMILES IDX 63 87 60 88 56 89 57 90 58 91 59 92
REMARK H PARENT 9 13 83 45 51 56
REMARK Flexibility Score: inf
ROOT
ATOM      1  C   UNL A   1      31.566  31.695  26.717  1.00  0.00     0.274 C 
ENDROOT
BRANCH   1   2
ATOM      2  O   UNL A   1      32.797  30.946  26.852  1.00  0.00    -0.462 OA
BRANCH   2   3
ATOM      3  C   UNL A   1      32.954  29.603  26.786  1.00  0.00     0.310 C 
ATOM      4  O   UNL A   1      34.012  29.135  26.369  1.00  0.00    -0.252 OA
BRANCH   3   5
ATOM      5  C   UNL A   1      31.816  28.691  27.177  1.00  0.00     0.158 C 
BRANCH   5   6
ATOM      6  C   UNL A   1      31.354  27.662  26.175  1.00  0.00    -0.035 A 
ATOM      7  C   UNL A   1      31.172  28.082  24.846  1.00  0.00     0.004 A 
ATOM      8  C   UNL A   1      31.009  26.348  26.533  1.00  0.00     0.031 A 
ATOM      9  C   UNL A   1      30.528  27.259  23.929  1.00  0.00     0.002 A 
ATOM     10  C   UNL A   1      30.317  25.545  25.626  1.00  0.00     0.049 A 
ATOM     11  C   UNL A   1      30.051  26.017  24.338  1.00  0.00     0.027 A 
BRANCH  10  12
ATOM     12  N   UNL A   1      29.788  24.276  26.039  1.00  0.00    -0.280 N 
ATOM     13  H   UNL A   1      28.818  24.148  26.142  1.00  0.00     0.180 HD
BRANCH  12  14
ATOM     14  S   UNL A   1      30.870  22.995  26.347  1.00  0.00     0.261 S 
ATOM     15  O   UNL A   1      31.410  23.218  27.672  1.00  0.00    -0.201 OA
ATOM     16  O   UNL A   1      30.145  21.776  26.053  1.00  0.00    -0.201 OA
BRANCH  14  17
ATOM     17  C   UNL A   1      32.189  23.153  25.179  1.00  0.00     0.089 A 
ATOM     18  C   UNL A   1      31.943  22.882  23.828  1.00  0.00     0.022 A 
ATOM     19  C   UNL A   1      33.463  23.531  25.615  1.00  0.00     0.042 A 
ATOM     20  C   UNL A   1      32.998  22.910  22.918  1.00  0.00     0.003 A 
ATOM     21  C   UNL A   1      34.504  23.574  24.691  1.00  0.00     0.042 A 
ATOM     22  C   UNL A   1      34.281  23.250  23.352  1.00  0.00     0.020 A 
ATOM     23  Cl  UNL A   1      36.086  24.007  25.212  1.00  0.00    -0.084 Cl
ENDBRANCH  14  17
ENDBRANCH  12  14
ENDBRANCH  10  12
ENDBRANCH   5   6
ENDBRANCH   3   5
ENDBRANCH   2   3
ENDBRANCH   1   2
BRANCH   1  24
ATOM     24  C   UNL A   1      31.778  33.193  26.907  1.00  0.00     0.275 C 
BRANCH  24  25
ATOM     25  O   UNL A   1      33.186  33.463  26.991  1.00  0.00    -0.458 OA
BRANCH  25  26
ATOM     26  C   UNL A   1      33.610  33.973  28.172  1.00  0.00     0.338 C 
ATOM     27  O   UNL A   1      33.017  34.782  28.864  1.00  0.00    -0.246 OA
BRANCH  26  28
ATOM     28  C   UNL A   1      34.814  33.231  28.609  1.00  0.00     0.060 A 
ATOM     29  C   UNL A   1      34.623  31.961  29.167  1.00  0.00     0.016 A 
ATOM     30  C   UNL A   1      36.108  33.735  28.428  1.00  0.00     0.016 A 
ATOM     31  C   UNL A   1      35.721  31.200  29.563  1.00  0.00     0.010 A 
ATOM     32  C   UNL A   1      37.207  32.974  28.832  1.00  0.00     0.010 A 
ATOM     33  C   UNL A   1      37.017  31.714  29.422  1.00  0.00    -0.014 A 
BRANCH  33  34
ATOM     34  C   UNL A   1      38.156  31.004  30.048  1.00  0.00     0.031 A 
ATOM     35  C   UNL A   1      38.506  31.335  31.471  1.00  0.00     0.074 A 
ATOM     36  C   UNL A   1      38.853  30.076  29.370  1.00  0.00     0.049 A 
ATOM     37  N   UNL A   1      39.451  30.846  32.230  1.00  0.00    -0.248 NA
ATOM     38  C   UNL A   1      37.677  32.361  32.120  1.00  0.00     0.031 C 
ATOM     39  C   UNL A   1      38.589  29.655  27.996  1.00  0.00     0.029 A 
ATOM     40  N   UNL A   1      39.934  29.322  29.752  1.00  0.00    -0.354 N 
ATOM     41  C   UNL A   1      39.322  31.492  33.454  1.00  0.00     0.074 A 
ATOM     42  C   UNL A   1      38.243  32.446  33.314  1.00  0.00     0.031 C 
ATOM     43  C   UNL A   1      39.493  28.722  27.645  1.00  0.00     0.029 A 
ATOM     44  C   UNL A   1      40.412  28.499  28.760  1.00  0.00     0.049 A 
ATOM     45  H   UNL A   1      40.330  29.366  30.652  1.00  0.00     0.167 HD
ATOM     46  C   UNL A   1      40.027  31.296  34.594  1.00  0.00     0.034 A 
ATOM     47  C   UNL A   1      41.479  27.675  28.752  1.00  0.00     0.034 A 
ATOM     48  C   UNL A   1      41.123  30.367  34.709  1.00  0.00     0.049 A 
ATOM     49  C   UNL A   1      42.316  27.546  30.004  1.00  0.00     0.074 A 
ATOM     50  C   UNL A   1      41.900  30.080  35.817  1.00  0.00     0.029 A 
ATOM     51  N   UNL A   1      41.613  29.586  33.668  1.00  0.00    -0.354 N 
ATOM     52  N   UNL A   1      42.163  28.135  31.168  1.00  0.00    -0.248 NA
ATOM     53  C   UNL A   1      43.465  26.632  29.941  1.00  0.00     0.031 C 
ATOM     54  C   UNL A   1      42.903  29.185  35.428  1.00  0.00     0.029 A 
ATOM     55  C   UNL A   1      42.706  28.850  34.098  1.00  0.00     0.049 A 
ATOM     56  H   UNL A   1      41.238  29.561  32.758  1.00  0.00     0.167 HD
ATOM     57  C   UNL A   1      43.176  27.637  31.984  1.00  0.00     0.074 A 
ATOM     58  C   UNL A   1      43.928  26.694  31.182  1.00  0.00     0.031 C 
ATOM     59  C   UNL A   1      43.455  27.923  33.282  1.00  0.00     0.034 A 
BRANCH  46  60
ATOM     60  C   UNL A   1      39.655  32.148  35.782  1.00  0.00     0.023 A 
ATOM     61  C   UNL A   1      38.811  31.665  36.798  1.00  0.00     0.031 A 
ATOM     62  C   UNL A   1      40.101  33.478  35.873  1.00  0.00     0.131 A 
ATOM     63  C   UNL A   1      38.374  32.527  37.814  1.00  0.00     0.055 A 
ATOM     64  C   UNL A   1      39.728  34.307  36.932  1.00  0.00     0.041 A 
ATOM     65  F   UNL A   1      40.887  34.002  34.919  1.00  0.00    -0.206 F 
ATOM     66  C   UNL A   1      38.847  33.839  37.902  1.00  0.00     0.022 A 
BRANCH  63  67
ATOM     67  S   UNL A   1      37.056  31.959  38.924  1.00  0.00     0.124 S 
ATOM     68  O   UNL A   1      36.966  30.544  38.572  1.00  0.00    -0.237 OA
ATOM     69  O   UNL A   1      37.605  32.257  40.241  1.00  0.00    -0.237 OA
ATOM     70  O   UNL A   1      35.904  32.767  38.529  1.00  0.00    -0.744 OA
ENDBRANCH  63  67
ENDBRANCH  46  60
BRANCH  47  71
ATOM     71  C   UNL A   1      41.848  26.926  27.517  1.00  0.00     0.023 A 
ATOM     72  C   UNL A   1      41.687  25.534  27.434  1.00  0.00     0.031 A 
ATOM     73  C   UNL A   1      42.426  27.590  26.421  1.00  0.00     0.131 A 
ATOM     74  C   UNL A   1      42.142  24.843  26.301  1.00  0.00     0.055 A 
ATOM     75  C   UNL A   1      42.834  26.904  25.275  1.00  0.00     0.041 A 
ATOM     76  F   UNL A   1      42.600  28.920  26.447  1.00  0.00    -0.206 F 
ATOM     77  C   UNL A   1      42.706  25.520  25.216  1.00  0.00     0.022 A 
BRANCH  74  78
ATOM     78  S   UNL A   1      42.061  23.031  26.295  1.00  0.00     0.124 S 
ATOM     79  O   UNL A   1      42.812  22.697  27.499  1.00  0.00    -0.237 OA
ATOM     80  O   UNL A   1      40.621  22.794  26.349  1.00  0.00    -0.237 OA
ATOM     81  O   UNL A   1      42.703  22.667  25.034  1.00  0.00    -0.744 OA
ENDBRANCH  74  78
ENDBRANCH  47  71
BRANCH  59  82
ATOM     82  C   UNL A   1      44.598  27.173  33.924  1.00  0.00     0.023 A 
ATOM     83  C   UNL A   1      44.453  25.853  34.384  1.00  0.00     0.031 A 
ATOM     84  C   UNL A   1      45.851  27.793  34.076  1.00  0.00     0.131 A 
ATOM     85  C   UNL A   1      45.530  25.212  35.018  1.00  0.00     0.055 A 
ATOM     86  C   UNL A   1      46.934  27.131  34.656  1.00  0.00     0.041 A 
ATOM     87  F   UNL A   1      46.044  29.055  33.657  1.00  0.00    -0.206 F 
ATOM     88  C   UNL A   1      46.773  25.837  35.142  1.00  0.00     0.022 A 
BRANCH  85  89
ATOM     89  S   UNL A   1      45.259  23.577  35.755  1.00  0.00     0.124 S 
ATOM     90  O   UNL A   1      45.760  23.769  37.113  1.00  0.00    -0.237 OA
ATOM     91  O   UNL A   1      43.815  23.411  35.626  1.00  0.00    -0.237 OA
ATOM     92  O   UNL A   1      46.062  22.686  34.918  1.00  0.00    -0.744 OA
ENDBRANCH  85  89
ENDBRANCH  59  82
ENDBRANCH  33  34
ENDBRANCH  26  28
ENDBRANCH  25  26
ENDBRANCH  24  25
ENDBRANCH   1  24
TORSDOF 18
ENDMDL
MODEL 2
REMARK VINA RESULT:     -11.4      2.292      2.662
REMARK SMILES O=C(Cc1cccc(NS(=O)(=O)c2cccc(Cl)c2)c1)OCCOC(=O)c1ccc(-c2c3nc(c(-c4cc(S(=O)(=O)[O-])ccc4F)c4ccc([nH]4)c(-c4cc(S(=O)(=O)[O-])ccc4F)c4nc(c(-c5cc(S(=O)(=O)[O-])ccc5F)c5ccc2[nH]5)C=C4)C=C3)cc1
REMARK SMILES IDX 22 1 21 2 2 3 1 4 3 5 4 6 5 7 20 8 6 9 8 10 7 11 9 12 10 14
REMARK SMILES IDX 11 15 12 16 13 17 14 18 19 19 15 20 17 21 16 22 18 23 23 24
REMARK SMILES IDX 24 25 25 26 26 27 27 28 28 29 89 30 29 31 88 32 30 33 31 34
REMARK SMILES IDX 32 35 82 36 33 37 87 38 81 39 83 40 34 41 86 42 80 43 79 44
REMARK SMILES IDX 35 46 67 47 47 48 66 49 48 50 51 51 65 52 84 53 49 54 50 55
REMARK SMILES IDX 64 57 85 58 52 59 36 60 37 61 45 62 38 63 44 64 46 65 43 66
REMARK SMILES IDX 39 67 40 68 41 69 42 70 68 71 69 72 77 73 70 74 76 75 78 76
REMARK SMILES IDX 75 77 71 78 72 79 73 80 74 81 53 82 54 83 62 84 55 85 61 86
REMARK SMILES IDX 63 87 60 88 56 89 57 90 58 91 59 92
REMARK H PARENT 9 13 83 45 51 56
REMARK Flexibility Score: inf
ROOT
ATOM      1  C   UNL A   1      31.238  31.213  26.196  1.00  0.00     0.274 C 
ENDROOT
BRANCH   1   2
ATOM      2  O   UNL A   1      32.468  30.455  26.139  1.00  0.00    -0.462 OA
BRANCH   2   3
ATOM      3  C   UNL A   1      32.670  29.182  26.555  1.00  0.00     0.310 C 
ATOM      4  O   UNL A   1      31.914  28.690  27.392  1.00  0.00    -0.252 OA
BRANCH   3   5
ATOM      5  C   UNL A   1      33.846  28.395  26.030  1.00  0.00     0.158 C 
BRANCH   5   6
ATOM      6  C   UNL A   1      33.727  27.767  24.663  1.00  0.00    -0.035 A 
ATOM      7  C   UNL A   1      34.108  28.544  23.555  1.00  0.00     0.004 A 
ATOM      8  C   UNL A   1      33.168  26.497  24.452  1.00  0.00     0.031 A 
ATOM      9  C   UNL A   1      33.806  28.124  22.264  1.00  0.00     0.002 A 
ATOM     10  C   UNL A   1      32.819  26.103  23.159  1.00  0.00     0.049 A 
ATOM     11  C   UNL A   1      33.111  26.934  22.074  1.00  0.00     0.027 A 
BRANCH  10  12
ATOM     12  N   UNL A   1      32.073  24.895  22.946  1.00  0.00    -0.280 N 
ATOM     13  H   UNL A   1      31.097  24.925  22.830  1.00  0.00     0.180 HD
BRANCH  12  14
ATOM     14  S   UNL A   1      32.908  23.410  22.899  1.00  0.00     0.261 S 
ATOM     15  O   UNL A   1      31.906  22.374  22.764  1.00  0.00    -0.201 OA
ATOM     16  O   UNL A   1      33.939  23.560  21.891  1.00  0.00    -0.201 OA
BRANCH  14  17
ATOM     17  C   UNL A   1      33.693  23.219  24.473  1.00  0.00     0.089 A 
ATOM     18  C   UNL A   1      32.918  22.877  25.587  1.00  0.00     0.022 A 
ATOM     19  C   UNL A   1      35.070  23.426  24.592  1.00  0.00     0.042 A 
ATOM     20  C   UNL A   1      33.512  22.819  26.846  1.00  0.00     0.003 A 
ATOM     21  C   UNL A   1      35.654  23.346  25.854  1.00  0.00     0.042 A 
ATOM     22  C   UNL A   1      34.880  23.061  26.980  1.00  0.00     0.020 A 
ATOM     23  Cl  UNL A   1      37.343  23.627  26.028  1.00  0.00    -0.084 Cl
ENDBRANCH  14  17
ENDBRANCH  12  14
ENDBRANCH  10  12
ENDBRANCH   5   6
ENDBRANCH   3   5
ENDBRANCH   2   3
ENDBRANCH   1   2
BRANCH   1  24
ATOM     24  C   UNL A   1      31.448  32.612  26.766  1.00  0.00     0.275 C 
BRANCH  24  25
ATOM     25  O   UNL A   1      32.843  32.945  26.696  1.00  0.00    -0.458 OA
BRANCH  25  26
ATOM     26  C   UNL A   1      33.327  33.643  27.751  1.00  0.00     0.338 C 
ATOM     27  O   UNL A   1      32.769  34.560  28.328  1.00  0.00    -0.246 OA
BRANCH  26  28
ATOM     28  C   UNL A   1      34.554  32.977  28.243  1.00  0.00     0.060 A 
ATOM     29  C   UNL A   1      34.445  31.641  28.651  1.00  0.00     0.016 A 
ATOM     30  C   UNL A   1      35.798  33.619  28.254  1.00  0.00     0.016 A 
ATOM     31  C   UNL A   1      35.573  30.951  29.088  1.00  0.00     0.010 A 
ATOM     32  C   UNL A   1      36.926  32.928  28.701  1.00  0.00     0.010 A 
ATOM     33  C   UNL A   1      36.814  31.599  29.140  1.00  0.00    -0.014 A 
BRANCH  33  34
ATOM     34  C   UNL A   1      37.955  30.938  29.816  1.00  0.00     0.031 A 
ATOM     35  C   UNL A   1      38.241  31.297  31.246  1.00  0.00     0.074 A 
ATOM     36  C   UNL A   1      38.709  30.029  29.174  1.00  0.00     0.049 A 
ATOM     37  N   UNL A   1      39.176  30.851  32.044  1.00  0.00    -0.248 NA
ATOM     38  C   UNL A   1      37.353  32.300  31.853  1.00  0.00     0.031 C 
ATOM     39  C   UNL A   1      38.510  29.583  27.797  1.00  0.00     0.029 A 
ATOM     40  N   UNL A   1      39.802  29.319  29.604  1.00  0.00    -0.354 N 
ATOM     41  C   UNL A   1      38.979  31.506  33.254  1.00  0.00     0.074 A 
ATOM     42  C   UNL A   1      37.872  32.418  33.064  1.00  0.00     0.031 C 
ATOM     43  C   UNL A   1      39.459  28.680  27.490  1.00  0.00     0.029 A 
ATOM     44  C   UNL A   1      40.345  28.503  28.640  1.00  0.00     0.049 A 
ATOM     45  H   UNL A   1      40.164  29.387  30.517  1.00  0.00     0.167 HD
ATOM     46  C   UNL A   1      39.649  31.348  34.421  1.00  0.00     0.034 A 
ATOM     47  C   UNL A   1      41.440  27.718  28.680  1.00  0.00     0.034 A 
ATOM     48  C   UNL A   1      40.773  30.461  34.586  1.00  0.00     0.049 A 
ATOM     49  C   UNL A   1      42.236  27.634  29.962  1.00  0.00     0.074 A 
ATOM     50  C   UNL A   1      41.520  30.215  35.725  1.00  0.00     0.029 A 
ATOM     51  N   UNL A   1      41.328  29.687  33.574  1.00  0.00    -0.354 N 
ATOM     52  N   UNL A   1      42.020  28.230  31.112  1.00  0.00    -0.248 NA
ATOM     53  C   UNL A   1      43.419  26.762  29.951  1.00  0.00     0.031 C 
ATOM     54  C   UNL A   1      42.567  29.352  35.383  1.00  0.00     0.029 A 
ATOM     55  C   UNL A   1      42.431  28.996  34.051  1.00  0.00     0.049 A 
ATOM     56  H   UNL A   1      40.988  29.638  32.651  1.00  0.00     0.167 HD
ATOM     57  C   UNL A   1      43.020  27.778  31.970  1.00  0.00     0.074 A 
ATOM     58  C   UNL A   1      43.834  26.854  31.207  1.00  0.00     0.031 C 
ATOM     59  C   UNL A   1      43.242  28.088  33.273  1.00  0.00     0.034 A 
BRANCH  46  60
ATOM     60  C   UNL A   1      39.204  32.199  35.585  1.00  0.00     0.023 A 
ATOM     61  C   UNL A   1      39.596  33.544  35.705  1.00  0.00     0.031 A 
ATOM     62  C   UNL A   1      38.425  31.645  36.615  1.00  0.00     0.131 A 
ATOM     63  C   UNL A   1      39.279  34.264  36.866  1.00  0.00     0.055 A 
ATOM     64  C   UNL A   1      38.044  32.392  37.730  1.00  0.00     0.041 A 
ATOM     65  F   UNL A   1      38.043  30.359  36.567  1.00  0.00    -0.206 F 
ATOM     66  C   UNL A   1      38.485  33.705  37.869  1.00  0.00     0.022 A 
BRANCH  63  67
ATOM     67  S   UNL A   1      40.056  35.884  37.118  1.00  0.00     0.124 S 
ATOM     68  O   UNL A   1      39.697  36.577  35.883  1.00  0.00    -0.237 OA
ATOM     69  O   UNL A   1      39.403  36.360  38.331  1.00  0.00    -0.237 OA
ATOM     70  O   UNL A   1      41.476  35.566  37.255  1.00  0.00    -0.744 OA
ENDBRANCH  63  67
ENDBRANCH  46  60
BRANCH  47  71
ATOM     71  C   UNL A   1      41.881  26.970  27.468  1.00  0.00     0.023 A 
ATOM     72  C   UNL A   1      41.722  25.578  27.374  1.00  0.00     0.031 A 
ATOM     73  C   UNL A   1      42.524  27.634  26.408  1.00  0.00     0.131 A 
ATOM     74  C   UNL A   1      42.242  24.888  26.269  1.00  0.00     0.055 A 
ATOM     75  C   UNL A   1      42.998  26.948  25.288  1.00  0.00     0.041 A 
ATOM     76  F   UNL A   1      42.699  28.964  26.447  1.00  0.00    -0.206 F 
ATOM     77  C   UNL A   1      42.870  25.565  25.220  1.00  0.00     0.022 A 
BRANCH  74  78
ATOM     78  S   UNL A   1      42.158  23.076  26.256  1.00  0.00     0.124 S 
ATOM     79  O   UNL A   1      42.739  22.762  24.957  1.00  0.00    -0.237 OA
ATOM     80  O   UNL A   1      42.964  22.729  27.423  1.00  0.00    -0.237 OA
ATOM     81  O   UNL A   1      40.728  22.802  26.387  1.00  0.00    -0.744 OA
ENDBRANCH  74  78
ENDBRANCH  47  71
BRANCH  59  82
ATOM     82  C   UNL A   1      44.387  27.388  33.965  1.00  0.00     0.023 A 
ATOM     83  C   UNL A   1      45.679  27.942  34.007  1.00  0.00     0.031 A 
ATOM     84  C   UNL A   1      44.179  26.146  34.591  1.00  0.00     0.131 A 
ATOM     85  C   UNL A   1      46.724  27.231  34.619  1.00  0.00     0.055 A 
ATOM     86  C   UNL A   1      45.209  25.472  35.248  1.00  0.00     0.041 A 
ATOM     87  F   UNL A   1      42.966  25.570  34.579  1.00  0.00    -0.206 F 
ATOM     88  C   UNL A   1      46.493  26.008  35.254  1.00  0.00     0.022 A 
BRANCH  85  89
ATOM     89  S   UNL A   1      48.410  27.889  34.504  1.00  0.00     0.124 S 
ATOM     90  O   UNL A   1      48.188  29.183  33.865  1.00  0.00    -0.237 OA
ATOM     91  O   UNL A   1      48.825  27.932  35.902  1.00  0.00    -0.237 OA
ATOM     92  O   UNL A   1      49.108  26.902  33.681  1.00  0.00    -0.744 OA
ENDBRANCH  85  89
ENDBRANCH  59  82
ENDBRANCH  33  34
ENDBRANCH  26  28
ENDBRANCH  25  26
ENDBRANCH  24  25
ENDBRANCH   1  24
TORSDOF 18
ENDMDL
MODEL 3
REMARK VINA RESULT:     -11.4      1.584      1.774
REMARK SMILES O=C(Cc1cccc(NS(=O)(=O)c2cccc(Cl)c2)c1)OCCOC(=O)c1ccc(-c2c3nc(c(-c4cc(S(=O)(=O)[O-])ccc4F)c4ccc([nH]4)c(-c4cc(S(=O)(=O)[O-])ccc4F)c4nc(c(-c5cc(S(=O)(=O)[O-])ccc5F)c5ccc2[nH]5)C=C4)C=C3)cc1
REMARK SMILES IDX 22 1 21 2 2 3 1 4 3 5 4 6 5 7 20 8 6 9 8 10 7 11 9 12 10 14
REMARK SMILES IDX 11 15 12 16 13 17 14 18 19 19 15 20 17 21 16 22 18 23 23 24
REMARK SMILES IDX 24 25 25 26 26 27 27 28 28 29 89 30 29 31 88 32 30 33 31 34
REMARK SMILES IDX 32 35 82 36 33 37 87 38 81 39 83 40 34 41 86 42 80 43 79 44
REMARK SMILES IDX 35 46 67 47 47 48 66 49 48 50 51 51 65 52 84 53 49 54 50 55
REMARK SMILES IDX 64 57 85 58 52 59 36 60 37 61 45 62 38 63 44 64 46 65 43 66
REMARK SMILES IDX 39 67 40 68 41 69 42 70 68 71 69 72 77 73 70 74 76 75 78 76
REMARK SMILES IDX 75 77 71 78 72 79 73 80 74 81 53 82 54 83 62 84 55 85 61 86
REMARK SMILES IDX 63 87 60 88 56 89 57 90 58 91 59 92
REMARK H PARENT 9 13 83 45 51 56
REMARK Flexibility Score: inf
ROOT
ATOM      1  C   UNL A   1      31.403  31.818  26.584  1.00  0.00     0.274 C 
ENDROOT
BRANCH   1   2
ATOM      2  O   UNL A   1      32.375  30.765  26.776  1.00  0.00    -0.462 OA
BRANCH   2   3
ATOM      3  C   UNL A   1      32.651  29.737  25.939  1.00  0.00     0.310 C 
ATOM      4  O   UNL A   1      33.769  29.225  25.953  1.00  0.00    -0.252 OA
BRANCH   3   5
ATOM      5  C   UNL A   1      31.604  29.261  24.961  1.00  0.00     0.158 C 
BRANCH   5   6
ATOM      6  C   UNL A   1      31.689  27.839  24.465  1.00  0.00    -0.035 A 
ATOM      7  C   UNL A   1      32.321  27.617  23.229  1.00  0.00     0.004 A 
ATOM      8  C   UNL A   1      31.085  26.760  25.130  1.00  0.00     0.031 A 
ATOM      9  C   UNL A   1      32.228  26.379  22.602  1.00  0.00     0.002 A 
ATOM     10  C   UNL A   1      30.949  25.535  24.476  1.00  0.00     0.049 A 
ATOM     11  C   UNL A   1      31.492  25.360  23.201  1.00  0.00     0.027 A 
BRANCH  10  12
ATOM     12  N   UNL A   1      30.166  24.483  25.062  1.00  0.00    -0.280 N 
ATOM     13  H   UNL A   1      29.228  24.353  24.799  1.00  0.00     0.180 HD
BRANCH  12  14
ATOM     14  S   UNL A   1      30.892  23.467  26.222  1.00  0.00     0.261 S 
ATOM     15  O   UNL A   1      31.222  24.301  27.357  1.00  0.00    -0.201 OA
ATOM     16  O   UNL A   1      29.998  22.338  26.383  1.00  0.00    -0.201 OA
BRANCH  14  17
ATOM     17  C   UNL A   1      32.402  22.881  25.508  1.00  0.00     0.089 A 
ATOM     18  C   UNL A   1      32.372  21.767  24.661  1.00  0.00     0.022 A 
ATOM     19  C   UNL A   1      33.607  23.524  25.808  1.00  0.00     0.042 A 
ATOM     20  C   UNL A   1      33.567  21.243  24.173  1.00  0.00     0.003 A 
ATOM     21  C   UNL A   1      34.792  23.000  25.298  1.00  0.00     0.042 A 
ATOM     22  C   UNL A   1      34.779  21.856  24.497  1.00  0.00     0.020 A 
ATOM     23  Cl  UNL A   1      36.290  23.757  25.678  1.00  0.00    -0.084 Cl
ENDBRANCH  14  17
ENDBRANCH  12  14
ENDBRANCH  10  12
ENDBRANCH   5   6
ENDBRANCH   3   5
ENDBRANCH   2   3
ENDBRANCH   1   2
BRANCH   1  24
ATOM     24  C   UNL A   1      32.029  33.206  26.675  1.00  0.00     0.275 C 
BRANCH  24  25
ATOM     25  O   UNL A   1      32.239  33.539  28.056  1.00  0.00    -0.458 OA
BRANCH  25  26
ATOM     26  C   UNL A   1      33.242  34.417  28.295  1.00  0.00     0.338 C 
ATOM     27  O   UNL A   1      33.150  35.632  28.317  1.00  0.00    -0.246 OA
BRANCH  26  28
ATOM     28  C   UNL A   1      34.437  33.668  28.745  1.00  0.00     0.060 A 
ATOM     29  C   UNL A   1      34.225  32.450  29.405  1.00  0.00     0.016 A 
ATOM     30  C   UNL A   1      35.739  34.110  28.481  1.00  0.00     0.016 A 
ATOM     31  C   UNL A   1      35.311  31.683  29.819  1.00  0.00     0.010 A 
ATOM     32  C   UNL A   1      36.826  33.342  28.903  1.00  0.00     0.010 A 
ATOM     33  C   UNL A   1      36.617  32.137  29.594  1.00  0.00    -0.014 A 
BRANCH  33  34
ATOM     34  C   UNL A   1      37.755  31.437  30.232  1.00  0.00     0.031 A 
ATOM     35  C   UNL A   1      38.102  31.787  31.651  1.00  0.00     0.074 A 
ATOM     36  C   UNL A   1      38.454  30.499  29.568  1.00  0.00     0.049 A 
ATOM     37  N   UNL A   1      39.046  31.309  32.418  1.00  0.00    -0.248 NA
ATOM     38  C   UNL A   1      37.271  32.822  32.285  1.00  0.00     0.031 C 
ATOM     39  C   UNL A   1      38.193  30.059  28.200  1.00  0.00     0.029 A 
ATOM     40  N   UNL A   1      39.534  29.751  29.963  1.00  0.00    -0.354 N 
ATOM     41  C   UNL A   1      38.914  31.972  33.633  1.00  0.00     0.074 A 
ATOM     42  C   UNL A   1      37.835  32.924  33.478  1.00  0.00     0.031 C 
ATOM     43  C   UNL A   1      39.097  29.122  27.863  1.00  0.00     0.029 A 
ATOM     44  C   UNL A   1      40.014  28.914  28.984  1.00  0.00     0.049 A 
ATOM     45  H   UNL A   1      39.928  29.807  30.863  1.00  0.00     0.167 HD
ATOM     46  C   UNL A   1      39.617  31.791  34.777  1.00  0.00     0.034 A 
ATOM     47  C   UNL A   1      41.081  28.090  28.989  1.00  0.00     0.034 A 
ATOM     48  C   UNL A   1      40.712  30.864  34.907  1.00  0.00     0.049 A 
ATOM     49  C   UNL A   1      41.915  27.978  30.244  1.00  0.00     0.074 A 
ATOM     50  C   UNL A   1      41.487  30.593  36.021  1.00  0.00     0.029 A 
ATOM     51  N   UNL A   1      41.204  30.069  33.879  1.00  0.00    -0.354 N 
ATOM     52  N   UNL A   1      41.760  28.584  31.399  1.00  0.00    -0.248 NA
ATOM     53  C   UNL A   1      43.065  27.064  30.196  1.00  0.00     0.031 C 
ATOM     54  C   UNL A   1      42.491  29.692  35.647  1.00  0.00     0.029 A 
ATOM     55  C   UNL A   1      42.296  29.339  34.321  1.00  0.00     0.049 A 
ATOM     56  H   UNL A   1      40.832  30.031  32.968  1.00  0.00     0.167 HD
ATOM     57  C   UNL A   1      42.771  28.097  32.224  1.00  0.00     0.074 A 
ATOM     58  C   UNL A   1      43.525  27.143  31.437  1.00  0.00     0.031 C 
ATOM     59  C   UNL A   1      43.048  28.401  33.519  1.00  0.00     0.034 A 
BRANCH  46  60
ATOM     60  C   UNL A   1      39.242  32.660  35.953  1.00  0.00     0.023 A 
ATOM     61  C   UNL A   1      39.721  33.976  36.077  1.00  0.00     0.031 A 
ATOM     62  C   UNL A   1      38.444  32.148  36.990  1.00  0.00     0.131 A 
ATOM     63  C   UNL A   1      39.466  34.706  37.247  1.00  0.00     0.055 A 
ATOM     64  C   UNL A   1      38.125  32.910  38.116  1.00  0.00     0.041 A 
ATOM     65  F   UNL A   1      37.980  30.889  36.939  1.00  0.00    -0.206 F 
ATOM     66  C   UNL A   1      38.651  34.190  38.258  1.00  0.00     0.022 A 
BRANCH  63  67
ATOM     67  S   UNL A   1      40.347  36.272  37.500  1.00  0.00     0.124 S 
ATOM     68  O   UNL A   1      40.387  36.808  36.141  1.00  0.00    -0.237 OA
ATOM     69  O   UNL A   1      39.480  36.972  38.438  1.00  0.00    -0.237 OA
ATOM     70  O   UNL A   1      41.641  35.854  38.036  1.00  0.00    -0.744 OA
ENDBRANCH  63  67
ENDBRANCH  46  60
BRANCH  47  71
ATOM     71  C   UNL A   1      41.452  27.325  27.765  1.00  0.00     0.023 A 
ATOM     72  C   UNL A   1      41.277  25.933  27.696  1.00  0.00     0.031 A 
ATOM     73  C   UNL A   1      42.046  27.970  26.667  1.00  0.00     0.131 A 
ATOM     74  C   UNL A   1      41.735  25.226  26.574  1.00  0.00     0.055 A 
ATOM     75  C   UNL A   1      42.458  27.268  25.532  1.00  0.00     0.041 A 
ATOM     76  F   UNL A   1      42.234  29.299  26.680  1.00  0.00    -0.206 F 
ATOM     77  C   UNL A   1      42.315  25.885  25.487  1.00  0.00     0.022 A 
BRANCH  74  78
ATOM     78  S   UNL A   1      41.635  23.414  26.586  1.00  0.00     0.124 S 
ATOM     79  O   UNL A   1      42.156  23.099  27.911  1.00  0.00    -0.237 OA
ATOM     80  O   UNL A   1      40.206  23.191  26.386  1.00  0.00    -0.237 OA
ATOM     81  O   UNL A   1      42.488  23.020  25.467  1.00  0.00    -0.744 OA
ENDBRANCH  74  78
ENDBRANCH  47  71
BRANCH  59  82
ATOM     82  C   UNL A   1      44.189  27.660  34.173  1.00  0.00     0.023 A 
ATOM     83  C   UNL A   1      44.003  26.415  34.800  1.00  0.00     0.031 A 
ATOM     84  C   UNL A   1      45.483  28.212  34.169  1.00  0.00     0.131 A 
ATOM     85  C   UNL A   1      45.084  25.786  35.438  1.00  0.00     0.055 A 
ATOM     86  C   UNL A   1      46.565  27.555  34.755  1.00  0.00     0.041 A 
ATOM     87  F   UNL A   1      45.716  29.399  33.587  1.00  0.00    -0.206 F 
ATOM     88  C   UNL A   1      46.367  26.340  35.405  1.00  0.00     0.022 A 
BRANCH  85  89
ATOM     89  S   UNL A   1      44.775  24.271  36.385  1.00  0.00     0.124 S 
ATOM     90  O   UNL A   1      44.398  24.801  37.692  1.00  0.00    -0.237 OA
ATOM     91  O   UNL A   1      43.706  23.637  35.621  1.00  0.00    -0.237 OA
ATOM     92  O   UNL A   1      46.061  23.574  36.347  1.00  0.00    -0.744 OA
ENDBRANCH  85  89
ENDBRANCH  59  82
ENDBRANCH  33  34
ENDBRANCH  26  28
ENDBRANCH  25  26
ENDBRANCH  24  25
ENDBRANCH   1  24
TORSDOF 18
ENDMDL
