MODEL 1
REMARK VINA RESULT:     -11.2      0.000      0.000
REMARK SMILES O=C(CSCc1ccc(C(=O)OCCOC(=O)c2ccc(-c3c4nc(c(-c5cc(S(=O)(=O)[O-])ccc5F)c5ccc([nH]5)c(-c5cc(S(=O)(=O)[O-])ccc5F)c5nc(c(-c6cc(S(=O)(=O)[O-])ccc6F)c6ccc3[nH]6)C=C5)C=C4)cc2)cc1)Nc1ccc(Cl)cc1
REMARK SMILES IDX 13 1 12 2 10 3 11 4 9 5 6 6 7 7 82 8 8 9 81 10 5 11 4 12
REMARK SMILES IDX 3 13 2 14 1 15 83 16 84 18 85 19 90 20 86 21 89 22 87 23
REMARK SMILES IDX 88 24 14 25 15 26 16 27 17 28 18 29 19 30 80 31 20 32 79 33
REMARK SMILES IDX 21 34 22 35 23 36 73 37 24 38 78 39 72 40 74 41 25 42 77 43
REMARK SMILES IDX 71 44 70 45 26 47 58 48 38 49 57 50 39 51 42 52 56 53 75 54
REMARK SMILES IDX 40 55 41 56 55 58 76 59 43 60 27 61 28 62 36 63 29 64 35 65
REMARK SMILES IDX 37 66 34 67 30 68 31 69 32 70 33 71 59 72 60 73 68 74 61 75
REMARK SMILES IDX 67 76 69 77 66 78 62 79 63 80 64 81 65 82 44 83 45 84 53 85
REMARK SMILES IDX 46 86 52 87 54 88 51 89 47 90 48 91 49 92 50 93
REMARK H PARENT 83 17 74 46 42 57
REMARK Flexibility Score: inf
ROOT
ATOM      1  C   UNL A   1      38.659  19.903  24.966  1.00  0.00     0.275 C 
ENDROOT
BRANCH   1   2
ATOM      2  O   UNL A   1      37.567  20.626  25.567  1.00  0.00    -0.458 OA
BRANCH   2   3
ATOM      3  C   UNL A   1      37.777  21.955  25.741  1.00  0.00     0.338 C 
ATOM      4  O   UNL A   1      38.718  22.467  26.328  1.00  0.00    -0.246 OA
BRANCH   3   5
ATOM      5  C   UNL A   1      36.733  22.754  25.058  1.00  0.00     0.060 A 
ATOM      6  C   UNL A   1      34.657  24.243  23.890  1.00  0.00    -0.038 A 
ATOM      7  C   UNL A   1      34.986  24.426  25.238  1.00  0.00     0.005 A 
ATOM      8  C   UNL A   1      35.396  23.325  23.125  1.00  0.00     0.005 A 
ATOM      9  C   UNL A   1      35.990  23.662  25.823  1.00  0.00     0.016 A 
ATOM     10  C   UNL A   1      36.438  22.591  23.702  1.00  0.00     0.016 A 
BRANCH   6  11
ATOM     11  C   UNL A   1      33.490  24.986  23.298  1.00  0.00     0.105 C 
BRANCH  11  12
ATOM     12  S   UNL A   1      32.129  25.253  24.497  1.00  0.00    -0.147 SA
BRANCH  12  13
ATOM     13  C   UNL A   1      31.065  23.808  24.130  1.00  0.00     0.170 C 
BRANCH  13  14
ATOM     14  C   UNL A   1      31.640  22.502  24.667  1.00  0.00     0.234 C 
ATOM     15  O   UNL A   1      31.579  22.230  25.863  1.00  0.00    -0.274 OA
ATOM     16  N   UNL A   1      32.158  21.688  23.675  1.00  0.00    -0.325 N 
ATOM     17  H   UNL A   1      32.119  22.049  22.760  1.00  0.00     0.169 HD
BRANCH  16  18
ATOM     18  C   UNL A   1      32.732  20.415  23.806  1.00  0.00     0.041 A 
ATOM     19  C   UNL A   1      32.153  19.379  23.063  1.00  0.00     0.027 A 
ATOM     20  C   UNL A   1      33.828  20.136  24.624  1.00  0.00     0.027 A 
ATOM     21  C   UNL A   1      32.672  18.083  23.125  1.00  0.00     0.022 A 
ATOM     22  C   UNL A   1      34.343  18.837  24.697  1.00  0.00     0.022 A 
ATOM     23  C   UNL A   1      33.766  17.817  23.946  1.00  0.00     0.041 A 
ATOM     24  Cl  UNL A   1      34.403  16.223  24.032  1.00  0.00    -0.084 Cl
ENDBRANCH  16  18
ENDBRANCH  13  14
ENDBRANCH  12  13
ENDBRANCH  11  12
ENDBRANCH   6  11
ENDBRANCH   3   5
ENDBRANCH   2   3
ENDBRANCH   1   2
BRANCH   1  25
ATOM     25  C   UNL A   1      39.550  19.257  26.026  1.00  0.00     0.275 C 
BRANCH  25  26
ATOM     26  O   UNL A   1      40.912  19.202  25.567  1.00  0.00    -0.458 OA
BRANCH  26  27
ATOM     27  C   UNL A   1      41.850  19.543  26.481  1.00  0.00     0.338 C 
ATOM     28  O   UNL A   1      42.640  18.803  27.042  1.00  0.00    -0.246 OA
BRANCH  27  29
ATOM     29  C   UNL A   1      41.813  20.996  26.718  1.00  0.00     0.060 A 
ATOM     30  C   UNL A   1      41.812  21.860  25.628  1.00  0.00     0.016 A 
ATOM     31  C   UNL A   1      41.941  21.502  28.009  1.00  0.00     0.016 A 
ATOM     32  C   UNL A   1      42.044  23.223  25.809  1.00  0.00     0.010 A 
ATOM     33  C   UNL A   1      42.072  22.885  28.197  1.00  0.00     0.010 A 
ATOM     34  C   UNL A   1      42.177  23.760  27.098  1.00  0.00    -0.014 A 
BRANCH  34  35
ATOM     35  C   UNL A   1      42.495  25.208  27.296  1.00  0.00     0.031 A 
ATOM     36  C   UNL A   1      43.810  25.763  26.799  1.00  0.00     0.074 A 
ATOM     37  C   UNL A   1      41.617  26.039  27.894  1.00  0.00     0.049 A 
ATOM     38  N   UNL A   1      44.368  26.923  27.036  1.00  0.00    -0.248 NA
ATOM     39  C   UNL A   1      44.609  24.883  25.935  1.00  0.00     0.031 C 
ATOM     40  C   UNL A   1      40.287  25.665  28.376  1.00  0.00     0.029 A 
ATOM     41  N   UNL A   1      41.709  27.378  28.195  1.00  0.00    -0.354 N 
ATOM     42  C   UNL A   1      45.611  26.888  26.408  1.00  0.00     0.074 A 
ATOM     43  C   UNL A   1      45.725  25.583  25.790  1.00  0.00     0.031 C 
ATOM     44  C   UNL A   1      39.674  26.750  28.872  1.00  0.00     0.029 A 
ATOM     45  C   UNL A   1      40.599  27.877  28.839  1.00  0.00     0.049 A 
ATOM     46  H   UNL A   1      42.494  27.928  27.971  1.00  0.00     0.167 HD
ATOM     47  C   UNL A   1      46.566  27.851  26.355  1.00  0.00     0.034 A 
ATOM     48  C   UNL A   1      40.365  29.087  29.388  1.00  0.00     0.034 A 
ATOM     49  C   UNL A   1      46.414  29.168  26.928  1.00  0.00     0.049 A 
ATOM     50  C   UNL A   1      41.449  30.132  29.344  1.00  0.00     0.074 A 
ATOM     51  C   UNL A   1      47.313  30.223  26.920  1.00  0.00     0.029 A 
ATOM     52  N   UNL A   1      45.285  29.620  27.599  1.00  0.00    -0.354 N 
ATOM     53  N   UNL A   1      42.649  30.055  28.820  1.00  0.00    -0.248 NA
ATOM     54  C   UNL A   1      41.150  31.422  29.981  1.00  0.00     0.031 C 
ATOM     55  C   UNL A   1      46.751  31.289  27.632  1.00  0.00     0.029 A 
ATOM     56  C   UNL A   1      45.471  30.928  28.024  1.00  0.00     0.049 A 
ATOM     57  H   UNL A   1      44.470  29.088  27.752  1.00  0.00     0.167 HD
ATOM     58  C   UNL A   1      43.243  31.293  29.052  1.00  0.00     0.074 A 
ATOM     59  C   UNL A   1      42.261  32.103  29.742  1.00  0.00     0.031 C 
ATOM     60  C   UNL A   1      44.489  31.720  28.724  1.00  0.00     0.034 A 
BRANCH  47  61
ATOM     61  C   UNL A   1      47.884  27.490  25.706  1.00  0.00     0.023 A 
ATOM     62  C   UNL A   1      48.128  27.694  24.337  1.00  0.00     0.031 A 
ATOM     63  C   UNL A   1      48.903  26.897  26.473  1.00  0.00     0.131 A 
ATOM     64  C   UNL A   1      49.328  27.238  23.765  1.00  0.00     0.055 A 
ATOM     65  C   UNL A   1      50.127  26.523  25.914  1.00  0.00     0.041 A 
ATOM     66  F   UNL A   1      48.724  26.659  27.783  1.00  0.00    -0.206 F 
ATOM     67  C   UNL A   1      50.338  26.677  24.548  1.00  0.00     0.022 A 
BRANCH  64  68
ATOM     68  S   UNL A   1      49.489  27.255  21.957  1.00  0.00     0.124 S 
ATOM     69  O   UNL A   1      48.960  28.578  21.626  1.00  0.00    -0.237 OA
ATOM     70  O   UNL A   1      50.922  27.074  21.766  1.00  0.00    -0.237 OA
ATOM     71  O   UNL A   1      48.654  26.134  21.528  1.00  0.00    -0.744 OA
ENDBRANCH  64  68
ENDBRANCH  47  61
BRANCH  48  72
ATOM     72  C   UNL A   1      39.077  29.356  30.092  1.00  0.00     0.023 A 
ATOM     73  C   UNL A   1      38.083  30.160  29.511  1.00  0.00     0.031 A 
ATOM     74  C   UNL A   1      38.836  28.836  31.377  1.00  0.00     0.131 A 
ATOM     75  C   UNL A   1      36.909  30.446  30.226  1.00  0.00     0.055 A 
ATOM     76  C   UNL A   1      37.643  29.077  32.061  1.00  0.00     0.041 A 
ATOM     77  F   UNL A   1      39.754  28.065  31.982  1.00  0.00    -0.206 F 
ATOM     78  C   UNL A   1      36.676  29.896  31.489  1.00  0.00     0.022 A 
BRANCH  75  79
ATOM     79  S   UNL A   1      35.718  31.614  29.513  1.00  0.00     0.124 S 
ATOM     80  O   UNL A   1      34.913  31.967  30.676  1.00  0.00    -0.237 OA
ATOM     81  O   UNL A   1      36.592  32.662  28.996  1.00  0.00    -0.237 OA
ATOM     82  O   UNL A   1      35.032  30.821  28.495  1.00  0.00    -0.744 OA
ENDBRANCH  75  79
ENDBRANCH  48  72
BRANCH  60  83
ATOM     83  C   UNL A   1      44.832  33.148  29.072  1.00  0.00     0.023 A 
ATOM     84  C   UNL A   1      44.522  34.215  28.209  1.00  0.00     0.031 A 
ATOM     85  C   UNL A   1      45.506  33.439  30.271  1.00  0.00     0.131 A 
ATOM     86  C   UNL A   1      44.937  35.516  28.533  1.00  0.00     0.055 A 
ATOM     87  C   UNL A   1      45.867  34.742  30.613  1.00  0.00     0.041 A 
ATOM     88  F   UNL A   1      45.829  32.457  31.129  1.00  0.00    -0.206 F 
ATOM     89  C   UNL A   1      45.595  35.788  29.735  1.00  0.00     0.022 A 
BRANCH  86  90
ATOM     90  S   UNL A   1      44.689  36.838  27.316  1.00  0.00     0.124 S 
ATOM     91  O   UNL A   1      43.471  36.404  26.639  1.00  0.00    -0.237 OA
ATOM     92  O   UNL A   1      44.561  38.021  28.162  1.00  0.00    -0.237 OA
ATOM     93  O   UNL A   1      45.902  36.788  26.501  1.00  0.00    -0.744 OA
ENDBRANCH  86  90
ENDBRANCH  60  83
ENDBRANCH  34  35
ENDBRANCH  27  29
ENDBRANCH  26  27
ENDBRANCH  25  26
ENDBRANCH   1  25
TORSDOF 19
ENDMDL
MODEL 2
REMARK VINA RESULT:     -11.2      6.337      9.894
REMARK SMILES O=C(CSCc1ccc(C(=O)OCCOC(=O)c2ccc(-c3c4nc(c(-c5cc(S(=O)(=O)[O-])ccc5F)c5ccc([nH]5)c(-c5cc(S(=O)(=O)[O-])ccc5F)c5nc(c(-c6cc(S(=O)(=O)[O-])ccc6F)c6ccc3[nH]6)C=C5)C=C4)cc2)cc1)Nc1ccc(Cl)cc1
REMARK SMILES IDX 13 1 12 2 10 3 11 4 9 5 6 6 7 7 82 8 8 9 81 10 5 11 4 12
REMARK SMILES IDX 3 13 2 14 1 15 83 16 84 18 85 19 90 20 86 21 89 22 87 23
REMARK SMILES IDX 88 24 14 25 15 26 16 27 17 28 18 29 19 30 80 31 20 32 79 33
REMARK SMILES IDX 21 34 22 35 23 36 73 37 24 38 78 39 72 40 74 41 25 42 77 43
REMARK SMILES IDX 71 44 70 45 26 47 58 48 38 49 57 50 39 51 42 52 56 53 75 54
REMARK SMILES IDX 40 55 41 56 55 58 76 59 43 60 27 61 28 62 36 63 29 64 35 65
REMARK SMILES IDX 37 66 34 67 30 68 31 69 32 70 33 71 59 72 60 73 68 74 61 75
REMARK SMILES IDX 67 76 69 77 66 78 62 79 63 80 64 81 65 82 44 83 45 84 53 85
REMARK SMILES IDX 46 86 52 87 54 88 51 89 47 90 48 91 49 92 50 93
REMARK H PARENT 83 17 74 46 42 57
REMARK Flexibility Score: inf
ROOT
ATOM      1  C   UNL A   1      32.129  32.134  26.581  1.00  0.00     0.275 C 
ENDROOT
BRANCH   1   2
ATOM      2  O   UNL A   1      32.295  30.980  27.426  1.00  0.00    -0.458 OA
BRANCH   2   3
ATOM      3  C   UNL A   1      33.420  30.255  27.204  1.00  0.00     0.338 C 
ATOM      4  O   UNL A   1      34.569  30.659  27.287  1.00  0.00    -0.246 OA
BRANCH   3   5
ATOM      5  C   UNL A   1      33.092  28.842  26.898  1.00  0.00     0.060 A 
ATOM      6  C   UNL A   1      32.544  26.183  26.177  1.00  0.00    -0.038 A 
ATOM      7  C   UNL A   1      33.815  26.727  25.960  1.00  0.00     0.005 A 
ATOM      8  C   UNL A   1      31.557  26.977  26.784  1.00  0.00     0.005 A 
ATOM      9  C   UNL A   1      34.074  28.054  26.285  1.00  0.00     0.016 A 
ATOM     10  C   UNL A   1      31.831  28.298  27.154  1.00  0.00     0.016 A 
BRANCH   6  11
ATOM     11  C   UNL A   1      32.240  24.785  25.711  1.00  0.00     0.105 C 
BRANCH  11  12
ATOM     12  S   UNL A   1      32.946  24.411  24.061  1.00  0.00    -0.147 SA
BRANCH  12  13
ATOM     13  C   UNL A   1      31.437  24.479  23.023  1.00  0.00     0.170 C 
BRANCH  13  14
ATOM     14  C   UNL A   1      31.047  25.903  22.646  1.00  0.00     0.234 C 
ATOM     15  O   UNL A   1      31.529  26.450  21.658  1.00  0.00    -0.274 OA
ATOM     16  N   UNL A   1      30.089  26.444  23.486  1.00  0.00    -0.325 N 
ATOM     17  H   UNL A   1      29.796  25.868  24.229  1.00  0.00     0.169 HD
BRANCH  16  18
ATOM     18  C   UNL A   1      29.483  27.707  23.417  1.00  0.00     0.041 A 
ATOM     19  C   UNL A   1      30.294  28.816  23.690  1.00  0.00     0.027 A 
ATOM     20  C   UNL A   1      28.139  27.909  23.098  1.00  0.00     0.027 A 
ATOM     21  C   UNL A   1      29.772  30.111  23.630  1.00  0.00     0.022 A 
ATOM     22  C   UNL A   1      27.611  29.204  23.048  1.00  0.00     0.022 A 
ATOM     23  C   UNL A   1      28.430  30.299  23.311  1.00  0.00     0.041 A 
ATOM     24  Cl  UNL A   1      27.781  31.890  23.244  1.00  0.00    -0.084 Cl
ENDBRANCH  16  18
ENDBRANCH  13  14
ENDBRANCH  12  13
ENDBRANCH  11  12
ENDBRANCH   6  11
ENDBRANCH   3   5
ENDBRANCH   2   3
ENDBRANCH   1   2
BRANCH   1  25
ATOM     25  C   UNL A   1      31.816  33.385  27.401  1.00  0.00     0.275 C 
BRANCH  25  26
ATOM     26  O   UNL A   1      33.023  34.124  27.663  1.00  0.00    -0.458 OA
BRANCH  26  27
ATOM     27  C   UNL A   1      33.281  34.373  28.968  1.00  0.00     0.338 C 
ATOM     28  O   UNL A   1      32.623  35.054  29.735  1.00  0.00    -0.246 OA
BRANCH  27  29
ATOM     29  C   UNL A   1      34.509  33.672  29.378  1.00  0.00     0.060 A 
ATOM     30  C   UNL A   1      34.409  32.556  30.203  1.00  0.00     0.016 A 
ATOM     31  C   UNL A   1      35.759  34.210  29.081  1.00  0.00     0.016 A 
ATOM     32  C   UNL A   1      35.544  32.033  30.821  1.00  0.00     0.010 A 
ATOM     33  C   UNL A   1      36.910  33.621  29.623  1.00  0.00     0.010 A 
ATOM     34  C   UNL A   1      36.815  32.555  30.540  1.00  0.00    -0.014 A 
BRANCH  34  35
ATOM     35  C   UNL A   1      38.028  32.045  31.253  1.00  0.00     0.031 A 
ATOM     36  C   UNL A   1      38.907  31.009  30.593  1.00  0.00     0.074 A 
ATOM     37  C   UNL A   1      38.366  32.511  32.473  1.00  0.00     0.049 A 
ATOM     38  N   UNL A   1      39.878  30.293  31.103  1.00  0.00    -0.248 NA
ATOM     39  C   UNL A   1      38.642  30.729  29.175  1.00  0.00     0.031 C 
ATOM     40  C   UNL A   1      37.649  33.550  33.214  1.00  0.00     0.029 A 
ATOM     41  N   UNL A   1      39.406  32.173  33.307  1.00  0.00    -0.354 N 
ATOM     42  C   UNL A   1      40.294  29.433  30.089  1.00  0.00     0.074 A 
ATOM     43  C   UNL A   1      39.458  29.712  28.940  1.00  0.00     0.031 C 
ATOM     44  C   UNL A   1      38.290  33.794  34.367  1.00  0.00     0.029 A 
ATOM     45  C   UNL A   1      39.404  32.862  34.500  1.00  0.00     0.049 A 
ATOM     46  H   UNL A   1      40.088  31.503  33.074  1.00  0.00     0.167 HD
ATOM     47  C   UNL A   1      41.278  28.498  30.115  1.00  0.00     0.034 A 
ATOM     48  C   UNL A   1      40.174  32.729  35.599  1.00  0.00     0.034 A 
ATOM     49  C   UNL A   1      42.141  28.270  31.251  1.00  0.00     0.049 A 
ATOM     50  C   UNL A   1      41.241  31.665  35.620  1.00  0.00     0.074 A 
ATOM     51  C   UNL A   1      43.177  27.359  31.380  1.00  0.00     0.029 A 
ATOM     52  N   UNL A   1      42.083  28.969  32.450  1.00  0.00    -0.354 N 
ATOM     53  N   UNL A   1      41.567  30.805  34.684  1.00  0.00    -0.248 NA
ATOM     54  C   UNL A   1      42.033  31.547  36.852  1.00  0.00     0.031 C 
ATOM     55  C   UNL A   1      43.706  27.469  32.671  1.00  0.00     0.029 A 
ATOM     56  C   UNL A   1      43.049  28.498  33.327  1.00  0.00     0.049 A 
ATOM     57  H   UNL A   1      41.447  29.694  32.649  1.00  0.00     0.167 HD
ATOM     58  C   UNL A   1      42.613  30.052  35.212  1.00  0.00     0.074 A 
ATOM     59  C   UNL A   1      42.876  30.575  36.536  1.00  0.00     0.031 C 
ATOM     60  C   UNL A   1      43.293  29.020  34.651  1.00  0.00     0.034 A 
BRANCH  47  61
ATOM     61  C   UNL A   1      41.429  27.610  28.901  1.00  0.00     0.023 A 
ATOM     62  C   UNL A   1      42.441  27.809  27.946  1.00  0.00     0.031 A 
ATOM     63  C   UNL A   1      40.515  26.564  28.680  1.00  0.00     0.131 A 
ATOM     64  C   UNL A   1      42.467  27.024  26.780  1.00  0.00     0.055 A 
ATOM     65  C   UNL A   1      40.597  25.734  27.560  1.00  0.00     0.041 A 
ATOM     66  F   UNL A   1      39.514  26.335  29.546  1.00  0.00    -0.206 F 
ATOM     67  C   UNL A   1      41.568  25.973  26.593  1.00  0.00     0.022 A 
BRANCH  64  68
ATOM     68  S   UNL A   1      43.602  27.494  25.444  1.00  0.00     0.124 S 
ATOM     69  O   UNL A   1      42.669  27.848  24.376  1.00  0.00    -0.237 OA
ATOM     70  O   UNL A   1      44.344  28.600  26.035  1.00  0.00    -0.237 OA
ATOM     71  O   UNL A   1      44.376  26.277  25.207  1.00  0.00    -0.744 OA
ENDBRANCH  64  68
ENDBRANCH  47  61
BRANCH  48  72
ATOM     72  C   UNL A   1      39.921  33.576  36.802  1.00  0.00     0.023 A 
ATOM     73  C   UNL A   1      39.224  33.073  37.912  1.00  0.00     0.031 A 
ATOM     74  C   UNL A   1      40.348  34.915  36.843  1.00  0.00     0.131 A 
ATOM     75  C   UNL A   1      38.947  33.914  39.002  1.00  0.00     0.055 A 
ATOM     76  C   UNL A   1      40.119  35.731  37.952  1.00  0.00     0.041 A 
ATOM     77  F   UNL A   1      41.015  35.449  35.806  1.00  0.00    -0.206 F 
ATOM     78  C   UNL A   1      39.404  35.234  39.036  1.00  0.00     0.022 A 
BRANCH  75  79
ATOM     79  S   UNL A   1      37.910  33.280  40.348  1.00  0.00     0.124 S 
ATOM     80  O   UNL A   1      37.831  34.436  41.234  1.00  0.00    -0.237 OA
ATOM     81  O   UNL A   1      36.682  32.925  39.645  1.00  0.00    -0.237 OA
ATOM     82  O   UNL A   1      38.677  32.149  40.865  1.00  0.00    -0.744 OA
ENDBRANCH  75  79
ENDBRANCH  48  72
BRANCH  60  83
ATOM     83  C   UNL A   1      44.419  28.426  35.461  1.00  0.00     0.023 A 
ATOM     84  C   UNL A   1      44.199  27.393  36.389  1.00  0.00     0.031 A 
ATOM     85  C   UNL A   1      45.726  28.925  35.323  1.00  0.00     0.131 A 
ATOM     86  C   UNL A   1      45.259  26.930  37.184  1.00  0.00     0.055 A 
ATOM     87  C   UNL A   1      46.788  28.423  36.076  1.00  0.00     0.041 A 
ATOM     88  F   UNL A   1      45.992  29.914  34.454  1.00  0.00    -0.206 F 
ATOM     89  C   UNL A   1      46.555  27.429  37.022  1.00  0.00     0.022 A 
BRANCH  86  90
ATOM     90  S   UNL A   1      44.906  25.731  38.498  1.00  0.00     0.124 S 
ATOM     91  O   UNL A   1      46.230  25.506  39.069  1.00  0.00    -0.237 OA
ATOM     92  O   UNL A   1      43.964  26.461  39.341  1.00  0.00    -0.237 OA
ATOM     93  O   UNL A   1      44.338  24.591  37.780  1.00  0.00    -0.744 OA
ENDBRANCH  86  90
ENDBRANCH  60  83
ENDBRANCH  34  35
ENDBRANCH  27  29
ENDBRANCH  26  27
ENDBRANCH  25  26
ENDBRANCH   1  25
TORSDOF 19
ENDMDL
MODEL 3
REMARK VINA RESULT:     -11.2      5.397      8.683
REMARK SMILES O=C(CSCc1ccc(C(=O)OCCOC(=O)c2ccc(-c3c4nc(c(-c5cc(S(=O)(=O)[O-])ccc5F)c5ccc([nH]5)c(-c5cc(S(=O)(=O)[O-])ccc5F)c5nc(c(-c6cc(S(=O)(=O)[O-])ccc6F)c6ccc3[nH]6)C=C5)C=C4)cc2)cc1)Nc1ccc(Cl)cc1
REMARK SMILES IDX 13 1 12 2 10 3 11 4 9 5 6 6 7 7 82 8 8 9 81 10 5 11 4 12
REMARK SMILES IDX 3 13 2 14 1 15 83 16 84 18 85 19 90 20 86 21 89 22 87 23
REMARK SMILES IDX 88 24 14 25 15 26 16 27 17 28 18 29 19 30 80 31 20 32 79 33
REMARK SMILES IDX 21 34 22 35 23 36 73 37 24 38 78 39 72 40 74 41 25 42 77 43
REMARK SMILES IDX 71 44 70 45 26 47 58 48 38 49 57 50 39 51 42 52 56 53 75 54
REMARK SMILES IDX 40 55 41 56 55 58 76 59 43 60 27 61 28 62 36 63 29 64 35 65
REMARK SMILES IDX 37 66 34 67 30 68 31 69 32 70 33 71 59 72 60 73 68 74 61 75
REMARK SMILES IDX 67 76 69 77 66 78 62 79 63 80 64 81 65 82 44 83 45 84 53 85
REMARK SMILES IDX 46 86 52 87 54 88 51 89 47 90 48 91 49 92 50 93
REMARK H PARENT 83 17 74 46 42 57
REMARK Flexibility Score: inf
ROOT
ATOM      1  C   UNL A   1      31.539  29.498  25.216  1.00  0.00     0.275 C 
ENDROOT
BRANCH   1   2
ATOM      2  O   UNL A   1      30.917  28.310  25.742  1.00  0.00    -0.458 OA
BRANCH   2   3
ATOM      3  C   UNL A   1      31.505  27.790  26.849  1.00  0.00     0.338 C 
ATOM      4  O   UNL A   1      31.357  28.179  27.997  1.00  0.00    -0.246 OA
BRANCH   3   5
ATOM      5  C   UNL A   1      32.331  26.608  26.508  1.00  0.00     0.060 A 
ATOM      6  C   UNL A   1      33.935  24.439  25.725  1.00  0.00    -0.038 A 
ATOM      7  C   UNL A   1      34.393  25.751  25.562  1.00  0.00     0.005 A 
ATOM      8  C   UNL A   1      32.675  24.222  26.308  1.00  0.00     0.005 A 
ATOM      9  C   UNL A   1      33.582  26.824  25.918  1.00  0.00     0.016 A 
ATOM     10  C   UNL A   1      31.880  25.301  26.709  1.00  0.00     0.016 A 
BRANCH   6  11
ATOM     11  C   UNL A   1      34.768  23.289  25.225  1.00  0.00     0.105 C 
BRANCH  11  12
ATOM     12  S   UNL A   1      33.876  22.226  24.027  1.00  0.00    -0.147 SA
BRANCH  12  13
ATOM     13  C   UNL A   1      33.433  23.459  22.745  1.00  0.00     0.170 C 
BRANCH  13  14
ATOM     14  C   UNL A   1      32.013  23.987  22.902  1.00  0.00     0.234 C 
ATOM     15  O   UNL A   1      31.072  23.222  23.097  1.00  0.00    -0.274 OA
ATOM     16  N   UNL A   1      31.939  25.368  22.856  1.00  0.00    -0.325 N 
ATOM     17  H   UNL A   1      32.791  25.839  22.705  1.00  0.00     0.169 HD
BRANCH  16  18
ATOM     18  C   UNL A   1      30.807  26.185  22.996  1.00  0.00     0.041 A 
ATOM     19  C   UNL A   1      30.815  27.403  22.305  1.00  0.00     0.027 A 
ATOM     20  C   UNL A   1      29.698  25.851  23.775  1.00  0.00     0.027 A 
ATOM     21  C   UNL A   1      29.721  28.270  22.380  1.00  0.00     0.022 A 
ATOM     22  C   UNL A   1      28.606  26.722  23.860  1.00  0.00     0.022 A 
ATOM     23  C   UNL A   1      28.621  27.926  23.161  1.00  0.00     0.041 A 
ATOM     24  Cl  UNL A   1      27.276  28.992  23.262  1.00  0.00    -0.084 Cl
ENDBRANCH  16  18
ENDBRANCH  13  14
ENDBRANCH  12  13
ENDBRANCH  11  12
ENDBRANCH   6  11
ENDBRANCH   3   5
ENDBRANCH   2   3
ENDBRANCH   1   2
BRANCH   1  25
ATOM     25  C   UNL A   1      31.902  30.478  26.331  1.00  0.00     0.275 C 
BRANCH  25  26
ATOM     26  O   UNL A   1      33.321  30.718  26.340  1.00  0.00    -0.458 OA
BRANCH  26  27
ATOM     27  C   UNL A   1      33.770  31.520  27.334  1.00  0.00     0.338 C 
ATOM     28  O   UNL A   1      33.177  32.445  27.862  1.00  0.00    -0.246 OA
BRANCH  27  29
ATOM     29  C   UNL A   1      35.125  31.108  27.736  1.00  0.00     0.060 A 
ATOM     30  C   UNL A   1      35.384  29.761  27.965  1.00  0.00     0.016 A 
ATOM     31  C   UNL A   1      36.090  32.066  28.041  1.00  0.00     0.016 A 
ATOM     32  C   UNL A   1      36.564  29.368  28.595  1.00  0.00     0.010 A 
ATOM     33  C   UNL A   1      37.317  31.659  28.581  1.00  0.00     0.010 A 
ATOM     34  C   UNL A   1      37.553  30.310  28.913  1.00  0.00    -0.014 A 
BRANCH  34  35
ATOM     35  C   UNL A   1      38.789  29.904  29.652  1.00  0.00     0.031 A 
ATOM     36  C   UNL A   1      39.737  28.901  29.038  1.00  0.00     0.074 A 
ATOM     37  C   UNL A   1      39.086  30.436  30.856  1.00  0.00     0.049 A 
ATOM     38  N   UNL A   1      40.746  28.268  29.580  1.00  0.00    -0.248 NA
ATOM     39  C   UNL A   1      39.501  28.553  27.629  1.00  0.00     0.031 C 
ATOM     40  C   UNL A   1      38.300  31.455  31.552  1.00  0.00     0.029 A 
ATOM     41  N   UNL A   1      40.138  30.196  31.708  1.00  0.00    -0.354 N 
ATOM     42  C   UNL A   1      41.224  27.398  28.602  1.00  0.00     0.074 A 
ATOM     43  C   UNL A   1      40.382  27.581  27.438  1.00  0.00     0.031 C 
ATOM     44  C   UNL A   1      38.914  31.781  32.699  1.00  0.00     0.029 A 
ATOM     45  C   UNL A   1      40.083  30.927  32.874  1.00  0.00     0.049 A 
ATOM     46  H   UNL A   1      40.863  29.562  31.505  1.00  0.00     0.167 HD
ATOM     47  C   UNL A   1      42.264  26.528  28.670  1.00  0.00     0.034 A 
ATOM     48  C   UNL A   1      40.851  30.884  33.982  1.00  0.00     0.034 A 
ATOM     49  C   UNL A   1      43.130  26.398  29.819  1.00  0.00     0.049 A 
ATOM     50  C   UNL A   1      41.982  29.892  34.050  1.00  0.00     0.074 A 
ATOM     51  C   UNL A   1      44.220  25.559  29.988  1.00  0.00     0.029 A 
ATOM     52  N   UNL A   1      43.018  27.137  30.990  1.00  0.00    -0.354 N 
ATOM     53  N   UNL A   1      42.369  29.018  33.149  1.00  0.00    -0.248 NA
ATOM     54  C   UNL A   1      42.769  29.869  35.290  1.00  0.00     0.031 C 
ATOM     55  C   UNL A   1      44.730  25.751  31.278  1.00  0.00     0.029 A 
ATOM     56  C   UNL A   1      44.005  26.760  31.890  1.00  0.00     0.049 A 
ATOM     57  H   UNL A   1      42.336  27.827  31.157  1.00  0.00     0.167 HD
ATOM     58  C   UNL A   1      43.456  28.353  33.712  1.00  0.00     0.074 A 
ATOM     59  C   UNL A   1      43.675  28.942  35.017  1.00  0.00     0.031 C 
ATOM     60  C   UNL A   1      44.204  27.346  33.195  1.00  0.00     0.034 A 
BRANCH  47  61
ATOM     61  C   UNL A   1      42.481  25.607  27.491  1.00  0.00     0.023 A 
ATOM     62  C   UNL A   1      41.880  24.340  27.406  1.00  0.00     0.031 A 
ATOM     63  C   UNL A   1      43.338  25.997  26.445  1.00  0.00     0.131 A 
ATOM     64  C   UNL A   1      42.203  23.481  26.343  1.00  0.00     0.055 A 
ATOM     65  C   UNL A   1      43.591  25.171  25.349  1.00  0.00     0.041 A 
ATOM     66  F   UNL A   1      43.958  27.188  26.476  1.00  0.00    -0.206 F 
ATOM     67  C   UNL A   1      43.035  23.897  25.301  1.00  0.00     0.022 A 
BRANCH  64  68
ATOM     68  S   UNL A   1      41.639  21.757  26.417  1.00  0.00     0.124 S 
ATOM     69  O   UNL A   1      41.620  21.514  27.858  1.00  0.00    -0.237 OA
ATOM     70  O   UNL A   1      40.337  21.823  25.764  1.00  0.00    -0.237 OA
ATOM     71  O   UNL A   1      42.670  21.026  25.683  1.00  0.00    -0.744 OA
ENDBRANCH  64  68
ENDBRANCH  47  61
BRANCH  48  72
ATOM     72  C   UNL A   1      40.535  31.758  35.150  1.00  0.00     0.023 A 
ATOM     73  C   UNL A   1      39.488  31.445  36.031  1.00  0.00     0.031 A 
ATOM     74  C   UNL A   1      41.261  32.940  35.383  1.00  0.00     0.131 A 
ATOM     75  C   UNL A   1      39.175  32.320  37.083  1.00  0.00     0.055 A 
ATOM     76  C   UNL A   1      40.983  33.778  36.464  1.00  0.00     0.041 A 
ATOM     77  F   UNL A   1      42.271  33.290  34.570  1.00  0.00    -0.206 F 
ATOM     78  C   UNL A   1      39.927  33.475  37.316  1.00  0.00     0.022 A 
BRANCH  75  79
ATOM     79  S   UNL A   1      37.719  31.967  38.105  1.00  0.00     0.124 S 
ATOM     80  O   UNL A   1      36.782  32.989  37.653  1.00  0.00    -0.237 OA
ATOM     81  O   UNL A   1      37.404  30.594  37.723  1.00  0.00    -0.237 OA
ATOM     82  O   UNL A   1      38.213  32.132  39.471  1.00  0.00    -0.744 OA
ENDBRANCH  75  79
ENDBRANCH  48  72
BRANCH  60  83
ATOM     83  C   UNL A   1      45.358  26.855  34.034  1.00  0.00     0.023 A 
ATOM     84  C   UNL A   1      45.239  25.732  34.871  1.00  0.00     0.031 A 
ATOM     85  C   UNL A   1      46.585  27.542  34.015  1.00  0.00     0.131 A 
ATOM     86  C   UNL A   1      46.311  25.362  35.700  1.00  0.00     0.055 A 
ATOM     87  C   UNL A   1      47.665  27.136  34.799  1.00  0.00     0.041 A 
ATOM     88  F   UNL A   1      46.751  28.623  33.236  1.00  0.00    -0.206 F 
ATOM     89  C   UNL A   1      47.527  26.049  35.658  1.00  0.00     0.022 A 
BRANCH  86  90
ATOM     90  S   UNL A   1      46.063  24.027  36.902  1.00  0.00     0.124 S 
ATOM     91  O   UNL A   1      46.441  24.673  38.155  1.00  0.00    -0.237 OA
ATOM     92  O   UNL A   1      44.644  23.724  36.744  1.00  0.00    -0.237 OA
ATOM     93  O   UNL A   1      46.975  22.980  36.446  1.00  0.00    -0.744 OA
ENDBRANCH  86  90
ENDBRANCH  60  83
ENDBRANCH  34  35
ENDBRANCH  27  29
ENDBRANCH  26  27
ENDBRANCH  25  26
ENDBRANCH   1  25
TORSDOF 19
ENDMDL
