MODEL 1
REMARK VINA RESULT:     -12.1      0.000      0.000
REMARK SMILES CC1=C[C@@H]([C@@H]2N=N[C@H](S)N2/N=C/c2ccc(C(=O)OCCOC(=O)c3ccc(-c4c5nc(c(-c6cc(S(=O)(=O)[O-])ccc6F)c6ccc([nH]6)c(-c6cc(S(=O)(=O)[O-])ccc6F)c6nc(c(-c7cc(S(=O)(=O)[O-])ccc7F)c7ccc4[nH]7)C=C6)C=C5)cc3)cc2)N=N1
REMARK SMILES IDX 20 1 19 2 17 3 18 4 16 5 13 6 14 7 89 8 15 9 88 10 12 11
REMARK SMILES IDX 11 12 10 13 5 14 6 15 7 16 8 17 4 18 1 19 2 20 3 21 91 22
REMARK SMILES IDX 90 23 9 24 21 26 22 27 23 28 24 29 25 30 26 31 87 32 27 33
REMARK SMILES IDX 86 34 28 35 29 36 30 37 80 38 31 39 85 40 79 41 81 42 32 43
REMARK SMILES IDX 84 44 78 45 77 46 33 48 65 49 45 50 64 51 46 52 49 53 63 54
REMARK SMILES IDX 82 55 47 56 48 57 62 59 83 60 50 61 34 62 35 63 43 64 36 65
REMARK SMILES IDX 42 66 44 67 41 68 37 69 38 70 39 71 40 72 66 73 67 74 75 75
REMARK SMILES IDX 68 76 74 77 76 78 73 79 69 80 70 81 71 82 72 83 51 84 52 85
REMARK SMILES IDX 60 86 53 87 59 88 61 89 58 90 54 91 55 92 56 93 57 94
REMARK H PARENT 9 25 81 47 49 58
REMARK Flexibility Score: inf
ROOT
ATOM      1  C   UNL A   1      42.474  22.408  26.717  1.00  0.00     0.275 C 
ENDROOT
BRANCH   1   2
ATOM      2  O   UNL A   1      41.339  22.121  25.876  1.00  0.00    -0.458 OA
BRANCH   2   3
ATOM      3  C   UNL A   1      40.305  21.468  26.468  1.00  0.00     0.338 C 
ATOM      4  O   UNL A   1      40.397  20.555  27.279  1.00  0.00    -0.246 OA
BRANCH   3   5
ATOM      5  C   UNL A   1      39.003  22.074  26.084  1.00  0.00     0.060 A 
ATOM      6  C   UNL A   1      36.601  23.186  25.201  1.00  0.00    -0.005 A 
ATOM      7  C   UNL A   1      36.897  21.859  24.887  1.00  0.00     0.010 A 
ATOM      8  C   UNL A   1      37.460  23.935  26.012  1.00  0.00     0.010 A 
ATOM      9  C   UNL A   1      38.107  21.308  25.319  1.00  0.00     0.016 A 
ATOM     10  C   UNL A   1      38.654  23.374  26.467  1.00  0.00     0.016 A 
BRANCH   6  11
ATOM     11  C   UNL A   1      35.397  23.808  24.619  1.00  0.00     0.141 C 
ATOM     12  N   UNL A   1      34.366  24.050  25.363  1.00  0.00    -0.180 NA
BRANCH  12  13
ATOM     13  N   UNL A   1      33.273  24.613  24.806  1.00  0.00    -0.233 NA
ATOM     14  C   UNL A   1      33.417  25.725  23.869  1.00  0.00     0.274 C 
ATOM     15  N   UNL A   1      32.167  25.808  23.071  1.00  0.00    -0.161 NA
ATOM     16  N   UNL A   1      31.394  24.867  23.373  1.00  0.00    -0.153 NA
ATOM     17  C   UNL A   1      31.979  24.041  24.456  1.00  0.00     0.298 C 
BRANCH  14  18
ATOM     18  C   UNL A   1      33.701  27.051  24.609  1.00  0.00     0.201 C 
ATOM     19  C   UNL A   1      31.709  28.188  27.517  1.00  0.00     0.068 C 
ATOM     20  C   UNL A   1      32.431  27.917  26.249  1.00  0.00     0.058 C 
ATOM     21  C   UNL A   1      33.402  27.026  26.067  1.00  0.00     0.031 C 
ATOM     22  N   UNL A   1      32.092  28.568  25.090  1.00  0.00    -0.160 NA
ATOM     23  N   UNL A   1      32.787  28.132  24.125  1.00  0.00    -0.177 NA
ENDBRANCH  14  18
BRANCH  17  24
ATOM     24  S   UNL A   1      30.899  23.929  25.929  1.00  0.00    -0.128 SA
ATOM     25  H   UNL A   1      30.064  22.864  25.799  1.00  0.00     0.106 HD
ENDBRANCH  17  24
ENDBRANCH  12  13
ENDBRANCH   6  11
ENDBRANCH   3   5
ENDBRANCH   2   3
ENDBRANCH   1   2
BRANCH   1  26
ATOM     26  C   UNL A   1      42.889  23.871  26.624  1.00  0.00     0.275 C 
BRANCH  26  27
ATOM     27  O   UNL A   1      41.845  24.718  27.095  1.00  0.00    -0.458 OA
BRANCH  27  28
ATOM     28  C   UNL A   1      41.407  25.623  26.191  1.00  0.00     0.338 C 
ATOM     29  O   UNL A   1      41.749  25.722  25.024  1.00  0.00    -0.246 OA
BRANCH  28  30
ATOM     30  C   UNL A   1      40.578  26.623  26.862  1.00  0.00     0.060 A 
ATOM     31  C   UNL A   1      40.699  27.940  26.403  1.00  0.00     0.016 A 
ATOM     32  C   UNL A   1      40.076  26.308  28.130  1.00  0.00     0.016 A 
ATOM     33  C   UNL A   1      40.560  28.959  27.316  1.00  0.00     0.010 A 
ATOM     34  C   UNL A   1      39.984  27.319  29.045  1.00  0.00     0.010 A 
ATOM     35  C   UNL A   1      40.318  28.613  28.644  1.00  0.00    -0.014 A 
BRANCH  35  36
ATOM     36  C   UNL A   1      40.405  29.637  29.661  1.00  0.00     0.031 A 
ATOM     37  C   UNL A   1      39.173  30.448  29.766  1.00  0.00     0.074 A 
ATOM     38  C   UNL A   1      41.438  29.633  30.526  1.00  0.00     0.049 A 
ATOM     39  N   UNL A   1      39.024  31.719  29.596  1.00  0.00    -0.248 NA
ATOM     40  C   UNL A   1      37.899  29.712  29.887  1.00  0.00     0.031 C 
ATOM     41  C   UNL A   1      42.508  28.633  30.635  1.00  0.00     0.029 A 
ATOM     42  N   UNL A   1      41.661  30.428  31.603  1.00  0.00    -0.354 N 
ATOM     43  C   UNL A   1      37.675  31.957  29.834  1.00  0.00     0.074 A 
ATOM     44  C   UNL A   1      37.013  30.691  29.727  1.00  0.00     0.031 C 
ATOM     45  C   UNL A   1      43.083  28.732  31.854  1.00  0.00     0.029 A 
ATOM     46  C   UNL A   1      42.497  29.860  32.560  1.00  0.00     0.049 A 
ATOM     47  H   UNL A   1      41.269  31.325  31.698  1.00  0.00     0.167 HD
ATOM     48  C   UNL A   1      37.247  33.113  30.409  1.00  0.00     0.034 A 
ATOM     49  C   UNL A   1      42.587  30.216  33.871  1.00  0.00     0.034 A 
ATOM     50  C   UNL A   1      38.244  34.150  30.293  1.00  0.00     0.049 A 
ATOM     51  C   UNL A   1      41.970  31.565  33.996  1.00  0.00     0.074 A 
ATOM     52  C   UNL A   1      38.893  34.738  29.224  1.00  0.00     0.029 A 
ATOM     53  N   UNL A   1      39.009  34.447  31.399  1.00  0.00    -0.354 N 
ATOM     54  N   UNL A   1      42.458  32.636  33.429  1.00  0.00    -0.248 NA
ATOM     55  C   UNL A   1      40.546  31.636  34.308  1.00  0.00     0.031 C 
ATOM     56  C   UNL A   1      40.239  34.907  29.660  1.00  0.00     0.029 A 
ATOM     57  C   UNL A   1      40.322  34.494  30.991  1.00  0.00     0.049 A 
ATOM     58  H   UNL A   1      38.678  34.597  32.314  1.00  0.00     0.167 HD
ATOM     59  C   UNL A   1      41.358  33.321  32.931  1.00  0.00     0.074 A 
ATOM     60  C   UNL A   1      40.204  32.708  33.586  1.00  0.00     0.031 C 
ATOM     61  C   UNL A   1      41.453  34.110  31.818  1.00  0.00     0.034 A 
BRANCH  48  62
ATOM     62  C   UNL A   1      36.088  33.186  31.377  1.00  0.00     0.023 A 
ATOM     63  C   UNL A   1      34.999  33.996  31.017  1.00  0.00     0.031 A 
ATOM     64  C   UNL A   1      36.096  32.730  32.720  1.00  0.00     0.131 A 
ATOM     65  C   UNL A   1      34.038  34.376  31.970  1.00  0.00     0.055 A 
ATOM     66  C   UNL A   1      35.096  33.048  33.642  1.00  0.00     0.041 A 
ATOM     67  F   UNL A   1      37.110  32.041  33.255  1.00  0.00    -0.206 F 
ATOM     68  C   UNL A   1      34.074  33.902  33.278  1.00  0.00     0.022 A 
BRANCH  65  69
ATOM     69  S   UNL A   1      32.839  35.651  31.514  1.00  0.00     0.124 S 
ATOM     70  O   UNL A   1      31.771  35.414  32.480  1.00  0.00    -0.237 OA
ATOM     71  O   UNL A   1      33.617  36.871  31.698  1.00  0.00    -0.237 OA
ATOM     72  O   UNL A   1      32.508  35.323  30.129  1.00  0.00    -0.744 OA
ENDBRANCH  65  69
ENDBRANCH  48  62
BRANCH  49  73
ATOM     73  C   UNL A   1      42.797  29.284  35.019  1.00  0.00     0.023 A 
ATOM     74  C   UNL A   1      41.986  28.155  35.259  1.00  0.00     0.031 A 
ATOM     75  C   UNL A   1      43.967  29.397  35.808  1.00  0.00     0.131 A 
ATOM     76  C   UNL A   1      42.345  27.219  36.263  1.00  0.00     0.055 A 
ATOM     77  C   UNL A   1      44.308  28.481  36.805  1.00  0.00     0.041 A 
ATOM     78  F   UNL A   1      44.868  30.366  35.583  1.00  0.00    -0.206 F 
ATOM     79  C   UNL A   1      43.498  27.382  37.034  1.00  0.00     0.022 A 
BRANCH  76  80
ATOM     80  S   UNL A   1      41.349  25.716  36.527  1.00  0.00     0.124 S 
ATOM     81  O   UNL A   1      40.603  26.044  37.736  1.00  0.00    -0.237 OA
ATOM     82  O   UNL A   1      40.578  25.630  35.292  1.00  0.00    -0.237 OA
ATOM     83  O   UNL A   1      42.354  24.664  36.694  1.00  0.00    -0.744 OA
ENDBRANCH  76  80
ENDBRANCH  49  73
BRANCH  61  84
ATOM     84  C   UNL A   1      42.835  34.421  31.269  1.00  0.00     0.023 A 
ATOM     85  C   UNL A   1      43.471  33.700  30.230  1.00  0.00     0.031 A 
ATOM     86  C   UNL A   1      43.468  35.589  31.728  1.00  0.00     0.131 A 
ATOM     87  C   UNL A   1      44.696  34.153  29.700  1.00  0.00     0.055 A 
ATOM     88  C   UNL A   1      44.670  36.045  31.187  1.00  0.00     0.041 A 
ATOM     89  F   UNL A   1      42.901  36.336  32.690  1.00  0.00    -0.206 F 
ATOM     90  C   UNL A   1      45.292  35.326  30.174  1.00  0.00     0.022 A 
BRANCH  87  91
ATOM     91  S   UNL A   1      45.546  33.219  28.386  1.00  0.00     0.124 S 
ATOM     92  O   UNL A   1      44.547  32.249  27.954  1.00  0.00    -0.237 OA
ATOM     93  O   UNL A   1      45.882  34.264  27.423  1.00  0.00    -0.237 OA
ATOM     94  O   UNL A   1      46.700  32.637  29.075  1.00  0.00    -0.744 OA
ENDBRANCH  87  91
ENDBRANCH  61  84
ENDBRANCH  35  36
ENDBRANCH  28  30
ENDBRANCH  27  28
ENDBRANCH  26  27
ENDBRANCH   1  26
TORSDOF 18
ENDMDL
MODEL 2
REMARK VINA RESULT:     -12.0      0.995      2.034
REMARK SMILES CC1=C[C@@H]([C@@H]2N=N[C@H](S)N2/N=C/c2ccc(C(=O)OCCOC(=O)c3ccc(-c4c5nc(c(-c6cc(S(=O)(=O)[O-])ccc6F)c6ccc([nH]6)c(-c6cc(S(=O)(=O)[O-])ccc6F)c6nc(c(-c7cc(S(=O)(=O)[O-])ccc7F)c7ccc4[nH]7)C=C6)C=C5)cc3)cc2)N=N1
REMARK SMILES IDX 20 1 19 2 17 3 18 4 16 5 13 6 14 7 89 8 15 9 88 10 12 11
REMARK SMILES IDX 11 12 10 13 5 14 6 15 7 16 8 17 4 18 1 19 2 20 3 21 91 22
REMARK SMILES IDX 90 23 9 24 21 26 22 27 23 28 24 29 25 30 26 31 87 32 27 33
REMARK SMILES IDX 86 34 28 35 29 36 30 37 80 38 31 39 85 40 79 41 81 42 32 43
REMARK SMILES IDX 84 44 78 45 77 46 33 48 65 49 45 50 64 51 46 52 49 53 63 54
REMARK SMILES IDX 82 55 47 56 48 57 62 59 83 60 50 61 34 62 35 63 43 64 36 65
REMARK SMILES IDX 42 66 44 67 41 68 37 69 38 70 39 71 40 72 66 73 67 74 75 75
REMARK SMILES IDX 68 76 74 77 76 78 73 79 69 80 70 81 71 82 72 83 51 84 52 85
REMARK SMILES IDX 60 86 53 87 59 88 61 89 58 90 54 91 55 92 56 93 57 94
REMARK H PARENT 9 25 81 47 49 58
REMARK Flexibility Score: inf
ROOT
ATOM      1  C   UNL A   1      42.518  22.341  26.569  1.00  0.00     0.275 C 
ENDROOT
BRANCH   1   2
ATOM      2  O   UNL A   1      41.382  21.954  25.772  1.00  0.00    -0.458 OA
BRANCH   2   3
ATOM      3  C   UNL A   1      40.338  21.404  26.445  1.00  0.00     0.338 C 
ATOM      4  O   UNL A   1      40.408  20.522  27.291  1.00  0.00    -0.246 OA
BRANCH   3   5
ATOM      5  C   UNL A   1      39.063  22.086  26.098  1.00  0.00     0.060 A 
ATOM      6  C   UNL A   1      36.644  23.390  25.614  1.00  0.00    -0.005 A 
ATOM      7  C   UNL A   1      37.678  24.079  26.249  1.00  0.00     0.010 A 
ATOM      8  C   UNL A   1      36.835  22.083  25.156  1.00  0.00     0.010 A 
ATOM      9  C   UNL A   1      38.884  23.419  26.502  1.00  0.00     0.016 A 
ATOM     10  C   UNL A   1      38.050  21.435  25.384  1.00  0.00     0.016 A 
BRANCH   6  11
ATOM     11  C   UNL A   1      35.326  24.039  25.482  1.00  0.00     0.141 C 
ATOM     12  N   UNL A   1      34.819  24.249  24.310  1.00  0.00    -0.180 NA
BRANCH  12  13
ATOM     13  N   UNL A   1      33.615  24.852  24.216  1.00  0.00    -0.233 NA
ATOM     14  C   UNL A   1      32.533  24.476  25.123  1.00  0.00     0.274 C 
ATOM     15  N   UNL A   1      31.543  25.585  25.130  1.00  0.00    -0.161 NA
ATOM     16  N   UNL A   1      31.955  26.540  24.428  1.00  0.00    -0.153 NA
ATOM     17  C   UNL A   1      33.254  26.201  23.797  1.00  0.00     0.298 C 
BRANCH  14  18
ATOM     18  C   UNL A   1      31.880  23.142  24.696  1.00  0.00     0.201 C 
ATOM     19  C   UNL A   1      33.735  19.938  24.625  1.00  0.00     0.068 C 
ATOM     20  C   UNL A   1      32.969  21.193  24.432  1.00  0.00     0.058 C 
ATOM     21  C   UNL A   1      32.417  21.937  25.387  1.00  0.00     0.031 C 
ATOM     22  N   UNL A   1      32.810  21.739  23.183  1.00  0.00    -0.160 NA
ATOM     23  N   UNL A   1      32.187  22.839  23.264  1.00  0.00    -0.177 NA
ENDBRANCH  14  18
BRANCH  17  24
ATOM     24  S   UNL A   1      33.214  26.327  21.973  1.00  0.00    -0.128 SA
ATOM     25  H   UNL A   1      32.256  27.216  21.600  1.00  0.00     0.106 HD
ENDBRANCH  17  24
ENDBRANCH  12  13
ENDBRANCH   6  11
ENDBRANCH   3   5
ENDBRANCH   2   3
ENDBRANCH   1   2
BRANCH   1  26
ATOM     26  C   UNL A   1      42.930  23.783  26.303  1.00  0.00     0.275 C 
BRANCH  26  27
ATOM     27  O   UNL A   1      42.000  24.685  26.897  1.00  0.00    -0.458 OA
BRANCH  27  28
ATOM     28  C   UNL A   1      41.644  25.723  26.107  1.00  0.00     0.338 C 
ATOM     29  O   UNL A   1      42.082  25.989  25.000  1.00  0.00    -0.246 OA
BRANCH  28  30
ATOM     30  C   UNL A   1      40.769  26.626  26.852  1.00  0.00     0.060 A 
ATOM     31  C   UNL A   1      40.685  27.942  26.379  1.00  0.00     0.016 A 
ATOM     32  C   UNL A   1      40.432  26.273  28.164  1.00  0.00     0.016 A 
ATOM     33  C   UNL A   1      40.513  28.951  27.297  1.00  0.00     0.010 A 
ATOM     34  C   UNL A   1      40.306  27.279  29.079  1.00  0.00     0.010 A 
ATOM     35  C   UNL A   1      40.442  28.598  28.644  1.00  0.00    -0.014 A 
BRANCH  35  36
ATOM     36  C   UNL A   1      40.502  29.640  29.644  1.00  0.00     0.031 A 
ATOM     37  C   UNL A   1      39.246  30.416  29.740  1.00  0.00     0.074 A 
ATOM     38  C   UNL A   1      41.537  29.681  30.506  1.00  0.00     0.049 A 
ATOM     39  N   UNL A   1      39.060  31.679  29.551  1.00  0.00    -0.248 NA
ATOM     40  C   UNL A   1      37.996  29.645  29.878  1.00  0.00     0.031 C 
ATOM     41  C   UNL A   1      42.637  28.714  30.626  1.00  0.00     0.029 A 
ATOM     42  N   UNL A   1      41.740  30.499  31.569  1.00  0.00    -0.354 N 
ATOM     43  C   UNL A   1      37.705  31.881  29.790  1.00  0.00     0.074 A 
ATOM     44  C   UNL A   1      37.080  30.594  29.706  1.00  0.00     0.031 C 
ATOM     45  C   UNL A   1      43.213  28.850  31.842  1.00  0.00     0.029 A 
ATOM     46  C   UNL A   1      42.595  29.971  32.532  1.00  0.00     0.049 A 
ATOM     47  H   UNL A   1      41.322  31.385  31.651  1.00  0.00     0.167 HD
ATOM     48  C   UNL A   1      37.245  33.033  30.348  1.00  0.00     0.034 A 
ATOM     49  C   UNL A   1      42.679  30.350  33.837  1.00  0.00     0.034 A 
ATOM     50  C   UNL A   1      38.210  34.097  30.212  1.00  0.00     0.049 A 
ATOM     51  C   UNL A   1      42.022  31.683  33.942  1.00  0.00     0.074 A 
ATOM     52  C   UNL A   1      38.839  34.687  29.131  1.00  0.00     0.029 A 
ATOM     53  N   UNL A   1      38.970  34.434  31.311  1.00  0.00    -0.354 N 
ATOM     54  N   UNL A   1      42.477  32.758  33.357  1.00  0.00    -0.248 NA
ATOM     55  C   UNL A   1      40.599  31.716  34.258  1.00  0.00     0.031 C 
ATOM     56  C   UNL A   1      40.180  34.902  29.560  1.00  0.00     0.029 A 
ATOM     57  C   UNL A   1      40.279  34.513  30.897  1.00  0.00     0.049 A 
ATOM     58  H   UNL A   1      38.637  34.589  32.224  1.00  0.00     0.167 HD
ATOM     59  C   UNL A   1      41.355  33.403  32.852  1.00  0.00     0.074 A 
ATOM     60  C   UNL A   1      40.222  32.766  33.521  1.00  0.00     0.031 C 
ATOM     61  C   UNL A   1      41.424  34.176  31.726  1.00  0.00     0.034 A 
BRANCH  48  62
ATOM     62  C   UNL A   1      36.087  33.087  31.319  1.00  0.00     0.023 A 
ATOM     63  C   UNL A   1      35.005  33.917  30.984  1.00  0.00     0.031 A 
ATOM     64  C   UNL A   1      36.092  32.591  32.648  1.00  0.00     0.131 A 
ATOM     65  C   UNL A   1      34.048  34.277  31.949  1.00  0.00     0.055 A 
ATOM     66  C   UNL A   1      35.096  32.890  33.580  1.00  0.00     0.041 A 
ATOM     67  F   UNL A   1      37.100  31.878  33.161  1.00  0.00    -0.206 F 
ATOM     68  C   UNL A   1      34.081  33.763  33.242  1.00  0.00     0.022 A 
BRANCH  65  69
ATOM     69  S   UNL A   1      32.860  35.576  31.533  1.00  0.00     0.124 S 
ATOM     70  O   UNL A   1      32.553  35.262  30.141  1.00  0.00    -0.237 OA
ATOM     71  O   UNL A   1      31.798  35.328  32.501  1.00  0.00    -0.237 OA
ATOM     72  O   UNL A   1      33.621  36.806  31.740  1.00  0.00    -0.744 OA
ENDBRANCH  65  69
ENDBRANCH  48  62
BRANCH  49  73
ATOM     73  C   UNL A   1      42.920  29.443  34.999  1.00  0.00     0.023 A 
ATOM     74  C   UNL A   1      42.081  28.356  35.320  1.00  0.00     0.031 A 
ATOM     75  C   UNL A   1      44.138  29.530  35.714  1.00  0.00     0.131 A 
ATOM     76  C   UNL A   1      42.462  27.435  36.329  1.00  0.00     0.055 A 
ATOM     77  C   UNL A   1      44.502  28.630  36.717  1.00  0.00     0.041 A 
ATOM     78  F   UNL A   1      45.062  30.455  35.407  1.00  0.00    -0.206 F 
ATOM     79  C   UNL A   1      43.664  27.572  37.026  1.00  0.00     0.022 A 
BRANCH  76  80
ATOM     80  S   UNL A   1      41.424  25.982  36.697  1.00  0.00     0.124 S 
ATOM     81  O   UNL A   1      40.779  25.726  35.416  1.00  0.00    -0.237 OA
ATOM     82  O   UNL A   1      42.408  25.000  37.138  1.00  0.00    -0.237 OA
ATOM     83  O   UNL A   1      40.526  26.462  37.751  1.00  0.00    -0.744 OA
ENDBRANCH  76  80
ENDBRANCH  49  73
BRANCH  61  84
ATOM     84  C   UNL A   1      42.794  34.519  31.167  1.00  0.00     0.023 A 
ATOM     85  C   UNL A   1      43.429  33.828  30.107  1.00  0.00     0.031 A 
ATOM     86  C   UNL A   1      43.415  35.688  31.640  1.00  0.00     0.131 A 
ATOM     87  C   UNL A   1      44.640  34.309  29.573  1.00  0.00     0.055 A 
ATOM     88  C   UNL A   1      44.603  36.173  31.095  1.00  0.00     0.041 A 
ATOM     89  F   UNL A   1      42.847  36.408  32.623  1.00  0.00    -0.206 F 
ATOM     90  C   UNL A   1      45.224  35.483  30.062  1.00  0.00     0.022 A 
BRANCH  87  91
ATOM     91  S   UNL A   1      45.490  33.413  28.231  1.00  0.00     0.124 S 
ATOM     92  O   UNL A   1      45.654  32.068  28.769  1.00  0.00    -0.237 OA
ATOM     93  O   UNL A   1      44.554  33.550  27.119  1.00  0.00    -0.237 OA
ATOM     94  O   UNL A   1      46.741  34.158  28.065  1.00  0.00    -0.744 OA
ENDBRANCH  87  91
ENDBRANCH  61  84
ENDBRANCH  35  36
ENDBRANCH  28  30
ENDBRANCH  27  28
ENDBRANCH  26  27
ENDBRANCH   1  26
TORSDOF 18
ENDMDL
MODEL 3
REMARK VINA RESULT:     -11.9      4.132     10.338
REMARK SMILES CC1=C[C@@H]([C@@H]2N=N[C@H](S)N2/N=C/c2ccc(C(=O)OCCOC(=O)c3ccc(-c4c5nc(c(-c6cc(S(=O)(=O)[O-])ccc6F)c6ccc([nH]6)c(-c6cc(S(=O)(=O)[O-])ccc6F)c6nc(c(-c7cc(S(=O)(=O)[O-])ccc7F)c7ccc4[nH]7)C=C6)C=C5)cc3)cc2)N=N1
REMARK SMILES IDX 20 1 19 2 17 3 18 4 16 5 13 6 14 7 89 8 15 9 88 10 12 11
REMARK SMILES IDX 11 12 10 13 5 14 6 15 7 16 8 17 4 18 1 19 2 20 3 21 91 22
REMARK SMILES IDX 90 23 9 24 21 26 22 27 23 28 24 29 25 30 26 31 87 32 27 33
REMARK SMILES IDX 86 34 28 35 29 36 30 37 80 38 31 39 85 40 79 41 81 42 32 43
REMARK SMILES IDX 84 44 78 45 77 46 33 48 65 49 45 50 64 51 46 52 49 53 63 54
REMARK SMILES IDX 82 55 47 56 48 57 62 59 83 60 50 61 34 62 35 63 43 64 36 65
REMARK SMILES IDX 42 66 44 67 41 68 37 69 38 70 39 71 40 72 66 73 67 74 75 75
REMARK SMILES IDX 68 76 74 77 76 78 73 79 69 80 70 81 71 82 72 83 51 84 52 85
REMARK SMILES IDX 60 86 53 87 59 88 61 89 58 90 54 91 55 92 56 93 57 94
REMARK H PARENT 9 25 81 47 49 58
REMARK Flexibility Score: inf
ROOT
ATOM      1  C   UNL A   1      35.670  33.364  28.696  1.00  0.00     0.275 C 
ENDROOT
BRANCH   1   2
ATOM      2  O   UNL A   1      35.194  32.495  27.651  1.00  0.00    -0.458 OA
BRANCH   2   3
ATOM      3  C   UNL A   1      33.873  32.178  27.691  1.00  0.00     0.338 C 
ATOM      4  O   UNL A   1      32.960  32.928  28.011  1.00  0.00    -0.246 OA
BRANCH   3   5
ATOM      5  C   UNL A   1      33.641  30.798  27.188  1.00  0.00     0.060 A 
ATOM      6  C   UNL A   1      33.337  28.230  26.141  1.00  0.00    -0.005 A 
ATOM      7  C   UNL A   1      34.522  28.566  26.796  1.00  0.00     0.010 A 
ATOM      8  C   UNL A   1      32.279  29.141  26.070  1.00  0.00     0.010 A 
ATOM      9  C   UNL A   1      34.678  29.857  27.307  1.00  0.00     0.016 A 
ATOM     10  C   UNL A   1      32.424  30.420  26.608  1.00  0.00     0.016 A 
BRANCH   6  11
ATOM     11  C   UNL A   1      33.235  26.918  25.473  1.00  0.00     0.141 C 
ATOM     12  N   UNL A   1      33.710  26.759  24.280  1.00  0.00    -0.180 NA
BRANCH  12  13
ATOM     13  N   UNL A   1      33.598  25.551  23.686  1.00  0.00    -0.233 NA
ATOM     14  C   UNL A   1      33.210  25.458  22.280  1.00  0.00     0.274 C 
ATOM     15  N   UNL A   1      33.633  24.124  21.782  1.00  0.00    -0.161 NA
ATOM     16  N   UNL A   1      34.261  23.504  22.676  1.00  0.00    -0.153 NA
ATOM     17  C   UNL A   1      34.307  24.301  23.926  1.00  0.00     0.298 C 
BRANCH  14  18
ATOM     18  C   UNL A   1      31.690  25.669  22.102  1.00  0.00     0.201 C 
ATOM     19  C   UNL A   1      29.866  28.499  23.644  1.00  0.00     0.068 C 
ATOM     20  C   UNL A   1      30.467  27.234  23.154  1.00  0.00     0.058 C 
ATOM     21  C   UNL A   1      31.255  27.093  22.092  1.00  0.00     0.031 C 
ATOM     22  N   UNL A   1      30.284  26.056  23.833  1.00  0.00    -0.160 NA
ATOM     23  N   UNL A   1      30.940  25.126  23.277  1.00  0.00    -0.177 NA
ENDBRANCH  14  18
BRANCH  17  24
ATOM     24  S   UNL A   1      33.598  23.416  25.361  1.00  0.00    -0.128 SA
ATOM     25  H   UNL A   1      32.874  24.284  26.116  1.00  0.00     0.106 HD
ENDBRANCH  17  24
ENDBRANCH  12  13
ENDBRANCH   6  11
ENDBRANCH   3   5
ENDBRANCH   2   3
ENDBRANCH   1   2
BRANCH   1  26
ATOM     26  C   UNL A   1      36.588  32.630  29.666  1.00  0.00     0.275 C 
BRANCH  26  27
ATOM     27  O   UNL A   1      37.122  31.458  29.058  1.00  0.00    -0.458 OA
BRANCH  27  28
ATOM     28  C   UNL A   1      36.909  30.319  29.755  1.00  0.00     0.338 C 
ATOM     29  O   UNL A   1      36.261  30.194  30.781  1.00  0.00    -0.246 OA
BRANCH  28  30
ATOM     30  C   UNL A   1      37.739  29.248  29.206  1.00  0.00     0.060 A 
ATOM     31  C   UNL A   1      38.100  28.225  30.091  1.00  0.00     0.016 A 
ATOM     32  C   UNL A   1      38.445  29.510  28.026  1.00  0.00     0.016 A 
ATOM     33  C   UNL A   1      39.329  27.630  29.927  1.00  0.00     0.010 A 
ATOM     34  C   UNL A   1      39.684  28.950  27.891  1.00  0.00     0.010 A 
ATOM     35  C   UNL A   1      40.141  28.092  28.893  1.00  0.00    -0.014 A 
BRANCH  35  36
ATOM     36  C   UNL A   1      41.520  27.662  28.840  1.00  0.00     0.031 A 
ATOM     37  C   UNL A   1      41.686  26.348  28.182  1.00  0.00     0.074 A 
ATOM     38  C   UNL A   1      42.503  28.524  29.167  1.00  0.00     0.049 A 
ATOM     39  N   UNL A   1      42.172  25.255  28.668  1.00  0.00    -0.248 NA
ATOM     40  C   UNL A   1      41.045  26.178  26.863  1.00  0.00     0.031 C 
ATOM     41  C   UNL A   1      42.364  29.944  29.516  1.00  0.00     0.029 A 
ATOM     42  N   UNL A   1      43.848  28.363  29.094  1.00  0.00    -0.354 N 
ATOM     43  C   UNL A   1      42.114  24.340  27.622  1.00  0.00     0.074 A 
ATOM     44  C   UNL A   1      41.181  24.869  26.670  1.00  0.00     0.031 C 
ATOM     45  C   UNL A   1      43.559  30.556  29.356  1.00  0.00     0.029 A 
ATOM     46  C   UNL A   1      44.555  29.558  28.999  1.00  0.00     0.049 A 
ATOM     47  H   UNL A   1      44.285  27.482  29.109  1.00  0.00     0.167 HD
ATOM     48  C   UNL A   1      43.062  23.379  27.464  1.00  0.00     0.034 A 
ATOM     49  C   UNL A   1      45.822  29.715  28.527  1.00  0.00     0.034 A 
ATOM     50  C   UNL A   1      43.788  23.159  28.692  1.00  0.00     0.049 A 
ATOM     51  C   UNL A   1      46.456  28.368  28.539  1.00  0.00     0.074 A 
ATOM     52  C   UNL A   1      43.414  22.801  29.973  1.00  0.00     0.029 A 
ATOM     53  N   UNL A   1      45.048  23.704  28.812  1.00  0.00    -0.354 N 
ATOM     54  N   UNL A   1      46.695  27.693  29.631  1.00  0.00    -0.248 NA
ATOM     55  C   UNL A   1      46.350  27.556  27.331  1.00  0.00     0.031 C 
ATOM     56  C   UNL A   1      44.228  23.598  30.829  1.00  0.00     0.029 A 
ATOM     57  C   UNL A   1      45.108  24.334  30.033  1.00  0.00     0.049 A 
ATOM     58  H   UNL A   1      45.772  23.653  28.147  1.00  0.00     0.167 HD
ATOM     59  C   UNL A   1      46.347  26.382  29.335  1.00  0.00     0.074 A 
ATOM     60  C   UNL A   1      46.233  26.342  27.878  1.00  0.00     0.031 C 
ATOM     61  C   UNL A   1      45.888  25.530  30.302  1.00  0.00     0.034 A 
BRANCH  48  62
ATOM     62  C   UNL A   1      43.559  22.908  26.115  1.00  0.00     0.023 A 
ATOM     63  C   UNL A   1      43.574  21.523  25.883  1.00  0.00     0.031 A 
ATOM     64  C   UNL A   1      44.249  23.698  25.161  1.00  0.00     0.131 A 
ATOM     65  C   UNL A   1      44.301  20.981  24.809  1.00  0.00     0.055 A 
ATOM     66  C   UNL A   1      44.905  23.159  24.052  1.00  0.00     0.041 A 
ATOM     67  F   UNL A   1      44.423  25.018  25.289  1.00  0.00    -0.206 F 
ATOM     68  C   UNL A   1      44.960  21.789  23.887  1.00  0.00     0.022 A 
BRANCH  65  69
ATOM     69  S   UNL A   1      44.522  19.187  24.745  1.00  0.00     0.124 S 
ATOM     70  O   UNL A   1      45.607  18.987  25.700  1.00  0.00    -0.237 OA
ATOM     71  O   UNL A   1      43.206  18.711  25.153  1.00  0.00    -0.237 OA
ATOM     72  O   UNL A   1      44.871  18.941  23.347  1.00  0.00    -0.744 OA
ENDBRANCH  65  69
ENDBRANCH  48  62
BRANCH  49  73
ATOM     73  C   UNL A   1      46.318  30.866  27.715  1.00  0.00     0.023 A 
ATOM     74  C   UNL A   1      45.470  31.713  26.972  1.00  0.00     0.031 A 
ATOM     75  C   UNL A   1      47.670  31.271  27.827  1.00  0.00     0.131 A 
ATOM     76  C   UNL A   1      45.987  32.886  26.365  1.00  0.00     0.055 A 
ATOM     77  C   UNL A   1      48.178  32.419  27.215  1.00  0.00     0.041 A 
ATOM     78  F   UNL A   1      48.535  30.604  28.607  1.00  0.00    -0.206 F 
ATOM     79  C   UNL A   1      47.334  33.236  26.483  1.00  0.00     0.022 A 
BRANCH  76  80
ATOM     80  S   UNL A   1      44.885  34.029  25.469  1.00  0.00     0.124 S 
ATOM     81  O   UNL A   1      43.786  34.205  26.411  1.00  0.00    -0.237 OA
ATOM     82  O   UNL A   1      45.745  35.186  25.251  1.00  0.00    -0.237 OA
ATOM     83  O   UNL A   1      44.538  33.288  24.254  1.00  0.00    -0.744 OA
ENDBRANCH  76  80
ENDBRANCH  49  73
BRANCH  61  84
ATOM     84  C   UNL A   1      45.992  25.964  31.755  1.00  0.00     0.023 A 
ATOM     85  C   UNL A   1      44.908  26.427  32.538  1.00  0.00     0.031 A 
ATOM     86  C   UNL A   1      47.220  25.759  32.407  1.00  0.00     0.131 A 
ATOM     87  C   UNL A   1      45.083  26.675  33.914  1.00  0.00     0.055 A 
ATOM     88  C   UNL A   1      47.385  25.985  33.773  1.00  0.00     0.041 A 
ATOM     89  F   UNL A   1      48.281  25.290  31.727  1.00  0.00    -0.206 F 
ATOM     90  C   UNL A   1      46.317  26.450  34.531  1.00  0.00     0.022 A 
BRANCH  87  91
ATOM     91  S   UNL A   1      43.708  27.305  34.931  1.00  0.00     0.124 S 
ATOM     92  O   UNL A   1      43.447  26.217  35.866  1.00  0.00    -0.237 OA
ATOM     93  O   UNL A   1      44.272  28.523  35.505  1.00  0.00    -0.237 OA
ATOM     94  O   UNL A   1      42.641  27.535  33.954  1.00  0.00    -0.744 OA
ENDBRANCH  87  91
ENDBRANCH  61  84
ENDBRANCH  35  36
ENDBRANCH  28  30
ENDBRANCH  27  28
ENDBRANCH  26  27
ENDBRANCH   1  26
TORSDOF 18
ENDMDL
