MODEL 1
REMARK VINA RESULT:     -12.0      0.000      0.000
REMARK SMILES O=C(Nc1ccc(Br)cc1)Nc1ccc(CC(=O)OCCOC(=O)c2ccc(-c3c4nc(c(-c5cc(S(=O)(=O)[O-])ccc5F)c5ccc([nH]5)c(-c5cc(S(=O)(=O)[O-])ccc5F)c5nc(c(-c6cc(S(=O)(=O)[O-])ccc6F)c6ccc3[nH]6)C=C5)C=C4)cc2)cc1
REMARK SMILES IDX 20 1 19 2 17 3 18 4 16 5 15 6 12 7 13 8 89 9 14 10 88 11
REMARK SMILES IDX 11 12 1 13 2 14 3 15 4 18 5 19 10 20 6 21 9 22 7 23 8 24
REMARK SMILES IDX 21 25 22 26 23 27 24 28 25 29 26 30 87 31 27 32 86 33 28 34
REMARK SMILES IDX 29 35 30 36 80 37 31 38 85 39 79 40 81 41 32 42 84 43 78 44
REMARK SMILES IDX 77 45 33 47 65 48 45 49 64 50 46 51 49 52 63 53 82 54 47 55
REMARK SMILES IDX 48 56 62 58 83 59 50 60 34 61 35 62 43 63 36 64 42 65 44 66
REMARK SMILES IDX 41 67 37 68 38 69 39 70 40 71 66 72 67 73 75 74 68 75 74 76
REMARK SMILES IDX 76 77 73 78 69 79 70 80 71 81 72 82 51 83 52 84 60 85 53 86
REMARK SMILES IDX 59 87 61 88 58 89 54 90 55 91 56 92 57 93
REMARK H PARENT 3 16 11 17 81 46 49 57
REMARK Flexibility Score: inf
ROOT
ATOM      1  C   UNL A   1      35.243  20.651  25.257  1.00  0.00     0.274 C 
ENDROOT
BRANCH   1   2
ATOM      2  O   UNL A   1      34.554  19.557  24.622  1.00  0.00    -0.462 OA
BRANCH   2   3
ATOM      3  C   UNL A   1      33.215  19.502  24.845  1.00  0.00     0.310 C 
ATOM      4  O   UNL A   1      32.698  19.004  25.841  1.00  0.00    -0.252 OA
BRANCH   3   5
ATOM      5  C   UNL A   1      32.384  20.049  23.713  1.00  0.00     0.158 C 
BRANCH   5   6
ATOM      6  C   UNL A   1      32.243  21.547  23.592  1.00  0.00    -0.037 A 
ATOM      7  C   UNL A   1      32.210  24.367  23.534  1.00  0.00     0.042 A 
ATOM      8  C   UNL A   1      32.727  23.643  22.457  1.00  0.00     0.026 A 
ATOM      9  C   UNL A   1      31.666  23.677  24.616  1.00  0.00     0.026 A 
ATOM     10  C   UNL A   1      32.762  22.245  22.494  1.00  0.00     0.006 A 
ATOM     11  C   UNL A   1      31.679  22.280  24.643  1.00  0.00     0.006 A 
BRANCH   7  12
ATOM     12  N   UNL A   1      32.276  25.770  23.471  1.00  0.00    -0.308 N 
ATOM     13  O   UNL A   1      34.256  26.205  24.596  1.00  0.00    -0.248 OA
ATOM     14  C   UNL A   1      33.220  26.579  24.052  1.00  0.00     0.323 C 
ATOM     15  N   UNL A   1      33.019  27.925  23.873  1.00  0.00    -0.308 N 
ATOM     16  H   UNL A   1      33.839  28.466  23.811  1.00  0.00     0.171 HD
ATOM     17  H   UNL A   1      31.568  26.221  22.955  1.00  0.00     0.171 HD
BRANCH  15  18
ATOM     18  C   UNL A   1      31.819  28.644  23.765  1.00  0.00     0.042 A 
ATOM     19  C   UNL A   1      31.430  29.605  24.705  1.00  0.00     0.027 A 
ATOM     20  C   UNL A   1      31.037  28.445  22.625  1.00  0.00     0.027 A 
ATOM     21  C   UNL A   1      30.263  30.349  24.512  1.00  0.00     0.018 A 
ATOM     22  C   UNL A   1      29.857  29.171  22.441  1.00  0.00     0.018 A 
ATOM     23  C   UNL A   1      29.478  30.124  23.384  1.00  0.00     0.018 A 
ATOM     24  Br  UNL A   1      27.903  31.134  23.120  1.00  0.00    -0.051 Br
ENDBRANCH  15  18
ENDBRANCH   7  12
ENDBRANCH   5   6
ENDBRANCH   3   5
ENDBRANCH   2   3
ENDBRANCH   1   2
BRANCH   1  25
ATOM     25  C   UNL A   1      36.743  20.580  24.986  1.00  0.00     0.275 C 
BRANCH  25  26
ATOM     26  O   UNL A   1      37.428  21.607  25.721  1.00  0.00    -0.458 OA
BRANCH  26  27
ATOM     27  C   UNL A   1      38.734  21.371  25.980  1.00  0.00     0.338 C 
ATOM     28  O   UNL A   1      39.347  20.330  25.827  1.00  0.00    -0.246 OA
BRANCH  27  29
ATOM     29  C   UNL A   1      39.347  22.590  26.531  1.00  0.00     0.060 A 
ATOM     30  C   UNL A   1      38.941  23.853  26.091  1.00  0.00     0.016 A 
ATOM     31  C   UNL A   1      40.400  22.455  27.435  1.00  0.00     0.016 A 
ATOM     32  C   UNL A   1      39.614  24.993  26.539  1.00  0.00     0.010 A 
ATOM     33  C   UNL A   1      41.037  23.598  27.918  1.00  0.00     0.010 A 
ATOM     34  C   UNL A   1      40.662  24.875  27.462  1.00  0.00    -0.014 A 
BRANCH  34  35
ATOM     35  C   UNL A   1      41.403  26.065  27.955  1.00  0.00     0.031 A 
ATOM     36  C   UNL A   1      40.670  27.132  28.719  1.00  0.00     0.074 A 
ATOM     37  C   UNL A   1      42.706  26.221  27.653  1.00  0.00     0.049 A 
ATOM     38  N   UNL A   1      41.055  28.342  29.032  1.00  0.00    -0.248 NA
ATOM     39  C   UNL A   1      39.316  26.790  29.179  1.00  0.00     0.031 C 
ATOM     40  C   UNL A   1      43.535  25.239  26.953  1.00  0.00     0.029 A 
ATOM     41  N   UNL A   1      43.553  27.278  27.873  1.00  0.00    -0.354 N 
ATOM     42  C   UNL A   1      39.979  28.922  29.696  1.00  0.00     0.074 A 
ATOM     43  C   UNL A   1      38.922  27.932  29.724  1.00  0.00     0.031 C 
ATOM     44  C   UNL A   1      44.767  25.747  26.786  1.00  0.00     0.029 A 
ATOM     45  C   UNL A   1      44.795  27.111  27.304  1.00  0.00     0.049 A 
ATOM     46  H   UNL A   1      43.299  28.078  28.388  1.00  0.00     0.167 HD
ATOM     47  C   UNL A   1      39.885  30.166  30.228  1.00  0.00     0.034 A 
ATOM     48  C   UNL A   1      45.817  27.977  27.164  1.00  0.00     0.034 A 
ATOM     49  C   UNL A   1      40.955  31.135  30.196  1.00  0.00     0.049 A 
ATOM     50  C   UNL A   1      45.668  29.378  27.696  1.00  0.00     0.074 A 
ATOM     51  C   UNL A   1      40.978  32.415  30.724  1.00  0.00     0.029 A 
ATOM     52  N   UNL A   1      42.192  30.933  29.596  1.00  0.00    -0.354 N 
ATOM     53  N   UNL A   1      44.637  29.927  28.297  1.00  0.00    -0.248 NA
ATOM     54  C   UNL A   1      46.816  30.278  27.526  1.00  0.00     0.031 C 
ATOM     55  C   UNL A   1      42.204  33.005  30.393  1.00  0.00     0.029 A 
ATOM     56  C   UNL A   1      42.972  32.072  29.716  1.00  0.00     0.049 A 
ATOM     57  H   UNL A   1      42.473  30.101  29.151  1.00  0.00     0.167 HD
ATOM     58  C   UNL A   1      45.023  31.230  28.598  1.00  0.00     0.074 A 
ATOM     59  C   UNL A   1      46.382  31.383  28.117  1.00  0.00     0.031 C 
ATOM     60  C   UNL A   1      44.322  32.210  29.220  1.00  0.00     0.034 A 
BRANCH  47  61
ATOM     61  C   UNL A   1      38.561  30.564  30.834  1.00  0.00     0.023 A 
ATOM     62  C   UNL A   1      37.542  31.160  30.071  1.00  0.00     0.031 A 
ATOM     63  C   UNL A   1      38.328  30.370  32.207  1.00  0.00     0.131 A 
ATOM     64  C   UNL A   1      36.366  31.602  30.698  1.00  0.00     0.055 A 
ATOM     65  C   UNL A   1      37.126  30.746  32.811  1.00  0.00     0.041 A 
ATOM     66  F   UNL A   1      39.273  29.826  32.991  1.00  0.00    -0.206 F 
ATOM     67  C   UNL A   1      36.142  31.379  32.058  1.00  0.00     0.022 A 
BRANCH  64  68
ATOM     68  S   UNL A   1      35.191  32.596  29.737  1.00  0.00     0.124 S 
ATOM     69  O   UNL A   1      34.735  31.631  28.738  1.00  0.00    -0.237 OA
ATOM     70  O   UNL A   1      34.211  32.985  30.743  1.00  0.00    -0.237 OA
ATOM     71  O   UNL A   1      36.012  33.684  29.210  1.00  0.00    -0.744 OA
ENDBRANCH  64  68
ENDBRANCH  47  61
BRANCH  48  72
ATOM     72  C   UNL A   1      47.049  27.569  26.431  1.00  0.00     0.023 A 
ATOM     73  C   UNL A   1      47.186  27.808  25.055  1.00  0.00     0.031 A 
ATOM     74  C   UNL A   1      48.098  26.907  27.096  1.00  0.00     0.131 A 
ATOM     75  C   UNL A   1      48.330  27.356  24.380  1.00  0.00     0.055 A 
ATOM     76  C   UNL A   1      49.254  26.503  26.429  1.00  0.00     0.041 A 
ATOM     77  F   UNL A   1      48.016  26.657  28.412  1.00  0.00    -0.206 F 
ATOM     78  C   UNL A   1      49.371  26.718  25.060  1.00  0.00     0.022 A 
BRANCH  75  79
ATOM     79  S   UNL A   1      48.410  27.555  22.579  1.00  0.00     0.124 S 
ATOM     80  O   UNL A   1      49.641  28.321  22.419  1.00  0.00    -0.237 OA
ATOM     81  O   UNL A   1      48.452  26.169  22.122  1.00  0.00    -0.237 OA
ATOM     82  O   UNL A   1      47.179  28.275  22.262  1.00  0.00    -0.744 OA
ENDBRANCH  75  79
ENDBRANCH  48  72
BRANCH  60  83
ATOM     83  C   UNL A   1      45.037  33.514  29.462  1.00  0.00     0.023 A 
ATOM     84  C   UNL A   1      45.035  34.547  28.509  1.00  0.00     0.031 A 
ATOM     85  C   UNL A   1      45.735  33.719  30.664  1.00  0.00     0.131 A 
ATOM     86  C   UNL A   1      45.752  35.727  28.760  1.00  0.00     0.055 A 
ATOM     87  C   UNL A   1      46.409  34.913  30.928  1.00  0.00     0.041 A 
ATOM     88  F   UNL A   1      45.770  32.761  31.605  1.00  0.00    -0.206 F 
ATOM     89  C   UNL A   1      46.427  35.921  29.969  1.00  0.00     0.022 A 
BRANCH  86  90
ATOM     90  S   UNL A   1      45.845  36.987  27.458  1.00  0.00     0.124 S 
ATOM     91  O   UNL A   1      44.465  37.455  27.388  1.00  0.00    -0.237 OA
ATOM     92  O   UNL A   1      46.812  37.932  28.006  1.00  0.00    -0.237 OA
ATOM     93  O   UNL A   1      46.307  36.240  26.290  1.00  0.00    -0.744 OA
ENDBRANCH  86  90
ENDBRANCH  60  83
ENDBRANCH  34  35
ENDBRANCH  27  29
ENDBRANCH  26  27
ENDBRANCH  25  26
ENDBRANCH   1  25
TORSDOF 17
ENDMDL
MODEL 2
REMARK VINA RESULT:     -11.9      5.520     10.457
REMARK SMILES O=C(Nc1ccc(Br)cc1)Nc1ccc(CC(=O)OCCOC(=O)c2ccc(-c3c4nc(c(-c5cc(S(=O)(=O)[O-])ccc5F)c5ccc([nH]5)c(-c5cc(S(=O)(=O)[O-])ccc5F)c5nc(c(-c6cc(S(=O)(=O)[O-])ccc6F)c6ccc3[nH]6)C=C5)C=C4)cc2)cc1
REMARK SMILES IDX 20 1 19 2 17 3 18 4 16 5 15 6 12 7 13 8 89 9 14 10 88 11
REMARK SMILES IDX 11 12 1 13 2 14 3 15 4 18 5 19 10 20 6 21 9 22 7 23 8 24
REMARK SMILES IDX 21 25 22 26 23 27 24 28 25 29 26 30 87 31 27 32 86 33 28 34
REMARK SMILES IDX 29 35 30 36 80 37 31 38 85 39 79 40 81 41 32 42 84 43 78 44
REMARK SMILES IDX 77 45 33 47 65 48 45 49 64 50 46 51 49 52 63 53 82 54 47 55
REMARK SMILES IDX 48 56 62 58 83 59 50 60 34 61 35 62 43 63 36 64 42 65 44 66
REMARK SMILES IDX 41 67 37 68 38 69 39 70 40 71 66 72 67 73 75 74 68 75 74 76
REMARK SMILES IDX 76 77 73 78 69 79 70 80 71 81 72 82 51 83 52 84 60 85 53 86
REMARK SMILES IDX 59 87 61 88 58 89 54 90 55 91 56 92 57 93
REMARK H PARENT 3 16 11 17 81 46 49 57
REMARK Flexibility Score: inf
ROOT
ATOM      1  C   UNL A   1      31.278  29.179  24.244  1.00  0.00     0.274 C 
ENDROOT
BRANCH   1   2
ATOM      2  O   UNL A   1      31.016  27.921  23.595  1.00  0.00    -0.462 OA
BRANCH   2   3
ATOM      3  C   UNL A   1      29.711  27.543  23.559  1.00  0.00     0.310 C 
ATOM      4  O   UNL A   1      28.825  28.163  22.979  1.00  0.00    -0.252 OA
BRANCH   3   5
ATOM      5  C   UNL A   1      29.411  26.308  24.370  1.00  0.00     0.158 C 
BRANCH   5   6
ATOM      6  C   UNL A   1      30.484  25.252  24.481  1.00  0.00    -0.037 A 
ATOM      7  C   UNL A   1      32.306  23.131  24.849  1.00  0.00     0.042 A 
ATOM      8  C   UNL A   1      31.591  23.251  23.655  1.00  0.00     0.026 A 
ATOM      9  C   UNL A   1      32.144  24.100  25.837  1.00  0.00     0.026 A 
ATOM     10  C   UNL A   1      30.673  24.292  23.480  1.00  0.00     0.006 A 
ATOM     11  C   UNL A   1      31.245  25.154  25.653  1.00  0.00     0.006 A 
BRANCH   7  12
ATOM     12  N   UNL A   1      33.154  22.018  24.995  1.00  0.00    -0.308 N 
ATOM     13  O   UNL A   1      35.014  22.675  23.776  1.00  0.00    -0.248 OA
ATOM     14  C   UNL A   1      34.380  21.833  24.407  1.00  0.00     0.323 C 
ATOM     15  N   UNL A   1      34.978  20.628  24.681  1.00  0.00    -0.308 N 
ATOM     16  H   UNL A   1      35.960  20.649  24.724  1.00  0.00     0.171 HD
ATOM     17  H   UNL A   1      32.834  21.295  25.582  1.00  0.00     0.171 HD
BRANCH  15  18
ATOM     18  C   UNL A   1      34.396  19.371  24.909  1.00  0.00     0.042 A 
ATOM     19  C   UNL A   1      33.091  19.222  25.390  1.00  0.00     0.027 A 
ATOM     20  C   UNL A   1      35.130  18.237  24.554  1.00  0.00     0.027 A 
ATOM     21  C   UNL A   1      32.531  17.949  25.529  1.00  0.00     0.018 A 
ATOM     22  C   UNL A   1      34.581  16.961  24.713  1.00  0.00     0.018 A 
ATOM     23  C   UNL A   1      33.281  16.824  25.195  1.00  0.00     0.018 A 
ATOM     24  Br  UNL A   1      32.522  15.103  25.376  1.00  0.00    -0.051 Br
ENDBRANCH  15  18
ENDBRANCH   7  12
ENDBRANCH   5   6
ENDBRANCH   3   5
ENDBRANCH   2   3
ENDBRANCH   1   2
BRANCH   1  25
ATOM     25  C   UNL A   1      32.040  28.968  25.551  1.00  0.00     0.275 C 
BRANCH  25  26
ATOM     26  O   UNL A   1      33.137  29.892  25.638  1.00  0.00    -0.458 OA
BRANCH  26  27
ATOM     27  C   UNL A   1      33.071  30.787  26.650  1.00  0.00     0.338 C 
ATOM     28  O   UNL A   1      32.183  31.588  26.877  1.00  0.00    -0.246 OA
BRANCH  27  29
ATOM     29  C   UNL A   1      34.290  30.687  27.467  1.00  0.00     0.060 A 
ATOM     30  C   UNL A   1      35.134  31.790  27.626  1.00  0.00     0.016 A 
ATOM     31  C   UNL A   1      34.631  29.447  28.005  1.00  0.00     0.016 A 
ATOM     32  C   UNL A   1      36.345  31.644  28.307  1.00  0.00     0.010 A 
ATOM     33  C   UNL A   1      35.816  29.317  28.728  1.00  0.00     0.010 A 
ATOM     34  C   UNL A   1      36.692  30.408  28.871  1.00  0.00    -0.014 A 
BRANCH  34  35
ATOM     35  C   UNL A   1      37.974  30.217  29.597  1.00  0.00     0.031 A 
ATOM     36  C   UNL A   1      39.003  29.268  29.049  1.00  0.00     0.074 A 
ATOM     37  C   UNL A   1      38.180  30.833  30.776  1.00  0.00     0.049 A 
ATOM     38  N   UNL A   1      40.069  28.776  29.625  1.00  0.00    -0.248 NA
ATOM     39  C   UNL A   1      38.790  28.802  27.671  1.00  0.00     0.031 C 
ATOM     40  C   UNL A   1      37.276  31.806  31.391  1.00  0.00     0.029 A 
ATOM     41  N   UNL A   1      39.205  30.710  31.681  1.00  0.00    -0.354 N 
ATOM     42  C   UNL A   1      40.639  27.914  28.694  1.00  0.00     0.074 A 
ATOM     43  C   UNL A   1      39.787  27.941  27.522  1.00  0.00     0.031 C 
ATOM     44  C   UNL A   1      37.778  32.178  32.580  1.00  0.00     0.029 A 
ATOM     45  C   UNL A   1      38.999  31.422  32.840  1.00  0.00     0.049 A 
ATOM     46  H   UNL A   1      40.009  30.167  31.518  1.00  0.00     0.167 HD
ATOM     47  C   UNL A   1      41.767  27.168  28.811  1.00  0.00     0.034 A 
ATOM     48  C   UNL A   1      39.682  31.422  34.001  1.00  0.00     0.034 A 
ATOM     49  C   UNL A   1      42.605  27.163  29.986  1.00  0.00     0.049 A 
ATOM     50  C   UNL A   1      40.890  30.532  34.139  1.00  0.00     0.074 A 
ATOM     51  C   UNL A   1      43.782  26.465  30.205  1.00  0.00     0.029 A 
ATOM     52  N   UNL A   1      42.354  27.886  31.145  1.00  0.00    -0.354 N 
ATOM     53  N   UNL A   1      41.405  29.699  33.264  1.00  0.00    -0.248 NA
ATOM     54  C   UNL A   1      41.604  30.577  35.422  1.00  0.00     0.031 C 
ATOM     55  C   UNL A   1      44.207  26.721  31.514  1.00  0.00     0.029 A 
ATOM     56  C   UNL A   1      43.335  27.630  32.090  1.00  0.00     0.049 A 
ATOM     57  H   UNL A   1      41.590  28.492  31.276  1.00  0.00     0.167 HD
ATOM     58  C   UNL A   1      42.518  29.139  33.885  1.00  0.00     0.074 A 
ATOM     59  C   UNL A   1      42.602  29.733  35.204  1.00  0.00     0.031 C 
ATOM     60  C   UNL A   1      43.396  28.222  33.406  1.00  0.00     0.034 A 
BRANCH  47  61
ATOM     61  C   UNL A   1      42.118  26.256  27.661  1.00  0.00     0.023 A 
ATOM     62  C   UNL A   1      41.639  24.937  27.584  1.00  0.00     0.031 A 
ATOM     63  C   UNL A   1      42.974  26.707  26.640  1.00  0.00     0.131 A 
ATOM     64  C   UNL A   1      42.072  24.095  26.547  1.00  0.00     0.055 A 
ATOM     65  C   UNL A   1      43.342  25.887  25.571  1.00  0.00     0.041 A 
ATOM     66  F   UNL A   1      43.480  27.950  26.672  1.00  0.00    -0.206 F 
ATOM     67  C   UNL A   1      42.901  24.568  25.529  1.00  0.00     0.022 A 
BRANCH  64  68
ATOM     68  S   UNL A   1      41.644  22.334  26.623  1.00  0.00     0.124 S 
ATOM     69  O   UNL A   1      42.228  21.833  25.380  1.00  0.00    -0.237 OA
ATOM     70  O   UNL A   1      42.296  21.903  27.854  1.00  0.00    -0.237 OA
ATOM     71  O   UNL A   1      40.183  22.336  26.658  1.00  0.00    -0.744 OA
ENDBRANCH  64  68
ENDBRANCH  47  61
BRANCH  48  72
ATOM     72  C   UNL A   1      39.204  32.239  35.152  1.00  0.00     0.023 A 
ATOM     73  C   UNL A   1      38.566  31.643  36.249  1.00  0.00     0.031 A 
ATOM     74  C   UNL A   1      39.356  33.639  35.154  1.00  0.00     0.131 A 
ATOM     75  C   UNL A   1      38.071  32.446  37.289  1.00  0.00     0.055 A 
ATOM     76  C   UNL A   1      38.906  34.427  36.213  1.00  0.00     0.041 A 
ATOM     77  F   UNL A   1      39.963  34.257  34.128  1.00  0.00    -0.206 F 
ATOM     78  C   UNL A   1      38.249  33.832  37.285  1.00  0.00     0.022 A 
BRANCH  75  79
ATOM     79  S   UNL A   1      37.126  31.656  38.621  1.00  0.00     0.124 S 
ATOM     80  O   UNL A   1      37.984  31.897  39.775  1.00  0.00    -0.237 OA
ATOM     81  O   UNL A   1      35.872  32.401  38.586  1.00  0.00    -0.237 OA
ATOM     82  O   UNL A   1      37.033  30.263  38.191  1.00  0.00    -0.744 OA
ENDBRANCH  75  79
ENDBRANCH  48  72
BRANCH  60  83
ATOM     83  C   UNL A   1      44.551  27.851  34.299  1.00  0.00     0.023 A 
ATOM     84  C   UNL A   1      44.429  26.871  35.299  1.00  0.00     0.031 A 
ATOM     85  C   UNL A   1      45.791  28.495  34.146  1.00  0.00     0.131 A 
ATOM     86  C   UNL A   1      45.519  26.590  36.136  1.00  0.00     0.055 A 
ATOM     87  C   UNL A   1      46.887  28.179  34.951  1.00  0.00     0.041 A 
ATOM     88  F   UNL A   1      45.959  29.440  33.207  1.00  0.00    -0.206 F 
ATOM     89  C   UNL A   1      46.751  27.228  35.959  1.00  0.00     0.022 A 
BRANCH  86  90
ATOM     90  S   UNL A   1      45.293  25.421  37.504  1.00  0.00     0.124 S 
ATOM     91  O   UNL A   1      45.797  24.178  36.929  1.00  0.00    -0.237 OA
ATOM     92  O   UNL A   1      46.109  26.013  38.560  1.00  0.00    -0.237 OA
ATOM     93  O   UNL A   1      43.852  25.452  37.747  1.00  0.00    -0.744 OA
ENDBRANCH  86  90
ENDBRANCH  60  83
ENDBRANCH  34  35
ENDBRANCH  27  29
ENDBRANCH  26  27
ENDBRANCH  25  26
ENDBRANCH   1  25
TORSDOF 17
ENDMDL
MODEL 3
REMARK VINA RESULT:     -11.9      1.642      1.984
REMARK SMILES O=C(Nc1ccc(Br)cc1)Nc1ccc(CC(=O)OCCOC(=O)c2ccc(-c3c4nc(c(-c5cc(S(=O)(=O)[O-])ccc5F)c5ccc([nH]5)c(-c5cc(S(=O)(=O)[O-])ccc5F)c5nc(c(-c6cc(S(=O)(=O)[O-])ccc6F)c6ccc3[nH]6)C=C5)C=C4)cc2)cc1
REMARK SMILES IDX 20 1 19 2 17 3 18 4 16 5 15 6 12 7 13 8 89 9 14 10 88 11
REMARK SMILES IDX 11 12 1 13 2 14 3 15 4 18 5 19 10 20 6 21 9 22 7 23 8 24
REMARK SMILES IDX 21 25 22 26 23 27 24 28 25 29 26 30 87 31 27 32 86 33 28 34
REMARK SMILES IDX 29 35 30 36 80 37 31 38 85 39 79 40 81 41 32 42 84 43 78 44
REMARK SMILES IDX 77 45 33 47 65 48 45 49 64 50 46 51 49 52 63 53 82 54 47 55
REMARK SMILES IDX 48 56 62 58 83 59 50 60 34 61 35 62 43 63 36 64 42 65 44 66
REMARK SMILES IDX 41 67 37 68 38 69 39 70 40 71 66 72 67 73 75 74 68 75 74 76
REMARK SMILES IDX 76 77 73 78 69 79 70 80 71 81 72 82 51 83 52 84 60 85 53 86
REMARK SMILES IDX 59 87 61 88 58 89 54 90 55 91 56 92 57 93
REMARK H PARENT 3 16 11 17 81 46 49 57
REMARK Flexibility Score: inf
ROOT
ATOM      1  C   UNL A   1      35.248  20.402  25.104  1.00  0.00     0.274 C 
ENDROOT
BRANCH   1   2
ATOM      2  O   UNL A   1      34.515  19.308  24.522  1.00  0.00    -0.462 OA
BRANCH   2   3
ATOM      3  C   UNL A   1      33.239  19.159  24.965  1.00  0.00     0.310 C 
ATOM      4  O   UNL A   1      32.921  18.517  25.961  1.00  0.00    -0.252 OA
BRANCH   3   5
ATOM      5  C   UNL A   1      32.205  19.798  24.074  1.00  0.00     0.158 C 
BRANCH   5   6
ATOM      6  C   UNL A   1      32.315  21.280  23.807  1.00  0.00    -0.037 A 
ATOM      7  C   UNL A   1      32.262  24.031  23.188  1.00  0.00     0.042 A 
ATOM      8  C   UNL A   1      31.988  23.592  24.486  1.00  0.00     0.026 A 
ATOM      9  C   UNL A   1      32.609  23.097  22.215  1.00  0.00     0.026 A 
ATOM     10  C   UNL A   1      31.995  22.227  24.789  1.00  0.00     0.006 A 
ATOM     11  C   UNL A   1      32.640  21.734  22.522  1.00  0.00     0.006 A 
BRANCH   7  12
ATOM     12  N   UNL A   1      32.161  25.410  22.929  1.00  0.00    -0.308 N 
ATOM     13  O   UNL A   1      33.366  25.613  20.958  1.00  0.00    -0.248 OA
ATOM     14  C   UNL A   1      32.762  26.104  21.909  1.00  0.00     0.323 C 
ATOM     15  N   UNL A   1      32.535  27.458  21.917  1.00  0.00    -0.308 N 
ATOM     16  H   UNL A   1      32.496  27.881  21.029  1.00  0.00     0.171 HD
ATOM     17  H   UNL A   1      31.599  25.934  23.545  1.00  0.00     0.171 HD
BRANCH  15  18
ATOM     18  C   UNL A   1      32.349  28.328  23.002  1.00  0.00     0.042 A 
ATOM     19  C   UNL A   1      31.098  28.856  23.338  1.00  0.00     0.027 A 
ATOM     20  C   UNL A   1      33.450  28.599  23.819  1.00  0.00     0.027 A 
ATOM     21  C   UNL A   1      30.952  29.658  24.473  1.00  0.00     0.018 A 
ATOM     22  C   UNL A   1      33.311  29.420  24.942  1.00  0.00     0.018 A 
ATOM     23  C   UNL A   1      32.061  29.941  25.267  1.00  0.00     0.018 A 
ATOM     24  Br  UNL A   1      31.863  31.020  26.806  1.00  0.00    -0.051 Br
ENDBRANCH  15  18
ENDBRANCH   7  12
ENDBRANCH   5   6
ENDBRANCH   3   5
ENDBRANCH   2   3
ENDBRANCH   1   2
BRANCH   1  25
ATOM     25  C   UNL A   1      36.750  20.217  24.907  1.00  0.00     0.275 C 
BRANCH  25  26
ATOM     26  O   UNL A   1      37.470  21.269  25.572  1.00  0.00    -0.458 OA
BRANCH  26  27
ATOM     27  C   UNL A   1      38.768  21.008  25.847  1.00  0.00     0.338 C 
ATOM     28  O   UNL A   1      39.365  19.958  25.692  1.00  0.00    -0.246 OA
BRANCH  27  29
ATOM     29  C   UNL A   1      39.394  22.211  26.417  1.00  0.00     0.060 A 
ATOM     30  C   UNL A   1      38.955  23.486  26.049  1.00  0.00     0.016 A 
ATOM     31  C   UNL A   1      40.490  22.053  27.264  1.00  0.00     0.016 A 
ATOM     32  C   UNL A   1      39.637  24.615  26.510  1.00  0.00     0.010 A 
ATOM     33  C   UNL A   1      41.137  23.183  27.764  1.00  0.00     0.010 A 
ATOM     34  C   UNL A   1      40.728  24.473  27.378  1.00  0.00    -0.014 A 
BRANCH  34  35
ATOM     35  C   UNL A   1      41.480  25.651  27.883  1.00  0.00     0.031 A 
ATOM     36  C   UNL A   1      40.757  26.716  28.659  1.00  0.00     0.074 A 
ATOM     37  C   UNL A   1      42.784  25.798  27.583  1.00  0.00     0.049 A 
ATOM     38  N   UNL A   1      41.152  27.919  28.984  1.00  0.00    -0.248 NA
ATOM     39  C   UNL A   1      39.399  26.380  29.115  1.00  0.00     0.031 C 
ATOM     40  C   UNL A   1      43.605  24.817  26.872  1.00  0.00     0.029 A 
ATOM     41  N   UNL A   1      43.640  26.845  27.815  1.00  0.00    -0.354 N 
ATOM     42  C   UNL A   1      40.081  28.501  29.655  1.00  0.00     0.074 A 
ATOM     43  C   UNL A   1      39.015  27.520  29.672  1.00  0.00     0.031 C 
ATOM     44  C   UNL A   1      44.841  25.316  26.711  1.00  0.00     0.029 A 
ATOM     45  C   UNL A   1      44.881  26.674  27.244  1.00  0.00     0.049 A 
ATOM     46  H   UNL A   1      43.393  27.642  28.338  1.00  0.00     0.167 HD
ATOM     47  C   UNL A   1      39.998  29.740  30.201  1.00  0.00     0.034 A 
ATOM     48  C   UNL A   1      45.911  27.532  27.113  1.00  0.00     0.034 A 
ATOM     49  C   UNL A   1      41.076  30.700  30.179  1.00  0.00     0.049 A 
ATOM     50  C   UNL A   1      45.773  28.929  27.660  1.00  0.00     0.074 A 
ATOM     51  C   UNL A   1      41.111  31.974  30.720  1.00  0.00     0.029 A 
ATOM     52  N   UNL A   1      42.311  30.494  29.577  1.00  0.00    -0.354 N 
ATOM     53  N   UNL A   1      44.748  29.480  28.267  1.00  0.00    -0.248 NA
ATOM     54  C   UNL A   1      46.930  29.820  27.500  1.00  0.00     0.031 C 
ATOM     55  C   UNL A   1      42.341  32.557  30.396  1.00  0.00     0.029 A 
ATOM     56  C   UNL A   1      43.102  31.624  29.709  1.00  0.00     0.049 A 
ATOM     57  H   UNL A   1      42.585  29.664  29.123  1.00  0.00     0.167 HD
ATOM     58  C   UNL A   1      45.145  30.776  28.582  1.00  0.00     0.074 A 
ATOM     59  C   UNL A   1      46.505  30.922  28.102  1.00  0.00     0.031 C 
ATOM     60  C   UNL A   1      44.452  31.756  29.215  1.00  0.00     0.034 A 
BRANCH  47  61
ATOM     61  C   UNL A   1      38.677  30.143  30.811  1.00  0.00     0.023 A 
ATOM     62  C   UNL A   1      37.701  30.839  30.078  1.00  0.00     0.031 A 
ATOM     63  C   UNL A   1      38.406  29.851  32.159  1.00  0.00     0.131 A 
ATOM     64  C   UNL A   1      36.529  31.278  30.716  1.00  0.00     0.055 A 
ATOM     65  C   UNL A   1      37.207  30.227  32.768  1.00  0.00     0.041 A 
ATOM     66  F   UNL A   1      39.310  29.208  32.915  1.00  0.00    -0.206 F 
ATOM     67  C   UNL A   1      36.266  30.957  32.049  1.00  0.00     0.022 A 
BRANCH  64  68
ATOM     68  S   UNL A   1      35.416  32.393  29.815  1.00  0.00     0.124 S 
ATOM     69  O   UNL A   1      34.302  32.520  30.753  1.00  0.00    -0.237 OA
ATOM     70  O   UNL A   1      36.239  33.583  29.635  1.00  0.00    -0.237 OA
ATOM     71  O   UNL A   1      35.108  31.656  28.592  1.00  0.00    -0.744 OA
ENDBRANCH  64  68
ENDBRANCH  47  61
BRANCH  48  72
ATOM     72  C   UNL A   1      47.139  27.121  26.375  1.00  0.00     0.023 A 
ATOM     73  C   UNL A   1      48.174  26.429  27.020  1.00  0.00     0.031 A 
ATOM     74  C   UNL A   1      47.304  27.444  25.015  1.00  0.00     0.131 A 
ATOM     75  C   UNL A   1      49.345  26.111  26.314  1.00  0.00     0.055 A 
ATOM     76  C   UNL A   1      48.449  27.083  24.306  1.00  0.00     0.041 A 
ATOM     77  F   UNL A   1      46.341  28.104  24.353  1.00  0.00    -0.206 F 
ATOM     78  C   UNL A   1      49.484  26.421  24.958  1.00  0.00     0.022 A 
BRANCH  75  79
ATOM     79  S   UNL A   1      50.720  25.343  27.215  1.00  0.00     0.124 S 
ATOM     80  O   UNL A   1      51.193  26.452  28.035  1.00  0.00    -0.237 OA
ATOM     81  O   UNL A   1      50.049  24.259  27.925  1.00  0.00    -0.237 OA
ATOM     82  O   UNL A   1      51.628  24.919  26.152  1.00  0.00    -0.744 OA
ENDBRANCH  75  79
ENDBRANCH  48  72
BRANCH  60  83
ATOM     83  C   UNL A   1      45.179  33.050  29.470  1.00  0.00     0.023 A 
ATOM     84  C   UNL A   1      45.047  34.156  28.612  1.00  0.00     0.031 A 
ATOM     85  C   UNL A   1      46.021  33.174  30.589  1.00  0.00     0.131 A 
ATOM     86  C   UNL A   1      45.778  35.326  28.866  1.00  0.00     0.055 A 
ATOM     87  C   UNL A   1      46.710  34.356  30.864  1.00  0.00     0.041 A 
ATOM     88  F   UNL A   1      46.182  32.146  31.438  1.00  0.00    -0.206 F 
ATOM     89  C   UNL A   1      46.597  35.438  29.994  1.00  0.00     0.022 A 
BRANCH  86  90
ATOM     90  S   UNL A   1      45.694  36.686  27.670  1.00  0.00     0.124 S 
ATOM     91  O   UNL A   1      45.014  37.725  28.436  1.00  0.00    -0.237 OA
ATOM     92  O   UNL A   1      47.103  36.930  27.374  1.00  0.00    -0.237 OA
ATOM     93  O   UNL A   1      44.921  36.124  26.564  1.00  0.00    -0.744 OA
ENDBRANCH  86  90
ENDBRANCH  60  83
ENDBRANCH  34  35
ENDBRANCH  27  29
ENDBRANCH  26  27
ENDBRANCH  25  26
ENDBRANCH   1  25
TORSDOF 17
ENDMDL
