MODEL 1
REMARK VINA RESULT:     -10.7      0.000      0.000
REMARK SMILES C[C@@H](O)[C@@H](NC(=O)CSc1ccncc1)C(=O)OCCOC(=O)c1ccc(-c2c3nc(c(-c4cc(S(=O)(=O)[O-])ccc4F)c4ccc([nH]4)c(-c4cc(S(=O)(=O)[O-])ccc4F)c4nc(c(-c5cc(S(=O)(=O)[O-])ccc5F)c5ccc2[nH]5)C=C4)C=C3)cc1
REMARK SMILES IDX 19 1 18 2 16 3 17 4 4 5 2 6 1 7 3 8 5 10 6 11 7 13 8 14 9 15
REMARK SMILES IDX 10 16 11 17 15 18 12 19 14 20 13 21 20 22 21 23 22 24 23 25
REMARK SMILES IDX 24 26 25 27 86 28 26 29 85 30 27 31 28 32 29 33 79 34 30 35
REMARK SMILES IDX 84 36 78 37 80 38 31 39 83 40 77 41 76 42 32 44 64 45 44 46
REMARK SMILES IDX 63 47 45 48 48 49 62 50 81 51 46 52 47 53 61 55 82 56 49 57
REMARK SMILES IDX 33 58 34 59 42 60 35 61 41 62 43 63 40 64 36 65 37 66 38 67
REMARK SMILES IDX 39 68 65 69 66 70 74 71 67 72 73 73 75 74 72 75 68 76 69 77
REMARK SMILES IDX 70 78 71 79 50 80 51 81 59 82 52 83 58 84 60 85 57 86 53 87
REMARK SMILES IDX 54 88 55 89 56 90
REMARK H PARENT 3 9 5 12 80 43 48 54
REMARK Flexibility Score: inf
ROOT
ATOM      1  C   UNL A   1      35.501  20.916  25.110  1.00  0.00     0.274 C 
ENDROOT
BRANCH   1   2
ATOM      2  O   UNL A   1      34.494  19.897  24.922  1.00  0.00    -0.460 OA
BRANCH   2   3
ATOM      3  C   UNL A   1      33.210  20.321  25.064  1.00  0.00     0.331 C 
ATOM      4  O   UNL A   1      32.239  19.570  25.070  1.00  0.00    -0.250 OA
BRANCH   3   5
ATOM      5  C   UNL A   1      33.051  21.846  25.057  1.00  0.00     0.221 C 
BRANCH   5   6
ATOM      6  C   UNL A   1      32.461  22.361  23.710  1.00  0.00     0.145 C 
ATOM      7  C   UNL A   1      33.511  23.077  22.854  1.00  0.00     0.041 C 
BRANCH   6   8
ATOM      8  O   UNL A   1      32.020  21.292  22.880  1.00  0.00    -0.391 OA
ATOM      9  H   UNL A   1      32.695  21.101  22.211  1.00  0.00     0.211 HD
ENDBRANCH   6   8
ENDBRANCH   5   6
BRANCH   5  10
ATOM     10  N   UNL A   1      32.327  22.443  26.204  1.00  0.00    -0.340 N 
ATOM     11  C   UNL A   1      31.913  23.696  26.512  1.00  0.00     0.231 C 
ATOM     12  H   UNL A   1      32.098  21.782  26.896  1.00  0.00     0.164 HD
ATOM     13  O   UNL A   1      30.925  23.777  27.252  1.00  0.00    -0.274 OA
BRANCH  11  14
ATOM     14  C   UNL A   1      32.644  24.939  26.093  1.00  0.00     0.174 C 
BRANCH  14  15
ATOM     15  S   UNL A   1      31.760  26.539  26.241  1.00  0.00    -0.116 SA
BRANCH  15  16
ATOM     16  C   UNL A   1      31.373  27.183  24.622  1.00  0.00     0.011 A 
ATOM     17  C   UNL A   1      31.544  26.309  23.543  1.00  0.00     0.035 A 
ATOM     18  C   UNL A   1      30.768  28.409  24.367  1.00  0.00     0.035 A 
ATOM     19  C   UNL A   1      31.156  26.711  22.275  1.00  0.00     0.112 A 
ATOM     20  C   UNL A   1      30.442  28.740  23.059  1.00  0.00     0.112 A 
ATOM     21  N   UNL A   1      30.622  27.918  22.005  1.00  0.00    -0.265 NA
ENDBRANCH  15  16
ENDBRANCH  14  15
ENDBRANCH  11  14
ENDBRANCH   5  10
ENDBRANCH   3   5
ENDBRANCH   2   3
ENDBRANCH   1   2
BRANCH   1  22
ATOM     22  C   UNL A   1      36.934  20.379  25.034  1.00  0.00     0.275 C 
BRANCH  22  23
ATOM     23  O   UNL A   1      37.917  21.425  25.122  1.00  0.00    -0.458 OA
BRANCH  23  24
ATOM     24  C   UNL A   1      38.974  21.132  25.913  1.00  0.00     0.338 C 
ATOM     25  O   UNL A   1      39.525  20.039  26.001  1.00  0.00    -0.246 OA
BRANCH  24  26
ATOM     26  C   UNL A   1      39.505  22.359  26.530  1.00  0.00     0.060 A 
ATOM     27  C   UNL A   1      38.954  23.577  26.124  1.00  0.00     0.016 A 
ATOM     28  C   UNL A   1      40.570  22.335  27.434  1.00  0.00     0.016 A 
ATOM     29  C   UNL A   1      39.482  24.777  26.579  1.00  0.00     0.010 A 
ATOM     30  C   UNL A   1      41.099  23.546  27.899  1.00  0.00     0.010 A 
ATOM     31  C   UNL A   1      40.572  24.771  27.452  1.00  0.00    -0.014 A 
BRANCH  31  32
ATOM     32  C   UNL A   1      41.212  26.064  27.787  1.00  0.00     0.031 A 
ATOM     33  C   UNL A   1      42.608  26.335  27.300  1.00  0.00     0.074 A 
ATOM     34  C   UNL A   1      40.515  27.012  28.439  1.00  0.00     0.049 A 
ATOM     35  N   UNL A   1      43.360  27.388  27.480  1.00  0.00    -0.248 NA
ATOM     36  C   UNL A   1      43.236  25.271  26.502  1.00  0.00     0.031 C 
ATOM     37  C   UNL A   1      39.131  26.874  28.894  1.00  0.00     0.029 A 
ATOM     38  N   UNL A   1      40.870  28.279  28.821  1.00  0.00    -0.354 N 
ATOM     39  C   UNL A   1      44.557  27.113  26.827  1.00  0.00     0.074 A 
ATOM     40  C   UNL A   1      44.438  25.779  26.276  1.00  0.00     0.031 C 
ATOM     41  C   UNL A   1      38.753  28.017  29.491  1.00  0.00     0.029 A 
ATOM     42  C   UNL A   1      39.879  28.948  29.497  1.00  0.00     0.049 A 
ATOM     43  H   UNL A   1      41.752  28.672  28.629  1.00  0.00     0.167 HD
ATOM     44  C   UNL A   1      45.651  27.904  26.696  1.00  0.00     0.034 A 
ATOM     45  C   UNL A   1      39.887  30.167  30.072  1.00  0.00     0.034 A 
ATOM     46  C   UNL A   1      45.750  29.228  27.264  1.00  0.00     0.049 A 
ATOM     47  C   UNL A   1      41.137  31.004  29.968  1.00  0.00     0.074 A 
ATOM     48  C   UNL A   1      46.816  30.110  27.226  1.00  0.00     0.029 A 
ATOM     49  N   UNL A   1      44.740  29.861  27.981  1.00  0.00    -0.354 N 
ATOM     50  N   UNL A   1      42.278  30.720  29.380  1.00  0.00    -0.248 NA
ATOM     51  C   UNL A   1      41.097  32.329  30.598  1.00  0.00     0.031 C 
ATOM     52  C   UNL A   1      46.472  31.249  27.966  1.00  0.00     0.029 A 
ATOM     53  C   UNL A   1      45.166  31.111  28.406  1.00  0.00     0.049 A 
ATOM     54  H   UNL A   1      43.851  29.477  28.161  1.00  0.00     0.167 HD
ATOM     55  C   UNL A   1      43.082  31.843  29.549  1.00  0.00     0.074 A 
ATOM     56  C   UNL A   1      42.286  32.814  30.275  1.00  0.00     0.031 C 
ATOM     57  C   UNL A   1      44.361  32.057  29.145  1.00  0.00     0.034 A 
BRANCH  44  58
ATOM     58  C   UNL A   1      46.839  27.318  25.970  1.00  0.00     0.023 A 
ATOM     59  C   UNL A   1      47.855  26.623  26.649  1.00  0.00     0.031 A 
ATOM     60  C   UNL A   1      46.988  27.513  24.586  1.00  0.00     0.131 A 
ATOM     61  C   UNL A   1      49.008  26.218  25.958  1.00  0.00     0.055 A 
ATOM     62  C   UNL A   1      48.102  27.038  23.890  1.00  0.00     0.041 A 
ATOM     63  F   UNL A   1      46.064  28.191  23.888  1.00  0.00    -0.206 F 
ATOM     64  C   UNL A   1      49.128  26.400  24.579  1.00  0.00     0.022 A 
BRANCH  61  65
ATOM     65  S   UNL A   1      50.418  25.586  26.912  1.00  0.00     0.124 S 
ATOM     66  O   UNL A   1      51.363  25.246  25.851  1.00  0.00    -0.237 OA
ATOM     67  O   UNL A   1      50.774  26.729  27.744  1.00  0.00    -0.237 OA
ATOM     68  O   UNL A   1      49.861  24.440  27.629  1.00  0.00    -0.744 OA
ENDBRANCH  61  65
ENDBRANCH  44  58
BRANCH  45  69
ATOM     69  C   UNL A   1      38.699  30.656  30.826  1.00  0.00     0.023 A 
ATOM     70  C   UNL A   1      37.617  31.263  30.170  1.00  0.00     0.031 A 
ATOM     71  C   UNL A   1      38.651  30.561  32.229  1.00  0.00     0.131 A 
ATOM     72  C   UNL A   1      36.552  31.789  30.919  1.00  0.00     0.055 A 
ATOM     73  C   UNL A   1      37.569  31.043  32.965  1.00  0.00     0.041 A 
ATOM     74  F   UNL A   1      39.660  29.989  32.905  1.00  0.00    -0.206 F 
ATOM     75  C   UNL A   1      36.515  31.673  32.310  1.00  0.00     0.022 A 
BRANCH  72  76
ATOM     76  S   UNL A   1      35.244  32.700  30.051  1.00  0.00     0.124 S 
ATOM     77  O   UNL A   1      34.812  31.726  29.056  1.00  0.00    -0.237 OA
ATOM     78  O   UNL A   1      34.302  32.977  31.129  1.00  0.00    -0.237 OA
ATOM     79  O   UNL A   1      35.941  33.870  29.518  1.00  0.00    -0.744 OA
ENDBRANCH  72  76
ENDBRANCH  45  69
BRANCH  57  80
ATOM     80  C   UNL A   1      44.948  33.413  29.451  1.00  0.00     0.023 A 
ATOM     81  C   UNL A   1      44.842  34.486  28.547  1.00  0.00     0.031 A 
ATOM     82  C   UNL A   1      45.664  33.621  30.643  1.00  0.00     0.131 A 
ATOM     83  C   UNL A   1      45.502  35.694  28.816  1.00  0.00     0.055 A 
ATOM     84  C   UNL A   1      46.266  34.846  30.935  1.00  0.00     0.041 A 
ATOM     85  F   UNL A   1      45.797  32.632  31.541  1.00  0.00    -0.206 F 
ATOM     86  C   UNL A   1      46.202  35.885  30.010  1.00  0.00     0.022 A 
BRANCH  83  87
ATOM     87  S   UNL A   1      45.535  36.971  27.529  1.00  0.00     0.124 S 
ATOM     88  O   UNL A   1      46.574  36.474  26.633  1.00  0.00    -0.237 OA
ATOM     89  O   UNL A   1      44.172  36.928  27.013  1.00  0.00    -0.237 OA
ATOM     90  O   UNL A   1      45.882  38.188  28.263  1.00  0.00    -0.744 OA
ENDBRANCH  83  87
ENDBRANCH  57  80
ENDBRANCH  31  32
ENDBRANCH  24  26
ENDBRANCH  23  24
ENDBRANCH  22  23
ENDBRANCH   1  22
TORSDOF 20
ENDMDL
MODEL 2
REMARK VINA RESULT:     -10.7      1.627      7.832
REMARK SMILES C[C@@H](O)[C@@H](NC(=O)CSc1ccncc1)C(=O)OCCOC(=O)c1ccc(-c2c3nc(c(-c4cc(S(=O)(=O)[O-])ccc4F)c4ccc([nH]4)c(-c4cc(S(=O)(=O)[O-])ccc4F)c4nc(c(-c5cc(S(=O)(=O)[O-])ccc5F)c5ccc2[nH]5)C=C4)C=C3)cc1
REMARK SMILES IDX 19 1 18 2 16 3 17 4 4 5 2 6 1 7 3 8 5 10 6 11 7 13 8 14 9 15
REMARK SMILES IDX 10 16 11 17 15 18 12 19 14 20 13 21 20 22 21 23 22 24 23 25
REMARK SMILES IDX 24 26 25 27 86 28 26 29 85 30 27 31 28 32 29 33 79 34 30 35
REMARK SMILES IDX 84 36 78 37 80 38 31 39 83 40 77 41 76 42 32 44 64 45 44 46
REMARK SMILES IDX 63 47 45 48 48 49 62 50 81 51 46 52 47 53 61 55 82 56 49 57
REMARK SMILES IDX 33 58 34 59 42 60 35 61 41 62 43 63 40 64 36 65 37 66 38 67
REMARK SMILES IDX 39 68 65 69 66 70 74 71 67 72 73 73 75 74 72 75 68 76 69 77
REMARK SMILES IDX 70 78 71 79 50 80 51 81 59 82 52 83 58 84 60 85 57 86 53 87
REMARK SMILES IDX 54 88 55 89 56 90
REMARK H PARENT 3 9 5 12 80 43 48 54
REMARK Flexibility Score: inf
ROOT
ATOM      1  C   UNL A   1      35.845  20.200  24.764  1.00  0.00     0.274 C 
ENDROOT
BRANCH   1   2
ATOM      2  O   UNL A   1      35.428  21.571  24.948  1.00  0.00    -0.460 OA
BRANCH   2   3
ATOM      3  C   UNL A   1      34.444  21.758  25.868  1.00  0.00     0.331 C 
ATOM      4  O   UNL A   1      34.549  21.456  27.053  1.00  0.00    -0.250 OA
BRANCH   3   5
ATOM      5  C   UNL A   1      33.115  22.237  25.271  1.00  0.00     0.221 C 
BRANCH   5   6
ATOM      6  C   UNL A   1      32.151  21.049  24.976  1.00  0.00     0.145 C 
ATOM      7  C   UNL A   1      32.338  20.488  23.562  1.00  0.00     0.041 C 
BRANCH   6   8
ATOM      8  O   UNL A   1      32.410  19.933  25.820  1.00  0.00    -0.391 OA
ATOM      9  H   UNL A   1      33.357  19.895  26.025  1.00  0.00     0.211 HD
ENDBRANCH   6   8
ENDBRANCH   5   6
BRANCH   5  10
ATOM     10  N   UNL A   1      32.407  23.311  26.005  1.00  0.00    -0.340 N 
ATOM     11  C   UNL A   1      31.267  24.013  25.789  1.00  0.00     0.231 C 
ATOM     12  H   UNL A   1      32.867  23.574  26.834  1.00  0.00     0.164 HD
ATOM     13  O   UNL A   1      30.695  24.448  26.795  1.00  0.00    -0.274 OA
BRANCH  11  14
ATOM     14  C   UNL A   1      30.753  24.359  24.420  1.00  0.00     0.174 C 
BRANCH  14  15
ATOM     15  S   UNL A   1      31.800  25.434  23.365  1.00  0.00    -0.116 SA
BRANCH  15  16
ATOM     16  C   UNL A   1      31.297  27.138  23.528  1.00  0.00     0.011 A 
ATOM     17  C   UNL A   1      30.272  27.572  22.679  1.00  0.00     0.035 A 
ATOM     18  C   UNL A   1      31.719  28.011  24.526  1.00  0.00     0.035 A 
ATOM     19  C   UNL A   1      29.760  28.852  22.832  1.00  0.00     0.112 A 
ATOM     20  C   UNL A   1      31.172  29.285  24.582  1.00  0.00     0.112 A 
ATOM     21  N   UNL A   1      30.200  29.726  23.757  1.00  0.00    -0.265 NA
ENDBRANCH  15  16
ENDBRANCH  14  15
ENDBRANCH  11  14
ENDBRANCH   5  10
ENDBRANCH   3   5
ENDBRANCH   2   3
ENDBRANCH   1   2
BRANCH   1  22
ATOM     22  C   UNL A   1      37.341  19.979  25.007  1.00  0.00     0.275 C 
BRANCH  22  23
ATOM     23  O   UNL A   1      38.003  21.168  25.473  1.00  0.00    -0.458 OA
BRANCH  23  24
ATOM     24  C   UNL A   1      39.170  20.940  26.118  1.00  0.00     0.338 C 
ATOM     25  O   UNL A   1      39.781  19.875  26.143  1.00  0.00    -0.246 OA
BRANCH  24  26
ATOM     26  C   UNL A   1      39.717  22.201  26.644  1.00  0.00     0.060 A 
ATOM     27  C   UNL A   1      39.181  23.394  26.151  1.00  0.00     0.016 A 
ATOM     28  C   UNL A   1      40.784  22.229  27.545  1.00  0.00     0.016 A 
ATOM     29  C   UNL A   1      39.724  24.617  26.517  1.00  0.00     0.010 A 
ATOM     30  C   UNL A   1      41.330  23.464  27.920  1.00  0.00     0.010 A 
ATOM     31  C   UNL A   1      40.816  24.660  27.387  1.00  0.00    -0.014 A 
BRANCH  31  32
ATOM     32  C   UNL A   1      41.474  25.965  27.626  1.00  0.00     0.031 A 
ATOM     33  C   UNL A   1      40.752  27.010  28.430  1.00  0.00     0.074 A 
ATOM     34  C   UNL A   1      42.735  26.171  27.206  1.00  0.00     0.049 A 
ATOM     35  N   UNL A   1      41.132  28.217  28.755  1.00  0.00    -0.248 NA
ATOM     36  C   UNL A   1      39.421  26.637  28.934  1.00  0.00     0.031 C 
ATOM     37  C   UNL A   1      43.549  25.196  26.479  1.00  0.00     0.029 A 
ATOM     38  N   UNL A   1      43.555  27.260  27.340  1.00  0.00    -0.354 N 
ATOM     39  C   UNL A   1      40.084  28.757  29.494  1.00  0.00     0.074 A 
ATOM     40  C   UNL A   1      39.041  27.753  29.538  1.00  0.00     0.031 C 
ATOM     41  C   UNL A   1      44.756  25.732  26.234  1.00  0.00     0.029 A 
ATOM     42  C   UNL A   1      44.786  27.099  26.749  1.00  0.00     0.049 A 
ATOM     43  H   UNL A   1      43.289  28.081  27.815  1.00  0.00     0.167 HD
ATOM     44  C   UNL A   1      40.004  29.976  30.084  1.00  0.00     0.034 A 
ATOM     45  C   UNL A   1      45.811  27.964  26.624  1.00  0.00     0.034 A 
ATOM     46  C   UNL A   1      41.054  30.965  30.015  1.00  0.00     0.049 A 
ATOM     47  C   UNL A   1      45.674  29.337  27.233  1.00  0.00     0.074 A 
ATOM     48  C   UNL A   1      41.075  32.244  30.545  1.00  0.00     0.029 A 
ATOM     49  N   UNL A   1      42.273  30.784  29.372  1.00  0.00    -0.354 N 
ATOM     50  N   UNL A   1      44.664  29.851  27.898  1.00  0.00    -0.248 NA
ATOM     51  C   UNL A   1      46.820  30.241  27.082  1.00  0.00     0.031 C 
ATOM     52  C   UNL A   1      42.281  32.854  30.173  1.00  0.00     0.029 A 
ATOM     53  C   UNL A   1      43.044  31.933  29.473  1.00  0.00     0.049 A 
ATOM     54  H   UNL A   1      42.550  29.959  28.911  1.00  0.00     0.167 HD
ATOM     55  C   UNL A   1      45.065  31.133  28.266  1.00  0.00     0.074 A 
ATOM     56  C   UNL A   1      46.416  31.300  27.766  1.00  0.00     0.031 C 
ATOM     57  C   UNL A   1      44.383  32.086  28.952  1.00  0.00     0.034 A 
BRANCH  44  58
ATOM     58  C   UNL A   1      38.710  30.315  30.785  1.00  0.00     0.023 A 
ATOM     59  C   UNL A   1      37.653  30.962  30.121  1.00  0.00     0.031 A 
ATOM     60  C   UNL A   1      38.557  30.044  32.156  1.00  0.00     0.131 A 
ATOM     61  C   UNL A   1      36.526  31.384  30.844  1.00  0.00     0.055 A 
ATOM     62  C   UNL A   1      37.399  30.396  32.852  1.00  0.00     0.041 A 
ATOM     63  F   UNL A   1      39.542  29.452  32.850  1.00  0.00    -0.206 F 
ATOM     64  C   UNL A   1      36.382  31.085  32.200  1.00  0.00     0.022 A 
BRANCH  61  65
ATOM     65  S   UNL A   1      35.319  32.464  30.022  1.00  0.00     0.124 S 
ATOM     66  O   UNL A   1      34.807  31.587  28.971  1.00  0.00    -0.237 OA
ATOM     67  O   UNL A   1      34.391  32.778  31.101  1.00  0.00    -0.237 OA
ATOM     68  O   UNL A   1      36.129  33.585  29.548  1.00  0.00    -0.744 OA
ENDBRANCH  61  65
ENDBRANCH  44  58
BRANCH  45  69
ATOM     69  C   UNL A   1      47.034  27.582  25.864  1.00  0.00     0.023 A 
ATOM     70  C   UNL A   1      47.165  27.872  24.497  1.00  0.00     0.031 A 
ATOM     71  C   UNL A   1      48.076  26.875  26.491  1.00  0.00     0.131 A 
ATOM     72  C   UNL A   1      48.292  27.422  23.792  1.00  0.00     0.055 A 
ATOM     73  C   UNL A   1      49.217  26.471  25.797  1.00  0.00     0.041 A 
ATOM     74  F   UNL A   1      48.001  26.573  27.797  1.00  0.00    -0.206 F 
ATOM     75  C   UNL A   1      49.324  26.734  24.434  1.00  0.00     0.022 A 
BRANCH  72  76
ATOM     76  S   UNL A   1      48.358  27.683  21.997  1.00  0.00     0.124 S 
ATOM     77  O   UNL A   1      49.489  28.595  21.870  1.00  0.00    -0.237 OA
ATOM     78  O   UNL A   1      48.569  26.327  21.502  1.00  0.00    -0.237 OA
ATOM     79  O   UNL A   1      47.051  28.261  21.690  1.00  0.00    -0.744 OA
ENDBRANCH  72  76
ENDBRANCH  45  69
BRANCH  57  80
ATOM     80  C   UNL A   1      45.118  33.374  29.229  1.00  0.00     0.023 A 
ATOM     81  C   UNL A   1      45.070  34.459  28.334  1.00  0.00     0.031 A 
ATOM     82  C   UNL A   1      45.915  33.501  30.380  1.00  0.00     0.131 A 
ATOM     83  C   UNL A   1      45.861  35.593  28.570  1.00  0.00     0.055 A 
ATOM     84  C   UNL A   1      46.651  34.657  30.641  1.00  0.00     0.041 A 
ATOM     85  F   UNL A   1      45.998  32.496  31.268  1.00  0.00    -0.206 F 
ATOM     86  C   UNL A   1      46.640  35.705  29.724  1.00  0.00     0.022 A 
BRANCH  83  87
ATOM     87  S   UNL A   1      45.951  36.871  27.286  1.00  0.00     0.124 S 
ATOM     88  O   UNL A   1      46.947  37.786  27.835  1.00  0.00    -0.237 OA
ATOM     89  O   UNL A   1      46.365  36.107  26.114  1.00  0.00    -0.237 OA
ATOM     90  O   UNL A   1      44.589  37.399  27.231  1.00  0.00    -0.744 OA
ENDBRANCH  83  87
ENDBRANCH  57  80
ENDBRANCH  31  32
ENDBRANCH  24  26
ENDBRANCH  23  24
ENDBRANCH  22  23
ENDBRANCH   1  22
TORSDOF 20
ENDMDL
MODEL 3
REMARK VINA RESULT:     -10.7      4.804     10.294
REMARK SMILES C[C@@H](O)[C@@H](NC(=O)CSc1ccncc1)C(=O)OCCOC(=O)c1ccc(-c2c3nc(c(-c4cc(S(=O)(=O)[O-])ccc4F)c4ccc([nH]4)c(-c4cc(S(=O)(=O)[O-])ccc4F)c4nc(c(-c5cc(S(=O)(=O)[O-])ccc5F)c5ccc2[nH]5)C=C4)C=C3)cc1
REMARK SMILES IDX 19 1 18 2 16 3 17 4 4 5 2 6 1 7 3 8 5 10 6 11 7 13 8 14 9 15
REMARK SMILES IDX 10 16 11 17 15 18 12 19 14 20 13 21 20 22 21 23 22 24 23 25
REMARK SMILES IDX 24 26 25 27 86 28 26 29 85 30 27 31 28 32 29 33 79 34 30 35
REMARK SMILES IDX 84 36 78 37 80 38 31 39 83 40 77 41 76 42 32 44 64 45 44 46
REMARK SMILES IDX 63 47 45 48 48 49 62 50 81 51 46 52 47 53 61 55 82 56 49 57
REMARK SMILES IDX 33 58 34 59 42 60 35 61 41 62 43 63 40 64 36 65 37 66 38 67
REMARK SMILES IDX 39 68 65 69 66 70 74 71 67 72 73 73 75 74 72 75 68 76 69 77
REMARK SMILES IDX 70 78 71 79 50 80 51 81 59 82 52 83 58 84 60 85 57 86 53 87
REMARK SMILES IDX 54 88 55 89 56 90
REMARK H PARENT 3 9 5 12 80 43 48 54
REMARK Flexibility Score: inf
ROOT
ATOM      1  C   UNL A   1      31.674  29.672  25.047  1.00  0.00     0.274 C 
ENDROOT
BRANCH   1   2
ATOM      2  O   UNL A   1      30.512  29.581  24.193  1.00  0.00    -0.460 OA
BRANCH   2   3
ATOM      3  C   UNL A   1      30.722  28.973  22.995  1.00  0.00     0.331 C 
ATOM      4  O   UNL A   1      30.364  29.442  21.918  1.00  0.00    -0.250 OA
BRANCH   3   5
ATOM      5  C   UNL A   1      31.309  27.561  23.106  1.00  0.00     0.221 C 
BRANCH   5   6
ATOM      6  C   UNL A   1      30.225  26.511  23.493  1.00  0.00     0.145 C 
ATOM      7  C   UNL A   1      30.407  25.990  24.923  1.00  0.00     0.041 C 
BRANCH   6   8
ATOM      8  O   UNL A   1      28.918  27.077  23.503  1.00  0.00    -0.391 OA
ATOM      9  H   UNL A   1      28.694  27.389  22.613  1.00  0.00     0.211 HD
ENDBRANCH   6   8
ENDBRANCH   5   6
BRANCH   5  10
ATOM     10  N   UNL A   1      32.108  27.082  21.954  1.00  0.00    -0.340 N 
ATOM     11  C   UNL A   1      32.810  25.952  21.694  1.00  0.00     0.231 C 
ATOM     12  H   UNL A   1      32.135  27.729  21.213  1.00  0.00     0.164 HD
ATOM     13  O   UNL A   1      32.923  25.642  20.501  1.00  0.00    -0.274 OA
BRANCH  11  14
ATOM     14  C   UNL A   1      33.520  25.155  22.750  1.00  0.00     0.174 C 
BRANCH  14  15
ATOM     15  S   UNL A   1      33.131  23.367  22.873  1.00  0.00    -0.116 SA
BRANCH  15  16
ATOM     16  C   UNL A   1      33.591  22.743  24.481  1.00  0.00     0.011 A 
ATOM     17  C   UNL A   1      34.770  21.993  24.548  1.00  0.00     0.035 A 
ATOM     18  C   UNL A   1      32.971  23.075  25.681  1.00  0.00     0.035 A 
ATOM     19  C   UNL A   1      35.241  21.576  25.784  1.00  0.00     0.112 A 
ATOM     20  C   UNL A   1      33.496  22.585  26.869  1.00  0.00     0.112 A 
ATOM     21  N   UNL A   1      34.618  21.841  26.947  1.00  0.00    -0.265 NA
ENDBRANCH  15  16
ENDBRANCH  14  15
ENDBRANCH  11  14
ENDBRANCH   5  10
ENDBRANCH   3   5
ENDBRANCH   2   3
ENDBRANCH   1   2
BRANCH   1  22
ATOM     22  C   UNL A   1      31.637  30.870  26.002  1.00  0.00     0.275 C 
BRANCH  22  23
ATOM     23  O   UNL A   1      32.530  30.711  27.117  1.00  0.00    -0.458 OA
BRANCH  23  24
ATOM     24  C   UNL A   1      33.277  31.804  27.395  1.00  0.00     0.338 C 
ATOM     25  O   UNL A   1      32.878  32.965  27.395  1.00  0.00    -0.246 OA
BRANCH  24  26
ATOM     26  C   UNL A   1      34.606  31.403  27.886  1.00  0.00     0.060 A 
ATOM     27  C   UNL A   1      34.797  30.057  28.206  1.00  0.00     0.016 A 
ATOM     28  C   UNL A   1      35.628  32.330  28.102  1.00  0.00     0.016 A 
ATOM     29  C   UNL A   1      35.987  29.630  28.779  1.00  0.00     0.010 A 
ATOM     30  C   UNL A   1      36.831  31.899  28.674  1.00  0.00     0.010 A 
ATOM     31  C   UNL A   1      37.004  30.551  29.037  1.00  0.00    -0.014 A 
BRANCH  31  32
ATOM     32  C   UNL A   1      38.191  30.094  29.797  1.00  0.00     0.031 A 
ATOM     33  C   UNL A   1      38.392  30.587  31.202  1.00  0.00     0.074 A 
ATOM     34  C   UNL A   1      39.021  29.181  29.263  1.00  0.00     0.049 A 
ATOM     35  N   UNL A   1      39.356  30.324  32.044  1.00  0.00    -0.248 NA
ATOM     36  C   UNL A   1      37.363  31.498  31.725  1.00  0.00     0.031 C 
ATOM     37  C   UNL A   1      38.876  28.587  27.933  1.00  0.00     0.029 A 
ATOM     38  N   UNL A   1      40.144  28.585  29.776  1.00  0.00    -0.354 N 
ATOM     39  C   UNL A   1      39.059  31.046  33.196  1.00  0.00     0.074 A 
ATOM     40  C   UNL A   1      37.840  31.781  32.927  1.00  0.00     0.031 C 
ATOM     41  C   UNL A   1      39.871  27.706  27.738  1.00  0.00     0.029 A 
ATOM     42  C   UNL A   1      40.745  27.705  28.908  1.00  0.00     0.049 A 
ATOM     43  H   UNL A   1      40.486  28.769  30.681  1.00  0.00     0.167 HD
ATOM     44  C   UNL A   1      39.739  31.086  34.369  1.00  0.00     0.034 A 
ATOM     45  C   UNL A   1      41.883  26.996  29.039  1.00  0.00     0.034 A 
ATOM     46  C   UNL A   1      40.960  30.352  34.608  1.00  0.00     0.049 A 
ATOM     47  C   UNL A   1      42.657  27.105  30.328  1.00  0.00     0.074 A 
ATOM     48  C   UNL A   1      41.753  30.338  35.742  1.00  0.00     0.029 A 
ATOM     49  N   UNL A   1      41.566  29.501  33.691  1.00  0.00    -0.354 N 
ATOM     50  N   UNL A   1      42.387  27.819  31.398  1.00  0.00    -0.248 NA
ATOM     51  C   UNL A   1      43.883  26.304  30.430  1.00  0.00     0.031 C 
ATOM     52  C   UNL A   1      42.867  29.525  35.489  1.00  0.00     0.029 A 
ATOM     53  C   UNL A   1      42.733  28.973  34.225  1.00  0.00     0.049 A 
ATOM     54  H   UNL A   1      41.218  29.301  32.791  1.00  0.00     0.167 HD
ATOM     55  C   UNL A   1      43.400  27.534  32.310  1.00  0.00     0.074 A 
ATOM     56  C   UNL A   1      44.270  26.566  31.670  1.00  0.00     0.031 C 
ATOM     57  C   UNL A   1      43.596  28.023  33.562  1.00  0.00     0.034 A 
BRANCH  44  58
ATOM     58  C   UNL A   1      39.205  32.007  35.440  1.00  0.00     0.023 A 
ATOM     59  C   UNL A   1      39.609  33.351  35.532  1.00  0.00     0.031 A 
ATOM     60  C   UNL A   1      38.329  31.516  36.423  1.00  0.00     0.131 A 
ATOM     61  C   UNL A   1      39.198  34.133  36.624  1.00  0.00     0.055 A 
ATOM     62  C   UNL A   1      37.861  32.322  37.463  1.00  0.00     0.041 A 
ATOM     63  F   UNL A   1      37.929  30.235  36.403  1.00  0.00    -0.206 F 
ATOM     64  C   UNL A   1      38.309  33.634  37.578  1.00  0.00     0.022 A 
BRANCH  61  65
ATOM     65  S   UNL A   1      39.963  35.762  36.865  1.00  0.00     0.124 S 
ATOM     66  O   UNL A   1      41.365  35.401  37.067  1.00  0.00    -0.237 OA
ATOM     67  O   UNL A   1      39.652  36.445  35.616  1.00  0.00    -0.237 OA
ATOM     68  O   UNL A   1      39.286  36.286  38.050  1.00  0.00    -0.744 OA
ENDBRANCH  61  65
ENDBRANCH  44  58
BRANCH  45  69
ATOM     69  C   UNL A   1      42.382  26.154  27.915  1.00  0.00     0.023 A 
ATOM     70  C   UNL A   1      41.997  24.811  27.781  1.00  0.00     0.031 A 
ATOM     71  C   UNL A   1      43.295  26.675  26.979  1.00  0.00     0.131 A 
ATOM     72  C   UNL A   1      42.553  24.023  26.761  1.00  0.00     0.055 A 
ATOM     73  C   UNL A   1      43.808  25.901  25.938  1.00  0.00     0.041 A 
ATOM     74  F   UNL A   1      43.695  27.954  27.062  1.00  0.00    -0.206 F 
ATOM     75  C   UNL A   1      43.446  24.561  25.833  1.00  0.00     0.022 A 
BRANCH  72  76
ATOM     76  S   UNL A   1      42.149  22.254  26.710  1.00  0.00     0.124 S 
ATOM     77  O   UNL A   1      42.814  21.832  25.482  1.00  0.00    -0.237 OA
ATOM     78  O   UNL A   1      42.737  21.774  27.956  1.00  0.00    -0.237 OA
ATOM     79  O   UNL A   1      40.688  22.241  26.666  1.00  0.00    -0.744 OA
ENDBRANCH  72  76
ENDBRANCH  45  69
BRANCH  57  80
ATOM     80  C   UNL A   1      44.781  27.479  34.321  1.00  0.00     0.023 A 
ATOM     81  C   UNL A   1      44.691  26.301  35.086  1.00  0.00     0.031 A 
ATOM     82  C   UNL A   1      46.003  28.174  34.318  1.00  0.00     0.131 A 
ATOM     83  C   UNL A   1      45.780  25.894  35.871  1.00  0.00     0.055 A 
ATOM     84  C   UNL A   1      47.104  27.728  35.052  1.00  0.00     0.041 A 
ATOM     85  F   UNL A   1      46.145  29.304  33.606  1.00  0.00    -0.206 F 
ATOM     86  C   UNL A   1      46.989  26.592  35.848  1.00  0.00     0.022 A 
BRANCH  83  87
ATOM     87  S   UNL A   1      45.553  24.506  37.016  1.00  0.00     0.124 S 
ATOM     88  O   UNL A   1      44.582  23.680  36.306  1.00  0.00    -0.237 OA
ATOM     89  O   UNL A   1      46.902  23.961  37.116  1.00  0.00    -0.237 OA
ATOM     90  O   UNL A   1      45.051  25.143  38.232  1.00  0.00    -0.744 OA
ENDBRANCH  83  87
ENDBRANCH  57  80
ENDBRANCH  31  32
ENDBRANCH  24  26
ENDBRANCH  23  24
ENDBRANCH  22  23
ENDBRANCH   1  22
TORSDOF 20
ENDMDL
