MODEL 1
REMARK VINA RESULT:     -13.2      0.000      0.000
REMARK SMILES O=C(OCCOC(=O)[C@H]1CC2=c3ccccc3=N[C@H]2[C@@H](c2ccccc2)[NH2+]1)c1ccc(-c2c3nc(c(-c4cc(S(=O)(=O)[O-])ccc4F)c4ccc([nH]4)c(-c4cc(S(=O)(=O)[O-])ccc4F)c4nc(c(-c5cc(S(=O)(=O)[O-])ccc5F)c5ccc2[nH]5)C=C4)C=C3)cc1
REMARK SMILES IDX 4 1 3 2 2 3 1 4 28 5 29 6 90 7 30 8 89 9 31 10 32 11 33 12
REMARK SMILES IDX 83 13 34 14 88 15 82 16 84 17 35 18 87 19 81 20 80 21 36 23
REMARK SMILES IDX 68 24 48 25 67 26 49 27 52 28 66 29 85 30 50 31 51 32 65 34
REMARK SMILES IDX 86 35 53 36 37 37 38 38 46 39 39 40 45 41 47 42 44 43 40 44
REMARK SMILES IDX 41 45 42 46 43 47 69 48 70 49 78 50 71 51 77 52 79 53 76 54
REMARK SMILES IDX 72 55 73 56 74 57 75 58 54 59 55 60 63 61 56 62 62 63 64 64
REMARK SMILES IDX 61 65 57 66 58 67 59 68 60 69 5 70 6 71 7 72 8 73 9 74 10 75
REMARK SMILES IDX 27 76 11 77 20 78 12 81 19 82 13 83 17 84 18 85 14 86 16 87
REMARK SMILES IDX 15 88 21 89 22 90 26 91 23 92 25 93 24 94
REMARK H PARENT 84 22 52 33 27 79 27 80
REMARK Flexibility Score: inf
ROOT
ATOM      1  C   UNL A   1      40.106  21.539  26.288  1.00  0.00     0.275 C 
ENDROOT
BRANCH   1   2
ATOM      2  O   UNL A   1      41.196  21.888  25.425  1.00  0.00    -0.458 OA
BRANCH   2   3
ATOM      3  C   UNL A   1      42.270  22.643  25.756  1.00  0.00     0.338 C 
ATOM      4  O   UNL A   1      43.402  22.209  25.561  1.00  0.00    -0.246 OA
BRANCH   3   5
ATOM      5  C   UNL A   1      42.109  23.944  26.467  1.00  0.00     0.060 A 
ATOM      6  C   UNL A   1      41.459  23.876  27.691  1.00  0.00     0.016 A 
ATOM      7  C   UNL A   1      42.571  25.199  26.035  1.00  0.00     0.016 A 
ATOM      8  C   UNL A   1      41.206  25.046  28.401  1.00  0.00     0.010 A 
ATOM      9  C   UNL A   1      42.298  26.384  26.771  1.00  0.00     0.010 A 
ATOM     10  C   UNL A   1      41.589  26.332  27.974  1.00  0.00    -0.014 A 
BRANCH  10  11
ATOM     11  C   UNL A   1      41.343  27.478  28.925  1.00  0.00     0.031 A 
ATOM     12  C   UNL A   1      40.214  28.482  28.806  1.00  0.00     0.074 A 
ATOM     13  C   UNL A   1      42.074  27.523  30.061  1.00  0.00     0.049 A 
ATOM     14  N   UNL A   1      39.655  29.203  29.756  1.00  0.00    -0.248 NA
ATOM     15  C   UNL A   1      39.658  28.746  27.474  1.00  0.00     0.031 C 
ATOM     16  C   UNL A   1      43.234  26.680  30.341  1.00  0.00     0.029 A 
ATOM     17  N   UNL A   1      41.911  28.261  31.213  1.00  0.00    -0.354 N 
ATOM     18  C   UNL A   1      38.575  29.862  29.170  1.00  0.00     0.074 A 
ATOM     19  C   UNL A   1      38.701  29.635  27.746  1.00  0.00     0.031 C 
ATOM     20  C   UNL A   1      43.630  26.890  31.604  1.00  0.00     0.029 A 
ATOM     21  C   UNL A   1      42.803  27.938  32.209  1.00  0.00     0.049 A 
ATOM     22  H   UNL A   1      41.220  28.955  31.314  1.00  0.00     0.167 HD
ATOM     23  C   UNL A   1      37.532  30.476  29.791  1.00  0.00     0.034 A 
ATOM     24  C   UNL A   1      42.961  28.422  33.462  1.00  0.00     0.034 A 
ATOM     25  C   UNL A   1      37.539  30.901  31.164  1.00  0.00     0.049 A 
ATOM     26  C   UNL A   1      42.007  29.459  33.996  1.00  0.00     0.074 A 
ATOM     27  C   UNL A   1      36.576  31.665  31.806  1.00  0.00     0.029 A 
ATOM     28  N   UNL A   1      38.550  30.679  32.072  1.00  0.00    -0.354 N 
ATOM     29  N   UNL A   1      40.850  29.841  33.516  1.00  0.00    -0.248 NA
ATOM     30  C   UNL A   1      42.387  30.147  35.240  1.00  0.00     0.031 C 
ATOM     31  C   UNL A   1      37.051  31.986  33.071  1.00  0.00     0.029 A 
ATOM     32  C   UNL A   1      38.286  31.383  33.234  1.00  0.00     0.049 A 
ATOM     33  H   UNL A   1      39.337  30.108  31.918  1.00  0.00     0.167 HD
ATOM     34  C   UNL A   1      40.356  30.787  34.412  1.00  0.00     0.074 A 
ATOM     35  C   UNL A   1      41.325  30.907  35.475  1.00  0.00     0.031 C 
ATOM     36  C   UNL A   1      39.202  31.495  34.338  1.00  0.00     0.034 A 
BRANCH  23  37
ATOM     37  C   UNL A   1      36.200  30.708  29.111  1.00  0.00     0.023 A 
ATOM     38  C   UNL A   1      35.420  29.669  28.585  1.00  0.00     0.031 A 
ATOM     39  C   UNL A   1      35.911  32.032  28.690  1.00  0.00     0.131 A 
ATOM     40  C   UNL A   1      34.378  29.974  27.688  1.00  0.00     0.055 A 
ATOM     41  C   UNL A   1      34.858  32.330  27.825  1.00  0.00     0.041 A 
ATOM     42  F   UNL A   1      36.688  33.054  29.089  1.00  0.00    -0.206 F 
ATOM     43  C   UNL A   1      34.087  31.296  27.316  1.00  0.00     0.022 A 
BRANCH  40  44
ATOM     44  S   UNL A   1      33.441  28.662  26.852  1.00  0.00     0.124 S 
ATOM     45  O   UNL A   1      32.961  29.354  25.661  1.00  0.00    -0.237 OA
ATOM     46  O   UNL A   1      34.454  27.642  26.620  1.00  0.00    -0.237 OA
ATOM     47  O   UNL A   1      32.406  28.307  27.826  1.00  0.00    -0.744 OA
ENDBRANCH  40  44
ENDBRANCH  23  37
BRANCH  24  48
ATOM     48  C   UNL A   1      44.106  27.939  34.289  1.00  0.00     0.023 A 
ATOM     49  C   UNL A   1      43.893  26.956  35.273  1.00  0.00     0.031 A 
ATOM     50  C   UNL A   1      45.397  28.474  34.164  1.00  0.00     0.131 A 
ATOM     51  C   UNL A   1      44.914  26.627  36.168  1.00  0.00     0.055 A 
ATOM     52  C   UNL A   1      46.445  28.062  34.991  1.00  0.00     0.041 A 
ATOM     53  F   UNL A   1      45.658  29.410  33.238  1.00  0.00    -0.206 F 
ATOM     54  C   UNL A   1      46.198  27.155  36.018  1.00  0.00     0.022 A 
BRANCH  51  55
ATOM     55  S   UNL A   1      44.541  25.657  37.653  1.00  0.00     0.124 S 
ATOM     56  O   UNL A   1      44.248  24.343  37.092  1.00  0.00    -0.237 OA
ATOM     57  O   UNL A   1      45.791  25.765  38.402  1.00  0.00    -0.237 OA
ATOM     58  O   UNL A   1      43.407  26.360  38.246  1.00  0.00    -0.744 OA
ENDBRANCH  51  55
ENDBRANCH  24  48
BRANCH  36  59
ATOM     59  C   UNL A   1      38.854  32.502  35.407  1.00  0.00     0.023 A 
ATOM     60  C   UNL A   1      39.413  33.796  35.363  1.00  0.00     0.031 A 
ATOM     61  C   UNL A   1      38.172  32.115  36.573  1.00  0.00     0.131 A 
ATOM     62  C   UNL A   1      39.346  34.624  36.490  1.00  0.00     0.055 A 
ATOM     63  C   UNL A   1      38.049  32.971  37.668  1.00  0.00     0.041 A 
ATOM     64  F   UNL A   1      37.642  30.886  36.677  1.00  0.00    -0.206 F 
ATOM     65  C   UNL A   1      38.659  34.222  37.640  1.00  0.00     0.022 A 
BRANCH  62  66
ATOM     66  S   UNL A   1      40.284  36.178  36.562  1.00  0.00     0.124 S 
ATOM     67  O   UNL A   1      39.707  36.822  37.740  1.00  0.00    -0.237 OA
ATOM     68  O   UNL A   1      41.658  35.705  36.721  1.00  0.00    -0.237 OA
ATOM     69  O   UNL A   1      39.990  36.826  35.290  1.00  0.00    -0.744 OA
ENDBRANCH  62  66
ENDBRANCH  36  59
ENDBRANCH  10  11
ENDBRANCH   3   5
ENDBRANCH   2   3
ENDBRANCH   1   2
BRANCH   1  70
ATOM     70  C   UNL A   1      38.832  22.366  26.116  1.00  0.00     0.274 C 
BRANCH  70  71
ATOM     71  O   UNL A   1      37.653  21.638  25.749  1.00  0.00    -0.458 OA
BRANCH  71  72
ATOM     72  C   UNL A   1      36.581  22.369  25.307  1.00  0.00     0.365 C 
ATOM     73  O   UNL A   1      36.678  23.459  24.754  1.00  0.00    -0.245 OA
BRANCH  72  74
ATOM     74  C   UNL A   1      35.231  21.780  25.771  1.00  0.00     0.298 C 
ATOM     75  C   UNL A   1      34.196  22.752  26.445  1.00  0.00     0.111 C 
ATOM     76  N   UNL A   1      34.635  20.908  24.744  1.00  0.00    -0.326 N 
ATOM     77  C   UNL A   1      32.706  22.486  26.145  1.00  0.00    -0.024 C 
ATOM     78  C   UNL A   1      33.458  20.291  25.375  1.00  0.00     0.243 C 
ATOM     79  H   UNL A   1      35.302  20.191  24.457  1.00  0.00     0.347 HD
ATOM     80  H   UNL A   1      34.379  21.433  23.907  1.00  0.00     0.347 HD
ATOM     81  C   UNL A   1      31.827  23.462  25.936  1.00  0.00     0.002 A 
ATOM     82  C   UNL A   1      32.257  21.263  25.345  1.00  0.00     0.196 C 
ATOM     83  C   UNL A   1      31.700  24.780  26.466  1.00  0.00     0.010 A 
ATOM     84  C   UNL A   1      31.454  23.123  24.537  1.00  0.00     0.066 A 
ATOM     85  N   UNL A   1      31.788  21.930  24.095  1.00  0.00    -0.270 NA
ATOM     86  C   UNL A   1      31.246  25.767  25.683  1.00  0.00     0.001 A 
ATOM     87  C   UNL A   1      30.967  24.293  23.738  1.00  0.00     0.028 A 
ATOM     88  C   UNL A   1      30.955  25.525  24.284  1.00  0.00     0.002 A 
BRANCH  78  89
ATOM     89  C   UNL A   1      33.546  18.793  25.220  1.00  0.00     0.012 A 
ATOM     90  C   UNL A   1      34.445  18.251  24.273  1.00  0.00     0.010 A 
ATOM     91  C   UNL A   1      32.617  17.936  25.772  1.00  0.00     0.010 A 
ATOM     92  C   UNL A   1      34.405  16.910  23.895  1.00  0.00     0.001 A 
ATOM     93  C   UNL A   1      32.531  16.603  25.348  1.00  0.00     0.001 A 
ATOM     94  C   UNL A   1      33.434  16.081  24.428  1.00  0.00     0.000 A 
ENDBRANCH  78  89
ENDBRANCH  72  74
ENDBRANCH  71  72
ENDBRANCH  70  71
ENDBRANCH   1  70
TORSDOF 15
ENDMDL
MODEL 2
REMARK VINA RESULT:     -13.0      5.032      8.571
REMARK SMILES O=C(OCCOC(=O)[C@H]1CC2=c3ccccc3=N[C@H]2[C@@H](c2ccccc2)[NH2+]1)c1ccc(-c2c3nc(c(-c4cc(S(=O)(=O)[O-])ccc4F)c4ccc([nH]4)c(-c4cc(S(=O)(=O)[O-])ccc4F)c4nc(c(-c5cc(S(=O)(=O)[O-])ccc5F)c5ccc2[nH]5)C=C4)C=C3)cc1
REMARK SMILES IDX 4 1 3 2 2 3 1 4 28 5 29 6 90 7 30 8 89 9 31 10 32 11 33 12
REMARK SMILES IDX 83 13 34 14 88 15 82 16 84 17 35 18 87 19 81 20 80 21 36 23
REMARK SMILES IDX 68 24 48 25 67 26 49 27 52 28 66 29 85 30 50 31 51 32 65 34
REMARK SMILES IDX 86 35 53 36 37 37 38 38 46 39 39 40 45 41 47 42 44 43 40 44
REMARK SMILES IDX 41 45 42 46 43 47 69 48 70 49 78 50 71 51 77 52 79 53 76 54
REMARK SMILES IDX 72 55 73 56 74 57 75 58 54 59 55 60 63 61 56 62 62 63 64 64
REMARK SMILES IDX 61 65 57 66 58 67 59 68 60 69 5 70 6 71 7 72 8 73 9 74 10 75
REMARK SMILES IDX 27 76 11 77 20 78 12 81 19 82 13 83 17 84 18 85 14 86 16 87
REMARK SMILES IDX 15 88 21 89 22 90 26 91 23 92 25 93 24 94
REMARK H PARENT 84 22 52 33 27 79 27 80
REMARK Flexibility Score: inf
ROOT
ATOM      1  C   UNL A   1      38.990  19.780  25.371  1.00  0.00     0.275 C 
ENDROOT
BRANCH   1   2
ATOM      2  O   UNL A   1      40.101  19.278  26.125  1.00  0.00    -0.458 OA
BRANCH   2   3
ATOM      3  C   UNL A   1      41.397  19.643  25.985  1.00  0.00     0.338 C 
ATOM      4  O   UNL A   1      42.241  18.796  25.704  1.00  0.00    -0.246 OA
BRANCH   3   5
ATOM      5  C   UNL A   1      41.843  21.034  26.286  1.00  0.00     0.060 A 
ATOM      6  C   UNL A   1      41.822  21.387  27.627  1.00  0.00     0.016 A 
ATOM      7  C   UNL A   1      42.301  21.987  25.360  1.00  0.00     0.016 A 
ATOM      8  C   UNL A   1      42.162  22.685  28.001  1.00  0.00     0.010 A 
ATOM      9  C   UNL A   1      42.638  23.308  25.760  1.00  0.00     0.010 A 
ATOM     10  C   UNL A   1      42.559  23.692  27.101  1.00  0.00    -0.014 A 
BRANCH  10  11
ATOM     11  C   UNL A   1      43.009  25.007  27.690  1.00  0.00     0.031 A 
ATOM     12  C   UNL A   1      44.405  25.585  27.568  1.00  0.00     0.074 A 
ATOM     13  C   UNL A   1      42.066  25.815  28.223  1.00  0.00     0.049 A 
ATOM     14  N   UNL A   1      44.779  26.845  27.638  1.00  0.00    -0.248 NA
ATOM     15  C   UNL A   1      45.526  24.656  27.379  1.00  0.00     0.031 C 
ATOM     16  C   UNL A   1      40.680  25.427  28.475  1.00  0.00     0.029 A 
ATOM     17  N   UNL A   1      42.113  27.143  28.586  1.00  0.00    -0.354 N 
ATOM     18  C   UNL A   1      46.138  26.874  27.324  1.00  0.00     0.074 A 
ATOM     19  C   UNL A   1      46.563  25.491  27.294  1.00  0.00     0.031 C 
ATOM     20  C   UNL A   1      39.992  26.506  28.875  1.00  0.00     0.029 A 
ATOM     21  C   UNL A   1      40.899  27.652  28.985  1.00  0.00     0.049 A 
ATOM     22  H   UNL A   1      42.939  27.679  28.562  1.00  0.00     0.167 HD
ATOM     23  C   UNL A   1      46.895  27.949  26.977  1.00  0.00     0.034 A 
ATOM     24  C   UNL A   1      40.538  28.886  29.403  1.00  0.00     0.034 A 
ATOM     25  C   UNL A   1      46.536  29.316  27.243  1.00  0.00     0.049 A 
ATOM     26  C   UNL A   1      41.548  30.005  29.415  1.00  0.00     0.074 A 
ATOM     27  C   UNL A   1      47.329  30.438  27.057  1.00  0.00     0.029 A 
ATOM     28  N   UNL A   1      45.352  29.745  27.799  1.00  0.00    -0.354 N 
ATOM     29  N   UNL A   1      42.730  30.054  28.852  1.00  0.00    -0.248 NA
ATOM     30  C   UNL A   1      41.184  31.235  30.134  1.00  0.00     0.031 C 
ATOM     31  C   UNL A   1      46.662  31.533  27.592  1.00  0.00     0.029 A 
ATOM     32  C   UNL A   1      45.435  31.101  28.066  1.00  0.00     0.049 A 
ATOM     33  H   UNL A   1      44.569  29.177  27.979  1.00  0.00     0.167 HD
ATOM     34  C   UNL A   1      43.232  31.325  29.125  1.00  0.00     0.074 A 
ATOM     35  C   UNL A   1      42.221  32.023  29.884  1.00  0.00     0.031 C 
ATOM     36  C   UNL A   1      44.434  31.849  28.780  1.00  0.00     0.034 A 
BRANCH  23  37
ATOM     37  C   UNL A   1      48.180  27.823  26.190  1.00  0.00     0.023 A 
ATOM     38  C   UNL A   1      48.220  27.820  24.788  1.00  0.00     0.031 A 
ATOM     39  C   UNL A   1      49.321  27.344  26.886  1.00  0.00     0.131 A 
ATOM     40  C   UNL A   1      49.382  27.370  24.132  1.00  0.00     0.055 A 
ATOM     41  C   UNL A   1      50.480  26.929  26.229  1.00  0.00     0.041 A 
ATOM     42  F   UNL A   1      49.300  27.236  28.226  1.00  0.00    -0.206 F 
ATOM     43  C   UNL A   1      50.512  26.938  24.843  1.00  0.00     0.022 A 
BRANCH  40  44
ATOM     44  S   UNL A   1      49.433  27.193  22.325  1.00  0.00     0.124 S 
ATOM     45  O   UNL A   1      48.843  28.453  21.888  1.00  0.00    -0.237 OA
ATOM     46  O   UNL A   1      50.857  27.041  22.057  1.00  0.00    -0.237 OA
ATOM     47  O   UNL A   1      48.618  26.002  22.075  1.00  0.00    -0.744 OA
ENDBRANCH  40  44
ENDBRANCH  23  37
BRANCH  24  48
ATOM     48  C   UNL A   1      39.141  29.114  29.879  1.00  0.00     0.023 A 
ATOM     49  C   UNL A   1      38.216  29.771  29.047  1.00  0.00     0.031 A 
ATOM     50  C   UNL A   1      38.720  28.746  31.166  1.00  0.00     0.131 A 
ATOM     51  C   UNL A   1      36.967  30.146  29.546  1.00  0.00     0.055 A 
ATOM     52  C   UNL A   1      37.431  29.026  31.624  1.00  0.00     0.041 A 
ATOM     53  F   UNL A   1      39.559  28.111  32.000  1.00  0.00    -0.206 F 
ATOM     54  C   UNL A   1      36.557  29.755  30.822  1.00  0.00     0.022 A 
BRANCH  51  55
ATOM     55  S   UNL A   1      35.930  31.308  28.617  1.00  0.00     0.124 S 
ATOM     56  O   UNL A   1      35.382  30.455  27.569  1.00  0.00    -0.237 OA
ATOM     57  O   UNL A   1      34.984  31.746  29.641  1.00  0.00    -0.237 OA
ATOM     58  O   UNL A   1      36.874  32.330  28.175  1.00  0.00    -0.744 OA
ENDBRANCH  51  55
ENDBRANCH  24  48
BRANCH  36  59
ATOM     59  C   UNL A   1      44.805  33.251  29.196  1.00  0.00     0.023 A 
ATOM     60  C   UNL A   1      44.424  34.347  28.396  1.00  0.00     0.031 A 
ATOM     61  C   UNL A   1      45.720  33.479  30.238  1.00  0.00     0.131 A 
ATOM     62  C   UNL A   1      45.013  35.601  28.600  1.00  0.00     0.055 A 
ATOM     63  C   UNL A   1      46.253  34.746  30.481  1.00  0.00     0.041 A 
ATOM     64  F   UNL A   1      46.135  32.466  31.015  1.00  0.00    -0.206 F 
ATOM     65  C   UNL A   1      45.919  35.808  29.645  1.00  0.00     0.022 A 
BRANCH  62  66
ATOM     66  S   UNL A   1      44.752  36.958  27.422  1.00  0.00     0.124 S 
ATOM     67  O   UNL A   1      44.539  38.094  28.317  1.00  0.00    -0.237 OA
ATOM     68  O   UNL A   1      46.011  36.975  26.682  1.00  0.00    -0.237 OA
ATOM     69  O   UNL A   1      43.583  36.539  26.656  1.00  0.00    -0.744 OA
ENDBRANCH  62  66
ENDBRANCH  36  59
ENDBRANCH  10  11
ENDBRANCH   3   5
ENDBRANCH   2   3
ENDBRANCH   1   2
BRANCH   1  70
ATOM     70  C   UNL A   1      38.592  21.226  25.660  1.00  0.00     0.274 C 
BRANCH  70  71
ATOM     71  O   UNL A   1      37.466  21.729  24.929  1.00  0.00    -0.458 OA
BRANCH  71  72
ATOM     72  C   UNL A   1      37.039  22.996  25.232  1.00  0.00     0.365 C 
ATOM     73  O   UNL A   1      37.786  23.904  25.580  1.00  0.00    -0.245 OA
BRANCH  72  74
ATOM     74  C   UNL A   1      35.500  23.101  25.301  1.00  0.00     0.298 C 
ATOM     75  C   UNL A   1      34.872  24.506  25.621  1.00  0.00     0.111 C 
ATOM     76  N   UNL A   1      34.855  22.414  24.169  1.00  0.00    -0.326 N 
ATOM     77  C   UNL A   1      33.545  24.844  24.909  1.00  0.00    -0.024 C 
ATOM     78  C   UNL A   1      33.411  22.447  24.448  1.00  0.00     0.243 C 
ATOM     79  H   UNL A   1      35.183  21.450  24.106  1.00  0.00     0.347 HD
ATOM     80  H   UNL A   1      35.076  22.865  23.280  1.00  0.00     0.347 HD
ATOM     81  C   UNL A   1      33.272  26.055  24.430  1.00  0.00     0.002 A 
ATOM     82  C   UNL A   1      32.815  23.815  24.046  1.00  0.00     0.196 C 
ATOM     83  C   UNL A   1      33.616  27.368  24.865  1.00  0.00     0.010 A 
ATOM     84  C   UNL A   1      33.149  25.696  22.992  1.00  0.00     0.066 A 
ATOM     85  N   UNL A   1      33.017  24.420  22.696  1.00  0.00    -0.270 NA
ATOM     86  C   UNL A   1      33.856  28.324  23.959  1.00  0.00     0.001 A 
ATOM     87  C   UNL A   1      33.447  26.827  22.056  1.00  0.00     0.028 A 
ATOM     88  C   UNL A   1      33.846  28.018  22.542  1.00  0.00     0.002 A 
BRANCH  78  89
ATOM     89  C   UNL A   1      32.861  21.045  24.364  1.00  0.00     0.012 A 
ATOM     90  C   UNL A   1      33.065  20.160  25.447  1.00  0.00     0.010 A 
ATOM     91  C   UNL A   1      32.390  20.505  23.186  1.00  0.00     0.010 A 
ATOM     92  C   UNL A   1      32.813  18.792  25.345  1.00  0.00     0.001 A 
ATOM     93  C   UNL A   1      32.198  19.122  23.059  1.00  0.00     0.001 A 
ATOM     94  C   UNL A   1      32.387  18.268  24.138  1.00  0.00     0.000 A 
ENDBRANCH  78  89
ENDBRANCH  72  74
ENDBRANCH  71  72
ENDBRANCH  70  71
ENDBRANCH   1  70
TORSDOF 15
ENDMDL
MODEL 3
REMARK VINA RESULT:     -12.9      5.436      9.061
REMARK SMILES O=C(OCCOC(=O)[C@H]1CC2=c3ccccc3=N[C@H]2[C@@H](c2ccccc2)[NH2+]1)c1ccc(-c2c3nc(c(-c4cc(S(=O)(=O)[O-])ccc4F)c4ccc([nH]4)c(-c4cc(S(=O)(=O)[O-])ccc4F)c4nc(c(-c5cc(S(=O)(=O)[O-])ccc5F)c5ccc2[nH]5)C=C4)C=C3)cc1
REMARK SMILES IDX 4 1 3 2 2 3 1 4 28 5 29 6 90 7 30 8 89 9 31 10 32 11 33 12
REMARK SMILES IDX 83 13 34 14 88 15 82 16 84 17 35 18 87 19 81 20 80 21 36 23
REMARK SMILES IDX 68 24 48 25 67 26 49 27 52 28 66 29 85 30 50 31 51 32 65 34
REMARK SMILES IDX 86 35 53 36 37 37 38 38 46 39 39 40 45 41 47 42 44 43 40 44
REMARK SMILES IDX 41 45 42 46 43 47 69 48 70 49 78 50 71 51 77 52 79 53 76 54
REMARK SMILES IDX 72 55 73 56 74 57 75 58 54 59 55 60 63 61 56 62 62 63 64 64
REMARK SMILES IDX 61 65 57 66 58 67 59 68 60 69 5 70 6 71 7 72 8 73 9 74 10 75
REMARK SMILES IDX 27 76 11 77 20 78 12 81 19 82 13 83 17 84 18 85 14 86 16 87
REMARK SMILES IDX 15 88 21 89 22 90 26 91 23 92 25 93 24 94
REMARK H PARENT 84 22 52 33 27 79 27 80
REMARK Flexibility Score: inf
ROOT
ATOM      1  C   UNL A   1      38.459  20.189  25.756  1.00  0.00     0.275 C 
ENDROOT
BRANCH   1   2
ATOM      2  O   UNL A   1      39.671  19.682  25.182  1.00  0.00    -0.458 OA
BRANCH   2   3
ATOM      3  C   UNL A   1      40.881  19.623  25.786  1.00  0.00     0.338 C 
ATOM      4  O   UNL A   1      41.473  18.549  25.857  1.00  0.00    -0.246 OA
BRANCH   3   5
ATOM      5  C   UNL A   1      41.457  20.811  26.479  1.00  0.00     0.060 A 
ATOM      6  C   UNL A   1      41.919  21.819  25.645  1.00  0.00     0.016 A 
ATOM      7  C   UNL A   1      41.544  21.012  27.867  1.00  0.00     0.016 A 
ATOM      8  C   UNL A   1      42.532  22.941  26.197  1.00  0.00     0.010 A 
ATOM      9  C   UNL A   1      42.178  22.162  28.412  1.00  0.00     0.010 A 
ATOM     10  C   UNL A   1      42.703  23.152  27.578  1.00  0.00    -0.014 A 
BRANCH  10  11
ATOM     11  C   UNL A   1      43.278  24.480  28.008  1.00  0.00     0.031 A 
ATOM     12  C   UNL A   1      44.741  24.868  27.915  1.00  0.00     0.074 A 
ATOM     13  C   UNL A   1      42.413  25.462  28.344  1.00  0.00     0.049 A 
ATOM     14  N   UNL A   1      45.265  26.073  27.835  1.00  0.00    -0.248 NA
ATOM     15  C   UNL A   1      45.745  23.798  27.950  1.00  0.00     0.031 C 
ATOM     16  C   UNL A   1      40.977  25.280  28.539  1.00  0.00     0.029 A 
ATOM     17  N   UNL A   1      42.605  26.816  28.517  1.00  0.00    -0.354 N 
ATOM     18  C   UNL A   1      46.633  25.896  27.628  1.00  0.00     0.074 A 
ATOM     19  C   UNL A   1      46.883  24.485  27.829  1.00  0.00     0.031 C 
ATOM     20  C   UNL A   1      40.407  26.478  28.726  1.00  0.00     0.029 A 
ATOM     21  C   UNL A   1      41.442  27.515  28.743  1.00  0.00     0.049 A 
ATOM     22  H   UNL A   1      43.491  27.243  28.483  1.00  0.00     0.167 HD
ATOM     23  C   UNL A   1      47.539  26.813  27.193  1.00  0.00     0.034 A 
ATOM     24  C   UNL A   1      41.215  28.832  28.951  1.00  0.00     0.034 A 
ATOM     25  C   UNL A   1      47.339  28.236  27.232  1.00  0.00     0.049 A 
ATOM     26  C   UNL A   1      42.355  29.815  28.883  1.00  0.00     0.074 A 
ATOM     27  C   UNL A   1      48.277  29.219  26.952  1.00  0.00     0.029 A 
ATOM     28  N   UNL A   1      46.187  28.878  27.627  1.00  0.00    -0.354 N 
ATOM     29  N   UNL A   1      43.565  29.643  28.414  1.00  0.00    -0.248 NA
ATOM     30  C   UNL A   1      42.104  31.174  29.389  1.00  0.00     0.031 C 
ATOM     31  C   UNL A   1      47.722  30.451  27.271  1.00  0.00     0.029 A 
ATOM     32  C   UNL A   1      46.424  30.240  27.703  1.00  0.00     0.049 A 
ATOM     33  H   UNL A   1      45.329  28.437  27.823  1.00  0.00     0.167 HD
ATOM     34  C   UNL A   1      44.205  30.874  28.542  1.00  0.00     0.074 A 
ATOM     35  C   UNL A   1      43.246  31.790  29.112  1.00  0.00     0.031 C 
ATOM     36  C   UNL A   1      45.482  31.197  28.222  1.00  0.00     0.034 A 
BRANCH  23  37
ATOM     37  C   UNL A   1      48.844  26.421  26.536  1.00  0.00     0.023 A 
ATOM     38  C   UNL A   1      50.068  26.406  27.220  1.00  0.00     0.031 A 
ATOM     39  C   UNL A   1      48.878  26.413  25.117  1.00  0.00     0.131 A 
ATOM     40  C   UNL A   1      51.269  26.359  26.484  1.00  0.00     0.055 A 
ATOM     41  C   UNL A   1      50.070  26.336  24.396  1.00  0.00     0.041 A 
ATOM     42  F   UNL A   1      47.738  26.522  24.413  1.00  0.00    -0.206 F 
ATOM     43  C   UNL A   1      51.275  26.313  25.082  1.00  0.00     0.022 A 
BRANCH  40  44
ATOM     44  S   UNL A   1      52.882  26.499  27.307  1.00  0.00     0.124 S 
ATOM     45  O   UNL A   1      53.550  25.284  26.856  1.00  0.00    -0.237 OA
ATOM     46  O   UNL A   1      53.412  27.744  26.767  1.00  0.00    -0.237 OA
ATOM     47  O   UNL A   1      52.539  26.530  28.731  1.00  0.00    -0.744 OA
ENDBRANCH  40  44
ENDBRANCH  23  37
BRANCH  24  48
ATOM     48  C   UNL A   1      39.831  29.289  29.278  1.00  0.00     0.023 A 
ATOM     49  C   UNL A   1      39.458  29.486  30.620  1.00  0.00     0.031 A 
ATOM     50  C   UNL A   1      38.853  29.477  28.290  1.00  0.00     0.131 A 
ATOM     51  C   UNL A   1      38.124  29.739  30.947  1.00  0.00     0.055 A 
ATOM     52  C   UNL A   1      37.543  29.839  28.614  1.00  0.00     0.041 A 
ATOM     53  F   UNL A   1      39.155  29.309  26.993  1.00  0.00    -0.206 F 
ATOM     54  C   UNL A   1      37.166  29.942  29.951  1.00  0.00     0.022 A 
BRANCH  51  55
ATOM     55  S   UNL A   1      37.574  29.619  32.670  1.00  0.00     0.124 S 
ATOM     56  O   UNL A   1      36.298  30.325  32.631  1.00  0.00    -0.237 OA
ATOM     57  O   UNL A   1      37.495  28.172  32.858  1.00  0.00    -0.237 OA
ATOM     58  O   UNL A   1      38.640  30.279  33.417  1.00  0.00    -0.744 OA
ENDBRANCH  51  55
ENDBRANCH  24  48
BRANCH  36  59
ATOM     59  C   UNL A   1      46.001  32.594  28.463  1.00  0.00     0.023 A 
ATOM     60  C   UNL A   1      46.162  33.481  27.380  1.00  0.00     0.031 A 
ATOM     61  C   UNL A   1      46.548  32.959  29.705  1.00  0.00     0.131 A 
ATOM     62  C   UNL A   1      46.917  34.649  27.539  1.00  0.00     0.055 A 
ATOM     63  C   UNL A   1      47.241  34.159  29.875  1.00  0.00     0.041 A 
ATOM     64  F   UNL A   1      46.444  32.140  30.764  1.00  0.00    -0.206 F 
ATOM     65  C   UNL A   1      47.450  34.997  28.784  1.00  0.00     0.022 A 
BRANCH  62  66
ATOM     66  S   UNL A   1      47.371  35.670  26.107  1.00  0.00     0.124 S 
ATOM     67  O   UNL A   1      48.743  36.054  26.435  1.00  0.00    -0.237 OA
ATOM     68  O   UNL A   1      47.237  34.728  24.998  1.00  0.00    -0.237 OA
ATOM     69  O   UNL A   1      46.398  36.755  26.125  1.00  0.00    -0.744 OA
ENDBRANCH  62  66
ENDBRANCH  36  59
ENDBRANCH  10  11
ENDBRANCH   3   5
ENDBRANCH   2   3
ENDBRANCH   1   2
BRANCH   1  70
ATOM     70  C   UNL A   1      37.903  21.461  25.117  1.00  0.00     0.274 C 
BRANCH  70  71
ATOM     71  O   UNL A   1      37.115  22.302  25.969  1.00  0.00    -0.458 OA
BRANCH  71  72
ATOM     72  C   UNL A   1      36.099  23.010  25.381  1.00  0.00     0.365 C 
ATOM     73  O   UNL A   1      36.228  24.140  24.924  1.00  0.00    -0.245 OA
BRANCH  72  74
ATOM     74  C   UNL A   1      34.726  22.323  25.546  1.00  0.00     0.298 C 
ATOM     75  C   UNL A   1      33.570  23.144  26.225  1.00  0.00     0.111 C 
ATOM     76  N   UNL A   1      34.310  21.630  24.315  1.00  0.00    -0.326 N 
ATOM     77  C   UNL A   1      32.146  22.905  25.679  1.00  0.00    -0.024 C 
ATOM     78  C   UNL A   1      33.087  20.890  24.663  1.00  0.00     0.243 C 
ATOM     79  H   UNL A   1      35.039  20.986  24.007  1.00  0.00     0.347 HD
ATOM     80  H   UNL A   1      34.147  22.287  23.551  1.00  0.00     0.347 HD
ATOM     81  C   UNL A   1      31.261  23.885  25.518  1.00  0.00     0.002 A 
ATOM     82  C   UNL A   1      31.860  21.830  24.630  1.00  0.00     0.196 C 
ATOM     83  C   UNL A   1      31.008  25.089  26.239  1.00  0.00     0.010 A 
ATOM     84  C   UNL A   1      31.094  23.786  24.044  1.00  0.00     0.066 A 
ATOM     85  N   UNL A   1      31.534  22.693  23.457  1.00  0.00    -0.270 NA
ATOM     86  C   UNL A   1      30.621  26.187  25.578  1.00  0.00     0.001 A 
ATOM     87  C   UNL A   1      30.668  25.067  23.393  1.00  0.00     0.028 A 
ATOM     88  C   UNL A   1      30.530  26.185  24.132  1.00  0.00     0.002 A 
BRANCH  78  89
ATOM     89  C   UNL A   1      33.259  19.444  24.271  1.00  0.00     0.012 A 
ATOM     90  C   UNL A   1      34.401  18.741  24.719  1.00  0.00     0.010 A 
ATOM     91  C   UNL A   1      32.490  18.845  23.295  1.00  0.00     0.010 A 
ATOM     92  C   UNL A   1      34.756  17.496  24.201  1.00  0.00     0.001 A 
ATOM     93  C   UNL A   1      32.879  17.625  22.725  1.00  0.00     0.001 A 
ATOM     94  C   UNL A   1      33.996  16.939  23.188  1.00  0.00     0.000 A 
ENDBRANCH  78  89
ENDBRANCH  72  74
ENDBRANCH  71  72
ENDBRANCH  70  71
ENDBRANCH   1  70
TORSDOF 15
ENDMDL
