MODEL 1
REMARK VINA RESULT:     -10.3      0.000      0.000
REMARK SMILES CCN(CCC#N)C(=O)c1ccncc1/C=C/C(=O)OCCOC(=O)c1ccc(-c2c3nc(c(-c4cc(S(=O)(=O)[O-])ccc4F)c4ccc([nH]4)c(-c4cc(S(=O)(=O)[O-])ccc4F)c4nc(c(-c5cc(S(=O)(=O)[O-])ccc5F)c5ccc2[nH]5)C=C4)C=C3)cc1
REMARK SMILES IDX 20 1 18 2 19 3 17 4 16 5 15 6 10 7 11 8 12 9 14 10 13 11
REMARK SMILES IDX 8 12 9 13 3 14 2 15 1 16 4 17 5 18 6 19 7 20 21 21 22 22
REMARK SMILES IDX 23 23 24 24 25 25 26 26 27 27 88 28 28 29 87 30 29 31 30 32
REMARK SMILES IDX 31 33 81 34 32 35 86 36 80 37 82 38 33 39 85 40 79 41 78 42
REMARK SMILES IDX 34 44 66 45 46 46 65 47 47 48 50 49 64 50 83 51 48 52 49 53
REMARK SMILES IDX 63 55 84 56 51 57 35 58 36 59 44 60 37 61 43 62 45 63 42 64
REMARK SMILES IDX 38 65 39 66 40 67 41 68 67 69 68 70 76 71 69 72 75 73 77 74
REMARK SMILES IDX 74 75 70 76 71 77 72 78 73 79 52 80 53 81 61 82 54 83 60 84
REMARK SMILES IDX 62 85 59 86 55 87 56 88 57 89 58 90
REMARK H PARENT 82 43 50 54
REMARK Flexibility Score: inf
ROOT
ATOM      1  O   UNL A   1      33.494  27.661  24.979  1.00  0.00    -0.459 OA
ENDROOT
BRANCH   1   2
ATOM      2  C   UNL A   1      33.097  26.476  24.463  1.00  0.00     0.330 C 
ATOM      3  O   UNL A   1      32.062  26.267  23.846  1.00  0.00    -0.247 OA
BRANCH   2   4
ATOM      4  C   UNL A   1      34.098  25.411  24.649  1.00  0.00     0.094 C 
ATOM      5  C   UNL A   1      34.245  24.625  25.730  1.00  0.00     0.018 C 
BRANCH   5   6
ATOM      6  C   UNL A   1      35.313  23.614  25.745  1.00  0.00     0.006 A 
ATOM      7  C   UNL A   1      35.078  22.241  25.854  1.00  0.00     0.050 A 
ATOM      8  C   UNL A   1      36.076  21.332  25.514  1.00  0.00     0.034 A 
ATOM      9  C   UNL A   1      37.351  21.811  25.295  1.00  0.00     0.112 A 
ATOM     10  C   UNL A   1      36.643  23.984  25.550  1.00  0.00     0.119 A 
ATOM     11  N   UNL A   1      37.663  23.116  25.356  1.00  0.00    -0.264 NA
BRANCH   7  12
ATOM     12  C   UNL A   1      33.787  21.709  26.337  1.00  0.00     0.254 C 
ATOM     13  O   UNL A   1      33.569  21.717  27.545  1.00  0.00    -0.269 OA
BRANCH  12  14
ATOM     14  N   UNL A   1      32.885  21.172  25.398  1.00  0.00    -0.338 N 
BRANCH  14  15
ATOM     15  C   UNL A   1      32.133  22.135  24.585  1.00  0.00     0.116 C 
ATOM     16  C   UNL A   1      32.350  21.922  23.090  1.00  0.00     0.027 C 
ENDBRANCH  14  15
BRANCH  14  17
ATOM     17  C   UNL A   1      32.522  19.743  25.242  1.00  0.00     0.135 C 
BRANCH  17  18
ATOM     18  C   UNL A   1      33.557  18.923  24.451  1.00  0.00     0.141 C 
BRANCH  18  19
ATOM     19  C   UNL A   1      33.000  18.237  23.277  1.00  0.00     0.064 C 
ATOM     20  N   UNL A   1      32.530  17.703  22.364  1.00  0.00    -0.198 NA
ENDBRANCH  18  19
ENDBRANCH  17  18
ENDBRANCH  14  17
ENDBRANCH  12  14
ENDBRANCH   7  12
ENDBRANCH   5   6
ENDBRANCH   2   4
ENDBRANCH   1   2
BRANCH   1  21
ATOM     21  C   UNL A   1      32.469  28.402  25.662  1.00  0.00     0.275 C 
BRANCH  21  22
ATOM     22  C   UNL A   1      32.820  29.893  25.734  1.00  0.00     0.275 C 
BRANCH  22  23
ATOM     23  O   UNL A   1      32.534  30.466  27.025  1.00  0.00    -0.458 OA
BRANCH  23  24
ATOM     24  C   UNL A   1      33.275  31.558  27.336  1.00  0.00     0.338 C 
ATOM     25  O   UNL A   1      32.890  32.717  27.358  1.00  0.00    -0.246 OA
BRANCH  24  26
ATOM     26  C   UNL A   1      34.632  31.173  27.761  1.00  0.00     0.060 A 
ATOM     27  C   UNL A   1      34.860  29.830  28.067  1.00  0.00     0.016 A 
ATOM     28  C   UNL A   1      35.623  32.128  27.999  1.00  0.00     0.016 A 
ATOM     29  C   UNL A   1      36.053  29.440  28.669  1.00  0.00     0.010 A 
ATOM     30  C   UNL A   1      36.833  31.730  28.583  1.00  0.00     0.010 A 
ATOM     31  C   UNL A   1      37.043  30.390  28.958  1.00  0.00    -0.014 A 
BRANCH  31  32
ATOM     32  C   UNL A   1      38.238  29.977  29.743  1.00  0.00     0.031 A 
ATOM     33  C   UNL A   1      38.433  30.501  31.142  1.00  0.00     0.074 A 
ATOM     34  C   UNL A   1      39.103  29.078  29.234  1.00  0.00     0.049 A 
ATOM     35  N   UNL A   1      39.402  30.264  31.991  1.00  0.00    -0.248 NA
ATOM     36  C   UNL A   1      37.405  31.419  31.651  1.00  0.00     0.031 C 
ATOM     37  C   UNL A   1      38.997  28.465  27.909  1.00  0.00     0.029 A 
ATOM     38  N   UNL A   1      40.233  28.512  29.772  1.00  0.00    -0.354 N 
ATOM     39  C   UNL A   1      39.105  31.009  33.129  1.00  0.00     0.074 A 
ATOM     40  C   UNL A   1      37.892  31.746  32.838  1.00  0.00     0.031 C 
ATOM     41  C   UNL A   1      40.000  27.588  27.750  1.00  0.00     0.029 A 
ATOM     42  C   UNL A   1      40.858  27.620  28.931  1.00  0.00     0.049 A 
ATOM     43  H   UNL A   1      40.564  28.724  30.674  1.00  0.00     0.167 HD
ATOM     44  C   UNL A   1      39.771  31.061  34.310  1.00  0.00     0.034 A 
ATOM     45  C   UNL A   1      42.002  26.924  29.085  1.00  0.00     0.034 A 
ATOM     46  C   UNL A   1      40.980  30.320  34.583  1.00  0.00     0.049 A 
ATOM     47  C   UNL A   1      42.772  27.071  30.375  1.00  0.00     0.074 A 
ATOM     48  C   UNL A   1      41.732  30.296  35.745  1.00  0.00     0.029 A 
ATOM     49  N   UNL A   1      41.622  29.479  33.681  1.00  0.00    -0.354 N 
ATOM     50  N   UNL A   1      42.479  27.782  31.440  1.00  0.00    -0.248 NA
ATOM     51  C   UNL A   1      44.024  26.312  30.484  1.00  0.00     0.031 C 
ATOM     52  C   UNL A   1      42.870  29.516  35.517  1.00  0.00     0.029 A 
ATOM     53  C   UNL A   1      42.779  28.965  34.249  1.00  0.00     0.049 A 
ATOM     54  H   UNL A   1      41.302  29.277  32.773  1.00  0.00     0.167 HD
ATOM     55  C   UNL A   1      43.495  27.524  32.359  1.00  0.00     0.074 A 
ATOM     56  C   UNL A   1      44.388  26.573  31.730  1.00  0.00     0.031 C 
ATOM     57  C   UNL A   1      43.675  28.028  33.609  1.00  0.00     0.034 A 
BRANCH  44  58
ATOM     58  C   UNL A   1      39.232  31.991  35.374  1.00  0.00     0.023 A 
ATOM     59  C   UNL A   1      39.654  33.330  35.477  1.00  0.00     0.031 A 
ATOM     60  C   UNL A   1      38.300  31.524  36.320  1.00  0.00     0.131 A 
ATOM     61  C   UNL A   1      39.207  34.126  36.542  1.00  0.00     0.055 A 
ATOM     62  C   UNL A   1      37.789  32.350  37.323  1.00  0.00     0.041 A 
ATOM     63  F   UNL A   1      37.878  30.251  36.293  1.00  0.00    -0.206 F 
ATOM     64  C   UNL A   1      38.254  33.655  37.449  1.00  0.00     0.022 A 
BRANCH  61  65
ATOM     65  S   UNL A   1      40.010  35.728  36.824  1.00  0.00     0.124 S 
ATOM     66  O   UNL A   1      39.653  36.456  35.608  1.00  0.00    -0.237 OA
ATOM     67  O   UNL A   1      39.374  36.189  38.054  1.00  0.00    -0.237 OA
ATOM     68  O   UNL A   1      41.426  35.388  36.942  1.00  0.00    -0.744 OA
ENDBRANCH  61  65
ENDBRANCH  44  58
BRANCH  45  69
ATOM     69  C   UNL A   1      42.521  26.056  27.985  1.00  0.00     0.023 A 
ATOM     70  C   UNL A   1      41.991  24.777  27.753  1.00  0.00     0.031 A 
ATOM     71  C   UNL A   1      43.612  26.466  27.197  1.00  0.00     0.131 A 
ATOM     72  C   UNL A   1      42.589  23.933  26.803  1.00  0.00     0.055 A 
ATOM     73  C   UNL A   1      44.157  25.650  26.204  1.00  0.00     0.041 A 
ATOM     74  F   UNL A   1      44.168  27.675  27.381  1.00  0.00    -0.206 F 
ATOM     75  C   UNL A   1      43.655  24.367  26.014  1.00  0.00     0.022 A 
BRANCH  72  76
ATOM     76  S   UNL A   1      42.030  22.209  26.700  1.00  0.00     0.124 S 
ATOM     77  O   UNL A   1      42.513  21.821  25.380  1.00  0.00    -0.237 OA
ATOM     78  O   UNL A   1      42.711  21.600  27.837  1.00  0.00    -0.237 OA
ATOM     79  O   UNL A   1      40.578  22.314  26.829  1.00  0.00    -0.744 OA
ENDBRANCH  72  76
ENDBRANCH  45  69
BRANCH  57  80
ATOM     80  C   UNL A   1      44.863  27.512  34.390  1.00  0.00     0.023 A 
ATOM     81  C   UNL A   1      44.773  26.376  35.213  1.00  0.00     0.031 A 
ATOM     82  C   UNL A   1      46.092  28.197  34.349  1.00  0.00     0.131 A 
ATOM     83  C   UNL A   1      45.855  26.016  36.030  1.00  0.00     0.055 A 
ATOM     84  C   UNL A   1      47.194  27.779  35.096  1.00  0.00     0.041 A 
ATOM     85  F   UNL A   1      46.241  29.292  33.586  1.00  0.00    -0.206 F 
ATOM     86  C   UNL A   1      47.073  26.696  35.961  1.00  0.00     0.022 A 
BRANCH  83  87
ATOM     87  S   UNL A   1      45.596  24.746  37.300  1.00  0.00     0.124 S 
ATOM     88  O   UNL A   1      44.947  23.685  36.535  1.00  0.00    -0.237 OA
ATOM     89  O   UNL A   1      46.957  24.469  37.745  1.00  0.00    -0.237 OA
ATOM     90  O   UNL A   1      44.745  25.413  38.283  1.00  0.00    -0.744 OA
ENDBRANCH  83  87
ENDBRANCH  57  80
ENDBRANCH  31  32
ENDBRANCH  24  26
ENDBRANCH  23  24
ENDBRANCH  22  23
ENDBRANCH  21  22
ENDBRANCH   1  21
TORSDOF 21
ENDMDL
MODEL 2
REMARK VINA RESULT:     -10.2      1.419      7.669
REMARK SMILES CCN(CCC#N)C(=O)c1ccncc1/C=C/C(=O)OCCOC(=O)c1ccc(-c2c3nc(c(-c4cc(S(=O)(=O)[O-])ccc4F)c4ccc([nH]4)c(-c4cc(S(=O)(=O)[O-])ccc4F)c4nc(c(-c5cc(S(=O)(=O)[O-])ccc5F)c5ccc2[nH]5)C=C4)C=C3)cc1
REMARK SMILES IDX 20 1 18 2 19 3 17 4 16 5 15 6 10 7 11 8 12 9 14 10 13 11
REMARK SMILES IDX 8 12 9 13 3 14 2 15 1 16 4 17 5 18 6 19 7 20 21 21 22 22
REMARK SMILES IDX 23 23 24 24 25 25 26 26 27 27 88 28 28 29 87 30 29 31 30 32
REMARK SMILES IDX 31 33 81 34 32 35 86 36 80 37 82 38 33 39 85 40 79 41 78 42
REMARK SMILES IDX 34 44 66 45 46 46 65 47 47 48 50 49 64 50 83 51 48 52 49 53
REMARK SMILES IDX 63 55 84 56 51 57 35 58 36 59 44 60 37 61 43 62 45 63 42 64
REMARK SMILES IDX 38 65 39 66 40 67 41 68 67 69 68 70 76 71 69 72 75 73 77 74
REMARK SMILES IDX 74 75 70 76 71 77 72 78 73 79 52 80 53 81 61 82 54 83 60 84
REMARK SMILES IDX 62 85 59 86 55 87 56 88 57 89 58 90
REMARK H PARENT 82 43 50 54
REMARK Flexibility Score: inf
ROOT
ATOM      1  O   UNL A   1      33.162  27.600  24.792  1.00  0.00    -0.459 OA
ENDROOT
BRANCH   1   2
ATOM      2  C   UNL A   1      32.776  26.355  24.431  1.00  0.00     0.330 C 
ATOM      3  O   UNL A   1      31.706  26.049  23.923  1.00  0.00    -0.247 OA
BRANCH   2   4
ATOM      4  C   UNL A   1      33.832  25.349  24.641  1.00  0.00     0.094 C 
ATOM      5  C   UNL A   1      34.099  24.689  25.782  1.00  0.00     0.018 C 
BRANCH   5   6
ATOM      6  C   UNL A   1      35.205  23.720  25.811  1.00  0.00     0.006 A 
ATOM      7  C   UNL A   1      35.022  22.338  25.906  1.00  0.00     0.050 A 
ATOM      8  C   UNL A   1      36.062  21.472  25.580  1.00  0.00     0.034 A 
ATOM      9  C   UNL A   1      37.321  22.002  25.390  1.00  0.00     0.112 A 
ATOM     10  C   UNL A   1      36.523  24.144  25.646  1.00  0.00     0.119 A 
ATOM     11  N   UNL A   1      37.580  23.318  25.466  1.00  0.00    -0.264 NA
BRANCH   7  12
ATOM     12  C   UNL A   1      33.743  21.753  26.360  1.00  0.00     0.254 C 
ATOM     13  O   UNL A   1      33.632  21.444  27.542  1.00  0.00    -0.269 OA
BRANCH  12  14
ATOM     14  N   UNL A   1      32.729  21.530  25.408  1.00  0.00    -0.338 N 
BRANCH  14  15
ATOM     15  C   UNL A   1      31.395  22.043  25.737  1.00  0.00     0.116 C 
ATOM     16  C   UNL A   1      30.865  22.999  24.673  1.00  0.00     0.027 C 
ENDBRANCH  14  15
BRANCH  14  17
ATOM     17  C   UNL A   1      32.842  20.714  24.175  1.00  0.00     0.135 C 
BRANCH  17  18
ATOM     18  C   UNL A   1      33.011  19.207  24.441  1.00  0.00     0.141 C 
BRANCH  18  19
ATOM     19  C   UNL A   1      32.677  18.359  23.290  1.00  0.00     0.064 C 
ATOM     20  N   UNL A   1      32.383  17.706  22.380  1.00  0.00    -0.198 NA
ENDBRANCH  18  19
ENDBRANCH  17  18
ENDBRANCH  14  17
ENDBRANCH  12  14
ENDBRANCH   7  12
ENDBRANCH   5   6
ENDBRANCH   2   4
ENDBRANCH   1   2
BRANCH   1  21
ATOM     21  C   UNL A   1      32.163  28.372  25.480  1.00  0.00     0.275 C 
BRANCH  21  22
ATOM     22  C   UNL A   1      32.596  29.836  25.620  1.00  0.00     0.275 C 
BRANCH  22  23
ATOM     23  O   UNL A   1      32.314  30.373  26.927  1.00  0.00    -0.458 OA
BRANCH  23  24
ATOM     24  C   UNL A   1      33.029  31.479  27.251  1.00  0.00     0.338 C 
ATOM     25  O   UNL A   1      32.627  32.632  27.247  1.00  0.00    -0.246 OA
BRANCH  24  26
ATOM     26  C   UNL A   1      34.375  31.117  27.727  1.00  0.00     0.060 A 
ATOM     27  C   UNL A   1      34.610  29.781  28.058  1.00  0.00     0.016 A 
ATOM     28  C   UNL A   1      35.345  32.088  27.986  1.00  0.00     0.016 A 
ATOM     29  C   UNL A   1      35.787  29.415  28.705  1.00  0.00     0.010 A 
ATOM     30  C   UNL A   1      36.540  31.714  28.615  1.00  0.00     0.010 A 
ATOM     31  C   UNL A   1      36.754  30.382  29.015  1.00  0.00    -0.014 A 
BRANCH  31  32
ATOM     32  C   UNL A   1      37.927  29.994  29.845  1.00  0.00     0.031 A 
ATOM     33  C   UNL A   1      38.962  29.052  29.284  1.00  0.00     0.074 A 
ATOM     34  C   UNL A   1      38.105  30.541  31.063  1.00  0.00     0.049 A 
ATOM     35  N   UNL A   1      40.055  28.591  29.839  1.00  0.00    -0.248 NA
ATOM     36  C   UNL A   1      38.731  28.558  27.919  1.00  0.00     0.031 C 
ATOM     37  C   UNL A   1      37.197  31.500  31.695  1.00  0.00     0.029 A 
ATOM     38  N   UNL A   1      39.113  30.384  31.981  1.00  0.00    -0.354 N 
ATOM     39  C   UNL A   1      40.637  27.748  28.897  1.00  0.00     0.074 A 
ATOM     40  C   UNL A   1      39.746  27.722  27.756  1.00  0.00     0.031 C 
ATOM     41  C   UNL A   1      37.704  31.867  32.882  1.00  0.00     0.029 A 
ATOM     42  C   UNL A   1      38.938  31.127  33.126  1.00  0.00     0.049 A 
ATOM     43  H   UNL A   1      39.889  29.797  31.833  1.00  0.00     0.167 HD
ATOM     44  C   UNL A   1      41.812  27.073  28.971  1.00  0.00     0.034 A 
ATOM     45  C   UNL A   1      39.675  31.187  34.253  1.00  0.00     0.034 A 
ATOM     46  C   UNL A   1      42.688  27.109  30.118  1.00  0.00     0.049 A 
ATOM     47  C   UNL A   1      40.931  30.354  34.344  1.00  0.00     0.074 A 
ATOM     48  C   UNL A   1      43.902  26.467  30.296  1.00  0.00     0.029 A 
ATOM     49  N   UNL A   1      42.443  27.818  31.288  1.00  0.00    -0.354 N 
ATOM     50  N   UNL A   1      41.467  29.559  33.445  1.00  0.00    -0.248 NA
ATOM     51  C   UNL A   1      41.686  30.436  35.601  1.00  0.00     0.031 C 
ATOM     52  C   UNL A   1      44.344  26.715  31.600  1.00  0.00     0.029 A 
ATOM     53  C   UNL A   1      43.462  27.597  32.203  1.00  0.00     0.049 A 
ATOM     54  H   UNL A   1      41.660  28.394  31.445  1.00  0.00     0.167 HD
ATOM     55  C   UNL A   1      42.641  29.076  34.019  1.00  0.00     0.074 A 
ATOM     56  C   UNL A   1      42.745  29.692  35.326  1.00  0.00     0.031 C 
ATOM     57  C   UNL A   1      43.551  28.202  33.513  1.00  0.00     0.034 A 
BRANCH  44  58
ATOM     58  C   UNL A   1      42.186  26.196  27.797  1.00  0.00     0.023 A 
ATOM     59  C   UNL A   1      41.749  24.863  27.692  1.00  0.00     0.031 A 
ATOM     60  C   UNL A   1      43.019  26.693  26.777  1.00  0.00     0.131 A 
ATOM     61  C   UNL A   1      42.206  24.055  26.641  1.00  0.00     0.055 A 
ATOM     62  C   UNL A   1      43.394  25.911  25.683  1.00  0.00     0.041 A 
ATOM     63  F   UNL A   1      43.492  27.948  26.831  1.00  0.00    -0.206 F 
ATOM     64  C   UNL A   1      43.002  24.578  25.619  1.00  0.00     0.022 A 
BRANCH  61  65
ATOM     65  S   UNL A   1      41.882  22.272  26.712  1.00  0.00     0.124 S 
ATOM     66  O   UNL A   1      42.290  21.843  25.376  1.00  0.00    -0.237 OA
ATOM     67  O   UNL A   1      42.738  21.838  27.811  1.00  0.00    -0.237 OA
ATOM     68  O   UNL A   1      40.446  22.193  26.971  1.00  0.00    -0.744 OA
ENDBRANCH  61  65
ENDBRANCH  44  58
BRANCH  45  69
ATOM     69  C   UNL A   1      39.238  32.029  35.407  1.00  0.00     0.023 A 
ATOM     70  C   UNL A   1      38.618  31.460  36.532  1.00  0.00     0.031 A 
ATOM     71  C   UNL A   1      39.364  33.430  35.368  1.00  0.00     0.131 A 
ATOM     72  C   UNL A   1      38.096  32.289  37.538  1.00  0.00     0.055 A 
ATOM     73  C   UNL A   1      38.907  34.245  36.405  1.00  0.00     0.041 A 
ATOM     74  F   UNL A   1      39.937  34.032  34.312  1.00  0.00    -0.206 F 
ATOM     75  C   UNL A   1      38.253  33.675  37.492  1.00  0.00     0.022 A 
BRANCH  72  76
ATOM     76  S   UNL A   1      37.096  31.535  38.852  1.00  0.00     0.124 S 
ATOM     77  O   UNL A   1      36.987  30.157  38.386  1.00  0.00    -0.237 OA
ATOM     78  O   UNL A   1      37.928  31.750  40.030  1.00  0.00    -0.237 OA
ATOM     79  O   UNL A   1      35.854  32.306  38.818  1.00  0.00    -0.744 OA
ENDBRANCH  72  76
ENDBRANCH  45  69
BRANCH  57  80
ATOM     80  C   UNL A   1      44.764  27.906  34.367  1.00  0.00     0.023 A 
ATOM     81  C   UNL A   1      44.786  26.835  35.278  1.00  0.00     0.031 A 
ATOM     82  C   UNL A   1      45.897  28.737  34.305  1.00  0.00     0.131 A 
ATOM     83  C   UNL A   1      45.872  26.682  36.153  1.00  0.00     0.055 A 
ATOM     84  C   UNL A   1      47.013  28.524  35.115  1.00  0.00     0.041 A 
ATOM     85  F   UNL A   1      45.937  29.779  33.459  1.00  0.00    -0.206 F 
ATOM     86  C   UNL A   1      46.996  27.505  36.063  1.00  0.00     0.022 A 
BRANCH  83  87
ATOM     87  S   UNL A   1      45.726  25.492  37.515  1.00  0.00     0.124 S 
ATOM     88  O   UNL A   1      44.280  25.318  37.608  1.00  0.00    -0.237 OA
ATOM     89  O   UNL A   1      46.474  24.346  37.009  1.00  0.00    -0.237 OA
ATOM     90  O   UNL A   1      46.343  26.186  38.643  1.00  0.00    -0.744 OA
ENDBRANCH  83  87
ENDBRANCH  57  80
ENDBRANCH  31  32
ENDBRANCH  24  26
ENDBRANCH  23  24
ENDBRANCH  22  23
ENDBRANCH  21  22
ENDBRANCH   1  21
TORSDOF 21
ENDMDL
MODEL 3
REMARK VINA RESULT:      -9.9      4.379      9.453
REMARK SMILES CCN(CCC#N)C(=O)c1ccncc1/C=C/C(=O)OCCOC(=O)c1ccc(-c2c3nc(c(-c4cc(S(=O)(=O)[O-])ccc4F)c4ccc([nH]4)c(-c4cc(S(=O)(=O)[O-])ccc4F)c4nc(c(-c5cc(S(=O)(=O)[O-])ccc5F)c5ccc2[nH]5)C=C4)C=C3)cc1
REMARK SMILES IDX 20 1 18 2 19 3 17 4 16 5 15 6 10 7 11 8 12 9 14 10 13 11
REMARK SMILES IDX 8 12 9 13 3 14 2 15 1 16 4 17 5 18 6 19 7 20 21 21 22 22
REMARK SMILES IDX 23 23 24 24 25 25 26 26 27 27 88 28 28 29 87 30 29 31 30 32
REMARK SMILES IDX 31 33 81 34 32 35 86 36 80 37 82 38 33 39 85 40 79 41 78 42
REMARK SMILES IDX 34 44 66 45 46 46 65 47 47 48 50 49 64 50 83 51 48 52 49 53
REMARK SMILES IDX 63 55 84 56 51 57 35 58 36 59 44 60 37 61 43 62 45 63 42 64
REMARK SMILES IDX 38 65 39 66 40 67 41 68 67 69 68 70 76 71 69 72 75 73 77 74
REMARK SMILES IDX 74 75 70 76 71 77 72 78 73 79 52 80 53 81 61 82 54 83 60 84
REMARK SMILES IDX 62 85 59 86 55 87 56 88 57 89 58 90
REMARK H PARENT 82 43 50 54
REMARK Flexibility Score: inf
ROOT
ATOM      1  O   UNL A   1      35.543  22.620  25.862  1.00  0.00    -0.459 OA
ENDROOT
BRANCH   1   2
ATOM      2  C   UNL A   1      34.211  22.640  26.095  1.00  0.00     0.330 C 
ATOM      3  O   UNL A   1      33.469  21.669  26.133  1.00  0.00    -0.247 OA
BRANCH   2   4
ATOM      4  C   UNL A   1      33.706  23.993  26.391  1.00  0.00     0.094 C 
ATOM      5  C   UNL A   1      33.607  25.021  25.529  1.00  0.00     0.018 C 
BRANCH   5   6
ATOM      6  C   UNL A   1      33.086  26.311  26.005  1.00  0.00     0.006 A 
ATOM      7  C   UNL A   1      31.741  26.539  26.306  1.00  0.00     0.050 A 
ATOM      8  C   UNL A   1      31.374  27.643  27.070  1.00  0.00     0.034 A 
ATOM      9  C   UNL A   1      32.323  28.612  27.318  1.00  0.00     0.112 A 
ATOM     10  C   UNL A   1      33.952  27.370  26.274  1.00  0.00     0.119 A 
ATOM     11  N   UNL A   1      33.594  28.519  26.892  1.00  0.00    -0.264 NA
BRANCH   7  12
ATOM     12  C   UNL A   1      30.673  25.638  25.824  1.00  0.00     0.254 C 
ATOM     13  O   UNL A   1      30.255  24.772  26.587  1.00  0.00    -0.269 OA
BRANCH  12  14
ATOM     14  N   UNL A   1      30.219  25.779  24.499  1.00  0.00    -0.338 N 
BRANCH  14  15
ATOM     15  C   UNL A   1      31.009  25.109  23.460  1.00  0.00     0.116 C 
ATOM     16  C   UNL A   1      30.664  23.629  23.335  1.00  0.00     0.027 C 
ENDBRANCH  14  15
BRANCH  14  17
ATOM     17  C   UNL A   1      29.106  26.642  24.035  1.00  0.00     0.135 C 
BRANCH  17  18
ATOM     18  C   UNL A   1      29.545  27.749  23.059  1.00  0.00     0.141 C 
BRANCH  18  19
ATOM     19  C   UNL A   1      30.222  28.880  23.708  1.00  0.00     0.064 C 
ATOM     20  N   UNL A   1      30.725  29.784  24.227  1.00  0.00    -0.198 NA
ENDBRANCH  18  19
ENDBRANCH  17  18
ENDBRANCH  14  17
ENDBRANCH  12  14
ENDBRANCH   7  12
ENDBRANCH   5   6
ENDBRANCH   2   4
ENDBRANCH   1   2
BRANCH   1  21
ATOM     21  C   UNL A   1      36.026  21.441  25.196  1.00  0.00     0.275 C 
BRANCH  21  22
ATOM     22  C   UNL A   1      37.555  21.350  25.274  1.00  0.00     0.275 C 
BRANCH  22  23
ATOM     23  O   UNL A   1      38.151  22.541  25.827  1.00  0.00    -0.458 OA
BRANCH  23  24
ATOM     24  C   UNL A   1      39.283  22.327  26.542  1.00  0.00     0.338 C 
ATOM     25  O   UNL A   1      39.758  21.245  26.846  1.00  0.00    -0.246 OA
BRANCH  24  26
ATOM     26  C   UNL A   1      39.966  23.598  26.843  1.00  0.00     0.060 A 
ATOM     27  C   UNL A   1      40.546  23.740  28.106  1.00  0.00     0.016 A 
ATOM     28  C   UNL A   1      39.913  24.682  25.965  1.00  0.00     0.016 A 
ATOM     29  C   UNL A   1      41.021  24.980  28.523  1.00  0.00     0.010 A 
ATOM     30  C   UNL A   1      40.414  25.924  26.378  1.00  0.00     0.010 A 
ATOM     31  C   UNL A   1      40.936  26.092  27.675  1.00  0.00    -0.014 A 
BRANCH  31  32
ATOM     32  C   UNL A   1      41.303  27.436  28.201  1.00  0.00     0.031 A 
ATOM     33  C   UNL A   1      42.746  27.873  28.195  1.00  0.00     0.074 A 
ATOM     34  C   UNL A   1      40.343  28.288  28.610  1.00  0.00     0.049 A 
ATOM     35  N   UNL A   1      43.275  28.998  28.605  1.00  0.00    -0.248 NA
ATOM     36  C   UNL A   1      43.723  26.912  27.663  1.00  0.00     0.031 C 
ATOM     37  C   UNL A   1      38.909  27.997  28.620  1.00  0.00     0.029 A 
ATOM     38  N   UNL A   1      40.424  29.575  29.081  1.00  0.00    -0.354 N 
ATOM     39  C   UNL A   1      44.645  28.879  28.389  1.00  0.00     0.074 A 
ATOM     40  C   UNL A   1      44.867  27.549  27.861  1.00  0.00     0.031 C 
ATOM     41  C   UNL A   1      38.244  29.082  29.045  1.00  0.00     0.029 A 
ATOM     42  C   UNL A   1      39.203  30.124  29.399  1.00  0.00     0.049 A 
ATOM     43  H   UNL A   1      41.275  30.059  29.181  1.00  0.00     0.167 HD
ATOM     44  C   UNL A   1      45.622  29.797  28.596  1.00  0.00     0.034 A 
ATOM     45  C   UNL A   1      38.893  31.322  29.933  1.00  0.00     0.034 A 
ATOM     46  C   UNL A   1      45.383  31.119  29.126  1.00  0.00     0.049 A 
ATOM     47  C   UNL A   1      40.010  32.291  30.240  1.00  0.00     0.074 A 
ATOM     48  C   UNL A   1      46.298  32.128  29.371  1.00  0.00     0.029 A 
ATOM     49  N   UNL A   1      44.140  31.615  29.501  1.00  0.00    -0.354 N 
ATOM     50  N   UNL A   1      41.301  32.161  30.033  1.00  0.00    -0.248 NA
ATOM     51  C   UNL A   1      39.624  33.571  30.844  1.00  0.00     0.031 C 
ATOM     52  C   UNL A   1      45.626  33.196  29.975  1.00  0.00     0.029 A 
ATOM     53  C   UNL A   1      44.273  32.899  30.012  1.00  0.00     0.049 A 
ATOM     54  H   UNL A   1      43.289  31.128  29.417  1.00  0.00     0.167 HD
ATOM     55  C   UNL A   1      41.874  33.361  30.450  1.00  0.00     0.074 A 
ATOM     56  C   UNL A   1      40.784  34.206  30.891  1.00  0.00     0.031 C 
ATOM     57  C   UNL A   1      43.182  33.731  30.467  1.00  0.00     0.034 A 
BRANCH  44  58
ATOM     58  C   UNL A   1      47.045  29.379  28.300  1.00  0.00     0.023 A 
ATOM     59  C   UNL A   1      47.893  28.862  29.296  1.00  0.00     0.031 A 
ATOM     60  C   UNL A   1      47.572  29.527  27.003  1.00  0.00     0.131 A 
ATOM     61  C   UNL A   1      49.236  28.585  28.999  1.00  0.00     0.055 A 
ATOM     62  C   UNL A   1      48.884  29.163  26.694  1.00  0.00     0.041 A 
ATOM     63  F   UNL A   1      46.824  30.040  26.015  1.00  0.00    -0.206 F 
ATOM     64  C   UNL A   1      49.731  28.704  27.698  1.00  0.00     0.022 A 
BRANCH  61  65
ATOM     65  S   UNL A   1      50.371  28.227  30.368  1.00  0.00     0.124 S 
ATOM     66  O   UNL A   1      49.480  27.579  31.329  1.00  0.00    -0.237 OA
ATOM     67  O   UNL A   1      51.366  27.365  29.739  1.00  0.00    -0.237 OA
ATOM     68  O   UNL A   1      50.853  29.546  30.770  1.00  0.00    -0.744 OA
ENDBRANCH  61  65
ENDBRANCH  44  58
BRANCH  45  69
ATOM     69  C   UNL A   1      37.476  31.670  30.257  1.00  0.00     0.023 A 
ATOM     70  C   UNL A   1      36.587  32.106  29.261  1.00  0.00     0.031 A 
ATOM     71  C   UNL A   1      37.013  31.646  31.585  1.00  0.00     0.131 A 
ATOM     72  C   UNL A   1      35.304  32.555  29.616  1.00  0.00     0.055 A 
ATOM     73  C   UNL A   1      35.713  32.025  31.923  1.00  0.00     0.041 A 
ATOM     74  F   UNL A   1      37.822  31.250  32.581  1.00  0.00    -0.206 F 
ATOM     75  C   UNL A   1      34.855  32.500  30.937  1.00  0.00     0.022 A 
BRANCH  72  76
ATOM     76  S   UNL A   1      34.272  33.331  28.341  1.00  0.00     0.124 S 
ATOM     77  O   UNL A   1      33.608  32.173  27.753  1.00  0.00    -0.237 OA
ATOM     78  O   UNL A   1      33.430  34.221  29.131  1.00  0.00    -0.237 OA
ATOM     79  O   UNL A   1      35.246  33.999  27.477  1.00  0.00    -0.744 OA
ENDBRANCH  72  76
ENDBRANCH  45  69
BRANCH  57  80
ATOM     80  C   UNL A   1      43.489  35.136  30.937  1.00  0.00     0.023 A 
ATOM     81  C   UNL A   1      43.553  35.464  32.302  1.00  0.00     0.031 A 
ATOM     82  C   UNL A   1      43.673  36.173  30.004  1.00  0.00     0.131 A 
ATOM     83  C   UNL A   1      43.697  36.803  32.695  1.00  0.00     0.055 A 
ATOM     84  C   UNL A   1      43.907  37.490  30.402  1.00  0.00     0.041 A 
ATOM     85  F   UNL A   1      43.619  35.926  28.685  1.00  0.00    -0.206 F 
ATOM     86  C   UNL A   1      43.897  37.816  31.754  1.00  0.00     0.022 A 
BRANCH  83  87
ATOM     87  S   UNL A   1      43.460  37.223  34.444  1.00  0.00     0.124 S 
ATOM     88  O   UNL A   1      42.641  38.429  34.354  1.00  0.00    -0.237 OA
ATOM     89  O   UNL A   1      42.790  36.036  34.962  1.00  0.00    -0.237 OA
ATOM     90  O   UNL A   1      44.821  37.432  34.934  1.00  0.00    -0.744 OA
ENDBRANCH  83  87
ENDBRANCH  57  80
ENDBRANCH  31  32
ENDBRANCH  24  26
ENDBRANCH  23  24
ENDBRANCH  22  23
ENDBRANCH  21  22
ENDBRANCH   1  21
TORSDOF 21
ENDMDL
