MODEL 1
REMARK VINA RESULT:     -11.5      0.000      0.000
REMARK SMILES Cc1nsc(N(C)C(=O)c2ccc(F)cc2)c1C(=O)OCCOC(=O)c1ccc(-c2c3nc(c(-c4cc(S(=O)(=O)[O-])ccc4F)c4ccc([nH]4)c(-c4cc(S(=O)(=O)[O-])ccc4F)c4nc(c(-c5cc(S(=O)(=O)[O-])ccc5F)c5ccc2[nH]5)C=C4)C=C3)cc1
REMARK SMILES IDX 21 1 20 2 18 3 19 4 17 5 1 6 2 7 3 8 4 9 5 10 6 11 7 12 8 13
REMARK SMILES IDX 9 14 10 15 11 16 16 17 12 18 15 19 13 20 14 21 22 22 23 23
REMARK SMILES IDX 24 24 25 25 26 26 27 27 88 28 28 29 87 30 29 31 30 32 31 33
REMARK SMILES IDX 81 34 32 35 86 36 80 37 82 38 33 39 85 40 79 41 78 42 34 44
REMARK SMILES IDX 66 45 46 46 65 47 47 48 50 49 64 50 83 51 48 52 49 53 63 55
REMARK SMILES IDX 84 56 51 57 35 58 36 59 44 60 37 61 43 62 45 63 42 64 38 65
REMARK SMILES IDX 39 66 40 67 41 68 67 69 68 70 76 71 69 72 75 73 77 74 74 75
REMARK SMILES IDX 70 76 71 77 72 78 73 79 52 80 53 81 61 82 54 83 60 84 62 85
REMARK SMILES IDX 59 86 55 87 56 88 57 89 58 90
REMARK H PARENT 82 43 50 54
REMARK Flexibility Score: inf
ROOT
ATOM      1  C   UNL A   1      36.996  23.609  24.873  1.00  0.00     0.275 C 
ENDROOT
BRANCH   1   2
ATOM      2  O   UNL A   1      35.664  24.126  24.920  1.00  0.00    -0.458 OA
BRANCH   2   3
ATOM      3  C   UNL A   1      34.775  23.669  23.993  1.00  0.00     0.343 C 
ATOM      4  O   UNL A   1      34.898  23.840  22.783  1.00  0.00    -0.246 OA
BRANCH   3   5
ATOM      5  C   UNL A   1      33.587  23.120  24.631  1.00  0.00     0.117 A 
ATOM      6  C   UNL A   1      34.744  20.813  25.182  1.00  0.00     0.069 C 
ATOM      7  C   UNL A   1      33.617  21.793  25.236  1.00  0.00     0.068 A 
ATOM      8  N   UNL A   1      32.532  21.422  25.904  1.00  0.00    -0.195 NA
ATOM      9  S   UNL A   1      31.383  22.561  25.701  1.00  0.00    -0.017 S 
ATOM     10  C   UNL A   1      32.296  23.666  24.722  1.00  0.00     0.133 A 
BRANCH  10  11
ATOM     11  N   UNL A   1      31.570  24.800  24.204  1.00  0.00    -0.301 N 
ATOM     12  C   UNL A   1      31.529  25.074  22.755  1.00  0.00     0.154 C 
BRANCH  11  13
ATOM     13  C   UNL A   1      31.124  25.789  25.116  1.00  0.00     0.258 C 
ATOM     14  O   UNL A   1      29.965  25.908  25.510  1.00  0.00    -0.269 OA
BRANCH  13  15
ATOM     15  C   UNL A   1      32.072  26.730  25.805  1.00  0.00     0.040 A 
ATOM     16  C   UNL A   1      33.362  27.042  25.363  1.00  0.00     0.017 A 
ATOM     17  C   UNL A   1      31.560  27.440  26.905  1.00  0.00     0.017 A 
ATOM     18  C   UNL A   1      34.159  27.942  26.086  1.00  0.00     0.040 A 
ATOM     19  C   UNL A   1      32.339  28.359  27.611  1.00  0.00     0.040 A 
ATOM     20  C   UNL A   1      33.643  28.586  27.207  1.00  0.00     0.123 A 
ATOM     21  F   UNL A   1      34.400  29.464  27.876  1.00  0.00    -0.207 F 
ENDBRANCH  13  15
ENDBRANCH  11  13
ENDBRANCH  10  11
ENDBRANCH   3   5
ENDBRANCH   2   3
ENDBRANCH   1   2
BRANCH   1  22
ATOM     22  C   UNL A   1      37.644  23.909  26.213  1.00  0.00     0.275 C 
BRANCH  22  23
ATOM     23  O   UNL A   1      38.887  24.571  26.007  1.00  0.00    -0.458 OA
BRANCH  23  24
ATOM     24  C   UNL A   1      39.739  24.598  27.059  1.00  0.00     0.338 C 
ATOM     25  O   UNL A   1      40.430  23.696  27.490  1.00  0.00    -0.246 OA
BRANCH  24  26
ATOM     26  C   UNL A   1      39.541  25.889  27.728  1.00  0.00     0.060 A 
ATOM     27  C   UNL A   1      39.995  27.063  27.121  1.00  0.00     0.016 A 
ATOM     28  C   UNL A   1      39.064  25.874  29.049  1.00  0.00     0.016 A 
ATOM     29  C   UNL A   1      40.080  28.210  27.893  1.00  0.00     0.010 A 
ATOM     30  C   UNL A   1      39.129  27.008  29.804  1.00  0.00     0.010 A 
ATOM     31  C   UNL A   1      39.712  28.137  29.240  1.00  0.00    -0.014 A 
BRANCH  31  32
ATOM     32  C   UNL A   1      39.922  29.262  30.120  1.00  0.00     0.031 A 
ATOM     33  C   UNL A   1      38.713  30.093  30.339  1.00  0.00     0.074 A 
ATOM     34  C   UNL A   1      41.066  29.355  30.828  1.00  0.00     0.049 A 
ATOM     35  N   UNL A   1      38.537  31.330  30.022  1.00  0.00    -0.248 NA
ATOM     36  C   UNL A   1      37.491  29.430  30.829  1.00  0.00     0.031 C 
ATOM     37  C   UNL A   1      42.185  28.408  30.896  1.00  0.00     0.029 A 
ATOM     38  N   UNL A   1      41.420  30.286  31.745  1.00  0.00    -0.354 N 
ATOM     39  C   UNL A   1      37.266  31.667  30.480  1.00  0.00     0.074 A 
ATOM     40  C   UNL A   1      36.605  30.426  30.783  1.00  0.00     0.031 C 
ATOM     41  C   UNL A   1      42.958  28.697  31.969  1.00  0.00     0.029 A 
ATOM     42  C   UNL A   1      42.476  29.926  32.576  1.00  0.00     0.049 A 
ATOM     43  H   UNL A   1      40.962  31.155  31.818  1.00  0.00     0.167 HD
ATOM     44  C   UNL A   1      36.944  32.953  30.788  1.00  0.00     0.034 A 
ATOM     45  C   UNL A   1      42.860  30.574  33.710  1.00  0.00     0.034 A 
ATOM     46  C   UNL A   1      37.894  33.877  30.213  1.00  0.00     0.049 A 
ATOM     47  C   UNL A   1      42.323  31.960  33.582  1.00  0.00     0.074 A 
ATOM     48  C   UNL A   1      38.279  34.169  28.917  1.00  0.00     0.029 A 
ATOM     49  N   UNL A   1      38.915  34.337  31.013  1.00  0.00    -0.354 N 
ATOM     50  N   UNL A   1      42.691  32.781  32.631  1.00  0.00    -0.248 NA
ATOM     51  C   UNL A   1      41.017  32.233  34.164  1.00  0.00     0.031 C 
ATOM     52  C   UNL A   1      39.699  34.288  28.981  1.00  0.00     0.029 A 
ATOM     53  C   UNL A   1      40.090  34.161  30.317  1.00  0.00     0.049 A 
ATOM     54  H   UNL A   1      38.823  34.720  31.915  1.00  0.00     0.167 HD
ATOM     55  C   UNL A   1      41.521  33.395  32.209  1.00  0.00     0.074 A 
ATOM     56  C   UNL A   1      40.531  33.067  33.239  1.00  0.00     0.031 C 
ATOM     57  C   UNL A   1      41.369  33.852  30.930  1.00  0.00     0.034 A 
BRANCH  44  58
ATOM     58  C   UNL A   1      35.969  33.357  31.864  1.00  0.00     0.023 A 
ATOM     59  C   UNL A   1      34.850  34.122  31.491  1.00  0.00     0.031 A 
ATOM     60  C   UNL A   1      36.218  33.258  33.253  1.00  0.00     0.131 A 
ATOM     61  C   UNL A   1      34.075  34.786  32.460  1.00  0.00     0.055 A 
ATOM     62  C   UNL A   1      35.411  33.869  34.215  1.00  0.00     0.041 A 
ATOM     63  F   UNL A   1      37.302  32.651  33.750  1.00  0.00    -0.206 F 
ATOM     64  C   UNL A   1      34.347  34.660  33.822  1.00  0.00     0.022 A 
BRANCH  61  65
ATOM     65  S   UNL A   1      32.783  35.928  31.908  1.00  0.00     0.124 S 
ATOM     66  O   UNL A   1      33.297  37.211  32.374  1.00  0.00    -0.237 OA
ATOM     67  O   UNL A   1      32.792  35.717  30.464  1.00  0.00    -0.237 OA
ATOM     68  O   UNL A   1      31.587  35.449  32.598  1.00  0.00    -0.744 OA
ENDBRANCH  61  65
ENDBRANCH  44  58
BRANCH  45  69
ATOM     69  C   UNL A   1      43.251  29.954  35.015  1.00  0.00     0.023 A 
ATOM     70  C   UNL A   1      42.636  28.780  35.511  1.00  0.00     0.031 A 
ATOM     71  C   UNL A   1      44.428  30.369  35.681  1.00  0.00     0.131 A 
ATOM     72  C   UNL A   1      43.198  28.083  36.609  1.00  0.00     0.055 A 
ATOM     73  C   UNL A   1      44.977  29.676  36.764  1.00  0.00     0.041 A 
ATOM     74  F   UNL A   1      45.142  31.418  35.247  1.00  0.00    -0.206 F 
ATOM     75  C   UNL A   1      44.371  28.522  37.226  1.00  0.00     0.022 A 
BRANCH  72  76
ATOM     76  S   UNL A   1      42.473  26.512  37.190  1.00  0.00     0.124 S 
ATOM     77  O   UNL A   1      41.078  26.881  37.404  1.00  0.00    -0.237 OA
ATOM     78  O   UNL A   1      42.740  25.607  36.079  1.00  0.00    -0.237 OA
ATOM     79  O   UNL A   1      43.227  26.222  38.410  1.00  0.00    -0.744 OA
ENDBRANCH  72  76
ENDBRANCH  45  69
BRANCH  57  80
ATOM     80  C   UNL A   1      42.578  33.867  30.010  1.00  0.00     0.023 A 
ATOM     81  C   UNL A   1      42.982  32.797  29.173  1.00  0.00     0.031 A 
ATOM     82  C   UNL A   1      43.237  35.097  29.854  1.00  0.00     0.131 A 
ATOM     83  C   UNL A   1      44.011  32.991  28.224  1.00  0.00     0.055 A 
ATOM     84  C   UNL A   1      44.238  35.290  28.902  1.00  0.00     0.041 A 
ATOM     85  F   UNL A   1      42.875  36.158  30.593  1.00  0.00    -0.206 F 
ATOM     86  C   UNL A   1      44.629  34.238  28.083  1.00  0.00     0.022 A 
BRANCH  83  87
ATOM     87  S   UNL A   1      44.544  31.633  27.125  1.00  0.00     0.124 S 
ATOM     88  O   UNL A   1      44.394  32.204  25.792  1.00  0.00    -0.237 OA
ATOM     89  O   UNL A   1      45.913  31.380  27.566  1.00  0.00    -0.237 OA
ATOM     90  O   UNL A   1      43.603  30.554  27.433  1.00  0.00    -0.744 OA
ENDBRANCH  83  87
ENDBRANCH  57  80
ENDBRANCH  31  32
ENDBRANCH  24  26
ENDBRANCH  23  24
ENDBRANCH  22  23
ENDBRANCH   1  22
TORSDOF 17
ENDMDL
MODEL 2
REMARK VINA RESULT:     -11.5      4.382     10.061
REMARK SMILES Cc1nsc(N(C)C(=O)c2ccc(F)cc2)c1C(=O)OCCOC(=O)c1ccc(-c2c3nc(c(-c4cc(S(=O)(=O)[O-])ccc4F)c4ccc([nH]4)c(-c4cc(S(=O)(=O)[O-])ccc4F)c4nc(c(-c5cc(S(=O)(=O)[O-])ccc5F)c5ccc2[nH]5)C=C4)C=C3)cc1
REMARK SMILES IDX 21 1 20 2 18 3 19 4 17 5 1 6 2 7 3 8 4 9 5 10 6 11 7 12 8 13
REMARK SMILES IDX 9 14 10 15 11 16 16 17 12 18 15 19 13 20 14 21 22 22 23 23
REMARK SMILES IDX 24 24 25 25 26 26 27 27 88 28 28 29 87 30 29 31 30 32 31 33
REMARK SMILES IDX 81 34 32 35 86 36 80 37 82 38 33 39 85 40 79 41 78 42 34 44
REMARK SMILES IDX 66 45 46 46 65 47 47 48 50 49 64 50 83 51 48 52 49 53 63 55
REMARK SMILES IDX 84 56 51 57 35 58 36 59 44 60 37 61 43 62 45 63 42 64 38 65
REMARK SMILES IDX 39 66 40 67 41 68 67 69 68 70 76 71 69 72 75 73 77 74 74 75
REMARK SMILES IDX 70 76 71 77 72 78 73 79 52 80 53 81 61 82 54 83 60 84 62 85
REMARK SMILES IDX 59 86 55 87 56 88 57 89 58 90
REMARK H PARENT 82 43 50 54
REMARK Flexibility Score: inf
ROOT
ATOM      1  C   UNL A   1      33.916  28.324  26.543  1.00  0.00     0.275 C 
ENDROOT
BRANCH   1   2
ATOM      2  O   UNL A   1      32.778  28.739  25.783  1.00  0.00    -0.458 OA
BRANCH   2   3
ATOM      3  C   UNL A   1      32.684  28.303  24.495  1.00  0.00     0.343 C 
ATOM      4  O   UNL A   1      33.562  28.464  23.652  1.00  0.00    -0.246 OA
BRANCH   3   5
ATOM      5  C   UNL A   1      31.352  27.792  24.210  1.00  0.00     0.117 A 
ATOM      6  C   UNL A   1      30.310  30.199  23.914  1.00  0.00     0.069 C 
ATOM      7  C   UNL A   1      30.263  28.706  23.881  1.00  0.00     0.068 A 
ATOM      8  N   UNL A   1      29.115  28.151  23.514  1.00  0.00    -0.195 NA
ATOM      9  S   UNL A   1      29.236  26.535  23.701  1.00  0.00    -0.017 S 
ATOM     10  C   UNL A   1      30.879  26.470  24.257  1.00  0.00     0.133 A 
BRANCH  10  11
ATOM     11  N   UNL A   1      31.356  25.172  24.671  1.00  0.00    -0.301 N 
ATOM     12  C   UNL A   1      30.919  23.948  23.972  1.00  0.00     0.154 C 
BRANCH  11  13
ATOM     13  C   UNL A   1      32.032  25.067  25.911  1.00  0.00     0.258 C 
ATOM     14  O   UNL A   1      31.589  25.464  26.987  1.00  0.00    -0.269 OA
BRANCH  13  15
ATOM     15  C   UNL A   1      33.332  24.327  26.056  1.00  0.00     0.040 A 
ATOM     16  C   UNL A   1      33.497  23.109  26.724  1.00  0.00     0.017 A 
ATOM     17  C   UNL A   1      34.431  24.849  25.350  1.00  0.00     0.017 A 
ATOM     18  C   UNL A   1      34.762  22.505  26.792  1.00  0.00     0.040 A 
ATOM     19  C   UNL A   1      35.685  24.236  25.390  1.00  0.00     0.040 A 
ATOM     20  C   UNL A   1      35.844  23.077  26.131  1.00  0.00     0.123 A 
ATOM     21  F   UNL A   1      37.042  22.481  26.177  1.00  0.00    -0.207 F 
ENDBRANCH  13  15
ENDBRANCH  11  13
ENDBRANCH  10  11
ENDBRANCH   3   5
ENDBRANCH   2   3
ENDBRANCH   1   2
BRANCH   1  22
ATOM     22  C   UNL A   1      34.540  29.574  27.140  1.00  0.00     0.275 C 
BRANCH  22  23
ATOM     23  O   UNL A   1      35.367  29.218  28.242  1.00  0.00    -0.458 OA
BRANCH  23  24
ATOM     24  C   UNL A   1      36.415  30.035  28.500  1.00  0.00     0.338 C 
ATOM     25  O   UNL A   1      36.410  31.243  28.639  1.00  0.00    -0.246 OA
BRANCH  24  26
ATOM     26  C   UNL A   1      37.626  29.214  28.395  1.00  0.00     0.060 A 
ATOM     27  C   UNL A   1      37.970  28.347  29.436  1.00  0.00     0.016 A 
ATOM     28  C   UNL A   1      38.499  29.470  27.325  1.00  0.00     0.016 A 
ATOM     29  C   UNL A   1      39.253  27.826  29.459  1.00  0.00     0.010 A 
ATOM     30  C   UNL A   1      39.755  28.941  27.337  1.00  0.00     0.010 A 
ATOM     31  C   UNL A   1      40.141  28.194  28.443  1.00  0.00    -0.014 A 
BRANCH  31  32
ATOM     32  C   UNL A   1      41.528  27.797  28.504  1.00  0.00     0.031 A 
ATOM     33  C   UNL A   1      41.826  26.529  27.793  1.00  0.00     0.074 A 
ATOM     34  C   UNL A   1      42.453  28.661  28.970  1.00  0.00     0.049 A 
ATOM     35  N   UNL A   1      42.265  25.426  28.297  1.00  0.00    -0.248 NA
ATOM     36  C   UNL A   1      41.443  26.418  26.375  1.00  0.00     0.031 C 
ATOM     37  C   UNL A   1      42.276  30.051  29.407  1.00  0.00     0.029 A 
ATOM     38  N   UNL A   1      43.795  28.504  29.043  1.00  0.00    -0.354 N 
ATOM     39  C   UNL A   1      42.432  24.554  27.225  1.00  0.00     0.074 A 
ATOM     40  C   UNL A   1      41.733  25.143  26.114  1.00  0.00     0.031 C 
ATOM     41  C   UNL A   1      43.481  30.664  29.464  1.00  0.00     0.029 A 
ATOM     42  C   UNL A   1      44.519  29.680  29.209  1.00  0.00     0.049 A 
ATOM     43  H   UNL A   1      44.227  27.621  28.982  1.00  0.00     0.167 HD
ATOM     44  C   UNL A   1      43.327  23.530  27.281  1.00  0.00     0.034 A 
ATOM     45  C   UNL A   1      45.868  29.816  29.077  1.00  0.00     0.034 A 
ATOM     46  C   UNL A   1      43.719  23.258  28.644  1.00  0.00     0.049 A 
ATOM     47  C   UNL A   1      46.430  28.447  29.262  1.00  0.00     0.074 A 
ATOM     48  C   UNL A   1      43.031  22.864  29.776  1.00  0.00     0.029 A 
ATOM     49  N   UNL A   1      44.894  23.813  29.102  1.00  0.00    -0.354 N 
ATOM     50  N   UNL A   1      46.308  27.772  30.376  1.00  0.00    -0.248 NA
ATOM     51  C   UNL A   1      46.643  27.640  28.069  1.00  0.00     0.031 C 
ATOM     52  C   UNL A   1      43.569  23.668  30.825  1.00  0.00     0.029 A 
ATOM     53  C   UNL A   1      44.613  24.432  30.298  1.00  0.00     0.049 A 
ATOM     54  H   UNL A   1      45.771  23.774  28.656  1.00  0.00     0.167 HD
ATOM     55  C   UNL A   1      46.007  26.476  29.983  1.00  0.00     0.074 A 
ATOM     56  C   UNL A   1      46.296  26.440  28.548  1.00  0.00     0.031 C 
ATOM     57  C   UNL A   1      45.270  25.637  30.773  1.00  0.00     0.034 A 
BRANCH  44  58
ATOM     58  C   UNL A   1      44.086  22.992  26.096  1.00  0.00     0.023 A 
ATOM     59  C   UNL A   1      43.856  21.659  25.711  1.00  0.00     0.031 A 
ATOM     60  C   UNL A   1      45.202  23.625  25.500  1.00  0.00     0.131 A 
ATOM     61  C   UNL A   1      44.733  21.002  24.827  1.00  0.00     0.055 A 
ATOM     62  C   UNL A   1      46.035  22.988  24.577  1.00  0.00     0.041 A 
ATOM     63  F   UNL A   1      45.603  24.854  25.847  1.00  0.00    -0.206 F 
ATOM     64  C   UNL A   1      45.819  21.661  24.254  1.00  0.00     0.022 A 
BRANCH  61  65
ATOM     65  S   UNL A   1      44.509  19.228  24.540  1.00  0.00     0.124 S 
ATOM     66  O   UNL A   1      45.512  18.652  25.428  1.00  0.00    -0.237 OA
ATOM     67  O   UNL A   1      43.116  19.033  24.928  1.00  0.00    -0.237 OA
ATOM     68  O   UNL A   1      44.782  19.077  23.112  1.00  0.00    -0.744 OA
ENDBRANCH  61  65
ENDBRANCH  44  58
BRANCH  45  69
ATOM     69  C   UNL A   1      46.598  30.927  28.389  1.00  0.00     0.023 A 
ATOM     70  C   UNL A   1      45.997  31.725  27.388  1.00  0.00     0.031 A 
ATOM     71  C   UNL A   1      47.836  31.390  28.894  1.00  0.00     0.131 A 
ATOM     72  C   UNL A   1      46.622  32.917  26.945  1.00  0.00     0.055 A 
ATOM     73  C   UNL A   1      48.448  32.567  28.453  1.00  0.00     0.041 A 
ATOM     74  F   UNL A   1      48.458  30.762  29.902  1.00  0.00    -0.206 F 
ATOM     75  C   UNL A   1      47.837  33.344  27.484  1.00  0.00     0.022 A 
BRANCH  72  76
ATOM     76  S   UNL A   1      45.805  34.008  25.732  1.00  0.00     0.124 S 
ATOM     77  O   UNL A   1      46.944  34.587  25.027  1.00  0.00    -0.237 OA
ATOM     78  O   UNL A   1      44.978  33.077  24.972  1.00  0.00    -0.237 OA
ATOM     79  O   UNL A   1      45.057  34.946  26.569  1.00  0.00    -0.744 OA
ENDBRANCH  72  76
ENDBRANCH  45  69
BRANCH  57  80
ATOM     80  C   UNL A   1      44.943  26.068  32.193  1.00  0.00     0.023 A 
ATOM     81  C   UNL A   1      43.799  26.810  32.580  1.00  0.00     0.031 A 
ATOM     82  C   UNL A   1      45.750  25.539  33.214  1.00  0.00     0.131 A 
ATOM     83  C   UNL A   1      43.506  26.991  33.950  1.00  0.00     0.055 A 
ATOM     84  C   UNL A   1      45.445  25.704  34.565  1.00  0.00     0.041 A 
ATOM     85  F   UNL A   1      46.828  24.798  32.910  1.00  0.00    -0.206 F 
ATOM     86  C   UNL A   1      44.321  26.431  34.938  1.00  0.00     0.022 A 
BRANCH  83  87
ATOM     87  S   UNL A   1      42.032  27.933  34.478  1.00  0.00     0.124 S 
ATOM     88  O   UNL A   1      42.020  29.072  33.566  1.00  0.00    -0.237 OA
ATOM     89  O   UNL A   1      40.952  26.964  34.310  1.00  0.00    -0.237 OA
ATOM     90  O   UNL A   1      42.325  28.275  35.871  1.00  0.00    -0.744 OA
ENDBRANCH  83  87
ENDBRANCH  57  80
ENDBRANCH  31  32
ENDBRANCH  24  26
ENDBRANCH  23  24
ENDBRANCH  22  23
ENDBRANCH   1  22
TORSDOF 17
ENDMDL
MODEL 3
REMARK VINA RESULT:     -11.4      4.523     10.251
REMARK SMILES Cc1nsc(N(C)C(=O)c2ccc(F)cc2)c1C(=O)OCCOC(=O)c1ccc(-c2c3nc(c(-c4cc(S(=O)(=O)[O-])ccc4F)c4ccc([nH]4)c(-c4cc(S(=O)(=O)[O-])ccc4F)c4nc(c(-c5cc(S(=O)(=O)[O-])ccc5F)c5ccc2[nH]5)C=C4)C=C3)cc1
REMARK SMILES IDX 21 1 20 2 18 3 19 4 17 5 1 6 2 7 3 8 4 9 5 10 6 11 7 12 8 13
REMARK SMILES IDX 9 14 10 15 11 16 16 17 12 18 15 19 13 20 14 21 22 22 23 23
REMARK SMILES IDX 24 24 25 25 26 26 27 27 88 28 28 29 87 30 29 31 30 32 31 33
REMARK SMILES IDX 81 34 32 35 86 36 80 37 82 38 33 39 85 40 79 41 78 42 34 44
REMARK SMILES IDX 66 45 46 46 65 47 47 48 50 49 64 50 83 51 48 52 49 53 63 55
REMARK SMILES IDX 84 56 51 57 35 58 36 59 44 60 37 61 43 62 45 63 42 64 38 65
REMARK SMILES IDX 39 66 40 67 41 68 67 69 68 70 76 71 69 72 75 73 77 74 74 75
REMARK SMILES IDX 70 76 71 77 72 78 73 79 52 80 53 81 61 82 54 83 60 84 62 85
REMARK SMILES IDX 59 86 55 87 56 88 57 89 58 90
REMARK H PARENT 82 43 50 54
REMARK Flexibility Score: inf
ROOT
ATOM      1  C   UNL A   1      33.314  29.875  27.134  1.00  0.00     0.275 C 
ENDROOT
BRANCH   1   2
ATOM      2  O   UNL A   1      32.988  30.080  25.757  1.00  0.00    -0.458 OA
BRANCH   2   3
ATOM      3  C   UNL A   1      31.689  30.356  25.449  1.00  0.00     0.343 C 
ATOM      4  O   UNL A   1      31.034  31.249  25.980  1.00  0.00    -0.246 OA
BRANCH   3   5
ATOM      5  C   UNL A   1      31.137  29.350  24.554  1.00  0.00     0.117 A 
ATOM      6  C   UNL A   1      29.248  30.953  23.645  1.00  0.00     0.069 C 
ATOM      7  C   UNL A   1      30.022  29.675  23.671  1.00  0.00     0.068 A 
ATOM      8  N   UNL A   1      29.663  28.740  22.801  1.00  0.00    -0.195 NA
ATOM      9  S   UNL A   1      30.522  27.388  23.108  1.00  0.00    -0.017 S 
ATOM     10  C   UNL A   1      31.479  27.993  24.424  1.00  0.00     0.133 A 
BRANCH  10  11
ATOM     11  N   UNL A   1      32.322  27.029  25.089  1.00  0.00    -0.301 N 
ATOM     12  C   UNL A   1      33.706  26.795  24.637  1.00  0.00     0.154 C 
BRANCH  11  13
ATOM     13  C   UNL A   1      31.722  26.128  26.004  1.00  0.00     0.258 C 
ATOM     14  O   UNL A   1      30.940  26.452  26.896  1.00  0.00    -0.269 OA
BRANCH  13  15
ATOM     15  C   UNL A   1      31.890  24.639  25.890  1.00  0.00     0.040 A 
ATOM     16  C   UNL A   1      32.683  23.850  26.730  1.00  0.00     0.017 A 
ATOM     17  C   UNL A   1      31.081  23.989  24.940  1.00  0.00     0.017 A 
ATOM     18  C   UNL A   1      32.760  22.463  26.532  1.00  0.00     0.040 A 
ATOM     19  C   UNL A   1      31.133  22.606  24.759  1.00  0.00     0.040 A 
ATOM     20  C   UNL A   1      31.991  21.856  25.544  1.00  0.00     0.123 A 
ATOM     21  F   UNL A   1      32.049  20.528  25.379  1.00  0.00    -0.207 F 
ENDBRANCH  13  15
ENDBRANCH  11  13
ENDBRANCH  10  11
ENDBRANCH   3   5
ENDBRANCH   2   3
ENDBRANCH   1   2
BRANCH   1  22
ATOM     22  C   UNL A   1      34.761  30.296  27.323  1.00  0.00     0.275 C 
BRANCH  22  23
ATOM     23  O   UNL A   1      35.397  29.426  28.251  1.00  0.00    -0.458 OA
BRANCH  23  24
ATOM     24  C   UNL A   1      36.370  29.969  29.020  1.00  0.00     0.338 C 
ATOM     25  O   UNL A   1      36.339  31.009  29.648  1.00  0.00    -0.246 OA
BRANCH  24  26
ATOM     26  C   UNL A   1      37.574  29.158  28.811  1.00  0.00     0.060 A 
ATOM     27  C   UNL A   1      38.007  28.284  29.811  1.00  0.00     0.016 A 
ATOM     28  C   UNL A   1      38.357  29.431  27.676  1.00  0.00     0.016 A 
ATOM     29  C   UNL A   1      39.291  27.772  29.726  1.00  0.00     0.010 A 
ATOM     30  C   UNL A   1      39.614  28.911  27.582  1.00  0.00     0.010 A 
ATOM     31  C   UNL A   1      40.092  28.157  28.646  1.00  0.00    -0.014 A 
BRANCH  31  32
ATOM     32  C   UNL A   1      41.482  27.770  28.591  1.00  0.00     0.031 A 
ATOM     33  C   UNL A   1      41.729  26.501  27.862  1.00  0.00     0.074 A 
ATOM     34  C   UNL A   1      42.437  28.642  28.976  1.00  0.00     0.049 A 
ATOM     35  N   UNL A   1      42.217  25.404  28.330  1.00  0.00    -0.248 NA
ATOM     36  C   UNL A   1      41.229  26.382  26.481  1.00  0.00     0.031 C 
ATOM     37  C   UNL A   1      42.286  30.032  29.421  1.00  0.00     0.029 A 
ATOM     38  N   UNL A   1      43.781  28.495  28.936  1.00  0.00    -0.354 N 
ATOM     39  C   UNL A   1      42.300  24.529  27.251  1.00  0.00     0.074 A 
ATOM     40  C   UNL A   1      41.506  25.108  26.201  1.00  0.00     0.031 C 
ATOM     41  C   UNL A   1      43.488  30.654  29.375  1.00  0.00     0.029 A 
ATOM     42  C   UNL A   1      44.508  29.677  29.037  1.00  0.00     0.049 A 
ATOM     43  H   UNL A   1      44.214  27.615  28.841  1.00  0.00     0.167 HD
ATOM     44  C   UNL A   1      43.204  23.511  27.235  1.00  0.00     0.034 A 
ATOM     45  C   UNL A   1      45.840  29.822  28.791  1.00  0.00     0.034 A 
ATOM     46  C   UNL A   1      43.711  23.248  28.561  1.00  0.00     0.049 A 
ATOM     47  C   UNL A   1      46.426  28.458  28.933  1.00  0.00     0.074 A 
ATOM     48  C   UNL A   1      43.123  22.852  29.748  1.00  0.00     0.029 A 
ATOM     49  N   UNL A   1      44.916  23.812  28.917  1.00  0.00    -0.354 N 
ATOM     50  N   UNL A   1      46.402  27.786  30.056  1.00  0.00    -0.248 NA
ATOM     51  C   UNL A   1      46.543  27.647  27.729  1.00  0.00     0.031 C 
ATOM     52  C   UNL A   1      43.741  23.664  30.746  1.00  0.00     0.029 A 
ATOM     53  C   UNL A   1      44.732  24.434  30.131  1.00  0.00     0.049 A 
ATOM     54  H   UNL A   1      45.752  23.777  28.400  1.00  0.00     0.167 HD
ATOM     55  C   UNL A   1      46.079  26.486  29.694  1.00  0.00     0.074 A 
ATOM     56  C   UNL A   1      46.247  26.447  28.239  1.00  0.00     0.031 C 
ATOM     57  C   UNL A   1      45.417  25.645  30.545  1.00  0.00     0.034 A 
BRANCH  44  58
ATOM     58  C   UNL A   1      43.865  22.974  25.992  1.00  0.00     0.023 A 
ATOM     59  C   UNL A   1      43.789  21.592  25.745  1.00  0.00     0.031 A 
ATOM     60  C   UNL A   1      44.778  23.697  25.189  1.00  0.00     0.131 A 
ATOM     61  C   UNL A   1      44.624  20.982  24.790  1.00  0.00     0.055 A 
ATOM     62  C   UNL A   1      45.563  23.098  24.201  1.00  0.00     0.041 A 
ATOM     63  F   UNL A   1      45.032  24.998  25.380  1.00  0.00    -0.206 F 
ATOM     64  C   UNL A   1      45.508  21.729  24.013  1.00  0.00     0.022 A 
BRANCH  61  65
ATOM     65  S   UNL A   1      44.635  19.175  24.671  1.00  0.00     0.124 S 
ATOM     66  O   UNL A   1      43.401  18.822  25.364  1.00  0.00    -0.237 OA
ATOM     67  O   UNL A   1      44.644  18.969  23.227  1.00  0.00    -0.237 OA
ATOM     68  O   UNL A   1      45.866  18.796  25.360  1.00  0.00    -0.744 OA
ENDBRANCH  61  65
ENDBRANCH  44  58
BRANCH  45  69
ATOM     69  C   UNL A   1      46.502  30.935  28.042  1.00  0.00     0.023 A 
ATOM     70  C   UNL A   1      45.798  31.762  27.133  1.00  0.00     0.031 A 
ATOM     71  C   UNL A   1      47.798  31.370  28.403  1.00  0.00     0.131 A 
ATOM     72  C   UNL A   1      46.387  32.953  26.641  1.00  0.00     0.055 A 
ATOM     73  C   UNL A   1      48.373  32.547  27.913  1.00  0.00     0.041 A 
ATOM     74  F   UNL A   1      48.526  30.713  29.318  1.00  0.00    -0.206 F 
ATOM     75  C   UNL A   1      47.665  33.351  27.038  1.00  0.00     0.022 A 
BRANCH  72  76
ATOM     76  S   UNL A   1      45.449  34.079  25.554  1.00  0.00     0.124 S 
ATOM     77  O   UNL A   1      44.669  34.851  26.515  1.00  0.00    -0.237 OA
ATOM     78  O   UNL A   1      46.506  34.798  24.851  1.00  0.00    -0.237 OA
ATOM     79  O   UNL A   1      44.668  33.169  24.716  1.00  0.00    -0.744 OA
ENDBRANCH  72  76
ENDBRANCH  45  69
BRANCH  57  80
ATOM     80  C   UNL A   1      45.208  26.079  31.985  1.00  0.00     0.023 A 
ATOM     81  C   UNL A   1      44.006  26.613  32.513  1.00  0.00     0.031 A 
ATOM     82  C   UNL A   1      46.231  25.762  32.895  1.00  0.00     0.131 A 
ATOM     83  C   UNL A   1      43.869  26.806  33.906  1.00  0.00     0.055 A 
ATOM     84  C   UNL A   1      46.084  25.936  34.271  1.00  0.00     0.041 A 
ATOM     85  F   UNL A   1      47.380  25.220  32.459  1.00  0.00    -0.206 F 
ATOM     86  C   UNL A   1      44.902  26.458  34.782  1.00  0.00     0.022 A 
BRANCH  83  87
ATOM     87  S   UNL A   1      42.327  27.482  34.614  1.00  0.00     0.124 S 
ATOM     88  O   UNL A   1      41.624  28.002  33.446  1.00  0.00    -0.237 OA
ATOM     89  O   UNL A   1      41.729  26.316  35.258  1.00  0.00    -0.237 OA
ATOM     90  O   UNL A   1      42.799  28.509  35.545  1.00  0.00    -0.744 OA
ENDBRANCH  83  87
ENDBRANCH  57  80
ENDBRANCH  31  32
ENDBRANCH  24  26
ENDBRANCH  23  24
ENDBRANCH  22  23
ENDBRANCH   1  22
TORSDOF 17
ENDMDL
