MODEL 1
REMARK VINA RESULT:     -11.2      0.000      0.000
REMARK SMILES O=C(Cc1ccn[nH]1)Nc1sc2c(c1C(=O)OCCOC(=O)c1ccc(-c3c4nc(c(-c5cc(S(=O)(=O)[O-])ccc5F)c5ccc([nH]5)c(-c5cc(S(=O)(=O)[O-])ccc5F)c5nc(c(-c6cc(S(=O)(=O)[O-])ccc6F)c6ccc3[nH]6)C=C5)C=C4)cc1)CCC2
REMARK SMILES IDX 18 1 17 2 15 3 16 4 14 5 10 6 11 7 12 8 13 9 88 10 86 11
REMARK SMILES IDX 87 12 9 13 1 14 2 15 3 17 4 18 5 19 8 20 6 21 7 22 19 24
REMARK SMILES IDX 20 25 21 26 22 27 23 28 24 29 85 30 25 31 84 32 26 33 27 34
REMARK SMILES IDX 28 35 78 36 29 37 83 38 77 39 79 40 30 41 82 42 76 43 75 44
REMARK SMILES IDX 31 46 63 47 43 48 62 49 44 50 47 51 61 52 80 53 45 54 46 55
REMARK SMILES IDX 60 57 81 58 48 59 32 60 33 61 41 62 34 63 40 64 42 65 39 66
REMARK SMILES IDX 35 67 36 68 37 69 38 70 64 71 65 72 73 73 66 74 72 75 74 76
REMARK SMILES IDX 71 77 67 78 68 79 69 80 70 81 49 82 50 83 58 84 51 85 57 86
REMARK SMILES IDX 59 87 56 88 52 89 53 90 54 91 55 92
REMARK H PARENT 9 16 8 23 79 45 47 56
REMARK Flexibility Score: inf
ROOT
ATOM      1  C   UNL A   1      41.449  22.460  27.901  1.00  0.00     0.275 C 
ENDROOT
BRANCH   1   2
ATOM      2  O   UNL A   1      42.864  22.225  27.759  1.00  0.00    -0.458 OA
BRANCH   2   3
ATOM      3  C   UNL A   1      43.714  23.078  28.414  1.00  0.00     0.341 C 
ATOM      4  O   UNL A   1      43.803  23.136  29.641  1.00  0.00    -0.246 OA
BRANCH   3   5
ATOM      5  C   UNL A   1      44.442  23.973  27.514  1.00  0.00     0.098 A 
ATOM      6  C   UNL A   1      45.241  23.554  26.452  1.00  0.00     0.110 A 
ATOM      7  S   UNL A   1      46.167  24.805  25.731  1.00  0.00    -0.122 S 
ATOM      8  C   UNL A   1      45.352  25.937  26.648  1.00  0.00     0.011 A 
ATOM      9  C   UNL A   1      44.471  25.399  27.547  1.00  0.00    -0.017 A 
ATOM     10  C   UNL A   1      45.419  27.414  26.665  1.00  0.00     0.047 C 
ATOM     11  C   UNL A   1      43.793  26.467  28.326  1.00  0.00     0.038 C 
ATOM     12  C   UNL A   1      44.174  27.759  27.536  1.00  0.00     0.010 C 
BRANCH   6  13
ATOM     13  N   UNL A   1      45.418  22.303  25.899  1.00  0.00    -0.317 N 
ATOM     14  O   UNL A   1      43.812  22.687  24.280  1.00  0.00    -0.274 OA
ATOM     15  C   UNL A   1      44.617  21.936  24.823  1.00  0.00     0.230 C 
ATOM     16  H   UNL A   1      46.094  21.684  26.259  1.00  0.00     0.170 HD
BRANCH  15  17
ATOM     17  C   UNL A   1      44.813  20.492  24.374  1.00  0.00     0.155 C 
BRANCH  17  18
ATOM     18  C   UNL A   1      43.918  19.571  25.129  1.00  0.00     0.044 A 
ATOM     19  C   UNL A   1      44.158  18.362  25.747  1.00  0.00     0.045 A 
ATOM     20  N   UNL A   1      42.596  19.837  25.351  1.00  0.00    -0.282 N 
ATOM     21  C   UNL A   1      42.923  17.996  26.313  1.00  0.00     0.135 A 
ATOM     22  N   UNL A   1      41.960  18.885  26.051  1.00  0.00    -0.184 NA
ATOM     23  H   UNL A   1      42.150  20.653  25.027  1.00  0.00     0.190 HD
ENDBRANCH  17  18
ENDBRANCH  15  17
ENDBRANCH   6  13
ENDBRANCH   3   5
ENDBRANCH   2   3
ENDBRANCH   1   2
BRANCH   1  24
ATOM     24  C   UNL A   1      40.728  22.722  26.577  1.00  0.00     0.275 C 
BRANCH  24  25
ATOM     25  O   UNL A   1      39.950  23.915  26.623  1.00  0.00    -0.458 OA
BRANCH  25  26
ATOM     26  C   UNL A   1      40.685  25.025  26.384  1.00  0.00     0.338 C 
ATOM     27  O   UNL A   1      41.663  25.100  25.660  1.00  0.00    -0.246 OA
BRANCH  26  28
ATOM     28  C   UNL A   1      40.207  26.145  27.190  1.00  0.00     0.060 A 
ATOM     29  C   UNL A   1      40.542  27.420  26.726  1.00  0.00     0.016 A 
ATOM     30  C   UNL A   1      39.666  25.935  28.464  1.00  0.00     0.016 A 
ATOM     31  C   UNL A   1      40.463  28.489  27.584  1.00  0.00     0.010 A 
ATOM     32  C   UNL A   1      39.614  27.000  29.334  1.00  0.00     0.010 A 
ATOM     33  C   UNL A   1      40.075  28.247  28.898  1.00  0.00    -0.014 A 
BRANCH  33  34
ATOM     34  C   UNL A   1      40.150  29.350  29.834  1.00  0.00     0.031 A 
ATOM     35  C   UNL A   1      38.907  30.171  29.884  1.00  0.00     0.074 A 
ATOM     36  C   UNL A   1      41.243  29.454  30.620  1.00  0.00     0.049 A 
ATOM     37  N   UNL A   1      38.780  31.452  29.784  1.00  0.00    -0.248 NA
ATOM     38  C   UNL A   1      37.612  29.458  29.896  1.00  0.00     0.031 C 
ATOM     39  C   UNL A   1      42.368  28.512  30.711  1.00  0.00     0.029 A 
ATOM     40  N   UNL A   1      41.537  30.346  31.600  1.00  0.00    -0.354 N 
ATOM     41  C   UNL A   1      37.424  31.720  29.964  1.00  0.00     0.074 A 
ATOM     42  C   UNL A   1      36.744  30.465  29.844  1.00  0.00     0.031 C 
ATOM     43  C   UNL A   1      43.052  28.737  31.855  1.00  0.00     0.029 A 
ATOM     44  C   UNL A   1      42.489  29.900  32.516  1.00  0.00     0.049 A 
ATOM     45  H   UNL A   1      41.114  31.233  31.659  1.00  0.00     0.167 HD
ATOM     46  C   UNL A   1      37.006  32.918  30.455  1.00  0.00     0.034 A 
ATOM     47  C   UNL A   1      42.702  30.383  33.773  1.00  0.00     0.034 A 
ATOM     48  C   UNL A   1      37.988  33.943  30.189  1.00  0.00     0.049 A 
ATOM     49  C   UNL A   1      42.062  31.727  33.818  1.00  0.00     0.074 A 
ATOM     50  C   UNL A   1      38.532  34.464  29.031  1.00  0.00     0.029 A 
ATOM     51  N   UNL A   1      38.847  34.311  31.202  1.00  0.00    -0.354 N 
ATOM     52  N   UNL A   1      42.477  32.737  33.098  1.00  0.00    -0.248 NA
ATOM     53  C   UNL A   1      40.662  31.792  34.224  1.00  0.00     0.031 C 
ATOM     54  C   UNL A   1      39.912  34.648  29.329  1.00  0.00     0.029 A 
ATOM     55  C   UNL A   1      40.115  34.328  30.674  1.00  0.00     0.049 A 
ATOM     56  H   UNL A   1      38.599  34.522  32.131  1.00  0.00     0.167 HD
ATOM     57  C   UNL A   1      41.323  33.338  32.615  1.00  0.00     0.074 A 
ATOM     58  C   UNL A   1      40.232  32.747  33.392  1.00  0.00     0.031 C 
ATOM     59  C   UNL A   1      41.314  34.027  31.434  1.00  0.00     0.034 A 
BRANCH  46  60
ATOM     60  C   UNL A   1      35.948  33.057  31.533  1.00  0.00     0.023 A 
ATOM     61  C   UNL A   1      34.806  33.807  31.195  1.00  0.00     0.031 A 
ATOM     62  C   UNL A   1      36.123  32.803  32.913  1.00  0.00     0.131 A 
ATOM     63  C   UNL A   1      34.013  34.404  32.188  1.00  0.00     0.055 A 
ATOM     64  C   UNL A   1      35.293  33.348  33.897  1.00  0.00     0.041 A 
ATOM     65  F   UNL A   1      37.138  32.084  33.402  1.00  0.00    -0.206 F 
ATOM     66  C   UNL A   1      34.256  34.192  33.540  1.00  0.00     0.022 A 
BRANCH  63  67
ATOM     67  S   UNL A   1      32.796  35.639  31.670  1.00  0.00     0.124 S 
ATOM     68  O   UNL A   1      31.672  35.321  32.543  1.00  0.00    -0.237 OA
ATOM     69  O   UNL A   1      33.499  36.886  31.951  1.00  0.00    -0.237 OA
ATOM     70  O   UNL A   1      32.594  35.341  30.254  1.00  0.00    -0.744 OA
ENDBRANCH  63  67
ENDBRANCH  46  60
BRANCH  47  71
ATOM     71  C   UNL A   1      43.005  29.553  34.984  1.00  0.00     0.023 A 
ATOM     72  C   UNL A   1      42.262  28.415  35.373  1.00  0.00     0.031 A 
ATOM     73  C   UNL A   1      44.209  29.784  35.694  1.00  0.00     0.131 A 
ATOM     74  C   UNL A   1      42.719  27.590  36.436  1.00  0.00     0.055 A 
ATOM     75  C   UNL A   1      44.649  28.974  36.744  1.00  0.00     0.041 A 
ATOM     76  F   UNL A   1      45.047  30.771  35.341  1.00  0.00    -0.206 F 
ATOM     77  C   UNL A   1      43.907  27.870  37.118  1.00  0.00     0.022 A 
BRANCH  74  78
ATOM     78  S   UNL A   1      41.797  26.094  36.932  1.00  0.00     0.124 S 
ATOM     79  O   UNL A   1      41.512  25.461  35.649  1.00  0.00    -0.237 OA
ATOM     80  O   UNL A   1      42.750  25.410  37.797  1.00  0.00    -0.237 OA
ATOM     81  O   UNL A   1      40.620  26.628  37.623  1.00  0.00    -0.744 OA
ENDBRANCH  74  78
ENDBRANCH  47  71
BRANCH  59  82
ATOM     82  C   UNL A   1      42.632  34.344  30.758  1.00  0.00     0.023 A 
ATOM     83  C   UNL A   1      43.171  33.651  29.649  1.00  0.00     0.031 A 
ATOM     84  C   UNL A   1      43.280  35.522  31.170  1.00  0.00     0.131 A 
ATOM     85  C   UNL A   1      44.319  34.153  28.998  1.00  0.00     0.055 A 
ATOM     86  C   UNL A   1      44.397  36.026  30.510  1.00  0.00     0.041 A 
ATOM     87  F   UNL A   1      42.799  36.237  32.201  1.00  0.00    -0.206 F 
ATOM     88  C   UNL A   1      44.923  35.342  29.422  1.00  0.00     0.022 A 
BRANCH  85  89
ATOM     89  S   UNL A   1      45.063  33.267  27.587  1.00  0.00     0.124 S 
ATOM     90  O   UNL A   1      44.028  33.330  26.563  1.00  0.00    -0.237 OA
ATOM     91  O   UNL A   1      46.273  34.042  27.326  1.00  0.00    -0.237 OA
ATOM     92  O   UNL A   1      45.308  31.924  28.120  1.00  0.00    -0.744 OA
ENDBRANCH  85  89
ENDBRANCH  59  82
ENDBRANCH  33  34
ENDBRANCH  26  28
ENDBRANCH  25  26
ENDBRANCH  24  25
ENDBRANCH   1  24
TORSDOF 17
ENDMDL
MODEL 2
REMARK VINA RESULT:     -11.1      5.504     12.305
REMARK SMILES O=C(Cc1ccn[nH]1)Nc1sc2c(c1C(=O)OCCOC(=O)c1ccc(-c3c4nc(c(-c5cc(S(=O)(=O)[O-])ccc5F)c5ccc([nH]5)c(-c5cc(S(=O)(=O)[O-])ccc5F)c5nc(c(-c6cc(S(=O)(=O)[O-])ccc6F)c6ccc3[nH]6)C=C5)C=C4)cc1)CCC2
REMARK SMILES IDX 18 1 17 2 15 3 16 4 14 5 10 6 11 7 12 8 13 9 88 10 86 11
REMARK SMILES IDX 87 12 9 13 1 14 2 15 3 17 4 18 5 19 8 20 6 21 7 22 19 24
REMARK SMILES IDX 20 25 21 26 22 27 23 28 24 29 85 30 25 31 84 32 26 33 27 34
REMARK SMILES IDX 28 35 78 36 29 37 83 38 77 39 79 40 30 41 82 42 76 43 75 44
REMARK SMILES IDX 31 46 63 47 43 48 62 49 44 50 47 51 61 52 80 53 45 54 46 55
REMARK SMILES IDX 60 57 81 58 48 59 32 60 33 61 41 62 34 63 40 64 42 65 39 66
REMARK SMILES IDX 35 67 36 68 37 69 38 70 64 71 65 72 73 73 66 74 72 75 74 76
REMARK SMILES IDX 71 77 67 78 68 79 69 80 70 81 49 82 50 83 58 84 51 85 57 86
REMARK SMILES IDX 59 87 56 88 52 89 53 90 54 91 55 92
REMARK H PARENT 9 16 8 23 79 45 47 56
REMARK Flexibility Score: inf
ROOT
ATOM      1  C   UNL A   1      34.318  29.019  27.044  1.00  0.00     0.275 C 
ENDROOT
BRANCH   1   2
ATOM      2  O   UNL A   1      33.827  29.055  25.690  1.00  0.00    -0.458 OA
BRANCH   2   3
ATOM      3  C   UNL A   1      32.734  28.282  25.394  1.00  0.00     0.341 C 
ATOM      4  O   UNL A   1      31.671  28.346  26.014  1.00  0.00    -0.246 OA
BRANCH   3   5
ATOM      5  C   UNL A   1      32.981  27.313  24.327  1.00  0.00     0.098 A 
ATOM      6  C   UNL A   1      32.566  27.463  23.006  1.00  0.00     0.110 A 
ATOM      7  S   UNL A   1      32.775  26.062  22.038  1.00  0.00    -0.122 S 
ATOM      8  C   UNL A   1      33.625  25.334  23.277  1.00  0.00     0.011 A 
ATOM      9  C   UNL A   1      33.677  26.071  24.429  1.00  0.00    -0.017 A 
ATOM     10  C   UNL A   1      34.322  24.032  23.351  1.00  0.00     0.047 C 
ATOM     11  C   UNL A   1      34.441  25.354  25.481  1.00  0.00     0.038 C 
ATOM     12  C   UNL A   1      35.116  24.195  24.682  1.00  0.00     0.010 C 
BRANCH   6  13
ATOM     13  N   UNL A   1      32.004  28.543  22.357  1.00  0.00    -0.317 N 
ATOM     14  O   UNL A   1      29.872  27.961  23.038  1.00  0.00    -0.274 OA
ATOM     15  C   UNL A   1      30.623  28.691  22.395  1.00  0.00     0.230 C 
ATOM     16  H   UNL A   1      32.568  29.194  21.879  1.00  0.00     0.170 HD
BRANCH  15  17
ATOM     17  C   UNL A   1      30.103  29.845  21.545  1.00  0.00     0.155 C 
BRANCH  17  18
ATOM     18  C   UNL A   1      29.164  30.702  22.321  1.00  0.00     0.044 A 
ATOM     19  C   UNL A   1      28.128  30.386  23.175  1.00  0.00     0.045 A 
ATOM     20  N   UNL A   1      29.219  32.068  22.305  1.00  0.00    -0.282 N 
ATOM     21  C   UNL A   1      27.637  31.628  23.620  1.00  0.00     0.135 A 
ATOM     22  N   UNL A   1      28.288  32.658  23.070  1.00  0.00    -0.184 NA
ATOM     23  H   UNL A   1      29.881  32.573  21.781  1.00  0.00     0.190 HD
ENDBRANCH  17  18
ENDBRANCH  15  17
ENDBRANCH   6  13
ENDBRANCH   3   5
ENDBRANCH   2   3
ENDBRANCH   1   2
BRANCH   1  24
ATOM     24  C   UNL A   1      34.606  30.399  27.636  1.00  0.00     0.275 C 
BRANCH  24  25
ATOM     25  O   UNL A   1      36.004  30.645  27.757  1.00  0.00    -0.458 OA
BRANCH  25  26
ATOM     26  C   UNL A   1      36.537  30.081  28.865  1.00  0.00     0.338 C 
ATOM     27  O   UNL A   1      36.200  30.296  30.017  1.00  0.00    -0.246 OA
BRANCH  26  28
ATOM     28  C   UNL A   1      37.664  29.219  28.517  1.00  0.00     0.060 A 
ATOM     29  C   UNL A   1      38.066  28.312  29.500  1.00  0.00     0.016 A 
ATOM     30  C   UNL A   1      38.431  29.467  27.372  1.00  0.00     0.016 A 
ATOM     31  C   UNL A   1      39.310  27.736  29.413  1.00  0.00     0.010 A 
ATOM     32  C   UNL A   1      39.689  28.914  27.298  1.00  0.00     0.010 A 
ATOM     33  C   UNL A   1      40.132  28.109  28.353  1.00  0.00    -0.014 A 
BRANCH  33  34
ATOM     34  C   UNL A   1      41.496  27.622  28.359  1.00  0.00     0.031 A 
ATOM     35  C   UNL A   1      41.646  26.272  27.746  1.00  0.00     0.074 A 
ATOM     36  C   UNL A   1      42.472  28.448  28.792  1.00  0.00     0.049 A 
ATOM     37  N   UNL A   1      42.232  25.226  28.227  1.00  0.00    -0.248 NA
ATOM     38  C   UNL A   1      40.916  26.002  26.489  1.00  0.00     0.031 C 
ATOM     39  C   UNL A   1      42.336  29.856  29.193  1.00  0.00     0.029 A 
ATOM     40  N   UNL A   1      43.815  28.263  28.850  1.00  0.00    -0.354 N 
ATOM     41  C   UNL A   1      42.152  24.250  27.235  1.00  0.00     0.074 A 
ATOM     42  C   UNL A   1      41.188  24.716  26.284  1.00  0.00     0.031 C 
ATOM     43  C   UNL A   1      43.551  30.447  29.182  1.00  0.00     0.029 A 
ATOM     44  C   UNL A   1      44.557  29.444  28.885  1.00  0.00     0.049 A 
ATOM     45  H   UNL A   1      44.231  27.371  28.867  1.00  0.00     0.167 HD
ATOM     46  C   UNL A   1      43.082  23.260  27.152  1.00  0.00     0.034 A 
ATOM     47  C   UNL A   1      45.876  29.590  28.569  1.00  0.00     0.034 A 
ATOM     48  C   UNL A   1      43.697  23.035  28.438  1.00  0.00     0.049 A 
ATOM     49  C   UNL A   1      46.471  28.226  28.618  1.00  0.00     0.074 A 
ATOM     50  C   UNL A   1      43.210  22.647  29.672  1.00  0.00     0.029 A 
ATOM     51  N   UNL A   1      44.934  23.590  28.685  1.00  0.00    -0.354 N 
ATOM     52  N   UNL A   1      46.563  27.530  29.722  1.00  0.00    -0.248 NA
ATOM     53  C   UNL A   1      46.449  27.438  27.391  1.00  0.00     0.031 C 
ATOM     54  C   UNL A   1      43.921  23.448  30.611  1.00  0.00     0.029 A 
ATOM     55  C   UNL A   1      44.869  24.202  29.913  1.00  0.00     0.049 A 
ATOM     56  H   UNL A   1      45.719  23.556  28.091  1.00  0.00     0.167 HD
ATOM     57  C   UNL A   1      46.195  26.239  29.369  1.00  0.00     0.074 A 
ATOM     58  C   UNL A   1      46.193  26.230  27.905  1.00  0.00     0.031 C 
ATOM     59  C   UNL A   1      45.632  25.382  30.274  1.00  0.00     0.034 A 
BRANCH  46  60
ATOM     60  C   UNL A   1      43.726  22.825  25.849  1.00  0.00     0.023 A 
ATOM     61  C   UNL A   1      43.882  21.439  25.661  1.00  0.00     0.031 A 
ATOM     62  C   UNL A   1      44.470  23.646  24.969  1.00  0.00     0.131 A 
ATOM     63  C   UNL A   1      44.850  20.933  24.779  1.00  0.00     0.055 A 
ATOM     64  C   UNL A   1      45.388  23.136  24.048  1.00  0.00     0.041 A 
ATOM     65  F   UNL A   1      44.417  24.982  24.994  1.00  0.00    -0.206 F 
ATOM     66  C   UNL A   1      45.616  21.773  23.979  1.00  0.00     0.022 A 
BRANCH  63  67
ATOM     67  S   UNL A   1      45.234  19.167  24.867  1.00  0.00     0.124 S 
ATOM     68  O   UNL A   1      43.969  18.619  25.345  1.00  0.00    -0.237 OA
ATOM     69  O   UNL A   1      45.586  18.870  23.483  1.00  0.00    -0.237 OA
ATOM     70  O   UNL A   1      46.341  19.109  25.819  1.00  0.00    -0.744 OA
ENDBRANCH  63  67
ENDBRANCH  46  60
BRANCH  47  71
ATOM     71  C   UNL A   1      46.465  30.740  27.809  1.00  0.00     0.023 A 
ATOM     72  C   UNL A   1      45.711  31.647  27.030  1.00  0.00     0.031 A 
ATOM     73  C   UNL A   1      47.826  31.077  28.015  1.00  0.00     0.131 A 
ATOM     74  C   UNL A   1      46.327  32.804  26.482  1.00  0.00     0.055 A 
ATOM     75  C   UNL A   1      48.427  32.212  27.466  1.00  0.00     0.041 A 
ATOM     76  F   UNL A   1      48.608  30.346  28.825  1.00  0.00    -0.206 F 
ATOM     77  C   UNL A   1      47.678  33.084  26.699  1.00  0.00     0.022 A 
BRANCH  74  78
ATOM     78  S   UNL A   1      45.365  34.010  25.503  1.00  0.00     0.124 S 
ATOM     79  O   UNL A   1      44.627  33.151  24.584  1.00  0.00    -0.237 OA
ATOM     80  O   UNL A   1      44.582  34.692  26.527  1.00  0.00    -0.237 OA
ATOM     81  O   UNL A   1      46.394  34.838  24.869  1.00  0.00    -0.744 OA
ENDBRANCH  74  78
ENDBRANCH  47  71
BRANCH  59  82
ATOM     82  C   UNL A   1      45.627  25.760  31.740  1.00  0.00     0.023 A 
ATOM     83  C   UNL A   1      44.478  26.096  32.495  1.00  0.00     0.031 A 
ATOM     84  C   UNL A   1      46.840  25.603  32.433  1.00  0.00     0.131 A 
ATOM     85  C   UNL A   1      44.580  26.257  33.894  1.00  0.00     0.055 A 
ATOM     86  C   UNL A   1      46.930  25.738  33.816  1.00  0.00     0.041 A 
ATOM     87  F   UNL A   1      47.958  25.258  31.773  1.00  0.00    -0.206 F 
ATOM     88  C   UNL A   1      45.799  26.068  34.552  1.00  0.00     0.022 A 
BRANCH  85  89
ATOM     89  S   UNL A   1      43.127  26.725  34.895  1.00  0.00     0.124 S 
ATOM     90  O   UNL A   1      42.464  25.452  35.147  1.00  0.00    -0.237 OA
ATOM     91  O   UNL A   1      43.734  27.373  36.054  1.00  0.00    -0.237 OA
ATOM     92  O   UNL A   1      42.386  27.631  34.014  1.00  0.00    -0.744 OA
ENDBRANCH  85  89
ENDBRANCH  59  82
ENDBRANCH  33  34
ENDBRANCH  26  28
ENDBRANCH  25  26
ENDBRANCH  24  25
ENDBRANCH   1  24
TORSDOF 17
ENDMDL
MODEL 3
REMARK VINA RESULT:     -11.1      4.003      5.512
REMARK SMILES O=C(Cc1ccn[nH]1)Nc1sc2c(c1C(=O)OCCOC(=O)c1ccc(-c3c4nc(c(-c5cc(S(=O)(=O)[O-])ccc5F)c5ccc([nH]5)c(-c5cc(S(=O)(=O)[O-])ccc5F)c5nc(c(-c6cc(S(=O)(=O)[O-])ccc6F)c6ccc3[nH]6)C=C5)C=C4)cc1)CCC2
REMARK SMILES IDX 18 1 17 2 15 3 16 4 14 5 10 6 11 7 12 8 13 9 88 10 86 11
REMARK SMILES IDX 87 12 9 13 1 14 2 15 3 17 4 18 5 19 8 20 6 21 7 22 19 24
REMARK SMILES IDX 20 25 21 26 22 27 23 28 24 29 85 30 25 31 84 32 26 33 27 34
REMARK SMILES IDX 28 35 78 36 29 37 83 38 77 39 79 40 30 41 82 42 76 43 75 44
REMARK SMILES IDX 31 46 63 47 43 48 62 49 44 50 47 51 61 52 80 53 45 54 46 55
REMARK SMILES IDX 60 57 81 58 48 59 32 60 33 61 41 62 34 63 40 64 42 65 39 66
REMARK SMILES IDX 35 67 36 68 37 69 38 70 64 71 65 72 73 73 66 74 72 75 74 76
REMARK SMILES IDX 71 77 67 78 68 79 69 80 70 81 49 82 50 83 58 84 51 85 57 86
REMARK SMILES IDX 59 87 56 88 52 89 53 90 54 91 55 92
REMARK H PARENT 9 16 8 23 79 45 47 56
REMARK Flexibility Score: inf
ROOT
ATOM      1  C   UNL A   1      37.271  23.950  25.895  1.00  0.00     0.275 C 
ENDROOT
BRANCH   1   2
ATOM      2  O   UNL A   1      36.069  23.173  26.067  1.00  0.00    -0.458 OA
BRANCH   2   3
ATOM      3  C   UNL A   1      35.081  23.322  25.128  1.00  0.00     0.341 C 
ATOM      4  O   UNL A   1      35.281  23.240  23.915  1.00  0.00    -0.246 OA
BRANCH   3   5
ATOM      5  C   UNL A   1      33.784  23.673  25.704  1.00  0.00     0.098 A 
ATOM      6  C   UNL A   1      32.850  22.755  26.179  1.00  0.00     0.110 A 
ATOM      7  S   UNL A   1      31.323  23.437  26.563  1.00  0.00    -0.122 S 
ATOM      8  C   UNL A   1      31.950  24.967  26.336  1.00  0.00     0.011 A 
ATOM      9  C   UNL A   1      33.243  24.981  25.889  1.00  0.00    -0.017 A 
ATOM     10  C   UNL A   1      31.352  26.306  26.524  1.00  0.00     0.047 C 
ATOM     11  C   UNL A   1      33.723  26.375  25.705  1.00  0.00     0.038 C 
ATOM     12  C   UNL A   1      32.614  27.214  26.414  1.00  0.00     0.010 C 
BRANCH   6  13
ATOM     13  N   UNL A   1      32.949  21.393  26.375  1.00  0.00    -0.317 N 
ATOM     14  O   UNL A   1      32.557  20.949  24.140  1.00  0.00    -0.274 OA
ATOM     15  C   UNL A   1      32.744  20.552  25.287  1.00  0.00     0.230 C 
ATOM     16  H   UNL A   1      33.158  21.025  27.264  1.00  0.00     0.170 HD
BRANCH  15  17
ATOM     17  C   UNL A   1      32.755  19.070  25.644  1.00  0.00     0.155 C 
BRANCH  17  18
ATOM     18  C   UNL A   1      33.153  18.240  24.473  1.00  0.00     0.044 A 
ATOM     19  C   UNL A   1      34.252  17.437  24.249  1.00  0.00     0.045 A 
ATOM     20  N   UNL A   1      32.391  18.137  23.342  1.00  0.00    -0.282 N 
ATOM     21  C   UNL A   1      34.047  16.895  22.967  1.00  0.00     0.135 A 
ATOM     22  N   UNL A   1      32.922  17.342  22.400  1.00  0.00    -0.184 NA
ATOM     23  H   UNL A   1      31.532  18.603  23.229  1.00  0.00     0.190 HD
ENDBRANCH  17  18
ENDBRANCH  15  17
ENDBRANCH   6  13
ENDBRANCH   3   5
ENDBRANCH   2   3
ENDBRANCH   1   2
BRANCH   1  24
ATOM     24  C   UNL A   1      38.556  23.178  26.196  1.00  0.00     0.275 C 
BRANCH  24  25
ATOM     25  O   UNL A   1      39.288  23.762  27.270  1.00  0.00    -0.458 OA
BRANCH  25  26
ATOM     26  C   UNL A   1      40.033  24.821  26.876  1.00  0.00     0.338 C 
ATOM     27  O   UNL A   1      40.935  24.803  26.055  1.00  0.00    -0.246 OA
BRANCH  26  28
ATOM     28  C   UNL A   1      39.678  26.015  27.638  1.00  0.00     0.060 A 
ATOM     29  C   UNL A   1      40.052  27.236  27.071  1.00  0.00     0.016 A 
ATOM     30  C   UNL A   1      39.218  25.916  28.956  1.00  0.00     0.016 A 
ATOM     31  C   UNL A   1      40.095  28.358  27.862  1.00  0.00     0.010 A 
ATOM     32  C   UNL A   1      39.288  27.033  29.757  1.00  0.00     0.010 A 
ATOM     33  C   UNL A   1      39.787  28.220  29.212  1.00  0.00    -0.014 A 
BRANCH  33  34
ATOM     34  C   UNL A   1      39.992  29.372  30.067  1.00  0.00     0.031 A 
ATOM     35  C   UNL A   1      38.784  30.233  30.199  1.00  0.00     0.074 A 
ATOM     36  C   UNL A   1      41.165  29.483  30.726  1.00  0.00     0.049 A 
ATOM     37  N   UNL A   1      38.680  31.511  30.038  1.00  0.00    -0.248 NA
ATOM     38  C   UNL A   1      37.479  29.565  30.390  1.00  0.00     0.031 C 
ATOM     39  C   UNL A   1      42.268  28.512  30.754  1.00  0.00     0.029 A 
ATOM     40  N   UNL A   1      41.586  30.419  31.615  1.00  0.00    -0.354 N 
ATOM     41  C   UNL A   1      37.358  31.832  30.343  1.00  0.00     0.074 A 
ATOM     42  C   UNL A   1      36.637  30.595  30.370  1.00  0.00     0.031 C 
ATOM     43  C   UNL A   1      43.077  28.779  31.803  1.00  0.00     0.029 A 
ATOM     44  C   UNL A   1      42.618  29.995  32.450  1.00  0.00     0.049 A 
ATOM     45  H   UNL A   1      41.195  31.321  31.665  1.00  0.00     0.167 HD
ATOM     46  C   UNL A   1      37.027  33.069  30.803  1.00  0.00     0.034 A 
ATOM     47  C   UNL A   1      42.978  30.541  33.647  1.00  0.00     0.034 A 
ATOM     48  C   UNL A   1      38.002  34.045  30.376  1.00  0.00     0.049 A 
ATOM     49  C   UNL A   1      42.382  31.905  33.679  1.00  0.00     0.074 A 
ATOM     50  C   UNL A   1      38.432  34.482  29.137  1.00  0.00     0.029 A 
ATOM     51  N   UNL A   1      38.974  34.441  31.268  1.00  0.00    -0.354 N 
ATOM     52  N   UNL A   1      42.744  32.859  32.860  1.00  0.00    -0.248 NA
ATOM     53  C   UNL A   1      41.036  32.038  34.226  1.00  0.00     0.031 C 
ATOM     54  C   UNL A   1      39.841  34.637  29.277  1.00  0.00     0.029 A 
ATOM     55  C   UNL A   1      40.179  34.388  30.610  1.00  0.00     0.049 A 
ATOM     56  H   UNL A   1      38.832  34.712  32.204  1.00  0.00     0.167 HD
ATOM     57  C   UNL A   1      41.560  33.469  32.467  1.00  0.00     0.074 A 
ATOM     58  C   UNL A   1      40.544  32.959  33.389  1.00  0.00     0.031 C 
ATOM     59  C   UNL A   1      41.443  34.091  31.255  1.00  0.00     0.034 A 
BRANCH  46  60
ATOM     60  C   UNL A   1      36.095  33.302  31.977  1.00  0.00     0.023 A 
ATOM     61  C   UNL A   1      34.957  34.090  31.724  1.00  0.00     0.031 A 
ATOM     62  C   UNL A   1      36.403  33.099  33.343  1.00  0.00     0.131 A 
ATOM     63  C   UNL A   1      34.299  34.765  32.764  1.00  0.00     0.055 A 
ATOM     64  C   UNL A   1      35.705  33.723  34.380  1.00  0.00     0.041 A 
ATOM     65  F   UNL A   1      37.433  32.354  33.758  1.00  0.00    -0.206 F 
ATOM     66  C   UNL A   1      34.673  34.599  34.092  1.00  0.00     0.022 A 
BRANCH  63  67
ATOM     67  S   UNL A   1      33.088  36.034  32.317  1.00  0.00     0.124 S 
ATOM     68  O   UNL A   1      33.396  37.081  33.285  1.00  0.00    -0.237 OA
ATOM     69  O   UNL A   1      33.443  36.310  30.930  1.00  0.00    -0.237 OA
ATOM     70  O   UNL A   1      31.806  35.360  32.512  1.00  0.00    -0.744 OA
ENDBRANCH  63  67
ENDBRANCH  46  60
BRANCH  47  71
ATOM     71  C   UNL A   1      43.387  29.770  34.866  1.00  0.00     0.023 A 
ATOM     72  C   UNL A   1      42.654  28.690  35.406  1.00  0.00     0.031 A 
ATOM     73  C   UNL A   1      44.672  29.992  35.422  1.00  0.00     0.131 A 
ATOM     74  C   UNL A   1      43.199  27.910  36.461  1.00  0.00     0.055 A 
ATOM     75  C   UNL A   1      45.199  29.226  36.464  1.00  0.00     0.041 A 
ATOM     76  F   UNL A   1      45.498  30.920  34.916  1.00  0.00    -0.206 F 
ATOM     77  C   UNL A   1      44.466  28.178  36.987  1.00  0.00     0.022 A 
BRANCH  74  78
ATOM     78  S   UNL A   1      42.287  26.485  37.149  1.00  0.00     0.124 S 
ATOM     79  O   UNL A   1      40.933  27.011  37.278  1.00  0.00    -0.237 OA
ATOM     80  O   UNL A   1      42.492  25.460  36.133  1.00  0.00    -0.237 OA
ATOM     81  O   UNL A   1      42.963  26.225  38.423  1.00  0.00    -0.744 OA
ENDBRANCH  74  78
ENDBRANCH  47  71
BRANCH  59  82
ATOM     82  C   UNL A   1      42.689  34.326  30.426  1.00  0.00     0.023 A 
ATOM     83  C   UNL A   1      43.100  33.540  29.324  1.00  0.00     0.031 A 
ATOM     84  C   UNL A   1      43.394  35.516  30.679  1.00  0.00     0.131 A 
ATOM     85  C   UNL A   1      44.183  33.966  28.523  1.00  0.00     0.055 A 
ATOM     86  C   UNL A   1      44.445  35.944  29.872  1.00  0.00     0.041 A 
ATOM     87  F   UNL A   1      43.033  36.317  31.695  1.00  0.00    -0.206 F 
ATOM     88  C   UNL A   1      44.845  35.168  28.791  1.00  0.00     0.022 A 
BRANCH  85  89
ATOM     89  S   UNL A   1      44.763  32.960  27.116  1.00  0.00     0.124 S 
ATOM     90  O   UNL A   1      44.671  31.594  27.614  1.00  0.00    -0.237 OA
ATOM     91  O   UNL A   1      43.825  33.323  26.057  1.00  0.00    -0.237 OA
ATOM     92  O   UNL A   1      46.132  33.436  26.900  1.00  0.00    -0.744 OA
ENDBRANCH  85  89
ENDBRANCH  59  82
ENDBRANCH  33  34
ENDBRANCH  26  28
ENDBRANCH  25  26
ENDBRANCH  24  25
ENDBRANCH   1  24
TORSDOF 17
ENDMDL
