MODEL 1
REMARK VINA RESULT:     -12.5      0.000      0.000
REMARK SMILES Cc1ccccc1NC(=O)NC[C@@H]1CC[C@@H](C(=O)OCCOC(=O)c2ccc(-c3c4nc(c(-c5cc(S(=O)(=O)[O-])ccc5F)c5ccc([nH]5)c(-c5cc(S(=O)(=O)[O-])ccc5F)c5nc(c(-c6cc(S(=O)(=O)[O-])ccc6F)c6ccc3[nH]6)C=C5)C=C4)cc2)O1
REMARK SMILES IDX 20 1 19 2 17 3 18 4 16 5 13 6 14 7 88 8 15 9 12 10 11 11
REMARK SMILES IDX 8 12 9 13 10 15 7 17 1 18 2 19 3 20 4 21 6 22 5 23 21 24
REMARK SMILES IDX 22 25 23 26 24 27 25 28 26 29 87 30 27 31 86 32 28 33 29 34
REMARK SMILES IDX 30 35 80 36 31 37 85 38 79 39 81 40 32 41 84 42 78 43 77 44
REMARK SMILES IDX 33 46 65 47 45 48 64 49 46 50 49 51 63 52 82 53 47 54 48 55
REMARK SMILES IDX 62 57 83 58 50 59 34 60 35 61 43 62 36 63 42 64 44 65 41 66
REMARK SMILES IDX 37 67 38 68 39 69 40 70 66 71 67 72 75 73 68 74 74 75 76 76
REMARK SMILES IDX 73 77 69 78 70 79 71 80 72 81 51 82 52 83 60 84 53 85 59 86
REMARK SMILES IDX 61 87 58 88 54 89 55 90 56 91 57 92
REMARK H PARENT 8 14 11 16 81 45 49 56
REMARK Flexibility Score: inf
ROOT
ATOM      1  C   UNL A   1      37.700  22.202  25.448  1.00  0.00     0.274 C 
ENDROOT
BRANCH   1   2
ATOM      2  O   UNL A   1      36.289  22.113  25.630  1.00  0.00    -0.460 OA
BRANCH   2   3
ATOM      3  C   UNL A   1      35.777  20.875  25.412  1.00  0.00     0.335 C 
ATOM      4  O   UNL A   1      36.442  19.895  25.094  1.00  0.00    -0.249 OA
BRANCH   3   5
ATOM      5  C   UNL A   1      34.250  20.880  25.472  1.00  0.00     0.228 C 
ATOM      6  C   UNL A   1      32.648  21.825  24.014  1.00  0.00     0.138 C 
ATOM      7  C   UNL A   1      32.441  20.318  24.088  1.00  0.00     0.037 C 
ATOM      8  O   UNL A   1      33.574  22.074  25.082  1.00  0.00    -0.361 OA
ATOM      9  C   UNL A   1      33.761  19.787  24.559  1.00  0.00     0.047 C 
BRANCH   6  10
ATOM     10  C   UNL A   1      31.381  22.710  24.209  1.00  0.00     0.149 C 
BRANCH  10  11
ATOM     11  N   UNL A   1      30.919  22.841  25.601  1.00  0.00    -0.335 N 
ATOM     12  N   UNL A   1      29.945  24.948  26.315  1.00  0.00    -0.308 N 
ATOM     13  C   UNL A   1      30.281  23.658  26.433  1.00  0.00     0.319 C 
ATOM     14  H   UNL A   1      29.453  25.234  27.118  1.00  0.00     0.171 HD
ATOM     15  O   UNL A   1      29.943  23.148  27.515  1.00  0.00    -0.249 OA
ATOM     16  H   UNL A   1      31.178  22.030  26.095  1.00  0.00     0.165 HD
BRANCH  12  17
ATOM     17  C   UNL A   1      30.060  26.029  25.425  1.00  0.00     0.045 A 
ATOM     18  C   UNL A   1      32.277  26.862  26.465  1.00  0.00     0.046 C 
ATOM     19  C   UNL A   1      31.128  26.947  25.497  1.00  0.00    -0.027 A 
ATOM     20  C   UNL A   1      31.191  28.017  24.567  1.00  0.00     0.005 A 
ATOM     21  C   UNL A   1      30.228  28.188  23.579  1.00  0.00     0.000 A 
ATOM     22  C   UNL A   1      29.130  26.249  24.435  1.00  0.00     0.026 A 
ATOM     23  C   UNL A   1      29.189  27.290  23.511  1.00  0.00     0.002 A 
ENDBRANCH  12  17
ENDBRANCH  10  11
ENDBRANCH   6  10
ENDBRANCH   3   5
ENDBRANCH   2   3
ENDBRANCH   1   2
BRANCH   1  24
ATOM     24  C   UNL A   1      38.254  23.503  26.045  1.00  0.00     0.275 C 
BRANCH  24  25
ATOM     25  O   UNL A   1      39.596  23.489  26.623  1.00  0.00    -0.458 OA
BRANCH  25  26
ATOM     26  C   UNL A   1      40.548  24.464  26.698  1.00  0.00     0.338 C 
ATOM     27  O   UNL A   1      41.605  24.353  26.075  1.00  0.00    -0.246 OA
BRANCH  26  28
ATOM     28  C   UNL A   1      40.207  25.741  27.363  1.00  0.00     0.060 A 
ATOM     29  C   UNL A   1      39.653  25.729  28.655  1.00  0.00     0.016 A 
ATOM     30  C   UNL A   1      40.614  26.934  26.802  1.00  0.00     0.016 A 
ATOM     31  C   UNL A   1      39.703  26.869  29.454  1.00  0.00     0.010 A 
ATOM     32  C   UNL A   1      40.867  27.989  27.638  1.00  0.00     0.010 A 
ATOM     33  C   UNL A   1      40.370  27.977  28.949  1.00  0.00    -0.014 A 
BRANCH  33  34
ATOM     34  C   UNL A   1      40.311  29.305  29.536  1.00  0.00     0.031 A 
ATOM     35  C   UNL A   1      39.165  30.208  29.341  1.00  0.00     0.074 A 
ATOM     36  C   UNL A   1      41.371  29.509  30.352  1.00  0.00     0.049 A 
ATOM     37  N   UNL A   1      39.227  31.487  29.444  1.00  0.00    -0.248 NA
ATOM     38  C   UNL A   1      37.824  29.762  28.965  1.00  0.00     0.031 C 
ATOM     39  C   UNL A   1      41.660  30.502  31.363  1.00  0.00     0.029 A 
ATOM     40  N   UNL A   1      42.563  28.793  30.272  1.00  0.00    -0.354 N 
ATOM     41  C   UNL A   1      37.929  31.958  29.547  1.00  0.00     0.074 A 
ATOM     42  C   UNL A   1      37.097  30.881  29.084  1.00  0.00     0.031 C 
ATOM     43  C   UNL A   1      42.998  30.524  31.568  1.00  0.00     0.029 A 
ATOM     44  C   UNL A   1      43.615  29.624  30.596  1.00  0.00     0.049 A 
ATOM     45  H   UNL A   1      42.642  27.843  30.024  1.00  0.00     0.167 HD
ATOM     46  C   UNL A   1      37.712  33.122  30.222  1.00  0.00     0.034 A 
ATOM     47  C   UNL A   1      44.437  29.972  29.558  1.00  0.00     0.034 A 
ATOM     48  C   UNL A   1      38.990  33.642  30.690  1.00  0.00     0.049 A 
ATOM     49  C   UNL A   1      44.217  31.430  29.226  1.00  0.00     0.074 A 
ATOM     50  C   UNL A   1      39.655  33.490  31.895  1.00  0.00     0.029 A 
ATOM     51  N   UNL A   1      39.931  34.046  29.758  1.00  0.00    -0.354 N 
ATOM     52  N   UNL A   1      43.078  32.058  29.374  1.00  0.00    -0.248 NA
ATOM     53  C   UNL A   1      45.308  32.314  28.841  1.00  0.00     0.031 C 
ATOM     54  C   UNL A   1      41.037  33.701  31.646  1.00  0.00     0.029 A 
ATOM     55  C   UNL A   1      41.198  33.981  30.299  1.00  0.00     0.049 A 
ATOM     56  H   UNL A   1      39.724  34.339  28.841  1.00  0.00     0.167 HD
ATOM     57  C   UNL A   1      43.290  33.405  29.243  1.00  0.00     0.074 A 
ATOM     58  C   UNL A   1      44.697  33.509  28.878  1.00  0.00     0.031 C 
ATOM     59  C   UNL A   1      42.338  34.355  29.490  1.00  0.00     0.034 A 
BRANCH  46  60
ATOM     60  C   UNL A   1      36.397  33.631  30.757  1.00  0.00     0.023 A 
ATOM     61  C   UNL A   1      35.530  34.299  29.861  1.00  0.00     0.031 A 
ATOM     62  C   UNL A   1      35.923  33.503  32.074  1.00  0.00     0.131 A 
ATOM     63  C   UNL A   1      34.305  34.845  30.270  1.00  0.00     0.055 A 
ATOM     64  C   UNL A   1      34.700  34.061  32.491  1.00  0.00     0.041 A 
ATOM     65  F   UNL A   1      36.599  32.804  32.996  1.00  0.00    -0.206 F 
ATOM     66  C   UNL A   1      33.886  34.742  31.590  1.00  0.00     0.022 A 
BRANCH  63  67
ATOM     67  S   UNL A   1      33.278  35.688  29.034  1.00  0.00     0.124 S 
ATOM     68  O   UNL A   1      34.280  36.317  28.179  1.00  0.00    -0.237 OA
ATOM     69  O   UNL A   1      32.531  34.584  28.443  1.00  0.00    -0.237 OA
ATOM     70  O   UNL A   1      32.479  36.616  29.832  1.00  0.00    -0.744 OA
ENDBRANCH  63  67
ENDBRANCH  46  60
BRANCH  47  71
ATOM     71  C   UNL A   1      44.681  28.845  28.576  1.00  0.00     0.023 A 
ATOM     72  C   UNL A   1      44.952  27.562  29.119  1.00  0.00     0.031 A 
ATOM     73  C   UNL A   1      44.348  28.890  27.216  1.00  0.00     0.131 A 
ATOM     74  C   UNL A   1      44.711  26.389  28.383  1.00  0.00     0.055 A 
ATOM     75  C   UNL A   1      44.202  27.715  26.451  1.00  0.00     0.041 A 
ATOM     76  F   UNL A   1      44.064  30.056  26.616  1.00  0.00    -0.206 F 
ATOM     77  C   UNL A   1      44.342  26.456  27.042  1.00  0.00     0.022 A 
BRANCH  74  78
ATOM     78  S   UNL A   1      44.585  24.818  29.299  1.00  0.00     0.124 S 
ATOM     79  O   UNL A   1      43.149  24.564  29.278  1.00  0.00    -0.237 OA
ATOM     80  O   UNL A   1      45.406  23.917  28.489  1.00  0.00    -0.237 OA
ATOM     81  O   UNL A   1      45.155  25.129  30.605  1.00  0.00    -0.744 OA
ENDBRANCH  74  78
ENDBRANCH  47  71
BRANCH  59  82
ATOM     82  C   UNL A   1      42.425  35.787  29.035  1.00  0.00     0.023 A 
ATOM     83  C   UNL A   1      43.211  36.721  29.707  1.00  0.00     0.031 A 
ATOM     84  C   UNL A   1      41.821  36.228  27.832  1.00  0.00     0.131 A 
ATOM     85  C   UNL A   1      43.277  38.047  29.271  1.00  0.00     0.055 A 
ATOM     86  C   UNL A   1      42.004  37.513  27.324  1.00  0.00     0.041 A 
ATOM     87  F   UNL A   1      41.039  35.430  27.089  1.00  0.00    -0.206 F 
ATOM     88  C   UNL A   1      42.715  38.445  28.061  1.00  0.00     0.022 A 
BRANCH  85  89
ATOM     89  S   UNL A   1      43.997  39.250  30.407  1.00  0.00     0.124 S 
ATOM     90  O   UNL A   1      43.954  38.521  31.672  1.00  0.00    -0.237 OA
ATOM     91  O   UNL A   1      45.326  39.460  29.844  1.00  0.00    -0.237 OA
ATOM     92  O   UNL A   1      43.090  40.391  30.315  1.00  0.00    -0.744 OA
ENDBRANCH  85  89
ENDBRANCH  59  82
ENDBRANCH  33  34
ENDBRANCH  26  28
ENDBRANCH  25  26
ENDBRANCH  24  25
ENDBRANCH   1  24
TORSDOF 17
ENDMDL
MODEL 2
REMARK VINA RESULT:     -12.4      4.290     10.628
REMARK SMILES Cc1ccccc1NC(=O)NC[C@@H]1CC[C@@H](C(=O)OCCOC(=O)c2ccc(-c3c4nc(c(-c5cc(S(=O)(=O)[O-])ccc5F)c5ccc([nH]5)c(-c5cc(S(=O)(=O)[O-])ccc5F)c5nc(c(-c6cc(S(=O)(=O)[O-])ccc6F)c6ccc3[nH]6)C=C5)C=C4)cc2)O1
REMARK SMILES IDX 20 1 19 2 17 3 18 4 16 5 13 6 14 7 88 8 15 9 12 10 11 11
REMARK SMILES IDX 8 12 9 13 10 15 7 17 1 18 2 19 3 20 4 21 6 22 5 23 21 24
REMARK SMILES IDX 22 25 23 26 24 27 25 28 26 29 87 30 27 31 86 32 28 33 29 34
REMARK SMILES IDX 30 35 80 36 31 37 85 38 79 39 81 40 32 41 84 42 78 43 77 44
REMARK SMILES IDX 33 46 65 47 45 48 64 49 46 50 49 51 63 52 82 53 47 54 48 55
REMARK SMILES IDX 62 57 83 58 50 59 34 60 35 61 43 62 36 63 42 64 44 65 41 66
REMARK SMILES IDX 37 67 38 68 39 69 40 70 66 71 67 72 75 73 68 74 74 75 76 76
REMARK SMILES IDX 73 77 69 78 70 79 71 80 72 81 51 82 52 83 60 84 53 85 59 86
REMARK SMILES IDX 61 87 58 88 54 89 55 90 56 91 57 92
REMARK H PARENT 8 14 11 16 81 45 49 56
REMARK Flexibility Score: inf
ROOT
ATOM      1  C   UNL A   1      33.291  30.243  26.537  1.00  0.00     0.274 C 
ENDROOT
BRANCH   1   2
ATOM      2  O   UNL A   1      33.289  29.568  25.280  1.00  0.00    -0.460 OA
BRANCH   2   3
ATOM      3  C   UNL A   1      32.118  28.951  24.982  1.00  0.00     0.335 C 
ATOM      4  O   UNL A   1      31.031  29.515  24.928  1.00  0.00    -0.249 OA
BRANCH   3   5
ATOM      5  C   UNL A   1      32.296  27.438  24.861  1.00  0.00     0.228 C 
ATOM      6  C   UNL A   1      31.264  25.868  23.428  1.00  0.00     0.138 C 
ATOM      7  C   UNL A   1      32.768  25.857  23.193  1.00  0.00     0.037 C 
ATOM      8  O   UNL A   1      31.131  26.649  24.625  1.00  0.00    -0.361 OA
ATOM      9  C   UNL A   1      33.232  27.186  23.708  1.00  0.00     0.047 C 
BRANCH   6  10
ATOM     10  C   UNL A   1      30.583  24.481  23.636  1.00  0.00     0.149 C 
BRANCH  10  11
ATOM     11  N   UNL A   1      30.436  24.062  25.039  1.00  0.00    -0.335 N 
ATOM     12  N   UNL A   1      32.428  23.479  26.299  1.00  0.00    -0.308 N 
ATOM     13  C   UNL A   1      31.128  23.749  26.130  1.00  0.00     0.319 C 
ATOM     14  H   UNL A   1      32.606  23.309  27.252  1.00  0.00     0.171 HD
ATOM     15  O   UNL A   1      30.460  23.681  27.175  1.00  0.00    -0.249 OA
ATOM     16  H   UNL A   1      29.476  23.986  25.244  1.00  0.00     0.165 HD
BRANCH  12  17
ATOM     17  C   UNL A   1      33.622  23.359  25.569  1.00  0.00     0.045 A 
ATOM     18  C   UNL A   1      32.728  21.419  24.111  1.00  0.00     0.046 C 
ATOM     19  C   UNL A   1      33.789  22.386  24.562  1.00  0.00    -0.027 A 
ATOM     20  C   UNL A   1      35.018  22.316  23.857  1.00  0.00     0.005 A 
ATOM     21  C   UNL A   1      36.069  23.183  24.127  1.00  0.00     0.000 A 
ATOM     22  C   UNL A   1      34.696  24.186  25.803  1.00  0.00     0.026 A 
ATOM     23  C   UNL A   1      35.903  24.132  25.109  1.00  0.00     0.002 A 
ENDBRANCH  12  17
ENDBRANCH  10  11
ENDBRANCH   6  10
ENDBRANCH   3   5
ENDBRANCH   2   3
ENDBRANCH   1   2
BRANCH   1  24
ATOM     24  C   UNL A   1      34.215  29.540  27.541  1.00  0.00     0.275 C 
BRANCH  24  25
ATOM     25  O   UNL A   1      35.634  29.887  27.543  1.00  0.00    -0.458 OA
BRANCH  25  26
ATOM     26  C   UNL A   1      36.539  29.948  28.563  1.00  0.00     0.338 C 
ATOM     27  O   UNL A   1      36.259  30.536  29.609  1.00  0.00    -0.246 OA
BRANCH  26  28
ATOM     28  C   UNL A   1      37.766  29.128  28.477  1.00  0.00     0.060 A 
ATOM     29  C   UNL A   1      38.733  29.418  27.498  1.00  0.00     0.016 A 
ATOM     30  C   UNL A   1      38.051  28.216  29.471  1.00  0.00     0.016 A 
ATOM     31  C   UNL A   1      40.041  28.960  27.640  1.00  0.00     0.010 A 
ATOM     32  C   UNL A   1      39.365  27.941  29.741  1.00  0.00     0.010 A 
ATOM     33  C   UNL A   1      40.355  28.269  28.803  1.00  0.00    -0.014 A 
BRANCH  33  34
ATOM     34  C   UNL A   1      41.585  27.522  29.004  1.00  0.00     0.031 A 
ATOM     35  C   UNL A   1      41.778  26.158  28.486  1.00  0.00     0.074 A 
ATOM     36  C   UNL A   1      42.517  28.298  29.603  1.00  0.00     0.049 A 
ATOM     37  N   UNL A   1      42.610  25.310  28.974  1.00  0.00    -0.248 NA
ATOM     38  C   UNL A   1      41.016  25.586  27.376  1.00  0.00     0.031 C 
ATOM     39  C   UNL A   1      43.946  28.163  29.783  1.00  0.00     0.029 A 
ATOM     40  N   UNL A   1      42.219  29.437  30.347  1.00  0.00    -0.354 N 
ATOM     41  C   UNL A   1      42.768  24.300  28.041  1.00  0.00     0.074 A 
ATOM     42  C   UNL A   1      41.648  24.427  27.150  1.00  0.00     0.031 C 
ATOM     43  C   UNL A   1      44.325  28.967  30.802  1.00  0.00     0.029 A 
ATOM     44  C   UNL A   1      43.119  29.550  31.386  1.00  0.00     0.049 A 
ATOM     45  H   UNL A   1      41.482  30.063  30.160  1.00  0.00     0.167 HD
ATOM     46  C   UNL A   1      43.951  23.621  28.013  1.00  0.00     0.034 A 
ATOM     47  C   UNL A   1      42.613  29.315  32.637  1.00  0.00     0.034 A 
ATOM     48  C   UNL A   1      44.820  24.144  29.059  1.00  0.00     0.049 A 
ATOM     49  C   UNL A   1      43.157  28.000  33.147  1.00  0.00     0.074 A 
ATOM     50  C   UNL A   1      45.798  25.123  29.033  1.00  0.00     0.029 A 
ATOM     51  N   UNL A   1      44.450  23.977  30.382  1.00  0.00    -0.354 N 
ATOM     52  N   UNL A   1      43.467  26.983  32.384  1.00  0.00    -0.248 NA
ATOM     53  C   UNL A   1      43.527  27.799  34.541  1.00  0.00     0.031 C 
ATOM     54  C   UNL A   1      45.930  25.625  30.354  1.00  0.00     0.029 A 
ATOM     55  C   UNL A   1      45.037  24.948  31.168  1.00  0.00     0.049 A 
ATOM     56  H   UNL A   1      43.853  23.268  30.715  1.00  0.00     0.167 HD
ATOM     57  C   UNL A   1      44.174  26.071  33.122  1.00  0.00     0.074 A 
ATOM     58  C   UNL A   1      44.155  26.615  34.473  1.00  0.00     0.031 C 
ATOM     59  C   UNL A   1      44.778  24.964  32.592  1.00  0.00     0.034 A 
BRANCH  46  60
ATOM     60  C   UNL A   1      44.475  22.755  26.895  1.00  0.00     0.023 A 
ATOM     61  C   UNL A   1      43.855  21.502  26.681  1.00  0.00     0.031 A 
ATOM     62  C   UNL A   1      45.527  23.067  26.017  1.00  0.00     0.131 A 
ATOM     63  C   UNL A   1      44.296  20.606  25.695  1.00  0.00     0.055 A 
ATOM     64  C   UNL A   1      45.981  22.165  25.035  1.00  0.00     0.041 A 
ATOM     65  F   UNL A   1      46.131  24.262  26.045  1.00  0.00    -0.206 F 
ATOM     66  C   UNL A   1      45.369  20.925  24.874  1.00  0.00     0.022 A 
BRANCH  63  67
ATOM     67  S   UNL A   1      43.429  19.022  25.517  1.00  0.00     0.124 S 
ATOM     68  O   UNL A   1      42.037  19.445  25.394  1.00  0.00    -0.237 OA
ATOM     69  O   UNL A   1      44.040  18.464  24.316  1.00  0.00    -0.237 OA
ATOM     70  O   UNL A   1      43.751  18.317  26.756  1.00  0.00    -0.744 OA
ENDBRANCH  63  67
ENDBRANCH  46  60
BRANCH  47  71
ATOM     71  C   UNL A   1      41.210  29.853  32.833  1.00  0.00     0.023 A 
ATOM     72  C   UNL A   1      40.980  31.205  32.468  1.00  0.00     0.031 A 
ATOM     73  C   UNL A   1      40.074  29.056  33.029  1.00  0.00     0.131 A 
ATOM     74  C   UNL A   1      39.694  31.666  32.136  1.00  0.00     0.055 A 
ATOM     75  C   UNL A   1      38.776  29.550  32.791  1.00  0.00     0.041 A 
ATOM     76  F   UNL A   1      40.192  27.763  33.365  1.00  0.00    -0.206 F 
ATOM     77  C   UNL A   1      38.582  30.845  32.302  1.00  0.00     0.022 A 
BRANCH  74  78
ATOM     78  S   UNL A   1      39.562  33.224  31.199  1.00  0.00     0.124 S 
ATOM     79  O   UNL A   1      39.432  34.213  32.263  1.00  0.00    -0.237 OA
ATOM     80  O   UNL A   1      40.819  33.248  30.453  1.00  0.00    -0.237 OA
ATOM     81  O   UNL A   1      38.380  33.031  30.367  1.00  0.00    -0.744 OA
ENDBRANCH  74  78
ENDBRANCH  47  71
BRANCH  59  82
ATOM     82  C   UNL A   1      45.256  23.786  33.397  1.00  0.00     0.023 A 
ATOM     83  C   UNL A   1      46.559  23.715  33.887  1.00  0.00     0.031 A 
ATOM     84  C   UNL A   1      44.376  22.754  33.809  1.00  0.00     0.131 A 
ATOM     85  C   UNL A   1      46.984  22.611  34.631  1.00  0.00     0.055 A 
ATOM     86  C   UNL A   1      44.767  21.729  34.668  1.00  0.00     0.041 A 
ATOM     87  F   UNL A   1      43.096  22.703  33.409  1.00  0.00    -0.206 F 
ATOM     88  C   UNL A   1      46.091  21.636  35.063  1.00  0.00     0.022 A 
BRANCH  85  89
ATOM     89  S   UNL A   1      48.762  22.430  34.886  1.00  0.00     0.124 S 
ATOM     90  O   UNL A   1      48.839  22.315  36.340  1.00  0.00    -0.237 OA
ATOM     91  O   UNL A   1      49.065  21.214  34.139  1.00  0.00    -0.237 OA
ATOM     92  O   UNL A   1      49.314  23.661  34.329  1.00  0.00    -0.744 OA
ENDBRANCH  85  89
ENDBRANCH  59  82
ENDBRANCH  33  34
ENDBRANCH  26  28
ENDBRANCH  25  26
ENDBRANCH  24  25
ENDBRANCH   1  24
TORSDOF 17
ENDMDL
MODEL 3
REMARK VINA RESULT:     -12.3      1.995      2.664
REMARK SMILES Cc1ccccc1NC(=O)NC[C@@H]1CC[C@@H](C(=O)OCCOC(=O)c2ccc(-c3c4nc(c(-c5cc(S(=O)(=O)[O-])ccc5F)c5ccc([nH]5)c(-c5cc(S(=O)(=O)[O-])ccc5F)c5nc(c(-c6cc(S(=O)(=O)[O-])ccc6F)c6ccc3[nH]6)C=C5)C=C4)cc2)O1
REMARK SMILES IDX 20 1 19 2 17 3 18 4 16 5 13 6 14 7 88 8 15 9 12 10 11 11
REMARK SMILES IDX 8 12 9 13 10 15 7 17 1 18 2 19 3 20 4 21 6 22 5 23 21 24
REMARK SMILES IDX 22 25 23 26 24 27 25 28 26 29 87 30 27 31 86 32 28 33 29 34
REMARK SMILES IDX 30 35 80 36 31 37 85 38 79 39 81 40 32 41 84 42 78 43 77 44
REMARK SMILES IDX 33 46 65 47 45 48 64 49 46 50 49 51 63 52 82 53 47 54 48 55
REMARK SMILES IDX 62 57 83 58 50 59 34 60 35 61 43 62 36 63 42 64 44 65 41 66
REMARK SMILES IDX 37 67 38 68 39 69 40 70 66 71 67 72 75 73 68 74 74 75 76 76
REMARK SMILES IDX 73 77 69 78 70 79 71 80 72 81 51 82 52 83 60 84 53 85 59 86
REMARK SMILES IDX 61 87 58 88 54 89 55 90 56 91 57 92
REMARK H PARENT 8 14 11 16 81 45 49 56
REMARK Flexibility Score: inf
ROOT
ATOM      1  C   UNL A   1      36.473  22.419  24.260  1.00  0.00     0.274 C 
ENDROOT
BRANCH   1   2
ATOM      2  O   UNL A   1      35.464  21.412  24.286  1.00  0.00    -0.460 OA
BRANCH   2   3
ATOM      3  C   UNL A   1      34.345  21.761  24.970  1.00  0.00     0.335 C 
ATOM      4  O   UNL A   1      33.763  21.033  25.766  1.00  0.00    -0.249 OA
BRANCH   3   5
ATOM      5  C   UNL A   1      33.814  23.122  24.520  1.00  0.00     0.228 C 
ATOM      6  C   UNL A   1      31.601  23.913  24.271  1.00  0.00     0.138 C 
ATOM      7  C   UNL A   1      32.334  24.768  25.296  1.00  0.00     0.037 C 
ATOM      8  O   UNL A   1      32.658  23.140  23.684  1.00  0.00    -0.361 OA
ATOM      9  C   UNL A   1      33.464  23.900  25.761  1.00  0.00     0.047 C 
BRANCH   6  10
ATOM     10  C   UNL A   1      30.834  24.678  23.151  1.00  0.00     0.149 C 
BRANCH  10  11
ATOM     11  N   UNL A   1      31.647  25.053  21.982  1.00  0.00    -0.335 N 
ATOM     12  N   UNL A   1      33.024  27.048  22.109  1.00  0.00    -0.308 N 
ATOM     13  C   UNL A   1      32.572  25.912  21.566  1.00  0.00     0.319 C 
ATOM     14  H   UNL A   1      33.736  27.423  21.542  1.00  0.00     0.171 HD
ATOM     15  O   UNL A   1      33.107  25.625  20.482  1.00  0.00    -0.249 OA
ATOM     16  H   UNL A   1      31.423  24.448  21.238  1.00  0.00     0.165 HD
BRANCH  12  17
ATOM     17  C   UNL A   1      32.822  27.884  23.221  1.00  0.00     0.045 A 
ATOM     18  C   UNL A   1      30.412  28.508  22.520  1.00  0.00     0.046 C 
ATOM     19  C   UNL A   1      31.619  28.593  23.415  1.00  0.00    -0.027 A 
ATOM     20  C   UNL A   1      31.473  29.418  24.560  1.00  0.00     0.005 A 
ATOM     21  C   UNL A   1      32.485  29.549  25.504  1.00  0.00     0.000 A 
ATOM     22  C   UNL A   1      33.794  28.055  24.180  1.00  0.00     0.026 A 
ATOM     23  C   UNL A   1      33.656  28.855  25.312  1.00  0.00     0.002 A 
ENDBRANCH  12  17
ENDBRANCH  10  11
ENDBRANCH   6  10
ENDBRANCH   3   5
ENDBRANCH   2   3
ENDBRANCH   1   2
BRANCH   1  24
ATOM     24  C   UNL A   1      37.299  22.408  25.554  1.00  0.00     0.275 C 
BRANCH  24  25
ATOM     25  O   UNL A   1      38.224  23.512  25.799  1.00  0.00    -0.458 OA
BRANCH  25  26
ATOM     26  C   UNL A   1      39.409  23.553  26.477  1.00  0.00     0.338 C 
ATOM     27  O   UNL A   1      40.231  22.644  26.350  1.00  0.00    -0.246 OA
BRANCH  26  28
ATOM     28  C   UNL A   1      39.776  24.793  27.194  1.00  0.00     0.060 A 
ATOM     29  C   UNL A   1      40.280  25.892  26.476  1.00  0.00     0.016 A 
ATOM     30  C   UNL A   1      39.439  24.939  28.524  1.00  0.00     0.016 A 
ATOM     31  C   UNL A   1      40.247  27.171  27.028  1.00  0.00     0.010 A 
ATOM     32  C   UNL A   1      39.198  26.202  28.995  1.00  0.00     0.010 A 
ATOM     33  C   UNL A   1      39.644  27.317  28.271  1.00  0.00    -0.014 A 
BRANCH  33  34
ATOM     34  C   UNL A   1      39.735  28.514  29.088  1.00  0.00     0.031 A 
ATOM     35  C   UNL A   1      38.783  29.630  28.970  1.00  0.00     0.074 A 
ATOM     36  C   UNL A   1      40.713  28.381  30.015  1.00  0.00     0.049 A 
ATOM     37  N   UNL A   1      39.040  30.840  29.316  1.00  0.00    -0.248 NA
ATOM     38  C   UNL A   1      37.439  29.505  28.406  1.00  0.00     0.031 C 
ATOM     39  C   UNL A   1      41.041  29.118  31.215  1.00  0.00     0.029 A 
ATOM     40  N   UNL A   1      41.772  27.484  29.903  1.00  0.00    -0.354 N 
ATOM     41  C   UNL A   1      37.833  31.514  29.395  1.00  0.00     0.074 A 
ATOM     42  C   UNL A   1      36.896  30.701  28.670  1.00  0.00     0.031 C 
ATOM     43  C   UNL A   1      42.331  28.862  31.532  1.00  0.00     0.029 A 
ATOM     44  C   UNL A   1      42.902  28.043  30.464  1.00  0.00     0.049 A 
ATOM     45  H   UNL A   1      41.724  26.592  29.489  1.00  0.00     0.167 HD
ATOM     46  C   UNL A   1      37.733  32.567  30.256  1.00  0.00     0.034 A 
ATOM     47  C   UNL A   1      43.884  28.407  29.583  1.00  0.00     0.034 A 
ATOM     48  C   UNL A   1      39.016  32.759  30.920  1.00  0.00     0.049 A 
ATOM     49  C   UNL A   1      43.945  29.916  29.512  1.00  0.00     0.074 A 
ATOM     50  C   UNL A   1      39.503  32.286  32.126  1.00  0.00     0.029 A 
ATOM     51  N   UNL A   1      40.111  33.138  30.162  1.00  0.00    -0.354 N 
ATOM     52  N   UNL A   1      42.914  30.706  29.679  1.00  0.00    -0.248 NA
ATOM     53  C   UNL A   1      45.203  30.640  29.394  1.00  0.00     0.031 C 
ATOM     54  C   UNL A   1      40.920  32.282  32.038  1.00  0.00     0.029 A 
ATOM     55  C   UNL A   1      41.280  32.752  30.787  1.00  0.00     0.049 A 
ATOM     56  H   UNL A   1      40.063  33.615  29.302  1.00  0.00     0.167 HD
ATOM     57  C   UNL A   1      43.358  31.994  29.821  1.00  0.00     0.074 A 
ATOM     58  C   UNL A   1      44.795  31.902  29.602  1.00  0.00     0.031 C 
ATOM     59  C   UNL A   1      42.552  33.045  30.161  1.00  0.00     0.034 A 
BRANCH  46  60
ATOM     60  C   UNL A   1      36.465  33.208  30.764  1.00  0.00     0.023 A 
ATOM     61  C   UNL A   1      35.623  33.847  29.825  1.00  0.00     0.031 A 
ATOM     62  C   UNL A   1      36.014  33.231  32.095  1.00  0.00     0.131 A 
ATOM     63  C   UNL A   1      34.445  34.508  30.203  1.00  0.00     0.055 A 
ATOM     64  C   UNL A   1      34.839  33.904  32.480  1.00  0.00     0.041 A 
ATOM     65  F   UNL A   1      36.665  32.576  33.066  1.00  0.00    -0.206 F 
ATOM     66  C   UNL A   1      34.051  34.552  31.534  1.00  0.00     0.022 A 
BRANCH  63  67
ATOM     67  S   UNL A   1      33.447  35.301  28.912  1.00  0.00     0.124 S 
ATOM     68  O   UNL A   1      34.446  36.077  28.183  1.00  0.00    -0.237 OA
ATOM     69  O   UNL A   1      32.881  34.157  28.207  1.00  0.00    -0.237 OA
ATOM     70  O   UNL A   1      32.482  36.097  29.670  1.00  0.00    -0.744 OA
ENDBRANCH  63  67
ENDBRANCH  46  60
BRANCH  47  71
ATOM     71  C   UNL A   1      44.053  27.438  28.431  1.00  0.00     0.023 A 
ATOM     72  C   UNL A   1      44.201  26.065  28.758  1.00  0.00     0.031 A 
ATOM     73  C   UNL A   1      43.754  27.734  27.094  1.00  0.00     0.131 A 
ATOM     74  C   UNL A   1      43.878  25.054  27.837  1.00  0.00     0.055 A 
ATOM     75  C   UNL A   1      43.526  26.715  26.146  1.00  0.00     0.041 A 
ATOM     76  F   UNL A   1      43.584  29.002  26.692  1.00  0.00    -0.206 F 
ATOM     77  C   UNL A   1      43.545  25.370  26.523  1.00  0.00     0.022 A 
BRANCH  74  78
ATOM     78  S   UNL A   1      43.598  23.371  28.482  1.00  0.00     0.124 S 
ATOM     79  O   UNL A   1      42.485  23.576  29.403  1.00  0.00    -0.237 OA
ATOM     80  O   UNL A   1      43.293  22.617  27.267  1.00  0.00    -0.237 OA
ATOM     81  O   UNL A   1      44.872  23.017  29.098  1.00  0.00    -0.744 OA
ENDBRANCH  74  78
ENDBRANCH  47  71
BRANCH  59  82
ATOM     82  C   UNL A   1      42.923  34.494  29.991  1.00  0.00     0.023 A 
ATOM     83  C   UNL A   1      42.847  35.128  28.752  1.00  0.00     0.031 A 
ATOM     84  C   UNL A   1      43.240  35.320  31.097  1.00  0.00     0.131 A 
ATOM     85  C   UNL A   1      43.198  36.474  28.614  1.00  0.00     0.055 A 
ATOM     86  C   UNL A   1      43.451  36.693  30.977  1.00  0.00     0.041 A 
ATOM     87  F   UNL A   1      43.345  34.836  32.345  1.00  0.00    -0.206 F 
ATOM     88  C   UNL A   1      43.459  37.276  29.721  1.00  0.00     0.022 A 
BRANCH  85  89
ATOM     89  S   UNL A   1      43.437  37.091  26.936  1.00  0.00     0.124 S 
ATOM     90  O   UNL A   1      42.846  38.424  27.026  1.00  0.00    -0.237 OA
ATOM     91  O   UNL A   1      44.888  37.052  26.789  1.00  0.00    -0.237 OA
ATOM     92  O   UNL A   1      42.698  36.138  26.113  1.00  0.00    -0.744 OA
ENDBRANCH  85  89
ENDBRANCH  59  82
ENDBRANCH  33  34
ENDBRANCH  26  28
ENDBRANCH  25  26
ENDBRANCH  24  25
ENDBRANCH   1  24
TORSDOF 17
ENDMDL
