MODEL 1
REMARK VINA RESULT:     -10.9      0.000      0.000
REMARK SMILES Nc1nc(CC(=O)NC2(CC(=O)OCCOC(=O)c3ccc(-c4c5nc(c(-c6cc(S(=O)(=O)[O-])ccc6F)c6ccc([nH]6)c(-c6cc(S(=O)(=O)[O-])ccc6F)c6nc(c(-c7cc(S(=O)(=O)[O-])ccc7F)c7ccc4[nH]7)C=C6)C=C5)cc3)CCC2)cs1
REMARK SMILES IDX 14 1 13 2 11 3 12 4 10 5 9 6 82 7 84 8 83 9 8 10 6 11 7 12
REMARK SMILES IDX 5 14 4 15 2 16 3 17 86 18 85 19 1 20 15 23 16 24 17 25 18 26
REMARK SMILES IDX 19 27 20 28 81 29 21 30 80 31 22 32 23 33 24 34 74 35 25 36
REMARK SMILES IDX 79 37 73 38 75 39 26 40 78 41 72 42 71 43 27 45 59 46 39 47
REMARK SMILES IDX 58 48 40 49 43 50 57 51 76 52 41 53 42 54 56 56 77 57 44 58
REMARK SMILES IDX 28 59 29 60 37 61 30 62 36 63 38 64 35 65 31 66 32 67 33 68
REMARK SMILES IDX 34 69 60 70 61 71 69 72 62 73 68 74 70 75 67 76 63 77 64 78
REMARK SMILES IDX 65 79 66 80 45 81 46 82 54 83 47 84 53 85 55 86 52 87 48 88
REMARK SMILES IDX 49 89 50 90 51 91
REMARK H PARENT 8 13 1 21 1 22 75 44 43 55
REMARK Flexibility Score: inf
ROOT
ATOM      1  C   UNL A   1      34.339  21.001  25.837  1.00  0.00     0.274 C 
ENDROOT
BRANCH   1   2
ATOM      2  O   UNL A   1      34.373  22.048  26.832  1.00  0.00    -0.462 OA
BRANCH   2   3
ATOM      3  C   UNL A   1      33.361  22.950  26.751  1.00  0.00     0.308 C 
ATOM      4  O   UNL A   1      32.437  23.032  27.553  1.00  0.00    -0.252 OA
BRANCH   3   5
ATOM      5  C   UNL A   1      33.402  23.764  25.492  1.00  0.00     0.151 C 
BRANCH   5   6
ATOM      6  C   UNL A   1      32.184  23.811  24.571  1.00  0.00     0.050 C 
ATOM      7  C   UNL A   1      31.850  22.452  23.864  1.00  0.00     0.029 C 
ATOM      8  C   UNL A   1      32.500  24.353  23.134  1.00  0.00     0.029 C 
ATOM      9  C   UNL A   1      32.709  22.899  22.674  1.00  0.00     0.005 C 
BRANCH   6  10
ATOM     10  N   UNL A   1      30.951  24.430  25.110  1.00  0.00    -0.350 N 
ATOM     11  C   UNL A   1      30.735  25.706  25.553  1.00  0.00     0.226 C 
ATOM     12  O   UNL A   1      29.873  25.865  26.420  1.00  0.00    -0.275 OA
ATOM     13  H   UNL A   1      30.168  23.833  25.157  1.00  0.00     0.164 HD
BRANCH  11  14
ATOM     14  C   UNL A   1      31.395  26.873  24.885  1.00  0.00     0.157 C 
BRANCH  14  15
ATOM     15  C   UNL A   1      31.788  28.046  25.694  1.00  0.00     0.063 A 
ATOM     16  C   UNL A   1      33.192  29.008  27.113  1.00  0.00     0.180 A 
ATOM     17  N   UNL A   1      32.735  27.858  26.691  1.00  0.00    -0.225 NA
ATOM     18  S   UNL A   1      32.452  30.389  26.419  1.00  0.00    -0.106 S 
ATOM     19  C   UNL A   1      31.502  29.370  25.420  1.00  0.00     0.093 A 
BRANCH  16  20
ATOM     20  N   UNL A   1      34.190  29.103  27.998  1.00  0.00    -0.375 N 
ATOM     21  H   UNL A   1      34.525  29.988  28.270  1.00  0.00     0.159 HD
ATOM     22  H   UNL A   1      34.589  28.288  28.379  1.00  0.00     0.159 HD
ENDBRANCH  16  20
ENDBRANCH  14  15
ENDBRANCH  11  14
ENDBRANCH   6  10
ENDBRANCH   5   6
ENDBRANCH   3   5
ENDBRANCH   2   3
ENDBRANCH   1   2
BRANCH   1  23
ATOM     23  C   UNL A   1      35.719  20.799  25.218  1.00  0.00     0.275 C 
BRANCH  23  24
ATOM     24  O   UNL A   1      36.640  21.759  25.756  1.00  0.00    -0.458 OA
BRANCH  24  25
ATOM     25  C   UNL A   1      37.950  21.402  25.690  1.00  0.00     0.338 C 
ATOM     26  O   UNL A   1      38.372  20.332  25.285  1.00  0.00    -0.246 OA
BRANCH  25  27
ATOM     27  C   UNL A   1      38.820  22.511  26.172  1.00  0.00     0.060 A 
ATOM     28  C   UNL A   1      40.005  22.266  26.860  1.00  0.00     0.016 A 
ATOM     29  C   UNL A   1      38.415  23.836  25.986  1.00  0.00     0.016 A 
ATOM     30  C   UNL A   1      40.706  23.326  27.450  1.00  0.00     0.010 A 
ATOM     31  C   UNL A   1      39.193  24.900  26.479  1.00  0.00     0.010 A 
ATOM     32  C   UNL A   1      40.345  24.668  27.248  1.00  0.00    -0.014 A 
BRANCH  32  33
ATOM     33  C   UNL A   1      41.159  25.802  27.818  1.00  0.00     0.031 A 
ATOM     34  C   UNL A   1      40.534  26.843  28.726  1.00  0.00     0.074 A 
ATOM     35  C   UNL A   1      42.475  25.930  27.529  1.00  0.00     0.049 A 
ATOM     36  N   UNL A   1      40.970  28.039  29.042  1.00  0.00    -0.248 NA
ATOM     37  C   UNL A   1      39.248  26.499  29.349  1.00  0.00     0.031 C 
ATOM     38  C   UNL A   1      43.272  24.994  26.734  1.00  0.00     0.029 A 
ATOM     39  N   UNL A   1      43.385  26.907  27.877  1.00  0.00    -0.354 N 
ATOM     40  C   UNL A   1      39.978  28.620  29.831  1.00  0.00     0.074 A 
ATOM     41  C   UNL A   1      38.923  27.635  29.954  1.00  0.00     0.031 C 
ATOM     42  C   UNL A   1      44.549  25.390  26.722  1.00  0.00     0.029 A 
ATOM     43  C   UNL A   1      44.637  26.705  27.338  1.00  0.00     0.049 A 
ATOM     44  H   UNL A   1      43.162  27.673  28.454  1.00  0.00     0.167 HD
ATOM     45  C   UNL A   1      39.949  29.862  30.386  1.00  0.00     0.034 A 
ATOM     46  C   UNL A   1      45.715  27.508  27.237  1.00  0.00     0.034 A 
ATOM     47  C   UNL A   1      41.043  30.807  30.313  1.00  0.00     0.049 A 
ATOM     48  C   UNL A   1      45.627  28.914  27.753  1.00  0.00     0.074 A 
ATOM     49  C   UNL A   1      41.131  32.073  30.874  1.00  0.00     0.029 A 
ATOM     50  N   UNL A   1      42.243  30.593  29.647  1.00  0.00    -0.354 N 
ATOM     51  N   UNL A   1      44.636  29.501  28.380  1.00  0.00    -0.248 NA
ATOM     52  C   UNL A   1      46.787  29.779  27.506  1.00  0.00     0.031 C 
ATOM     53  C   UNL A   1      42.349  32.648  30.489  1.00  0.00     0.029 A 
ATOM     54  C   UNL A   1      43.055  31.716  29.748  1.00  0.00     0.049 A 
ATOM     55  H   UNL A   1      42.483  29.765  29.172  1.00  0.00     0.167 HD
ATOM     56  C   UNL A   1      45.049  30.812  28.589  1.00  0.00     0.074 A 
ATOM     57  C   UNL A   1      46.391  30.918  28.054  1.00  0.00     0.031 C 
ATOM     58  C   UNL A   1      44.372  31.835  29.169  1.00  0.00     0.034 A 
BRANCH  45  59
ATOM     59  C   UNL A   1      38.669  30.312  31.059  1.00  0.00     0.023 A 
ATOM     60  C   UNL A   1      37.645  30.990  30.377  1.00  0.00     0.031 A 
ATOM     61  C   UNL A   1      38.471  30.037  32.428  1.00  0.00     0.131 A 
ATOM     62  C   UNL A   1      36.500  31.417  31.074  1.00  0.00     0.055 A 
ATOM     63  C   UNL A   1      37.301  30.399  33.097  1.00  0.00     0.041 A 
ATOM     64  F   UNL A   1      39.417  29.404  33.139  1.00  0.00    -0.206 F 
ATOM     65  C   UNL A   1      36.312  31.106  32.422  1.00  0.00     0.022 A 
BRANCH  62  66
ATOM     66  S   UNL A   1      35.311  32.494  30.225  1.00  0.00     0.124 S 
ATOM     67  O   UNL A   1      36.121  33.682  29.962  1.00  0.00    -0.237 OA
ATOM     68  O   UNL A   1      34.943  31.700  29.059  1.00  0.00    -0.237 OA
ATOM     69  O   UNL A   1      34.250  32.681  31.213  1.00  0.00    -0.744 OA
ENDBRANCH  62  66
ENDBRANCH  45  59
BRANCH  46  70
ATOM     70  C   UNL A   1      46.913  27.045  26.477  1.00  0.00     0.023 A 
ATOM     71  C   UNL A   1      47.137  27.443  25.152  1.00  0.00     0.031 A 
ATOM     72  C   UNL A   1      47.863  26.197  27.083  1.00  0.00     0.131 A 
ATOM     73  C   UNL A   1      48.284  26.994  24.476  1.00  0.00     0.055 A 
ATOM     74  C   UNL A   1      49.029  25.806  26.428  1.00  0.00     0.041 A 
ATOM     75  F   UNL A   1      47.689  25.774  28.346  1.00  0.00    -0.206 F 
ATOM     76  C   UNL A   1      49.241  26.201  25.113  1.00  0.00     0.022 A 
BRANCH  73  77
ATOM     77  S   UNL A   1      48.485  27.420  22.725  1.00  0.00     0.124 S 
ATOM     78  O   UNL A   1      49.740  28.164  22.743  1.00  0.00    -0.237 OA
ATOM     79  O   UNL A   1      48.529  26.105  22.095  1.00  0.00    -0.237 OA
ATOM     80  O   UNL A   1      47.294  28.212  22.428  1.00  0.00    -0.744 OA
ENDBRANCH  73  77
ENDBRANCH  46  70
BRANCH  58  81
ATOM     81  C   UNL A   1      45.094  33.155  29.251  1.00  0.00     0.023 A 
ATOM     82  C   UNL A   1      44.966  34.121  28.236  1.00  0.00     0.031 A 
ATOM     83  C   UNL A   1      45.958  33.431  30.323  1.00  0.00     0.131 A 
ATOM     84  C   UNL A   1      45.735  35.293  28.285  1.00  0.00     0.055 A 
ATOM     85  C   UNL A   1      46.680  34.624  30.395  1.00  0.00     0.041 A 
ATOM     86  F   UNL A   1      46.124  32.540  31.314  1.00  0.00    -0.206 F 
ATOM     87  C   UNL A   1      46.581  35.557  29.367  1.00  0.00     0.022 A 
BRANCH  84  88
ATOM     88  S   UNL A   1      45.686  36.430  26.873  1.00  0.00     0.124 S 
ATOM     89  O   UNL A   1      46.144  35.576  25.782  1.00  0.00    -0.237 OA
ATOM     90  O   UNL A   1      44.280  36.820  26.831  1.00  0.00    -0.237 OA
ATOM     91  O   UNL A   1      46.611  37.495  27.257  1.00  0.00    -0.744 OA
ENDBRANCH  84  88
ENDBRANCH  58  81
ENDBRANCH  32  33
ENDBRANCH  25  27
ENDBRANCH  24  25
ENDBRANCH  23  24
ENDBRANCH   1  23
TORSDOF 19
ENDMDL
MODEL 2
REMARK VINA RESULT:     -10.7      5.320     10.149
REMARK SMILES Nc1nc(CC(=O)NC2(CC(=O)OCCOC(=O)c3ccc(-c4c5nc(c(-c6cc(S(=O)(=O)[O-])ccc6F)c6ccc([nH]6)c(-c6cc(S(=O)(=O)[O-])ccc6F)c6nc(c(-c7cc(S(=O)(=O)[O-])ccc7F)c7ccc4[nH]7)C=C6)C=C5)cc3)CCC2)cs1
REMARK SMILES IDX 14 1 13 2 11 3 12 4 10 5 9 6 82 7 84 8 83 9 8 10 6 11 7 12
REMARK SMILES IDX 5 14 4 15 2 16 3 17 86 18 85 19 1 20 15 23 16 24 17 25 18 26
REMARK SMILES IDX 19 27 20 28 81 29 21 30 80 31 22 32 23 33 24 34 74 35 25 36
REMARK SMILES IDX 79 37 73 38 75 39 26 40 78 41 72 42 71 43 27 45 59 46 39 47
REMARK SMILES IDX 58 48 40 49 43 50 57 51 76 52 41 53 42 54 56 56 77 57 44 58
REMARK SMILES IDX 28 59 29 60 37 61 30 62 36 63 38 64 35 65 31 66 32 67 33 68
REMARK SMILES IDX 34 69 60 70 61 71 69 72 62 73 68 74 70 75 67 76 63 77 64 78
REMARK SMILES IDX 65 79 66 80 45 81 46 82 54 83 47 84 53 85 55 86 52 87 48 88
REMARK SMILES IDX 49 89 50 90 51 91
REMARK H PARENT 8 13 1 21 1 22 75 44 43 55
REMARK Flexibility Score: inf
ROOT
ATOM      1  C   UNL A   1      31.614  28.649  23.874  1.00  0.00     0.274 C 
ENDROOT
BRANCH   1   2
ATOM      2  O   UNL A   1      32.065  28.214  22.572  1.00  0.00    -0.462 OA
BRANCH   2   3
ATOM      3  C   UNL A   1      32.793  27.067  22.570  1.00  0.00     0.308 C 
ATOM      4  O   UNL A   1      33.733  26.843  21.816  1.00  0.00    -0.252 OA
BRANCH   3   5
ATOM      5  C   UNL A   1      32.244  26.025  23.498  1.00  0.00     0.151 C 
BRANCH   5   6
ATOM      6  C   UNL A   1      33.180  25.276  24.446  1.00  0.00     0.050 C 
ATOM      7  C   UNL A   1      32.457  24.539  25.627  1.00  0.00     0.029 C 
ATOM      8  C   UNL A   1      33.818  26.186  25.552  1.00  0.00     0.029 C 
ATOM      9  C   UNL A   1      32.662  25.793  26.488  1.00  0.00     0.005 C 
BRANCH   6  10
ATOM     10  N   UNL A   1      34.201  24.394  23.834  1.00  0.00    -0.350 N 
ATOM     11  C   UNL A   1      34.235  23.030  23.741  1.00  0.00     0.226 C 
ATOM     12  O   UNL A   1      35.345  22.493  23.704  1.00  0.00    -0.275 OA
ATOM     13  H   UNL A   1      34.971  24.860  23.435  1.00  0.00     0.164 HD
BRANCH  11  14
ATOM     14  C   UNL A   1      32.981  22.243  23.517  1.00  0.00     0.157 C 
BRANCH  14  15
ATOM     15  C   UNL A   1      32.956  20.804  23.853  1.00  0.00     0.063 A 
ATOM     16  C   UNL A   1      32.874  19.196  25.376  1.00  0.00     0.180 A 
ATOM     17  N   UNL A   1      33.215  20.441  25.167  1.00  0.00    -0.225 NA
ATOM     18  S   UNL A   1      32.314  18.350  23.996  1.00  0.00    -0.106 S 
ATOM     19  C   UNL A   1      32.466  19.781  23.064  1.00  0.00     0.093 A 
BRANCH  16  20
ATOM     20  N   UNL A   1      32.925  18.630  26.586  1.00  0.00    -0.375 N 
ATOM     21  H   UNL A   1      33.559  17.897  26.761  1.00  0.00     0.159 HD
ATOM     22  H   UNL A   1      32.329  18.947  27.303  1.00  0.00     0.159 HD
ENDBRANCH  16  20
ENDBRANCH  14  15
ENDBRANCH  11  14
ENDBRANCH   6  10
ENDBRANCH   5   6
ENDBRANCH   3   5
ENDBRANCH   2   3
ENDBRANCH   1   2
BRANCH   1  23
ATOM     23  C   UNL A   1      32.589  29.659  24.474  1.00  0.00     0.275 C 
BRANCH  23  24
ATOM     24  O   UNL A   1      32.675  29.470  25.894  1.00  0.00    -0.458 OA
BRANCH  24  25
ATOM     25  C   UNL A   1      32.872  30.605  26.616  1.00  0.00     0.338 C 
ATOM     26  O   UNL A   1      32.120  31.563  26.646  1.00  0.00    -0.246 OA
BRANCH  25  27
ATOM     27  C   UNL A   1      34.142  30.518  27.391  1.00  0.00     0.060 A 
ATOM     28  C   UNL A   1      34.882  31.652  27.714  1.00  0.00     0.016 A 
ATOM     29  C   UNL A   1      34.643  29.265  27.757  1.00  0.00     0.016 A 
ATOM     30  C   UNL A   1      36.154  31.520  28.286  1.00  0.00     0.010 A 
ATOM     31  C   UNL A   1      35.867  29.153  28.442  1.00  0.00     0.010 A 
ATOM     32  C   UNL A   1      36.665  30.280  28.699  1.00  0.00    -0.014 A 
BRANCH  32  33
ATOM     33  C   UNL A   1      37.999  30.163  29.393  1.00  0.00     0.031 A 
ATOM     34  C   UNL A   1      39.122  29.329  28.808  1.00  0.00     0.074 A 
ATOM     35  C   UNL A   1      38.233  30.796  30.566  1.00  0.00     0.049 A 
ATOM     36  N   UNL A   1      40.194  28.851  29.395  1.00  0.00    -0.248 NA
ATOM     37  C   UNL A   1      39.021  28.979  27.384  1.00  0.00     0.031 C 
ATOM     38  C   UNL A   1      37.306  31.699  31.251  1.00  0.00     0.029 A 
ATOM     39  N   UNL A   1      39.333  30.779  31.398  1.00  0.00    -0.354 N 
ATOM     40  C   UNL A   1      40.851  28.078  28.438  1.00  0.00     0.074 A 
ATOM     41  C   UNL A   1      40.058  28.164  27.228  1.00  0.00     0.031 C 
ATOM     42  C   UNL A   1      37.895  32.207  32.339  1.00  0.00     0.029 A 
ATOM     43  C   UNL A   1      39.164  31.526  32.543  1.00  0.00     0.049 A 
ATOM     44  H   UNL A   1      40.158  30.283  31.193  1.00  0.00     0.167 HD
ATOM     45  C   UNL A   1      41.996  27.357  28.566  1.00  0.00     0.034 A 
ATOM     46  C   UNL A   1      39.871  31.590  33.690  1.00  0.00     0.034 A 
ATOM     47  C   UNL A   1      42.814  27.339  29.760  1.00  0.00     0.049 A 
ATOM     48  C   UNL A   1      41.068  30.703  33.859  1.00  0.00     0.074 A 
ATOM     49  C   UNL A   1      44.012  26.675  29.979  1.00  0.00     0.029 A 
ATOM     50  N   UNL A   1      42.527  28.020  30.936  1.00  0.00    -0.354 N 
ATOM     51  N   UNL A   1      41.607  29.873  32.997  1.00  0.00    -0.248 NA
ATOM     52  C   UNL A   1      41.726  30.727  35.171  1.00  0.00     0.031 C 
ATOM     53  C   UNL A   1      44.409  26.897  31.303  1.00  0.00     0.029 A 
ATOM     54  C   UNL A   1      43.500  27.758  31.893  1.00  0.00     0.049 A 
ATOM     55  H   UNL A   1      41.747  28.605  31.073  1.00  0.00     0.167 HD
ATOM     56  C   UNL A   1      42.659  29.264  33.670  1.00  0.00     0.074 A 
ATOM     57  C   UNL A   1      42.701  29.848  34.996  1.00  0.00     0.031 C 
ATOM     58  C   UNL A   1      43.510  28.303  33.230  1.00  0.00     0.034 A 
BRANCH  45  59
ATOM     59  C   UNL A   1      42.406  26.460  27.415  1.00  0.00     0.023 A 
ATOM     60  C   UNL A   1      42.035  25.107  27.333  1.00  0.00     0.031 A 
ATOM     61  C   UNL A   1      43.183  26.990  26.366  1.00  0.00     0.131 A 
ATOM     62  C   UNL A   1      42.485  24.321  26.257  1.00  0.00     0.055 A 
ATOM     63  C   UNL A   1      43.567  26.222  25.265  1.00  0.00     0.041 A 
ATOM     64  F   UNL A   1      43.583  28.271  26.392  1.00  0.00    -0.206 F 
ATOM     65  C   UNL A   1      43.229  24.874  25.212  1.00  0.00     0.022 A 
BRANCH  62  66
ATOM     66  S   UNL A   1      42.192  22.530  26.301  1.00  0.00     0.124 S 
ATOM     67  O   UNL A   1      43.056  22.059  25.221  1.00  0.00    -0.237 OA
ATOM     68  O   UNL A   1      42.606  22.177  27.653  1.00  0.00    -0.237 OA
ATOM     69  O   UNL A   1      40.759  22.410  26.036  1.00  0.00    -0.744 OA
ENDBRANCH  62  66
ENDBRANCH  45  59
BRANCH  46  70
ATOM     70  C   UNL A   1      39.365  32.418  34.825  1.00  0.00     0.023 A 
ATOM     71  C   UNL A   1      38.730  31.833  35.929  1.00  0.00     0.031 A 
ATOM     72  C   UNL A   1      39.525  33.818  34.818  1.00  0.00     0.131 A 
ATOM     73  C   UNL A   1      38.280  32.645  36.982  1.00  0.00     0.055 A 
ATOM     74  C   UNL A   1      39.132  34.612  35.894  1.00  0.00     0.041 A 
ATOM     75  F   UNL A   1      40.114  34.430  33.778  1.00  0.00    -0.206 F 
ATOM     76  C   UNL A   1      38.499  34.025  36.983  1.00  0.00     0.022 A 
BRANCH  73  77
ATOM     77  S   UNL A   1      37.350  31.880  38.338  1.00  0.00     0.124 S 
ATOM     78  O   UNL A   1      36.139  32.691  38.363  1.00  0.00    -0.237 OA
ATOM     79  O   UNL A   1      37.194  30.509  37.864  1.00  0.00    -0.237 OA
ATOM     80  O   UNL A   1      38.234  32.042  39.490  1.00  0.00    -0.744 OA
ENDBRANCH  73  77
ENDBRANCH  46  70
BRANCH  58  81
ATOM     81  C   UNL A   1      44.560  27.838  34.204  1.00  0.00     0.023 A 
ATOM     82  C   UNL A   1      44.345  26.718  35.029  1.00  0.00     0.031 A 
ATOM     83  C   UNL A   1      45.763  28.548  34.351  1.00  0.00     0.131 A 
ATOM     84  C   UNL A   1      45.294  26.376  36.004  1.00  0.00     0.055 A 
ATOM     85  C   UNL A   1      46.729  28.170  35.285  1.00  0.00     0.041 A 
ATOM     86  F   UNL A   1      46.014  29.630  33.596  1.00  0.00    -0.206 F 
ATOM     87  C   UNL A   1      46.492  27.087  36.127  1.00  0.00     0.022 A 
BRANCH  84  88
ATOM     88  S   UNL A   1      44.906  25.044  37.171  1.00  0.00     0.124 S 
ATOM     89  O   UNL A   1      43.895  25.669  38.017  1.00  0.00    -0.237 OA
ATOM     90  O   UNL A   1      44.432  23.981  36.290  1.00  0.00    -0.237 OA
ATOM     91  O   UNL A   1      46.185  24.777  37.827  1.00  0.00    -0.744 OA
ENDBRANCH  84  88
ENDBRANCH  58  81
ENDBRANCH  32  33
ENDBRANCH  25  27
ENDBRANCH  24  25
ENDBRANCH  23  24
ENDBRANCH   1  23
TORSDOF 19
ENDMDL
MODEL 3
REMARK VINA RESULT:     -10.7      1.520      1.903
REMARK SMILES Nc1nc(CC(=O)NC2(CC(=O)OCCOC(=O)c3ccc(-c4c5nc(c(-c6cc(S(=O)(=O)[O-])ccc6F)c6ccc([nH]6)c(-c6cc(S(=O)(=O)[O-])ccc6F)c6nc(c(-c7cc(S(=O)(=O)[O-])ccc7F)c7ccc4[nH]7)C=C6)C=C5)cc3)CCC2)cs1
REMARK SMILES IDX 14 1 13 2 11 3 12 4 10 5 9 6 82 7 84 8 83 9 8 10 6 11 7 12
REMARK SMILES IDX 5 14 4 15 2 16 3 17 86 18 85 19 1 20 15 23 16 24 17 25 18 26
REMARK SMILES IDX 19 27 20 28 81 29 21 30 80 31 22 32 23 33 24 34 74 35 25 36
REMARK SMILES IDX 79 37 73 38 75 39 26 40 78 41 72 42 71 43 27 45 59 46 39 47
REMARK SMILES IDX 58 48 40 49 43 50 57 51 76 52 41 53 42 54 56 56 77 57 44 58
REMARK SMILES IDX 28 59 29 60 37 61 30 62 36 63 38 64 35 65 31 66 32 67 33 68
REMARK SMILES IDX 34 69 60 70 61 71 69 72 62 73 68 74 70 75 67 76 63 77 64 78
REMARK SMILES IDX 65 79 66 80 45 81 46 82 54 83 47 84 53 85 55 86 52 87 48 88
REMARK SMILES IDX 49 89 50 90 51 91
REMARK H PARENT 8 13 1 21 1 22 75 44 43 55
REMARK Flexibility Score: inf
ROOT
ATOM      1  C   UNL A   1      34.789  20.334  24.983  1.00  0.00     0.274 C 
ENDROOT
BRANCH   1   2
ATOM      2  O   UNL A   1      33.451  20.869  25.096  1.00  0.00    -0.462 OA
BRANCH   2   3
ATOM      3  C   UNL A   1      32.623  20.568  24.062  1.00  0.00     0.308 C 
ATOM      4  O   UNL A   1      32.322  19.430  23.721  1.00  0.00    -0.252 OA
BRANCH   3   5
ATOM      5  C   UNL A   1      32.212  21.776  23.272  1.00  0.00     0.151 C 
BRANCH   5   6
ATOM      6  C   UNL A   1      31.869  23.080  23.990  1.00  0.00     0.050 C 
ATOM      7  C   UNL A   1      30.839  23.987  23.235  1.00  0.00     0.029 C 
ATOM      8  C   UNL A   1      32.903  24.231  23.736  1.00  0.00     0.029 C 
ATOM      9  C   UNL A   1      32.017  24.716  22.574  1.00  0.00     0.005 C 
BRANCH   6  10
ATOM     10  N   UNL A   1      31.523  22.990  25.428  1.00  0.00    -0.350 N 
ATOM     11  C   UNL A   1      31.139  23.972  26.298  1.00  0.00     0.226 C 
ATOM     12  O   UNL A   1      31.419  23.815  27.489  1.00  0.00    -0.275 OA
ATOM     13  H   UNL A   1      31.579  22.086  25.816  1.00  0.00     0.164 HD
BRANCH  11  14
ATOM     14  C   UNL A   1      30.264  25.101  25.845  1.00  0.00     0.157 C 
BRANCH  14  15
ATOM     15  C   UNL A   1      30.770  26.488  25.920  1.00  0.00     0.063 A 
ATOM     16  C   UNL A   1      32.036  28.012  26.913  1.00  0.00     0.180 A 
ATOM     17  N   UNL A   1      31.393  26.888  27.094  1.00  0.00    -0.225 NA
ATOM     18  S   UNL A   1      31.859  28.714  25.361  1.00  0.00    -0.106 S 
ATOM     19  C   UNL A   1      30.913  27.372  24.868  1.00  0.00     0.093 A 
BRANCH  16  20
ATOM     20  N   UNL A   1      32.806  28.559  27.859  1.00  0.00    -0.375 N 
ATOM     21  H   UNL A   1      33.766  28.702  27.692  1.00  0.00     0.159 HD
ATOM     22  H   UNL A   1      32.413  28.820  28.724  1.00  0.00     0.159 HD
ENDBRANCH  16  20
ENDBRANCH  14  15
ENDBRANCH  11  14
ENDBRANCH   6  10
ENDBRANCH   5   6
ENDBRANCH   3   5
ENDBRANCH   2   3
ENDBRANCH   1   2
BRANCH   1  23
ATOM     23  C   UNL A   1      35.798  21.453  24.740  1.00  0.00     0.275 C 
BRANCH  23  24
ATOM     24  O   UNL A   1      36.629  21.620  25.898  1.00  0.00    -0.458 OA
BRANCH  24  25
ATOM     25  C   UNL A   1      37.944  21.329  25.711  1.00  0.00     0.338 C 
ATOM     26  O   UNL A   1      38.379  20.296  25.231  1.00  0.00    -0.246 OA
BRANCH  25  27
ATOM     27  C   UNL A   1      38.800  22.461  26.163  1.00  0.00     0.060 A 
ATOM     28  C   UNL A   1      40.014  22.248  26.811  1.00  0.00     0.016 A 
ATOM     29  C   UNL A   1      38.355  23.775  25.991  1.00  0.00     0.016 A 
ATOM     30  C   UNL A   1      40.705  23.327  27.378  1.00  0.00     0.010 A 
ATOM     31  C   UNL A   1      39.121  24.860  26.457  1.00  0.00     0.010 A 
ATOM     32  C   UNL A   1      40.303  24.659  27.187  1.00  0.00    -0.014 A 
BRANCH  32  33
ATOM     33  C   UNL A   1      41.105  25.814  27.729  1.00  0.00     0.031 A 
ATOM     34  C   UNL A   1      40.469  26.873  28.608  1.00  0.00     0.074 A 
ATOM     35  C   UNL A   1      42.421  25.947  27.441  1.00  0.00     0.049 A 
ATOM     36  N   UNL A   1      40.893  28.081  28.894  1.00  0.00    -0.248 NA
ATOM     37  C   UNL A   1      39.184  26.534  29.237  1.00  0.00     0.031 C 
ATOM     38  C   UNL A   1      43.228  24.998  26.673  1.00  0.00     0.029 A 
ATOM     39  N   UNL A   1      43.321  26.940  27.766  1.00  0.00    -0.354 N 
ATOM     40  C   UNL A   1      39.894  28.674  29.665  1.00  0.00     0.074 A 
ATOM     41  C   UNL A   1      38.847  27.682  29.811  1.00  0.00     0.031 C 
ATOM     42  C   UNL A   1      44.503  25.404  26.653  1.00  0.00     0.029 A 
ATOM     43  C   UNL A   1      44.576  26.735  27.235  1.00  0.00     0.049 A 
ATOM     44  H   UNL A   1      43.090  27.719  28.321  1.00  0.00     0.167 HD
ATOM     45  C   UNL A   1      39.853  29.929  30.187  1.00  0.00     0.034 A 
ATOM     46  C   UNL A   1      45.648  27.545  27.115  1.00  0.00     0.034 A 
ATOM     47  C   UNL A   1      40.939  30.882  30.093  1.00  0.00     0.049 A 
ATOM     48  C   UNL A   1      45.547  28.963  27.594  1.00  0.00     0.074 A 
ATOM     49  C   UNL A   1      41.014  32.162  30.620  1.00  0.00     0.029 A 
ATOM     50  N   UNL A   1      42.142  30.662  29.435  1.00  0.00    -0.354 N 
ATOM     51  N   UNL A   1      44.549  29.558  28.204  1.00  0.00    -0.248 NA
ATOM     52  C   UNL A   1      46.699  29.832  27.329  1.00  0.00     0.031 C 
ATOM     53  C   UNL A   1      42.227  32.738  30.223  1.00  0.00     0.029 A 
ATOM     54  C   UNL A   1      42.944  31.793  29.509  1.00  0.00     0.049 A 
ATOM     55  H   UNL A   1      42.391  29.823  28.983  1.00  0.00     0.167 HD
ATOM     56  C   UNL A   1      44.949  30.877  28.380  1.00  0.00     0.074 A 
ATOM     57  C   UNL A   1      46.292  30.981  27.845  1.00  0.00     0.031 C 
ATOM     58  C   UNL A   1      44.262  31.909  28.930  1.00  0.00     0.034 A 
BRANCH  45  59
ATOM     59  C   UNL A   1      38.566  30.385  30.845  1.00  0.00     0.023 A 
ATOM     60  C   UNL A   1      37.545  31.048  30.145  1.00  0.00     0.031 A 
ATOM     61  C   UNL A   1      38.362  30.132  32.217  1.00  0.00     0.131 A 
ATOM     62  C   UNL A   1      36.394  31.482  30.828  1.00  0.00     0.055 A 
ATOM     63  C   UNL A   1      37.186  30.501  32.873  1.00  0.00     0.041 A 
ATOM     64  F   UNL A   1      39.306  29.515  32.945  1.00  0.00    -0.206 F 
ATOM     65  C   UNL A   1      36.198  31.193  32.181  1.00  0.00     0.022 A 
BRANCH  62  66
ATOM     66  S   UNL A   1      35.206  32.541  29.954  1.00  0.00     0.124 S 
ATOM     67  O   UNL A   1      36.073  33.597  29.438  1.00  0.00    -0.237 OA
ATOM     68  O   UNL A   1      34.644  31.631  28.963  1.00  0.00    -0.237 OA
ATOM     69  O   UNL A   1      34.284  32.963  31.007  1.00  0.00    -0.744 OA
ENDBRANCH  62  66
ENDBRANCH  45  59
BRANCH  46  70
ATOM     70  C   UNL A   1      46.853  27.073  26.372  1.00  0.00     0.023 A 
ATOM     71  C   UNL A   1      47.096  27.468  25.049  1.00  0.00     0.031 A 
ATOM     72  C   UNL A   1      47.788  26.218  26.990  1.00  0.00     0.131 A 
ATOM     73  C   UNL A   1      48.248  27.011  24.388  1.00  0.00     0.055 A 
ATOM     74  C   UNL A   1      48.960  25.818  26.350  1.00  0.00     0.041 A 
ATOM     75  F   UNL A   1      47.595  25.798  28.251  1.00  0.00    -0.206 F 
ATOM     76  C   UNL A   1      49.191  26.211  25.037  1.00  0.00     0.022 A 
BRANCH  73  77
ATOM     77  S   UNL A   1      48.475  27.434  22.639  1.00  0.00     0.124 S 
ATOM     78  O   UNL A   1      47.257  28.184  22.355  1.00  0.00    -0.237 OA
ATOM     79  O   UNL A   1      49.711  28.206  22.671  1.00  0.00    -0.237 OA
ATOM     80  O   UNL A   1      48.572  26.131  21.984  1.00  0.00    -0.744 OA
ENDBRANCH  73  77
ENDBRANCH  46  70
BRANCH  58  81
ATOM     81  C   UNL A   1      44.971  33.237  28.980  1.00  0.00     0.023 A 
ATOM     82  C   UNL A   1      45.808  33.578  30.058  1.00  0.00     0.031 A 
ATOM     83  C   UNL A   1      44.770  34.192  27.969  1.00  0.00     0.131 A 
ATOM     84  C   UNL A   1      46.366  34.863  30.131  1.00  0.00     0.055 A 
ATOM     85  C   UNL A   1      45.372  35.451  28.019  1.00  0.00     0.041 A 
ATOM     86  F   UNL A   1      43.974  33.922  26.923  1.00  0.00    -0.206 F 
ATOM     87  C   UNL A   1      46.165  35.797  29.110  1.00  0.00     0.022 A 
BRANCH  84  88
ATOM     88  S   UNL A   1      47.287  35.332  31.621  1.00  0.00     0.124 S 
ATOM     89  O   UNL A   1      47.803  36.647  31.255  1.00  0.00    -0.237 OA
ATOM     90  O   UNL A   1      46.251  35.317  32.650  1.00  0.00    -0.237 OA
ATOM     91  O   UNL A   1      48.296  34.282  31.746  1.00  0.00    -0.744 OA
ENDBRANCH  84  88
ENDBRANCH  58  81
ENDBRANCH  32  33
ENDBRANCH  25  27
ENDBRANCH  24  25
ENDBRANCH  23  24
ENDBRANCH   1  23
TORSDOF 19
ENDMDL
