MODEL 1
REMARK VINA RESULT:     -11.3      0.000      0.000
REMARK SMILES CC1(C)CC[N@H+](Cc2ccc(F)cc2/C=C/C(=O)OCCOC(=O)c2ccc(-c3c4nc(c(-c5cc(S(=O)(=O)[O-])ccc5F)c5ccc([nH]5)c(-c5cc(S(=O)(=O)[O-])ccc5F)c5nc(c(-c6cc(S(=O)(=O)[O-])ccc6F)c6ccc3[nH]6)C=C5)C=C4)cc2)C1
REMARK SMILES IDX 20 1 19 2 17 3 18 4 16 5 15 6 14 7 8 8 9 9 10 10 13 11 11 12
REMARK SMILES IDX 12 13 7 14 6 15 1 16 2 17 3 18 4 19 88 20 5 21 21 23 22 24
REMARK SMILES IDX 23 25 24 26 25 27 26 28 87 29 27 30 86 31 28 32 29 33 30 34
REMARK SMILES IDX 80 35 31 36 85 37 79 38 81 39 32 40 84 41 78 42 77 43 33 45
REMARK SMILES IDX 65 46 45 47 64 48 46 49 49 50 63 51 82 52 47 53 48 54 62 56
REMARK SMILES IDX 83 57 50 58 34 59 35 60 43 61 36 62 42 63 44 64 41 65 37 66
REMARK SMILES IDX 38 67 39 68 40 69 66 70 67 71 75 72 68 73 74 74 76 75 73 76
REMARK SMILES IDX 69 77 70 78 71 79 72 80 51 81 52 82 60 83 53 84 59 85 61 86
REMARK SMILES IDX 58 87 54 88 55 89 56 90 57 91
REMARK H PARENT 6 22 81 44 49 55
REMARK Flexibility Score: inf
ROOT
ATOM      1  C   UNL A   1      34.726  21.646  26.105  1.00  0.00     0.275 C 
ENDROOT
BRANCH   1   2
ATOM      2  O   UNL A   1      34.349  22.929  25.569  1.00  0.00    -0.459 OA
BRANCH   2   3
ATOM      3  C   UNL A   1      33.235  23.480  26.102  1.00  0.00     0.330 C 
ATOM      4  O   UNL A   1      32.267  22.871  26.534  1.00  0.00    -0.247 OA
BRANCH   3   5
ATOM      5  C   UNL A   1      33.286  24.955  26.148  1.00  0.00     0.094 C 
ATOM      6  C   UNL A   1      32.233  25.789  26.101  1.00  0.00     0.016 C 
BRANCH   6   7
ATOM      7  C   UNL A   1      32.431  27.250  26.059  1.00  0.00    -0.014 A 
ATOM      8  C   UNL A   1      31.731  28.101  25.169  1.00  0.00     0.014 A 
ATOM      9  C   UNL A   1      31.924  29.496  25.286  1.00  0.00     0.013 A 
ATOM     10  C   UNL A   1      32.839  30.033  26.191  1.00  0.00     0.040 A 
ATOM     11  C   UNL A   1      33.364  27.809  26.951  1.00  0.00     0.047 A 
ATOM     12  C   UNL A   1      33.563  29.182  27.004  1.00  0.00     0.123 A 
ATOM     13  F   UNL A   1      34.453  29.689  27.864  1.00  0.00    -0.207 F 
BRANCH   8  14
ATOM     14  C   UNL A   1      30.778  27.576  24.101  1.00  0.00     0.299 C 
BRANCH  14  15
ATOM     15  N   UNL A   1      31.372  27.110  22.837  1.00  0.00    -0.331 N 
ATOM     16  C   UNL A   1      32.515  25.433  20.381  1.00  0.00     0.017 C 
ATOM     17  C   UNL A   1      32.707  25.344  21.905  1.00  0.00     0.019 C 
ATOM     18  C   UNL A   1      33.263  23.963  22.261  1.00  0.00     0.017 C 
ATOM     19  C   UNL A   1      33.620  26.465  22.404  1.00  0.00     0.073 C 
ATOM     20  C   UNL A   1      31.403  25.649  22.661  1.00  0.00     0.269 C 
ATOM     21  C   UNL A   1      32.686  27.660  22.504  1.00  0.00     0.263 C 
ATOM     22  H   UNL A   1      30.703  27.502  22.176  1.00  0.00     0.348 HD
ENDBRANCH  14  15
ENDBRANCH   8  14
ENDBRANCH   6   7
ENDBRANCH   3   5
ENDBRANCH   2   3
ENDBRANCH   1   2
BRANCH   1  23
ATOM     23  C   UNL A   1      35.940  21.069  25.371  1.00  0.00     0.275 C 
BRANCH  23  24
ATOM     24  O   UNL A   1      37.004  22.029  25.243  1.00  0.00    -0.458 OA
BRANCH  24  25
ATOM     25  C   UNL A   1      38.199  21.621  25.737  1.00  0.00     0.338 C 
ATOM     26  O   UNL A   1      38.654  20.489  25.701  1.00  0.00    -0.246 OA
BRANCH  25  27
ATOM     27  C   UNL A   1      38.965  22.775  26.244  1.00  0.00     0.060 A 
ATOM     28  C   UNL A   1      38.425  24.049  26.043  1.00  0.00     0.016 A 
ATOM     29  C   UNL A   1      40.223  22.626  26.832  1.00  0.00     0.016 A 
ATOM     30  C   UNL A   1      39.149  25.180  26.413  1.00  0.00     0.010 A 
ATOM     31  C   UNL A   1      40.950  23.765  27.204  1.00  0.00     0.010 A 
ATOM     32  C   UNL A   1      40.424  25.050  26.980  1.00  0.00    -0.014 A 
BRANCH  32  33
ATOM     33  C   UNL A   1      41.215  26.269  27.281  1.00  0.00     0.031 A 
ATOM     34  C   UNL A   1      40.640  27.335  28.172  1.00  0.00     0.074 A 
ATOM     35  C   UNL A   1      42.470  26.390  26.807  1.00  0.00     0.049 A 
ATOM     36  N   UNL A   1      41.172  28.467  28.556  1.00  0.00    -0.248 NA
ATOM     37  C   UNL A   1      39.289  27.095  28.702  1.00  0.00     0.031 C 
ATOM     38  C   UNL A   1      43.152  25.399  25.973  1.00  0.00     0.029 A 
ATOM     39  N   UNL A   1      43.399  27.386  26.972  1.00  0.00    -0.354 N 
ATOM     40  C   UNL A   1      40.226  29.074  29.374  1.00  0.00     0.074 A 
ATOM     41  C   UNL A   1      39.073  28.199  29.405  1.00  0.00     0.031 C 
ATOM     42  C   UNL A   1      44.399  25.828  25.718  1.00  0.00     0.029 A 
ATOM     43  C   UNL A   1      44.592  27.140  26.334  1.00  0.00     0.049 A 
ATOM     44  H   UNL A   1      43.228  28.201  27.497  1.00  0.00     0.167 HD
ATOM     45  C   UNL A   1      40.316  30.249  30.043  1.00  0.00     0.034 A 
ATOM     46  C   UNL A   1      45.709  27.890  26.241  1.00  0.00     0.034 A 
ATOM     47  C   UNL A   1      41.470  31.111  30.012  1.00  0.00     0.049 A 
ATOM     48  C   UNL A   1      45.752  29.231  26.923  1.00  0.00     0.074 A 
ATOM     49  C   UNL A   1      41.662  32.315  30.667  1.00  0.00     0.029 A 
ATOM     50  N   UNL A   1      42.625  30.867  29.281  1.00  0.00    -0.354 N 
ATOM     51  N   UNL A   1      44.835  29.808  27.666  1.00  0.00    -0.248 NA
ATOM     52  C   UNL A   1      46.973  30.031  26.749  1.00  0.00     0.031 C 
ATOM     53  C   UNL A   1      42.907  32.827  30.289  1.00  0.00     0.029 A 
ATOM     54  C   UNL A   1      43.519  31.914  29.444  1.00  0.00     0.049 A 
ATOM     55  H   UNL A   1      42.786  30.069  28.728  1.00  0.00     0.167 HD
ATOM     56  C   UNL A   1      45.374  31.028  28.056  1.00  0.00     0.074 A 
ATOM     57  C   UNL A   1      46.697  31.109  27.471  1.00  0.00     0.031 C 
ATOM     58  C   UNL A   1      44.824  31.992  28.836  1.00  0.00     0.034 A 
BRANCH  45  59
ATOM     59  C   UNL A   1      39.118  30.692  30.839  1.00  0.00     0.023 A 
ATOM     60  C   UNL A   1      38.134  31.531  30.289  1.00  0.00     0.031 A 
ATOM     61  C   UNL A   1      38.948  30.248  32.163  1.00  0.00     0.131 A 
ATOM     62  C   UNL A   1      37.042  31.932  31.073  1.00  0.00     0.055 A 
ATOM     63  C   UNL A   1      37.829  30.604  32.918  1.00  0.00     0.041 A 
ATOM     64  F   UNL A   1      39.867  29.459  32.741  1.00  0.00    -0.206 F 
ATOM     65  C   UNL A   1      36.872  31.455  32.376  1.00  0.00     0.022 A 
BRANCH  62  66
ATOM     66  S   UNL A   1      35.878  33.144  30.394  1.00  0.00     0.124 S 
ATOM     67  O   UNL A   1      34.717  32.306  30.102  1.00  0.00    -0.237 OA
ATOM     68  O   UNL A   1      35.723  34.088  31.495  1.00  0.00    -0.237 OA
ATOM     69  O   UNL A   1      36.572  33.667  29.220  1.00  0.00    -0.744 OA
ENDBRANCH  62  66
ENDBRANCH  45  59
BRANCH  46  70
ATOM     70  C   UNL A   1      46.862  27.405  25.436  1.00  0.00     0.023 A 
ATOM     71  C   UNL A   1      47.040  27.806  24.103  1.00  0.00     0.031 A 
ATOM     72  C   UNL A   1      47.808  26.529  25.999  1.00  0.00     0.131 A 
ATOM     73  C   UNL A   1      48.134  27.316  23.370  1.00  0.00     0.055 A 
ATOM     74  C   UNL A   1      48.913  26.075  25.279  1.00  0.00     0.041 A 
ATOM     75  F   UNL A   1      47.680  26.121  27.272  1.00  0.00    -0.206 F 
ATOM     76  C   UNL A   1      49.077  26.465  23.953  1.00  0.00     0.022 A 
BRANCH  73  77
ATOM     77  S   UNL A   1      48.302  27.792  21.628  1.00  0.00     0.124 S 
ATOM     78  O   UNL A   1      49.335  28.820  21.700  1.00  0.00    -0.237 OA
ATOM     79  O   UNL A   1      48.692  26.532  21.002  1.00  0.00    -0.237 OA
ATOM     80  O   UNL A   1      46.967  28.270  21.275  1.00  0.00    -0.744 OA
ENDBRANCH  73  77
ENDBRANCH  46  70
BRANCH  58  81
ATOM     81  C   UNL A   1      45.654  33.213  29.123  1.00  0.00     0.023 A 
ATOM     82  C   UNL A   1      45.523  34.384  28.358  1.00  0.00     0.031 A 
ATOM     83  C   UNL A   1      46.539  33.223  30.216  1.00  0.00     0.131 A 
ATOM     84  C   UNL A   1      46.282  35.518  28.687  1.00  0.00     0.055 A 
ATOM     85  C   UNL A   1      47.263  34.365  30.561  1.00  0.00     0.041 A 
ATOM     86  F   UNL A   1      46.693  32.130  30.979  1.00  0.00    -0.206 F 
ATOM     87  C   UNL A   1      47.136  35.521  29.794  1.00  0.00     0.022 A 
BRANCH  84  88
ATOM     88  S   UNL A   1      46.142  36.998  27.649  1.00  0.00     0.124 S 
ATOM     89  O   UNL A   1      46.220  38.068  28.638  1.00  0.00    -0.237 OA
ATOM     90  O   UNL A   1      47.290  36.871  26.757  1.00  0.00    -0.237 OA
ATOM     91  O   UNL A   1      44.840  36.843  27.003  1.00  0.00    -0.744 OA
ENDBRANCH  84  88
ENDBRANCH  58  81
ENDBRANCH  32  33
ENDBRANCH  25  27
ENDBRANCH  24  25
ENDBRANCH  23  24
ENDBRANCH   1  23
TORSDOF 17
ENDMDL
MODEL 2
REMARK VINA RESULT:     -11.3      5.309     10.337
REMARK SMILES CC1(C)CC[N@H+](Cc2ccc(F)cc2/C=C/C(=O)OCCOC(=O)c2ccc(-c3c4nc(c(-c5cc(S(=O)(=O)[O-])ccc5F)c5ccc([nH]5)c(-c5cc(S(=O)(=O)[O-])ccc5F)c5nc(c(-c6cc(S(=O)(=O)[O-])ccc6F)c6ccc3[nH]6)C=C5)C=C4)cc2)C1
REMARK SMILES IDX 20 1 19 2 17 3 18 4 16 5 15 6 14 7 8 8 9 9 10 10 13 11 11 12
REMARK SMILES IDX 12 13 7 14 6 15 1 16 2 17 3 18 4 19 88 20 5 21 21 23 22 24
REMARK SMILES IDX 23 25 24 26 25 27 26 28 87 29 27 30 86 31 28 32 29 33 30 34
REMARK SMILES IDX 80 35 31 36 85 37 79 38 81 39 32 40 84 41 78 42 77 43 33 45
REMARK SMILES IDX 65 46 45 47 64 48 46 49 49 50 63 51 82 52 47 53 48 54 62 56
REMARK SMILES IDX 83 57 50 58 34 59 35 60 43 61 36 62 42 63 44 64 41 65 37 66
REMARK SMILES IDX 38 67 39 68 40 69 66 70 67 71 75 72 68 73 74 74 76 75 73 76
REMARK SMILES IDX 69 77 70 78 71 79 72 80 51 81 52 82 60 83 53 84 59 85 61 86
REMARK SMILES IDX 58 87 54 88 55 89 56 90 57 91
REMARK H PARENT 6 22 81 44 49 55
REMARK Flexibility Score: inf
ROOT
ATOM      1  C   UNL A   1      31.419  28.803  24.771  1.00  0.00     0.275 C 
ENDROOT
BRANCH   1   2
ATOM      2  O   UNL A   1      31.893  27.461  24.990  1.00  0.00    -0.459 OA
BRANCH   2   3
ATOM      3  C   UNL A   1      32.707  26.965  24.032  1.00  0.00     0.330 C 
ATOM      4  O   UNL A   1      32.782  27.359  22.877  1.00  0.00    -0.247 OA
BRANCH   3   5
ATOM      5  C   UNL A   1      33.564  25.865  24.516  1.00  0.00     0.094 C 
ATOM      6  C   UNL A   1      34.086  24.876  23.771  1.00  0.00     0.016 C 
BRANCH   6   7
ATOM      7  C   UNL A   1      34.851  23.781  24.399  1.00  0.00    -0.014 A 
ATOM      8  C   UNL A   1      34.336  22.473  24.564  1.00  0.00     0.014 A 
ATOM      9  C   UNL A   1      35.193  21.478  25.085  1.00  0.00     0.013 A 
ATOM     10  C   UNL A   1      36.487  21.778  25.511  1.00  0.00     0.040 A 
ATOM     11  C   UNL A   1      36.151  24.070  24.852  1.00  0.00     0.047 A 
ATOM     12  C   UNL A   1      36.947  23.077  25.405  1.00  0.00     0.123 A 
ATOM     13  F   UNL A   1      38.183  23.375  25.824  1.00  0.00    -0.207 F 
BRANCH   8  14
ATOM     14  C   UNL A   1      32.906  22.095  24.196  1.00  0.00     0.299 C 
BRANCH  14  15
ATOM     15  N   UNL A   1      31.890  22.189  25.258  1.00  0.00    -0.331 N 
ATOM     16  C   UNL A   1      29.404  22.913  27.115  1.00  0.00     0.017 C 
ATOM     17  C   UNL A   1      30.461  23.759  26.384  1.00  0.00     0.019 C 
ATOM     18  C   UNL A   1      29.961  25.200  26.269  1.00  0.00     0.017 C 
ATOM     19  C   UNL A   1      31.808  23.686  27.105  1.00  0.00     0.073 C 
ATOM     20  C   UNL A   1      30.815  23.164  25.010  1.00  0.00     0.269 C 
ATOM     21  C   UNL A   1      32.396  22.371  26.618  1.00  0.00     0.263 C 
ATOM     22  H   UNL A   1      31.495  21.251  25.204  1.00  0.00     0.348 HD
ENDBRANCH  14  15
ENDBRANCH   8  14
ENDBRANCH   6   7
ENDBRANCH   3   5
ENDBRANCH   2   3
ENDBRANCH   1   2
BRANCH   1  23
ATOM     23  C   UNL A   1      31.699  29.700  25.981  1.00  0.00     0.275 C 
BRANCH  23  24
ATOM     24  O   UNL A   1      32.993  30.327  25.904  1.00  0.00    -0.458 OA
BRANCH  24  25
ATOM     25  C   UNL A   1      33.234  31.247  26.871  1.00  0.00     0.338 C 
ATOM     26  O   UNL A   1      32.495  32.154  27.215  1.00  0.00    -0.246 OA
BRANCH  25  27
ATOM     27  C   UNL A   1      34.500  30.941  27.564  1.00  0.00     0.060 A 
ATOM     28  C   UNL A   1      34.795  29.597  27.810  1.00  0.00     0.016 A 
ATOM     29  C   UNL A   1      35.346  31.948  28.037  1.00  0.00     0.016 A 
ATOM     30  C   UNL A   1      35.926  29.254  28.547  1.00  0.00     0.010 A 
ATOM     31  C   UNL A   1      36.484  31.601  28.776  1.00  0.00     0.010 A 
ATOM     32  C   UNL A   1      36.772  30.252  29.050  1.00  0.00    -0.014 A 
BRANCH  32  33
ATOM     33  C   UNL A   1      37.920  29.868  29.909  1.00  0.00     0.031 A 
ATOM     34  C   UNL A   1      39.000  28.976  29.363  1.00  0.00     0.074 A 
ATOM     35  C   UNL A   1      38.024  30.370  31.155  1.00  0.00     0.049 A 
ATOM     36  N   UNL A   1      40.081  28.532  29.951  1.00  0.00    -0.248 NA
ATOM     37  C   UNL A   1      38.843  28.526  27.971  1.00  0.00     0.031 C 
ATOM     38  C   UNL A   1      37.064  31.283  31.777  1.00  0.00     0.029 A 
ATOM     39  N   UNL A   1      38.992  30.197  32.113  1.00  0.00    -0.354 N 
ATOM     40  C   UNL A   1      40.736  27.754  29.004  1.00  0.00     0.074 A 
ATOM     41  C   UNL A   1      39.914  27.760  27.812  1.00  0.00     0.031 C 
ATOM     42  C   UNL A   1      37.503  31.608  33.003  1.00  0.00     0.029 A 
ATOM     43  C   UNL A   1      38.750  30.896  33.273  1.00  0.00     0.049 A 
ATOM     44  H   UNL A   1      39.783  29.627  31.983  1.00  0.00     0.167 HD
ATOM     45  C   UNL A   1      41.919  27.102  29.117  1.00  0.00     0.034 A 
ATOM     46  C   UNL A   1      39.446  30.946  34.427  1.00  0.00     0.034 A 
ATOM     47  C   UNL A   1      42.735  27.106  30.305  1.00  0.00     0.049 A 
ATOM     48  C   UNL A   1      40.713  30.144  34.558  1.00  0.00     0.074 A 
ATOM     49  C   UNL A   1      43.955  26.488  30.512  1.00  0.00     0.029 A 
ATOM     50  N   UNL A   1      42.411  27.755  31.489  1.00  0.00    -0.354 N 
ATOM     51  N   UNL A   1      41.303  29.384  33.664  1.00  0.00    -0.248 NA
ATOM     52  C   UNL A   1      41.406  30.195  35.854  1.00  0.00     0.031 C 
ATOM     53  C   UNL A   1      44.342  26.713  31.837  1.00  0.00     0.029 A 
ATOM     54  C   UNL A   1      43.392  27.523  32.440  1.00  0.00     0.049 A 
ATOM     55  H   UNL A   1      41.603  28.298  31.633  1.00  0.00     0.167 HD
ATOM     56  C   UNL A   1      42.439  28.879  34.285  1.00  0.00     0.074 A 
ATOM     57  C   UNL A   1      42.458  29.419  35.629  1.00  0.00     0.031 C 
ATOM     58  C   UNL A   1      43.386  28.048  33.782  1.00  0.00     0.034 A 
BRANCH  45  59
ATOM     59  C   UNL A   1      42.387  26.296  27.935  1.00  0.00     0.023 A 
ATOM     60  C   UNL A   1      42.039  24.944  27.778  1.00  0.00     0.031 A 
ATOM     61  C   UNL A   1      43.176  26.898  26.939  1.00  0.00     0.131 A 
ATOM     62  C   UNL A   1      42.511  24.226  26.669  1.00  0.00     0.055 A 
ATOM     63  C   UNL A   1      43.594  26.194  25.808  1.00  0.00     0.041 A 
ATOM     64  F   UNL A   1      43.551  28.182  27.049  1.00  0.00    -0.206 F 
ATOM     65  C   UNL A   1      43.267  24.849  25.673  1.00  0.00     0.022 A 
BRANCH  62  66
ATOM     66  S   UNL A   1      42.185  22.445  26.577  1.00  0.00     0.124 S 
ATOM     67  O   UNL A   1      40.726  22.408  26.653  1.00  0.00    -0.237 OA
ATOM     68  O   UNL A   1      42.768  22.081  25.291  1.00  0.00    -0.237 OA
ATOM     69  O   UNL A   1      42.877  21.909  27.748  1.00  0.00    -0.744 OA
ENDBRANCH  62  66
ENDBRANCH  45  59
BRANCH  46  70
ATOM     70  C   UNL A   1      38.934  31.756  35.565  1.00  0.00     0.023 A 
ATOM     71  C   UNL A   1      38.258  31.158  36.639  1.00  0.00     0.031 A 
ATOM     72  C   UNL A   1      39.120  33.150  35.590  1.00  0.00     0.131 A 
ATOM     73  C   UNL A   1      37.777  31.956  37.690  1.00  0.00     0.055 A 
ATOM     74  C   UNL A   1      38.672  33.935  36.654  1.00  0.00     0.041 A 
ATOM     75  F   UNL A   1      39.763  33.767  34.585  1.00  0.00    -0.206 F 
ATOM     76  C   UNL A   1      37.991  33.337  37.710  1.00  0.00     0.022 A 
BRANCH  73  77
ATOM     77  S   UNL A   1      36.844  31.168  39.031  1.00  0.00     0.124 S 
ATOM     78  O   UNL A   1      36.649  29.822  38.505  1.00  0.00    -0.237 OA
ATOM     79  O   UNL A   1      37.763  31.291  40.158  1.00  0.00    -0.237 OA
ATOM     80  O   UNL A   1      35.634  31.983  39.128  1.00  0.00    -0.744 OA
ENDBRANCH  73  77
ENDBRANCH  46  70
BRANCH  58  81
ATOM     81  C   UNL A   1      44.538  27.682  34.679  1.00  0.00     0.023 A 
ATOM     82  C   UNL A   1      44.513  26.516  35.463  1.00  0.00     0.031 A 
ATOM     83  C   UNL A   1      45.697  28.477  34.698  1.00  0.00     0.131 A 
ATOM     84  C   UNL A   1      45.626  26.185  36.250  1.00  0.00     0.055 A 
ATOM     85  C   UNL A   1      46.815  28.123  35.453  1.00  0.00     0.041 A 
ATOM     86  F   UNL A   1      45.768  29.596  33.961  1.00  0.00    -0.206 F 
ATOM     87  C   UNL A   1      46.782  26.971  36.236  1.00  0.00     0.022 A 
BRANCH  84  88
ATOM     88  S   UNL A   1      45.549  24.708  37.301  1.00  0.00     0.124 S 
ATOM     89  O   UNL A   1      44.817  25.202  38.461  1.00  0.00    -0.237 OA
ATOM     90  O   UNL A   1      44.838  23.753  36.457  1.00  0.00    -0.237 OA
ATOM     91  O   UNL A   1      46.955  24.387  37.544  1.00  0.00    -0.744 OA
ENDBRANCH  84  88
ENDBRANCH  58  81
ENDBRANCH  32  33
ENDBRANCH  25  27
ENDBRANCH  24  25
ENDBRANCH  23  24
ENDBRANCH   1  23
TORSDOF 17
ENDMDL
MODEL 3
REMARK VINA RESULT:     -11.3      1.540      7.754
REMARK SMILES CC1(C)CC[N@H+](Cc2ccc(F)cc2/C=C/C(=O)OCCOC(=O)c2ccc(-c3c4nc(c(-c5cc(S(=O)(=O)[O-])ccc5F)c5ccc([nH]5)c(-c5cc(S(=O)(=O)[O-])ccc5F)c5nc(c(-c6cc(S(=O)(=O)[O-])ccc6F)c6ccc3[nH]6)C=C5)C=C4)cc2)C1
REMARK SMILES IDX 20 1 19 2 17 3 18 4 16 5 15 6 14 7 8 8 9 9 10 10 13 11 11 12
REMARK SMILES IDX 12 13 7 14 6 15 1 16 2 17 3 18 4 19 88 20 5 21 21 23 22 24
REMARK SMILES IDX 23 25 24 26 25 27 26 28 87 29 27 30 86 31 28 32 29 33 30 34
REMARK SMILES IDX 80 35 31 36 85 37 79 38 81 39 32 40 84 41 78 42 77 43 33 45
REMARK SMILES IDX 65 46 45 47 64 48 46 49 49 50 63 51 82 52 47 53 48 54 62 56
REMARK SMILES IDX 83 57 50 58 34 59 35 60 43 61 36 62 42 63 44 64 41 65 37 66
REMARK SMILES IDX 38 67 39 68 40 69 66 70 67 71 75 72 68 73 74 74 76 75 73 76
REMARK SMILES IDX 69 77 70 78 71 79 72 80 51 81 52 82 60 83 53 84 59 85 61 86
REMARK SMILES IDX 58 87 54 88 55 89 56 90 57 91
REMARK H PARENT 6 22 81 44 49 55
REMARK Flexibility Score: inf
ROOT
ATOM      1  C   UNL A   1      36.168  22.146  24.435  1.00  0.00     0.275 C 
ENDROOT
BRANCH   1   2
ATOM      2  O   UNL A   1      35.715  23.346  25.088  1.00  0.00    -0.459 OA
BRANCH   2   3
ATOM      3  C   UNL A   1      34.449  23.725  24.801  1.00  0.00     0.330 C 
ATOM      4  O   UNL A   1      33.667  23.129  24.075  1.00  0.00    -0.247 OA
BRANCH   3   5
ATOM      5  C   UNL A   1      34.051  24.971  25.486  1.00  0.00     0.094 C 
ATOM      6  C   UNL A   1      33.379  25.999  24.940  1.00  0.00     0.016 C 
BRANCH   6   7
ATOM      7  C   UNL A   1      33.127  27.230  25.712  1.00  0.00    -0.014 A 
ATOM      8  C   UNL A   1      31.854  27.846  25.795  1.00  0.00     0.014 A 
ATOM      9  C   UNL A   1      31.706  28.963  26.646  1.00  0.00     0.013 A 
ATOM     10  C   UNL A   1      32.792  29.512  27.328  1.00  0.00     0.040 A 
ATOM     11  C   UNL A   1      34.214  27.809  26.392  1.00  0.00     0.047 A 
ATOM     12  C   UNL A   1      34.040  28.937  27.181  1.00  0.00     0.123 A 
ATOM     13  F   UNL A   1      35.089  29.467  27.822  1.00  0.00    -0.207 F 
BRANCH   8  14
ATOM     14  C   UNL A   1      30.644  27.348  25.013  1.00  0.00     0.299 C 
BRANCH  14  15
ATOM     15  N   UNL A   1      30.280  28.088  23.792  1.00  0.00    -0.331 N 
ATOM     16  C   UNL A   1      29.581  30.279  21.587  1.00  0.00     0.017 C 
ATOM     17  C   UNL A   1      29.120  30.051  23.038  1.00  0.00     0.019 C 
ATOM     18  C   UNL A   1      28.500  31.343  23.576  1.00  0.00     0.017 C 
ATOM     19  C   UNL A   1      28.141  28.880  23.119  1.00  0.00     0.073 C 
ATOM     20  C   UNL A   1      30.271  29.553  23.929  1.00  0.00     0.269 C 
ATOM     21  C   UNL A   1      29.051  27.662  23.125  1.00  0.00     0.263 C 
ATOM     22  H   UNL A   1      31.060  27.823  23.190  1.00  0.00     0.348 HD
ENDBRANCH  14  15
ENDBRANCH   8  14
ENDBRANCH   6   7
ENDBRANCH   3   5
ENDBRANCH   2   3
ENDBRANCH   1   2
BRANCH   1  23
ATOM     23  C   UNL A   1      37.100  21.334  25.340  1.00  0.00     0.275 C 
BRANCH  23  24
ATOM     24  O   UNL A   1      38.484  21.674  25.140  1.00  0.00    -0.458 OA
BRANCH  24  25
ATOM     25  C   UNL A   1      39.283  21.453  26.213  1.00  0.00     0.338 C 
ATOM     26  O   UNL A   1      39.672  20.371  26.621  1.00  0.00    -0.246 OA
BRANCH  25  27
ATOM     27  C   UNL A   1      39.738  22.734  26.785  1.00  0.00     0.060 A 
ATOM     28  C   UNL A   1      39.242  23.910  26.216  1.00  0.00     0.016 A 
ATOM     29  C   UNL A   1      40.691  22.790  27.805  1.00  0.00     0.016 A 
ATOM     30  C   UNL A   1      39.711  25.148  26.649  1.00  0.00     0.010 A 
ATOM     31  C   UNL A   1      41.161  24.036  28.240  1.00  0.00     0.010 A 
ATOM     32  C   UNL A   1      40.686  25.222  27.653  1.00  0.00    -0.014 A 
BRANCH  32  33
ATOM     33  C   UNL A   1      41.238  26.546  28.036  1.00  0.00     0.031 A 
ATOM     34  C   UNL A   1      42.656  26.899  27.681  1.00  0.00     0.074 A 
ATOM     35  C   UNL A   1      40.448  27.452  28.644  1.00  0.00     0.049 A 
ATOM     36  N   UNL A   1      43.318  28.001  27.922  1.00  0.00    -0.248 NA
ATOM     37  C   UNL A   1      43.429  25.877  26.958  1.00  0.00     0.031 C 
ATOM     38  C   UNL A   1      39.043  27.242  28.995  1.00  0.00     0.029 A 
ATOM     39  N   UNL A   1      40.709  28.735  29.058  1.00  0.00    -0.354 N 
ATOM     40  C   UNL A   1      44.584  27.810  27.380  1.00  0.00     0.074 A 
ATOM     41  C   UNL A   1      44.606  26.473  26.825  1.00  0.00     0.031 C 
ATOM     42  C   UNL A   1      38.560  28.365  29.551  1.00  0.00     0.029 A 
ATOM     43  C   UNL A   1      39.628  29.359  29.635  1.00  0.00     0.049 A 
ATOM     44  H   UNL A   1      41.587  29.167  28.953  1.00  0.00     0.167 HD
ATOM     45  C   UNL A   1      45.626  28.675  27.342  1.00  0.00     0.034 A 
ATOM     46  C   UNL A   1      39.513  30.586  30.183  1.00  0.00     0.034 A 
ATOM     47  C   UNL A   1      45.593  30.006  27.892  1.00  0.00     0.049 A 
ATOM     48  C   UNL A   1      40.712  31.496  30.205  1.00  0.00     0.074 A 
ATOM     49  C   UNL A   1      46.594  30.962  27.890  1.00  0.00     0.029 A 
ATOM     50  N   UNL A   1      44.506  30.569  28.547  1.00  0.00    -0.354 N 
ATOM     51  N   UNL A   1      41.913  31.288  29.718  1.00  0.00    -0.248 NA
ATOM     52  C   UNL A   1      40.547  32.803  30.859  1.00  0.00     0.031 C 
ATOM     53  C   UNL A   1      46.134  32.080  28.593  1.00  0.00     0.029 A 
ATOM     54  C   UNL A   1      44.824  31.846  28.982  1.00  0.00     0.049 A 
ATOM     55  H   UNL A   1      43.638  30.127  28.683  1.00  0.00     0.167 HD
ATOM     56  C   UNL A   1      42.640  32.440  29.996  1.00  0.00     0.074 A 
ATOM     57  C   UNL A   1      41.746  33.344  30.690  1.00  0.00     0.031 C 
ATOM     58  C   UNL A   1      43.932  32.726  29.693  1.00  0.00     0.034 A 
BRANCH  45  59
ATOM     59  C   UNL A   1      46.909  28.194  26.716  1.00  0.00     0.023 A 
ATOM     60  C   UNL A   1      47.084  28.163  25.323  1.00  0.00     0.031 A 
ATOM     61  C   UNL A   1      47.979  27.782  27.530  1.00  0.00     0.131 A 
ATOM     62  C   UNL A   1      48.290  27.692  24.783  1.00  0.00     0.055 A 
ATOM     63  C   UNL A   1      49.196  27.369  26.988  1.00  0.00     0.041 A 
ATOM     64  F   UNL A   1      47.856  27.776  28.867  1.00  0.00    -0.206 F 
ATOM     65  C   UNL A   1      49.355  27.317  25.607  1.00  0.00     0.022 A 
BRANCH  62  66
ATOM     66  S   UNL A   1      48.429  27.506  22.984  1.00  0.00     0.124 S 
ATOM     67  O   UNL A   1      48.368  26.054  22.833  1.00  0.00    -0.237 OA
ATOM     68  O   UNL A   1      47.272  28.248  22.497  1.00  0.00    -0.237 OA
ATOM     69  O   UNL A   1      49.726  28.104  22.677  1.00  0.00    -0.744 OA
ENDBRANCH  62  66
ENDBRANCH  45  59
BRANCH  46  70
ATOM     70  C   UNL A   1      38.223  31.007  30.792  1.00  0.00     0.023 A 
ATOM     71  C   UNL A   1      37.296  31.779  30.074  1.00  0.00     0.031 A 
ATOM     72  C   UNL A   1      37.900  30.636  32.110  1.00  0.00     0.131 A 
ATOM     73  C   UNL A   1      36.094  32.169  30.687  1.00  0.00     0.055 A 
ATOM     74  C   UNL A   1      36.689  30.995  32.701  1.00  0.00     0.041 A 
ATOM     75  F   UNL A   1      38.756  29.896  32.834  1.00  0.00    -0.206 F 
ATOM     76  C   UNL A   1      35.779  31.771  31.990  1.00  0.00     0.022 A 
BRANCH  73  77
ATOM     77  S   UNL A   1      34.945  33.226  29.764  1.00  0.00     0.124 S 
ATOM     78  O   UNL A   1      34.092  33.739  30.830  1.00  0.00    -0.237 OA
ATOM     79  O   UNL A   1      35.846  34.190  29.142  1.00  0.00    -0.237 OA
ATOM     80  O   UNL A   1      34.298  32.298  28.838  1.00  0.00    -0.744 OA
ENDBRANCH  73  77
ENDBRANCH  46  70
BRANCH  58  81
ATOM     81  C   UNL A   1      44.457  34.078  30.093  1.00  0.00     0.023 A 
ATOM     82  C   UNL A   1      44.297  35.200  29.264  1.00  0.00     0.031 A 
ATOM     83  C   UNL A   1      45.068  34.253  31.347  1.00  0.00     0.131 A 
ATOM     84  C   UNL A   1      44.759  36.453  29.694  1.00  0.00     0.055 A 
ATOM     85  C   UNL A   1      45.492  35.508  31.785  1.00  0.00     0.041 A 
ATOM     86  F   UNL A   1      45.238  33.211  32.175  1.00  0.00    -0.206 F 
ATOM     87  C   UNL A   1      45.339  36.617  30.956  1.00  0.00     0.022 A 
BRANCH  84  88
ATOM     88  S   UNL A   1      44.597  37.877  28.582  1.00  0.00     0.124 S 
ATOM     89  O   UNL A   1      44.954  38.986  29.459  1.00  0.00    -0.237 OA
ATOM     90  O   UNL A   1      45.554  37.567  27.525  1.00  0.00    -0.237 OA
ATOM     91  O   UNL A   1      43.194  37.835  28.174  1.00  0.00    -0.744 OA
ENDBRANCH  84  88
ENDBRANCH  58  81
ENDBRANCH  32  33
ENDBRANCH  25  27
ENDBRANCH  24  25
ENDBRANCH  23  24
ENDBRANCH   1  23
TORSDOF 17
ENDMDL
