MODEL 1
REMARK VINA RESULT:     -10.8      0.000      0.000
REMARK SMILES CC(C)[C@H](NC(=O)[C@H](C)NC(=O)C[NH3+])C(=O)OCCOC(=O)c1ccc(-c2c3nc(c(-c4cc(S(=O)(=O)[O-])ccc4F)c4ccc([nH]4)c(-c4cc(S(=O)(=O)[O-])ccc4F)c4nc(c(-c5cc(S(=O)(=O)[O-])ccc5F)c5ccc2[nH]5)C=C4)C=C3)cc1
REMARK SMILES IDX 18 1 17 2 15 3 16 4 4 5 2 6 1 7 3 8 5 9 6 10 7 12 8 13 9 14
REMARK SMILES IDX 10 15 11 16 12 18 13 19 14 20 19 24 20 25 21 26 22 27 23 28
REMARK SMILES IDX 24 29 85 30 25 31 84 32 26 33 27 34 28 35 78 36 29 37 83 38
REMARK SMILES IDX 77 39 79 40 30 41 82 42 76 43 75 44 31 46 63 47 43 48 62 49
REMARK SMILES IDX 44 50 47 51 61 52 80 53 45 54 46 55 60 57 81 58 48 59 32 60
REMARK SMILES IDX 33 61 41 62 34 63 40 64 42 65 39 66 35 67 36 68 37 69 38 70
REMARK SMILES IDX 64 71 65 72 73 73 66 74 72 75 74 76 71 77 67 78 68 79 69 80
REMARK SMILES IDX 70 81 49 82 50 83 58 84 51 85 57 86 59 87 56 88 52 89 53 90
REMARK SMILES IDX 54 91 55 92
REMARK H PARENT 5 11 10 17 14 21 14 22 14 23 79 45 47 56
REMARK Flexibility Score: inf
ROOT
ATOM      1  C   UNL A   1      38.337  20.670  25.234  1.00  0.00     0.274 C 
ENDROOT
BRANCH   1   2
ATOM      2  O   UNL A   1      36.917  20.618  24.788  1.00  0.00    -0.461 OA
BRANCH   2   3
ATOM      3  C   UNL A   1      35.888  21.405  25.267  1.00  0.00     0.329 C 
ATOM      4  O   UNL A   1      36.105  22.433  25.898  1.00  0.00    -0.250 OA
BRANCH   3   5
ATOM      5  C   UNL A   1      34.388  20.947  24.735  1.00  0.00     0.194 C 
BRANCH   5   6
ATOM      6  C   UNL A   1      33.338  22.075  24.461  1.00  0.00     0.017 C 
ATOM      7  C   UNL A   1      32.866  22.781  25.730  1.00  0.00     0.010 C 
ATOM      8  C   UNL A   1      33.921  23.193  23.541  1.00  0.00     0.010 C 
ENDBRANCH   5   6
BRANCH   5   9
ATOM      9  N   UNL A   1      33.636  19.848  25.427  1.00  0.00    -0.341 N 
ATOM     10  C   UNL A   1      32.966  18.753  24.949  1.00  0.00     0.243 C 
ATOM     11  H   UNL A   1      33.621  19.928  26.409  1.00  0.00     0.164 HD
ATOM     12  O   UNL A   1      32.112  18.215  25.651  1.00  0.00    -0.273 OA
BRANCH  10  13
ATOM     13  C   UNL A   1      33.569  18.071  23.734  1.00  0.00     0.168 C 
ATOM     14  C   UNL A   1      32.371  18.439  22.753  1.00  0.00     0.041 C 
BRANCH  13  15
ATOM     15  N   UNL A   1      34.073  16.687  24.387  1.00  0.00    -0.340 N 
ATOM     16  C   UNL A   1      34.036  15.513  25.086  1.00  0.00     0.275 C 
ATOM     17  H   UNL A   1      35.013  16.685  24.092  1.00  0.00     0.164 HD
ATOM     18  O   UNL A   1      35.184  15.015  25.125  1.00  0.00    -0.268 OA
BRANCH  16  19
ATOM     19  C   UNL A   1      32.947  14.625  25.793  1.00  0.00     0.360 C 
BRANCH  19  20
ATOM     20  N   UNL A   1      31.537  14.993  25.585  1.00  0.00    -0.350 N 
ATOM     21  H   UNL A   1      31.001  14.162  25.336  1.00  0.00     0.344 HD
ATOM     22  H   UNL A   1      31.473  15.679  24.832  1.00  0.00     0.344 HD
ATOM     23  H   UNL A   1      31.161  15.396  26.444  1.00  0.00     0.344 HD
ENDBRANCH  19  20
ENDBRANCH  16  19
ENDBRANCH  13  15
ENDBRANCH  10  13
ENDBRANCH   5   9
ENDBRANCH   3   5
ENDBRANCH   2   3
ENDBRANCH   1   2
BRANCH   1  24
ATOM     24  C   UNL A   1      39.098  19.258  25.726  1.00  0.00     0.275 C 
BRANCH  24  25
ATOM     25  O   UNL A   1      40.578  19.274  25.867  1.00  0.00    -0.458 OA
BRANCH  25  26
ATOM     26  C   UNL A   1      41.392  19.610  26.939  1.00  0.00     0.338 C 
ATOM     27  O   UNL A   1      42.089  18.842  27.537  1.00  0.00    -0.246 OA
BRANCH  26  28
ATOM     28  C   UNL A   1      41.394  21.164  27.144  1.00  0.00     0.060 A 
ATOM     29  C   UNL A   1      41.722  21.770  28.377  1.00  0.00     0.016 A 
ATOM     30  C   UNL A   1      41.219  22.041  26.070  1.00  0.00     0.016 A 
ATOM     31  C   UNL A   1      42.082  23.135  28.496  1.00  0.00     0.010 A 
ATOM     32  C   UNL A   1      41.505  23.434  26.203  1.00  0.00     0.010 A 
ATOM     33  C   UNL A   1      41.988  23.995  27.403  1.00  0.00    -0.014 A 
BRANCH  33  34
ATOM     34  C   UNL A   1      42.153  25.484  27.576  1.00  0.00     0.031 A 
ATOM     35  C   UNL A   1      43.421  26.117  27.049  1.00  0.00     0.074 A 
ATOM     36  C   UNL A   1      41.242  26.301  28.156  1.00  0.00     0.049 A 
ATOM     37  N   UNL A   1      43.883  27.333  27.205  1.00  0.00    -0.248 NA
ATOM     38  C   UNL A   1      44.279  25.244  26.238  1.00  0.00     0.031 C 
ATOM     39  C   UNL A   1      39.911  25.914  28.618  1.00  0.00     0.029 A 
ATOM     40  N   UNL A   1      41.314  27.650  28.467  1.00  0.00    -0.354 N 
ATOM     41  C   UNL A   1      45.098  27.366  26.527  1.00  0.00     0.074 A 
ATOM     42  C   UNL A   1      45.299  26.043  25.972  1.00  0.00     0.031 C 
ATOM     43  C   UNL A   1      39.311  26.986  29.178  1.00  0.00     0.029 A 
ATOM     44  C   UNL A   1      40.223  28.133  29.161  1.00  0.00     0.049 A 
ATOM     45  H   UNL A   1      42.079  28.215  28.214  1.00  0.00     0.167 HD
ATOM     46  C   UNL A   1      45.976  28.390  26.381  1.00  0.00     0.034 A 
ATOM     47  C   UNL A   1      39.992  29.336  29.745  1.00  0.00     0.034 A 
ATOM     48  C   UNL A   1      45.811  29.707  26.944  1.00  0.00     0.049 A 
ATOM     49  C   UNL A   1      41.051  30.427  29.693  1.00  0.00     0.074 A 
ATOM     50  C   UNL A   1      46.671  30.790  26.861  1.00  0.00     0.029 A 
ATOM     51  N   UNL A   1      44.726  30.123  27.701  1.00  0.00    -0.354 N 
ATOM     52  N   UNL A   1      42.216  30.426  29.088  1.00  0.00    -0.248 NA
ATOM     53  C   UNL A   1      40.763  31.681  30.414  1.00  0.00     0.031 C 
ATOM     54  C   UNL A   1      46.143  31.834  27.627  1.00  0.00     0.029 A 
ATOM     55  C   UNL A   1      44.913  31.432  28.121  1.00  0.00     0.049 A 
ATOM     56  H   UNL A   1      43.940  29.569  27.911  1.00  0.00     0.167 HD
ATOM     57  C   UNL A   1      42.775  31.684  29.326  1.00  0.00     0.074 A 
ATOM     58  C   UNL A   1      41.821  32.423  30.122  1.00  0.00     0.031 C 
ATOM     59  C   UNL A   1      43.969  32.183  28.915  1.00  0.00     0.034 A 
BRANCH  46  60
ATOM     60  C   UNL A   1      47.253  28.083  25.638  1.00  0.00     0.023 A 
ATOM     61  C   UNL A   1      47.352  28.237  24.244  1.00  0.00     0.031 A 
ATOM     62  C   UNL A   1      48.368  27.579  26.330  1.00  0.00     0.131 A 
ATOM     63  C   UNL A   1      48.511  27.816  23.579  1.00  0.00     0.055 A 
ATOM     64  C   UNL A   1      49.549  27.240  25.671  1.00  0.00     0.041 A 
ATOM     65  F   UNL A   1      48.320  27.390  27.659  1.00  0.00    -0.206 F 
ATOM     66  C   UNL A   1      49.620  27.342  24.285  1.00  0.00     0.022 A 
BRANCH  63  67
ATOM     67  S   UNL A   1      48.492  27.748  21.767  1.00  0.00     0.124 S 
ATOM     68  O   UNL A   1      48.715  26.324  21.523  1.00  0.00    -0.237 OA
ATOM     69  O   UNL A   1      47.162  28.249  21.446  1.00  0.00    -0.237 OA
ATOM     70  O   UNL A   1      49.599  28.619  21.379  1.00  0.00    -0.744 OA
ENDBRANCH  63  67
ENDBRANCH  46  60
BRANCH  47  71
ATOM     71  C   UNL A   1      38.739  29.592  30.535  1.00  0.00     0.023 A 
ATOM     72  C   UNL A   1      37.731  30.454  30.064  1.00  0.00     0.031 A 
ATOM     73  C   UNL A   1      38.601  29.081  31.838  1.00  0.00     0.131 A 
ATOM     74  C   UNL A   1      36.660  30.815  30.904  1.00  0.00     0.055 A 
ATOM     75  C   UNL A   1      37.506  29.397  32.648  1.00  0.00     0.041 A 
ATOM     76  F   UNL A   1      39.544  28.278  32.357  1.00  0.00    -0.206 F 
ATOM     77  C   UNL A   1      36.535  30.280  32.188  1.00  0.00     0.022 A 
BRANCH  74  78
ATOM     78  S   UNL A   1      35.484  32.080  30.341  1.00  0.00     0.124 S 
ATOM     79  O   UNL A   1      35.039  31.527  29.067  1.00  0.00    -0.237 OA
ATOM     80  O   UNL A   1      34.500  32.084  31.419  1.00  0.00    -0.237 OA
ATOM     81  O   UNL A   1      36.302  33.289  30.244  1.00  0.00    -0.744 OA
ENDBRANCH  74  78
ENDBRANCH  47  71
BRANCH  59  82
ATOM     82  C   UNL A   1      44.298  33.620  29.257  1.00  0.00     0.023 A 
ATOM     83  C   UNL A   1      43.808  34.704  28.506  1.00  0.00     0.031 A 
ATOM     84  C   UNL A   1      45.109  33.909  30.372  1.00  0.00     0.131 A 
ATOM     85  C   UNL A   1      44.164  36.019  28.854  1.00  0.00     0.055 A 
ATOM     86  C   UNL A   1      45.417  35.220  30.744  1.00  0.00     0.041 A 
ATOM     87  F   UNL A   1      45.607  32.918  31.129  1.00  0.00    -0.206 F 
ATOM     88  C   UNL A   1      44.953  36.283  29.977  1.00  0.00     0.022 A 
BRANCH  85  89
ATOM     89  S   UNL A   1      43.642  37.388  27.780  1.00  0.00     0.124 S 
ATOM     90  O   UNL A   1      42.834  38.195  28.689  1.00  0.00    -0.237 OA
ATOM     91  O   UNL A   1      44.916  37.969  27.372  1.00  0.00    -0.237 OA
ATOM     92  O   UNL A   1      42.896  36.723  26.713  1.00  0.00    -0.744 OA
ENDBRANCH  85  89
ENDBRANCH  59  82
ENDBRANCH  33  34
ENDBRANCH  26  28
ENDBRANCH  25  26
ENDBRANCH  24  25
ENDBRANCH   1  24
TORSDOF 20
ENDMDL
MODEL 2
REMARK VINA RESULT:     -10.8      1.808      2.133
REMARK SMILES CC(C)[C@H](NC(=O)[C@H](C)NC(=O)C[NH3+])C(=O)OCCOC(=O)c1ccc(-c2c3nc(c(-c4cc(S(=O)(=O)[O-])ccc4F)c4ccc([nH]4)c(-c4cc(S(=O)(=O)[O-])ccc4F)c4nc(c(-c5cc(S(=O)(=O)[O-])ccc5F)c5ccc2[nH]5)C=C4)C=C3)cc1
REMARK SMILES IDX 18 1 17 2 15 3 16 4 4 5 2 6 1 7 3 8 5 9 6 10 7 12 8 13 9 14
REMARK SMILES IDX 10 15 11 16 12 18 13 19 14 20 19 24 20 25 21 26 22 27 23 28
REMARK SMILES IDX 24 29 85 30 25 31 84 32 26 33 27 34 28 35 78 36 29 37 83 38
REMARK SMILES IDX 77 39 79 40 30 41 82 42 76 43 75 44 31 46 63 47 43 48 62 49
REMARK SMILES IDX 44 50 47 51 61 52 80 53 45 54 46 55 60 57 81 58 48 59 32 60
REMARK SMILES IDX 33 61 41 62 34 63 40 64 42 65 39 66 35 67 36 68 37 69 38 70
REMARK SMILES IDX 64 71 65 72 73 73 66 74 72 75 74 76 71 77 67 78 68 79 69 80
REMARK SMILES IDX 70 81 49 82 50 83 58 84 51 85 57 86 59 87 56 88 52 89 53 90
REMARK SMILES IDX 54 91 55 92
REMARK H PARENT 5 11 10 17 14 21 14 22 14 23 79 45 47 56
REMARK Flexibility Score: inf
ROOT
ATOM      1  C   UNL A   1      37.957  19.601  24.729  1.00  0.00     0.274 C 
ENDROOT
BRANCH   1   2
ATOM      2  O   UNL A   1      36.607  20.006  25.212  1.00  0.00    -0.461 OA
BRANCH   2   3
ATOM      3  C   UNL A   1      35.990  21.217  24.969  1.00  0.00     0.329 C 
ATOM      4  O   UNL A   1      36.620  22.194  24.581  1.00  0.00    -0.250 OA
BRANCH   3   5
ATOM      5  C   UNL A   1      34.337  21.157  25.046  1.00  0.00     0.194 C 
BRANCH   5   6
ATOM      6  C   UNL A   1      33.584  22.437  25.540  1.00  0.00     0.017 C 
ATOM      7  C   UNL A   1      34.371  23.237  26.575  1.00  0.00     0.010 C 
ATOM      8  C   UNL A   1      33.297  23.424  24.365  1.00  0.00     0.010 C 
ENDBRANCH   5   6
BRANCH   5   9
ATOM      9  N   UNL A   1      33.645  19.997  25.702  1.00  0.00    -0.341 N 
ATOM     10  C   UNL A   1      33.022  18.890  25.188  1.00  0.00     0.243 C 
ATOM     11  H   UNL A   1      33.638  20.039  26.686  1.00  0.00     0.164 HD
ATOM     12  O   UNL A   1      32.202  18.287  25.877  1.00  0.00    -0.273 OA
BRANCH  10  13
ATOM     13  C   UNL A   1      33.643  18.285  23.942  1.00  0.00     0.168 C 
ATOM     14  C   UNL A   1      32.449  18.696  22.972  1.00  0.00     0.041 C 
BRANCH  13  15
ATOM     15  N   UNL A   1      34.156  16.870  24.520  1.00  0.00    -0.340 N 
ATOM     16  C   UNL A   1      34.110  15.617  25.063  1.00  0.00     0.275 C 
ATOM     17  H   UNL A   1      35.129  16.979  24.413  1.00  0.00     0.164 HD
ATOM     18  O   UNL A   1      35.275  15.208  25.265  1.00  0.00    -0.268 OA
BRANCH  16  19
ATOM     19  C   UNL A   1      33.004  14.565  25.443  1.00  0.00     0.360 C 
BRANCH  19  20
ATOM     20  N   UNL A   1      31.668  15.082  25.783  1.00  0.00    -0.350 N 
ATOM     21  H   UNL A   1      31.084  14.318  26.124  1.00  0.00     0.344 HD
ATOM     22  H   UNL A   1      31.241  15.492  24.952  1.00  0.00     0.344 HD
ATOM     23  H   UNL A   1      31.754  15.794  26.508  1.00  0.00     0.344 HD
ENDBRANCH  19  20
ENDBRANCH  16  19
ENDBRANCH  13  15
ENDBRANCH  10  13
ENDBRANCH   5   9
ENDBRANCH   3   5
ENDBRANCH   2   3
ENDBRANCH   1   2
BRANCH   1  24
ATOM     24  C   UNL A   1      39.295  19.860  25.709  1.00  0.00     0.275 C 
BRANCH  24  25
ATOM     25  O   UNL A   1      40.367  18.831  25.714  1.00  0.00    -0.458 OA
BRANCH  25  26
ATOM     26  C   UNL A   1      41.705  18.903  26.077  1.00  0.00     0.338 C 
ATOM     27  O   UNL A   1      42.472  17.985  26.048  1.00  0.00    -0.246 OA
BRANCH  26  28
ATOM     28  C   UNL A   1      42.102  20.391  26.366  1.00  0.00     0.060 A 
ATOM     29  C   UNL A   1      42.492  21.288  25.346  1.00  0.00     0.016 A 
ATOM     30  C   UNL A   1      41.941  20.956  27.634  1.00  0.00     0.016 A 
ATOM     31  C   UNL A   1      42.501  22.694  25.515  1.00  0.00     0.010 A 
ATOM     32  C   UNL A   1      42.027  22.368  27.828  1.00  0.00     0.010 A 
ATOM     33  C   UNL A   1      42.259  23.264  26.765  1.00  0.00    -0.014 A 
BRANCH  33  34
ATOM     34  C   UNL A   1      42.487  24.736  26.999  1.00  0.00     0.031 A 
ATOM     35  C   UNL A   1      43.839  25.305  26.633  1.00  0.00     0.074 A 
ATOM     36  C   UNL A   1      41.566  25.591  27.502  1.00  0.00     0.049 A 
ATOM     37  N   UNL A   1      44.349  26.488  26.874  1.00  0.00    -0.248 NA
ATOM     38  C   UNL A   1      44.730  24.402  25.893  1.00  0.00     0.031 C 
ATOM     39  C   UNL A   1      40.172  25.274  27.805  1.00  0.00     0.029 A 
ATOM     40  N   UNL A   1      41.678  26.926  27.859  1.00  0.00    -0.354 N 
ATOM     41  C   UNL A   1      45.631  26.465  26.333  1.00  0.00     0.074 A 
ATOM     42  C   UNL A   1      45.817  25.146  25.764  1.00  0.00     0.031 C 
ATOM     43  C   UNL A   1      39.575  26.365  28.328  1.00  0.00     0.029 A 
ATOM     44  C   UNL A   1      40.546  27.456  28.445  1.00  0.00     0.049 A 
ATOM     45  H   UNL A   1      42.498  27.451  27.708  1.00  0.00     0.167 HD
ATOM     46  C   UNL A   1      46.576  27.438  26.315  1.00  0.00     0.034 A 
ATOM     47  C   UNL A   1      40.321  28.656  29.036  1.00  0.00     0.034 A 
ATOM     48  C   UNL A   1      46.424  28.749  26.895  1.00  0.00     0.049 A 
ATOM     49  C   UNL A   1      41.439  29.684  29.133  1.00  0.00     0.074 A 
ATOM     50  C   UNL A   1      47.348  29.781  26.939  1.00  0.00     0.029 A 
ATOM     51  N   UNL A   1      45.288  29.210  27.543  1.00  0.00    -0.354 N 
ATOM     52  N   UNL A   1      42.661  29.628  28.658  1.00  0.00    -0.248 NA
ATOM     53  C   UNL A   1      41.144  30.935  29.855  1.00  0.00     0.031 C 
ATOM     54  C   UNL A   1      46.798  30.836  27.674  1.00  0.00     0.029 A 
ATOM     55  C   UNL A   1      45.500  30.496  28.020  1.00  0.00     0.049 A 
ATOM     56  H   UNL A   1      44.453  28.699  27.649  1.00  0.00     0.167 HD
ATOM     57  C   UNL A   1      43.261  30.845  28.993  1.00  0.00     0.074 A 
ATOM     58  C   UNL A   1      42.268  31.620  29.702  1.00  0.00     0.031 C 
ATOM     59  C   UNL A   1      44.518  31.282  28.729  1.00  0.00     0.034 A 
BRANCH  46  60
ATOM     60  C   UNL A   1      47.907  27.074  25.705  1.00  0.00     0.023 A 
ATOM     61  C   UNL A   1      48.883  26.366  26.429  1.00  0.00     0.031 A 
ATOM     62  C   UNL A   1      48.223  27.490  24.400  1.00  0.00     0.131 A 
ATOM     63  C   UNL A   1      50.153  26.165  25.871  1.00  0.00     0.055 A 
ATOM     64  C   UNL A   1      49.461  27.214  23.820  1.00  0.00     0.041 A 
ATOM     65  F   UNL A   1      47.337  28.191  23.673  1.00  0.00    -0.206 F 
ATOM     66  C   UNL A   1      50.441  26.562  24.563  1.00  0.00     0.022 A 
BRANCH  63  67
ATOM     67  S   UNL A   1      51.472  25.519  26.935  1.00  0.00     0.124 S 
ATOM     68  O   UNL A   1      50.704  24.816  27.961  1.00  0.00    -0.237 OA
ATOM     69  O   UNL A   1      52.233  24.679  26.019  1.00  0.00    -0.237 OA
ATOM     70  O   UNL A   1      52.160  26.723  27.397  1.00  0.00    -0.744 OA
ENDBRANCH  63  67
ENDBRANCH  46  60
BRANCH  47  71
ATOM     71  C   UNL A   1      39.005  28.968  29.693  1.00  0.00     0.023 A 
ATOM     72  C   UNL A   1      38.030  29.760  29.058  1.00  0.00     0.031 A 
ATOM     73  C   UNL A   1      38.765  28.586  31.026  1.00  0.00     0.131 A 
ATOM     74  C   UNL A   1      36.891  30.184  29.770  1.00  0.00     0.055 A 
ATOM     75  C   UNL A   1      37.605  28.961  31.709  1.00  0.00     0.041 A 
ATOM     76  F   UNL A   1      39.671  27.856  31.697  1.00  0.00    -0.206 F 
ATOM     77  C   UNL A   1      36.667  29.776  31.086  1.00  0.00     0.022 A 
BRANCH  74  78
ATOM     78  S   UNL A   1      35.753  31.366  28.989  1.00  0.00     0.124 S 
ATOM     79  O   UNL A   1      35.067  31.927  30.148  1.00  0.00    -0.237 OA
ATOM     80  O   UNL A   1      36.671  32.259  28.291  1.00  0.00    -0.237 OA
ATOM     81  O   UNL A   1      34.927  30.525  28.124  1.00  0.00    -0.744 OA
ENDBRANCH  74  78
ENDBRANCH  47  71
BRANCH  59  82
ATOM     82  C   UNL A   1      44.889  32.689  29.148  1.00  0.00     0.023 A 
ATOM     83  C   UNL A   1      44.678  33.802  28.314  1.00  0.00     0.031 A 
ATOM     84  C   UNL A   1      45.451  32.918  30.418  1.00  0.00     0.131 A 
ATOM     85  C   UNL A   1      45.062  35.085  28.744  1.00  0.00     0.055 A 
ATOM     86  C   UNL A   1      45.782  34.201  30.861  1.00  0.00     0.041 A 
ATOM     87  F   UNL A   1      45.676  31.897  31.260  1.00  0.00    -0.206 F 
ATOM     88  C   UNL A   1      45.598  35.292  30.018  1.00  0.00     0.022 A 
BRANCH  85  89
ATOM     89  S   UNL A   1      44.916  36.481  27.592  1.00  0.00     0.124 S 
ATOM     90  O   UNL A   1      43.568  36.301  27.064  1.00  0.00    -0.237 OA
ATOM     91  O   UNL A   1      45.110  37.631  28.468  1.00  0.00    -0.237 OA
ATOM     92  O   UNL A   1      45.994  36.249  26.631  1.00  0.00    -0.744 OA
ENDBRANCH  85  89
ENDBRANCH  59  82
ENDBRANCH  33  34
ENDBRANCH  26  28
ENDBRANCH  25  26
ENDBRANCH  24  25
ENDBRANCH   1  24
TORSDOF 20
ENDMDL
MODEL 3
REMARK VINA RESULT:     -10.7      1.656      2.002
REMARK SMILES CC(C)[C@H](NC(=O)[C@H](C)NC(=O)C[NH3+])C(=O)OCCOC(=O)c1ccc(-c2c3nc(c(-c4cc(S(=O)(=O)[O-])ccc4F)c4ccc([nH]4)c(-c4cc(S(=O)(=O)[O-])ccc4F)c4nc(c(-c5cc(S(=O)(=O)[O-])ccc5F)c5ccc2[nH]5)C=C4)C=C3)cc1
REMARK SMILES IDX 18 1 17 2 15 3 16 4 4 5 2 6 1 7 3 8 5 9 6 10 7 12 8 13 9 14
REMARK SMILES IDX 10 15 11 16 12 18 13 19 14 20 19 24 20 25 21 26 22 27 23 28
REMARK SMILES IDX 24 29 85 30 25 31 84 32 26 33 27 34 28 35 78 36 29 37 83 38
REMARK SMILES IDX 77 39 79 40 30 41 82 42 76 43 75 44 31 46 63 47 43 48 62 49
REMARK SMILES IDX 44 50 47 51 61 52 80 53 45 54 46 55 60 57 81 58 48 59 32 60
REMARK SMILES IDX 33 61 41 62 34 63 40 64 42 65 39 66 35 67 36 68 37 69 38 70
REMARK SMILES IDX 64 71 65 72 73 73 66 74 72 75 74 76 71 77 67 78 68 79 69 80
REMARK SMILES IDX 70 81 49 82 50 83 58 84 51 85 57 86 59 87 56 88 52 89 53 90
REMARK SMILES IDX 54 91 55 92
REMARK H PARENT 5 11 10 17 14 21 14 22 14 23 79 45 47 56
REMARK Flexibility Score: inf
ROOT
ATOM      1  C   UNL A   1      38.091  19.766  24.769  1.00  0.00     0.274 C 
ENDROOT
BRANCH   1   2
ATOM      2  O   UNL A   1      36.723  20.077  25.272  1.00  0.00    -0.461 OA
BRANCH   2   3
ATOM      3  C   UNL A   1      36.015  21.237  25.027  1.00  0.00     0.329 C 
ATOM      4  O   UNL A   1      36.577  22.317  24.892  1.00  0.00    -0.250 OA
BRANCH   3   5
ATOM      5  C   UNL A   1      34.404  20.991  24.731  1.00  0.00     0.194 C 
BRANCH   5   6
ATOM      6  C   UNL A   1      33.459  22.238  24.771  1.00  0.00     0.017 C 
ATOM      7  C   UNL A   1      32.907  22.620  23.399  1.00  0.00     0.010 C 
ATOM      8  C   UNL A   1      32.213  21.987  25.677  1.00  0.00     0.010 C 
ENDBRANCH   5   6
BRANCH   5   9
ATOM      9  N   UNL A   1      33.659  19.890  25.430  1.00  0.00    -0.341 N 
ATOM     10  C   UNL A   1      33.008  18.781  24.958  1.00  0.00     0.243 C 
ATOM     11  H   UNL A   1      33.633  19.983  26.410  1.00  0.00     0.164 HD
ATOM     12  O   UNL A   1      32.154  18.241  25.659  1.00  0.00    -0.273 OA
BRANCH  10  13
ATOM     13  C   UNL A   1      33.633  18.091  23.759  1.00  0.00     0.168 C 
ATOM     14  C   UNL A   1      32.446  18.444  22.757  1.00  0.00     0.041 C 
BRANCH  13  15
ATOM     15  N   UNL A   1      34.135  16.716  24.431  1.00  0.00    -0.340 N 
ATOM     16  C   UNL A   1      34.089  15.536  25.120  1.00  0.00     0.275 C 
ATOM     17  H   UNL A   1      35.091  16.742  24.192  1.00  0.00     0.164 HD
ATOM     18  O   UNL A   1      35.246  15.069  25.222  1.00  0.00    -0.268 OA
BRANCH  16  19
ATOM     19  C   UNL A   1      32.985  14.614  25.755  1.00  0.00     0.360 C 
BRANCH  19  20
ATOM     20  N   UNL A   1      31.595  15.096  25.711  1.00  0.00    -0.350 N 
ATOM     21  H   UNL A   1      31.181  15.028  26.640  1.00  0.00     0.344 HD
ATOM     22  H   UNL A   1      31.058  14.525  25.056  1.00  0.00     0.344 HD
ATOM     23  H   UNL A   1      31.582  16.068  25.402  1.00  0.00     0.344 HD
ENDBRANCH  19  20
ENDBRANCH  16  19
ENDBRANCH  13  15
ENDBRANCH  10  13
ENDBRANCH   5   9
ENDBRANCH   3   5
ENDBRANCH   2   3
ENDBRANCH   1   2
BRANCH   1  24
ATOM     24  C   UNL A   1      39.415  20.035  25.764  1.00  0.00     0.275 C 
BRANCH  24  25
ATOM     25  O   UNL A   1      40.517  19.037  25.746  1.00  0.00    -0.458 OA
BRANCH  25  26
ATOM     26  C   UNL A   1      41.844  19.131  26.143  1.00  0.00     0.338 C 
ATOM     27  O   UNL A   1      42.620  18.220  26.154  1.00  0.00    -0.246 OA
BRANCH  26  28
ATOM     28  C   UNL A   1      42.219  20.628  26.411  1.00  0.00     0.060 A 
ATOM     29  C   UNL A   1      42.513  21.538  25.372  1.00  0.00     0.016 A 
ATOM     30  C   UNL A   1      42.132  21.183  27.691  1.00  0.00     0.016 A 
ATOM     31  C   UNL A   1      42.495  22.944  25.548  1.00  0.00     0.010 A 
ATOM     32  C   UNL A   1      42.192  22.597  27.886  1.00  0.00     0.010 A 
ATOM     33  C   UNL A   1      42.324  23.502  26.814  1.00  0.00    -0.014 A 
BRANCH  33  34
ATOM     34  C   UNL A   1      42.528  24.979  27.040  1.00  0.00     0.031 A 
ATOM     35  C   UNL A   1      43.868  25.570  26.664  1.00  0.00     0.074 A 
ATOM     36  C   UNL A   1      41.594  25.821  27.542  1.00  0.00     0.049 A 
ATOM     37  N   UNL A   1      44.358  26.763  26.897  1.00  0.00    -0.248 NA
ATOM     38  C   UNL A   1      44.772  24.679  25.926  1.00  0.00     0.031 C 
ATOM     39  C   UNL A   1      40.208  25.481  27.853  1.00  0.00     0.029 A 
ATOM     40  N   UNL A   1      41.685  27.159  27.892  1.00  0.00    -0.354 N 
ATOM     41  C   UNL A   1      45.638  26.759  26.351  1.00  0.00     0.074 A 
ATOM     42  C   UNL A   1      45.845  25.441  25.787  1.00  0.00     0.031 C 
ATOM     43  C   UNL A   1      39.594  26.564  28.374  1.00  0.00     0.029 A 
ATOM     44  C   UNL A   1      40.547  27.673  28.480  1.00  0.00     0.049 A 
ATOM     45  H   UNL A   1      42.494  27.698  27.734  1.00  0.00     0.167 HD
ATOM     46  C   UNL A   1      46.566  27.748  26.323  1.00  0.00     0.034 A 
ATOM     47  C   UNL A   1      40.303  28.872  29.067  1.00  0.00     0.034 A 
ATOM     48  C   UNL A   1      46.394  29.060  26.897  1.00  0.00     0.049 A 
ATOM     49  C   UNL A   1      41.403  29.919  29.153  1.00  0.00     0.074 A 
ATOM     50  C   UNL A   1      47.300  30.108  26.932  1.00  0.00     0.029 A 
ATOM     51  N   UNL A   1      45.253  29.504  27.548  1.00  0.00    -0.354 N 
ATOM     52  N   UNL A   1      42.624  29.882  28.673  1.00  0.00    -0.248 NA
ATOM     53  C   UNL A   1      41.090  31.169  29.870  1.00  0.00     0.031 C 
ATOM     54  C   UNL A   1      46.735  31.157  27.664  1.00  0.00     0.029 A 
ATOM     55  C   UNL A   1      45.445  30.796  28.017  1.00  0.00     0.049 A 
ATOM     56  H   UNL A   1      44.428  28.979  27.661  1.00  0.00     0.167 HD
ATOM     57  C   UNL A   1      43.204  31.112  28.999  1.00  0.00     0.074 A 
ATOM     58  C   UNL A   1      42.201  31.872  29.709  1.00  0.00     0.031 C 
ATOM     59  C   UNL A   1      44.453  31.569  28.727  1.00  0.00     0.034 A 
BRANCH  46  60
ATOM     60  C   UNL A   1      47.901  27.405  25.709  1.00  0.00     0.023 A 
ATOM     61  C   UNL A   1      48.172  27.639  24.350  1.00  0.00     0.031 A 
ATOM     62  C   UNL A   1      48.896  26.785  26.486  1.00  0.00     0.131 A 
ATOM     63  C   UNL A   1      49.375  27.184  23.792  1.00  0.00     0.055 A 
ATOM     64  C   UNL A   1      50.124  26.410  25.943  1.00  0.00     0.041 A 
ATOM     65  F   UNL A   1      48.680  26.517  27.784  1.00  0.00    -0.206 F 
ATOM     66  C   UNL A   1      50.363  26.594  24.584  1.00  0.00     0.022 A 
BRANCH  63  67
ATOM     67  S   UNL A   1      49.564  27.232  21.990  1.00  0.00     0.124 S 
ATOM     68  O   UNL A   1      50.943  26.772  21.827  1.00  0.00    -0.237 OA
ATOM     69  O   UNL A   1      48.527  26.312  21.538  1.00  0.00    -0.237 OA
ATOM     70  O   UNL A   1      49.341  28.637  21.658  1.00  0.00    -0.744 OA
ENDBRANCH  63  67
ENDBRANCH  46  60
BRANCH  47  71
ATOM     71  C   UNL A   1      38.985  29.164  29.728  1.00  0.00     0.023 A 
ATOM     72  C   UNL A   1      38.006  29.963  29.107  1.00  0.00     0.031 A 
ATOM     73  C   UNL A   1      38.745  28.755  31.053  1.00  0.00     0.131 A 
ATOM     74  C   UNL A   1      36.865  30.367  29.825  1.00  0.00     0.055 A 
ATOM     75  C   UNL A   1      37.583  29.111  31.742  1.00  0.00     0.041 A 
ATOM     76  F   UNL A   1      39.654  28.017  31.711  1.00  0.00    -0.206 F 
ATOM     77  C   UNL A   1      36.641  29.933  31.133  1.00  0.00     0.022 A 
BRANCH  74  78
ATOM     78  S   UNL A   1      35.721  31.558  29.067  1.00  0.00     0.124 S 
ATOM     79  O   UNL A   1      35.047  32.110  30.237  1.00  0.00    -0.237 OA
ATOM     80  O   UNL A   1      36.634  32.457  28.368  1.00  0.00    -0.237 OA
ATOM     81  O   UNL A   1      34.886  30.727  28.202  1.00  0.00    -0.744 OA
ENDBRANCH  74  78
ENDBRANCH  47  71
BRANCH  59  82
ATOM     82  C   UNL A   1      44.800  32.984  29.137  1.00  0.00     0.023 A 
ATOM     83  C   UNL A   1      45.337  33.291  30.400  1.00  0.00     0.031 A 
ATOM     84  C   UNL A   1      44.603  34.046  28.233  1.00  0.00     0.131 A 
ATOM     85  C   UNL A   1      45.620  34.626  30.739  1.00  0.00     0.055 A 
ATOM     86  C   UNL A   1      44.935  35.364  28.555  1.00  0.00     0.041 A 
ATOM     87  F   UNL A   1      44.095  33.817  27.011  1.00  0.00    -0.206 F 
ATOM     88  C   UNL A   1      45.436  35.661  29.818  1.00  0.00     0.022 A 
BRANCH  85  89
ATOM     89  S   UNL A   1      46.169  35.011  32.426  1.00  0.00     0.124 S 
ATOM     90  O   UNL A   1      47.621  34.949  32.295  1.00  0.00    -0.237 OA
ATOM     91  O   UNL A   1      45.605  36.339  32.644  1.00  0.00    -0.237 OA
ATOM     92  O   UNL A   1      45.574  33.947  33.234  1.00  0.00    -0.744 OA
ENDBRANCH  85  89
ENDBRANCH  59  82
ENDBRANCH  33  34
ENDBRANCH  26  28
ENDBRANCH  25  26
ENDBRANCH  24  25
ENDBRANCH   1  24
TORSDOF 20
ENDMDL
