MODEL 1
REMARK VINA RESULT:     -11.6      0.000      0.000
REMARK SMILES CSc1ccc([C@H]2[NH2+][C@@H](C(=O)OCCOC(=O)c3ccc(-c4c5nc(c(-c6cc(S(=O)(=O)[O-])ccc6F)c6ccc([nH]6)c(-c6cc(S(=O)(=O)[O-])ccc6F)c6nc(c(-c7cc(S(=O)(=O)[O-])ccc7F)c7ccc4[nH]7)C=C6)C=C5)cc3)C(C)(C)S2)cc1
REMARK SMILES IDX 14 1 13 2 12 3 10 4 11 5 9 6 7 7 8 8 84 9 81 12 82 13 83 14
REMARK SMILES IDX 6 15 3 16 4 17 86 18 5 19 85 20 2 21 1 22 15 23 16 24 17 25
REMARK SMILES IDX 18 26 19 27 80 28 20 29 79 30 21 31 22 32 23 33 73 34 24 35
REMARK SMILES IDX 78 36 72 37 74 38 25 39 77 40 71 41 70 42 26 44 58 45 38 46
REMARK SMILES IDX 57 47 39 48 42 49 56 50 75 51 40 52 41 53 55 55 76 56 43 57
REMARK SMILES IDX 27 58 28 59 36 60 29 61 35 62 37 63 34 64 30 65 31 66 32 67
REMARK SMILES IDX 33 68 59 69 60 70 68 71 61 72 67 73 69 74 66 75 62 76 63 77
REMARK SMILES IDX 64 78 65 79 44 80 45 81 53 82 46 83 52 84 54 85 51 86 47 87
REMARK SMILES IDX 48 88 49 89 50 90
REMARK H PARENT 8 10 8 11 74 43 42 54
REMARK Flexibility Score: inf
ROOT
ATOM      1  C   UNL A   1      31.800  29.508  25.559  1.00  0.00     0.275 C 
ENDROOT
BRANCH   1   2
ATOM      2  C   UNL A   1      31.659  28.200  26.339  1.00  0.00     0.274 C 
BRANCH   2   3
ATOM      3  O   UNL A   1      30.853  27.236  25.634  1.00  0.00    -0.458 OA
BRANCH   3   4
ATOM      4  C   UNL A   1      31.212  25.937  25.799  1.00  0.00     0.366 C 
ATOM      5  O   UNL A   1      31.150  25.347  26.873  1.00  0.00    -0.245 OA
BRANCH   4   6
ATOM      6  C   UNL A   1      31.845  25.300  24.546  1.00  0.00     0.310 C 
ATOM      7  C   UNL A   1      32.230  23.228  23.474  1.00  0.00     0.274 C 
ATOM      8  N   UNL A   1      31.612  23.843  24.646  1.00  0.00    -0.319 N 
ATOM      9  S   UNL A   1      33.720  24.166  23.065  1.00  0.00    -0.081 SA
ATOM     10  H   UNL A   1      32.039  23.478  25.497  1.00  0.00     0.348 HD
ATOM     11  H   UNL A   1      30.614  23.635  24.680  1.00  0.00     0.348 HD
ATOM     12  C   UNL A   1      33.332  25.564  24.202  1.00  0.00     0.079 C 
ATOM     13  C   UNL A   1      34.345  25.473  25.346  1.00  0.00     0.030 C 
ATOM     14  C   UNL A   1      33.526  26.866  23.422  1.00  0.00     0.030 C 
BRANCH   7  15
ATOM     15  C   UNL A   1      32.492  21.765  23.755  1.00  0.00     0.020 A 
ATOM     16  C   UNL A   1      32.720  19.023  24.369  1.00  0.00     0.007 A 
ATOM     17  C   UNL A   1      32.265  19.433  23.113  1.00  0.00     0.015 A 
ATOM     18  C   UNL A   1      33.057  19.989  25.319  1.00  0.00     0.015 A 
ATOM     19  C   UNL A   1      32.150  20.792  22.806  1.00  0.00     0.012 A 
ATOM     20  C   UNL A   1      32.963  21.343  25.010  1.00  0.00     0.012 A 
BRANCH  16  21
ATOM     21  S   UNL A   1      32.808  17.278  24.732  1.00  0.00    -0.130 SA
ATOM     22  C   UNL A   1      34.524  16.938  24.263  1.00  0.00     0.091 C 
ENDBRANCH  16  21
ENDBRANCH   7  15
ENDBRANCH   4   6
ENDBRANCH   3   4
ENDBRANCH   2   3
ENDBRANCH   1   2
BRANCH   1  23
ATOM     23  O   UNL A   1      33.101  30.094  25.749  1.00  0.00    -0.458 OA
BRANCH  23  24
ATOM     24  C   UNL A   1      33.192  30.987  26.761  1.00  0.00     0.338 C 
ATOM     25  O   UNL A   1      32.351  31.798  27.106  1.00  0.00    -0.246 OA
BRANCH  24  26
ATOM     26  C   UNL A   1      34.462  30.782  27.474  1.00  0.00     0.060 A 
ATOM     27  C   UNL A   1      34.749  29.525  28.011  1.00  0.00     0.016 A 
ATOM     28  C   UNL A   1      35.336  31.848  27.673  1.00  0.00     0.016 A 
ATOM     29  C   UNL A   1      35.915  29.314  28.736  1.00  0.00     0.010 A 
ATOM     30  C   UNL A   1      36.521  31.632  28.383  1.00  0.00     0.010 A 
ATOM     31  C   UNL A   1      36.819  30.364  28.914  1.00  0.00    -0.014 A 
BRANCH  31  32
ATOM     32  C   UNL A   1      38.075  30.142  29.668  1.00  0.00     0.031 A 
ATOM     33  C   UNL A   1      39.109  29.204  29.126  1.00  0.00     0.074 A 
ATOM     34  C   UNL A   1      38.270  30.778  30.839  1.00  0.00     0.049 A 
ATOM     35  N   UNL A   1      40.173  28.719  29.708  1.00  0.00    -0.248 NA
ATOM     36  C   UNL A   1      38.913  28.747  27.742  1.00  0.00     0.031 C 
ATOM     37  C   UNL A   1      37.366  31.774  31.421  1.00  0.00     0.029 A 
ATOM     38  N   UNL A   1      39.283  30.671  31.756  1.00  0.00    -0.354 N 
ATOM     39  C   UNL A   1      40.762  27.875  28.775  1.00  0.00     0.074 A 
ATOM     40  C   UNL A   1      39.927  27.907  27.593  1.00  0.00     0.031 C 
ATOM     41  C   UNL A   1      37.860  32.174  32.603  1.00  0.00     0.029 A 
ATOM     42  C   UNL A   1      39.069  31.412  32.896  1.00  0.00     0.049 A 
ATOM     43  H   UNL A   1      40.085  30.117  31.614  1.00  0.00     0.167 HD
ATOM     44  C   UNL A   1      41.895  27.140  28.904  1.00  0.00     0.034 A 
ATOM     45  C   UNL A   1      39.738  31.428  34.064  1.00  0.00     0.034 A 
ATOM     46  C   UNL A   1      42.708  27.131  30.097  1.00  0.00     0.049 A 
ATOM     47  C   UNL A   1      40.928  30.519  34.227  1.00  0.00     0.074 A 
ATOM     48  C   UNL A   1      43.878  26.434  30.340  1.00  0.00     0.029 A 
ATOM     49  N   UNL A   1      42.427  27.848  31.254  1.00  0.00    -0.354 N 
ATOM     50  N   UNL A   1      41.454  29.686  33.358  1.00  0.00    -0.248 NA
ATOM     51  C   UNL A   1      41.603  30.538  35.531  1.00  0.00     0.031 C 
ATOM     52  C   UNL A   1      44.269  26.679  31.661  1.00  0.00     0.029 A 
ATOM     53  C   UNL A   1      43.380  27.583  32.224  1.00  0.00     0.049 A 
ATOM     54  H   UNL A   1      41.662  28.457  31.368  1.00  0.00     0.167 HD
ATOM     55  C   UNL A   1      42.534  29.094  34.007  1.00  0.00     0.074 A 
ATOM     56  C   UNL A   1      42.590  29.675  35.333  1.00  0.00     0.031 C 
ATOM     57  C   UNL A   1      43.403  28.158  33.549  1.00  0.00     0.034 A 
BRANCH  44  58
ATOM     58  C   UNL A   1      42.270  26.240  27.755  1.00  0.00     0.023 A 
ATOM     59  C   UNL A   1      41.817  24.912  27.669  1.00  0.00     0.031 A 
ATOM     60  C   UNL A   1      43.128  26.710  26.744  1.00  0.00     0.131 A 
ATOM     61  C   UNL A   1      42.276  24.082  26.635  1.00  0.00     0.055 A 
ATOM     62  C   UNL A   1      43.523  25.901  25.677  1.00  0.00     0.041 A 
ATOM     63  F   UNL A   1      43.610  27.962  26.786  1.00  0.00    -0.206 F 
ATOM     64  C   UNL A   1      43.108  24.574  25.625  1.00  0.00     0.022 A 
BRANCH  61  65
ATOM     65  S   UNL A   1      41.881  22.313  26.699  1.00  0.00     0.124 S 
ATOM     66  O   UNL A   1      42.295  21.868  25.371  1.00  0.00    -0.237 OA
ATOM     67  O   UNL A   1      42.699  21.848  27.813  1.00  0.00    -0.237 OA
ATOM     68  O   UNL A   1      40.437  22.292  26.934  1.00  0.00    -0.744 OA
ENDBRANCH  61  65
ENDBRANCH  44  58
BRANCH  45  69
ATOM     69  C   UNL A   1      39.252  32.264  35.198  1.00  0.00     0.023 A 
ATOM     70  C   UNL A   1      39.744  33.561  35.407  1.00  0.00     0.031 A 
ATOM     71  C   UNL A   1      38.309  31.761  36.113  1.00  0.00     0.131 A 
ATOM     72  C   UNL A   1      39.315  34.300  36.521  1.00  0.00     0.055 A 
ATOM     73  C   UNL A   1      37.847  32.518  37.190  1.00  0.00     0.041 A 
ATOM     74  F   UNL A   1      37.809  30.523  35.962  1.00  0.00    -0.206 F 
ATOM     75  C   UNL A   1      38.360  33.793  37.405  1.00  0.00     0.022 A 
BRANCH  72  76
ATOM     76  S   UNL A   1      40.082  35.912  36.842  1.00  0.00     0.124 S 
ATOM     77  O   UNL A   1      39.660  36.680  35.676  1.00  0.00    -0.237 OA
ATOM     78  O   UNL A   1      39.474  36.289  38.113  1.00  0.00    -0.237 OA
ATOM     79  O   UNL A   1      41.509  35.604  36.903  1.00  0.00    -0.744 OA
ENDBRANCH  72  76
ENDBRANCH  45  69
BRANCH  57  80
ATOM     80  C   UNL A   1      44.503  27.737  34.488  1.00  0.00     0.023 A 
ATOM     81  C   UNL A   1      44.339  26.661  35.377  1.00  0.00     0.031 A 
ATOM     82  C   UNL A   1      45.726  28.429  34.498  1.00  0.00     0.131 A 
ATOM     83  C   UNL A   1      45.369  26.335  36.272  1.00  0.00     0.055 A 
ATOM     84  C   UNL A   1      46.765  28.069  35.355  1.00  0.00     0.041 A 
ATOM     85  F   UNL A   1      45.931  29.466  33.669  1.00  0.00    -0.206 F 
ATOM     86  C   UNL A   1      46.587  27.022  36.255  1.00  0.00     0.022 A 
BRANCH  83  87
ATOM     87  S   UNL A   1      45.075  25.039  37.505  1.00  0.00     0.124 S 
ATOM     88  O   UNL A   1      45.971  25.440  38.586  1.00  0.00    -0.237 OA
ATOM     89  O   UNL A   1      43.648  25.179  37.776  1.00  0.00    -0.237 OA
ATOM     90  O   UNL A   1      45.455  23.810  36.810  1.00  0.00    -0.744 OA
ENDBRANCH  83  87
ENDBRANCH  57  80
ENDBRANCH  31  32
ENDBRANCH  24  26
ENDBRANCH  23  24
ENDBRANCH   1  23
TORSDOF 16
ENDMDL
MODEL 2
REMARK VINA RESULT:     -11.6      5.307     10.178
REMARK SMILES CSc1ccc([C@H]2[NH2+][C@@H](C(=O)OCCOC(=O)c3ccc(-c4c5nc(c(-c6cc(S(=O)(=O)[O-])ccc6F)c6ccc([nH]6)c(-c6cc(S(=O)(=O)[O-])ccc6F)c6nc(c(-c7cc(S(=O)(=O)[O-])ccc7F)c7ccc4[nH]7)C=C6)C=C5)cc3)C(C)(C)S2)cc1
REMARK SMILES IDX 14 1 13 2 12 3 10 4 11 5 9 6 7 7 8 8 84 9 81 12 82 13 83 14
REMARK SMILES IDX 6 15 3 16 4 17 86 18 5 19 85 20 2 21 1 22 15 23 16 24 17 25
REMARK SMILES IDX 18 26 19 27 80 28 20 29 79 30 21 31 22 32 23 33 73 34 24 35
REMARK SMILES IDX 78 36 72 37 74 38 25 39 77 40 71 41 70 42 26 44 58 45 38 46
REMARK SMILES IDX 57 47 39 48 42 49 56 50 75 51 40 52 41 53 55 55 76 56 43 57
REMARK SMILES IDX 27 58 28 59 36 60 29 61 35 62 37 63 34 64 30 65 31 66 32 67
REMARK SMILES IDX 33 68 59 69 60 70 68 71 61 72 67 73 69 74 66 75 62 76 63 77
REMARK SMILES IDX 64 78 65 79 44 80 45 81 53 82 46 83 52 84 54 85 51 86 47 87
REMARK SMILES IDX 48 88 49 89 50 90
REMARK H PARENT 8 10 8 11 74 43 42 54
REMARK Flexibility Score: inf
ROOT
ATOM      1  C   UNL A   1      36.731  21.340  24.751  1.00  0.00     0.275 C 
ENDROOT
BRANCH   1   2
ATOM      2  C   UNL A   1      36.047  22.422  23.916  1.00  0.00     0.274 C 
BRANCH   2   3
ATOM      3  O   UNL A   1      34.624  22.214  23.824  1.00  0.00    -0.458 OA
BRANCH   3   4
ATOM      4  C   UNL A   1      33.906  23.261  23.346  1.00  0.00     0.366 C 
ATOM      5  O   UNL A   1      34.207  23.884  22.333  1.00  0.00    -0.245 OA
BRANCH   4   6
ATOM      6  C   UNL A   1      32.750  23.699  24.267  1.00  0.00     0.310 C 
ATOM      7  C   UNL A   1      30.825  25.070  24.357  1.00  0.00     0.274 C 
ATOM      8  N   UNL A   1      31.910  24.631  23.484  1.00  0.00    -0.319 N 
ATOM      9  S   UNL A   1      31.470  25.184  26.043  1.00  0.00    -0.081 SA
ATOM     10  H   UNL A   1      32.464  25.434  23.185  1.00  0.00     0.348 HD
ATOM     11  H   UNL A   1      31.542  24.175  22.649  1.00  0.00     0.348 HD
ATOM     12  C   UNL A   1      33.049  24.314  25.656  1.00  0.00     0.079 C 
ATOM     13  C   UNL A   1      34.147  25.379  25.732  1.00  0.00     0.030 C 
ATOM     14  C   UNL A   1      33.267  23.247  26.731  1.00  0.00     0.030 C 
BRANCH   7  15
ATOM     15  C   UNL A   1      30.257  26.370  23.836  1.00  0.00     0.020 A 
ATOM     16  C   UNL A   1      29.140  28.661  22.630  1.00  0.00     0.007 A 
ATOM     17  C   UNL A   1      28.333  27.771  23.345  1.00  0.00     0.015 A 
ATOM     18  C   UNL A   1      30.506  28.400  22.518  1.00  0.00     0.015 A 
ATOM     19  C   UNL A   1      28.885  26.634  23.943  1.00  0.00     0.012 A 
ATOM     20  C   UNL A   1      31.062  27.280  23.129  1.00  0.00     0.012 A 
BRANCH  16  21
ATOM     21  S   UNL A   1      28.385  30.075  21.846  1.00  0.00    -0.130 SA
ATOM     22  C   UNL A   1      27.684  30.910  23.293  1.00  0.00     0.091 C 
ENDBRANCH  16  21
ENDBRANCH   7  15
ENDBRANCH   4   6
ENDBRANCH   3   4
ENDBRANCH   2   3
ENDBRANCH   1   2
BRANCH   1  23
ATOM     23  O   UNL A   1      37.352  21.896  25.924  1.00  0.00    -0.458 OA
BRANCH  23  24
ATOM     24  C   UNL A   1      38.669  21.623  26.068  1.00  0.00     0.338 C 
ATOM     25  O   UNL A   1      39.246  20.596  25.760  1.00  0.00    -0.246 OA
BRANCH  24  26
ATOM     26  C   UNL A   1      39.356  22.814  26.591  1.00  0.00     0.060 A 
ATOM     27  C   UNL A   1      38.998  24.075  26.108  1.00  0.00     0.016 A 
ATOM     28  C   UNL A   1      40.400  22.679  27.502  1.00  0.00     0.016 A 
ATOM     29  C   UNL A   1      39.666  25.214  26.543  1.00  0.00     0.010 A 
ATOM     30  C   UNL A   1      41.058  23.826  27.957  1.00  0.00     0.010 A 
ATOM     31  C   UNL A   1      40.691  25.099  27.484  1.00  0.00    -0.014 A 
BRANCH  31  32
ATOM     32  C   UNL A   1      41.394  26.310  27.967  1.00  0.00     0.031 A 
ATOM     33  C   UNL A   1      40.636  27.350  28.735  1.00  0.00     0.074 A 
ATOM     34  C   UNL A   1      42.704  26.470  27.703  1.00  0.00     0.049 A 
ATOM     35  N   UNL A   1      41.000  28.558  29.073  1.00  0.00    -0.248 NA
ATOM     36  C   UNL A   1      39.283  26.978  29.174  1.00  0.00     0.031 C 
ATOM     37  C   UNL A   1      43.558  25.486  27.034  1.00  0.00     0.029 A 
ATOM     38  N   UNL A   1      43.543  27.526  27.950  1.00  0.00    -0.354 N 
ATOM     39  C   UNL A   1      39.912  29.106  29.741  1.00  0.00     0.074 A 
ATOM     40  C   UNL A   1      38.871  28.100  29.748  1.00  0.00     0.031 C 
ATOM     41  C   UNL A   1      44.796  25.991  26.914  1.00  0.00     0.029 A 
ATOM     42  C   UNL A   1      44.804  27.357  27.425  1.00  0.00     0.049 A 
ATOM     43  H   UNL A   1      43.271  28.327  28.455  1.00  0.00     0.167 HD
ATOM     44  C   UNL A   1      39.800  30.341  30.292  1.00  0.00     0.034 A 
ATOM     45  C   UNL A   1      45.827  28.226  27.315  1.00  0.00     0.034 A 
ATOM     46  C   UNL A   1      40.857  31.323  30.270  1.00  0.00     0.049 A 
ATOM     47  C   UNL A   1      45.641  29.629  27.832  1.00  0.00     0.074 A 
ATOM     48  C   UNL A   1      40.861  32.601  30.802  1.00  0.00     0.029 A 
ATOM     49  N   UNL A   1      42.100  31.138  29.676  1.00  0.00    -0.354 N 
ATOM     50  N   UNL A   1      44.593  30.158  28.420  1.00  0.00    -0.248 NA
ATOM     51  C   UNL A   1      46.766  30.554  27.654  1.00  0.00     0.031 C 
ATOM     52  C   UNL A   1      42.079  33.209  30.473  1.00  0.00     0.029 A 
ATOM     53  C   UNL A   1      42.863  32.289  29.795  1.00  0.00     0.049 A 
ATOM     54  H   UNL A   1      42.395  30.309  29.233  1.00  0.00     0.167 HD
ATOM     55  C   UNL A   1      44.941  31.477  28.698  1.00  0.00     0.074 A 
ATOM     56  C   UNL A   1      46.299  31.655  28.225  1.00  0.00     0.031 C 
ATOM     57  C   UNL A   1      44.208  32.451  29.294  1.00  0.00     0.034 A 
BRANCH  44  58
ATOM     58  C   UNL A   1      38.467  30.712  30.893  1.00  0.00     0.023 A 
ATOM     59  C   UNL A   1      37.456  31.332  30.139  1.00  0.00     0.031 A 
ATOM     60  C   UNL A   1      38.220  30.471  32.256  1.00  0.00     0.131 A 
ATOM     61  C   UNL A   1      36.273  31.751  30.768  1.00  0.00     0.055 A 
ATOM     62  C   UNL A   1      37.012  30.824  32.860  1.00  0.00     0.041 A 
ATOM     63  F   UNL A   1      39.158  29.903  33.030  1.00  0.00    -0.206 F 
ATOM     64  C   UNL A   1      36.035  31.481  32.118  1.00  0.00     0.022 A 
BRANCH  61  65
ATOM     65  S   UNL A   1      35.106  32.775  29.829  1.00  0.00     0.124 S 
ATOM     66  O   UNL A   1      35.982  33.822  29.310  1.00  0.00    -0.237 OA
ATOM     67  O   UNL A   1      34.582  31.834  28.847  1.00  0.00    -0.237 OA
ATOM     68  O   UNL A   1      34.149  33.219  30.841  1.00  0.00    -0.744 OA
ENDBRANCH  61  65
ENDBRANCH  44  58
BRANCH  45  69
ATOM     69  C   UNL A   1      47.081  27.827  26.615  1.00  0.00     0.023 A 
ATOM     70  C   UNL A   1      47.202  27.943  25.222  1.00  0.00     0.031 A 
ATOM     71  C   UNL A   1      48.167  27.289  27.330  1.00  0.00     0.131 A 
ATOM     72  C   UNL A   1      48.371  27.498  24.584  1.00  0.00     0.055 A 
ATOM     73  C   UNL A   1      49.346  26.896  26.698  1.00  0.00     0.041 A 
ATOM     74  F   UNL A   1      48.100  27.152  28.665  1.00  0.00    -0.206 F 
ATOM     75  C   UNL A   1      49.449  26.990  25.313  1.00  0.00     0.022 A 
BRANCH  72  76
ATOM     76  S   UNL A   1      48.436  27.525  22.772  1.00  0.00     0.124 S 
ATOM     77  O   UNL A   1      47.230  28.276  22.442  1.00  0.00    -0.237 OA
ATOM     78  O   UNL A   1      49.703  28.205  22.523  1.00  0.00    -0.237 OA
ATOM     79  O   UNL A   1      48.409  26.110  22.409  1.00  0.00    -0.744 OA
ENDBRANCH  72  76
ENDBRANCH  45  69
BRANCH  57  80
ATOM     80  C   UNL A   1      44.883  33.783  29.489  1.00  0.00     0.023 A 
ATOM     81  C   UNL A   1      44.753  34.819  28.548  1.00  0.00     0.031 A 
ATOM     82  C   UNL A   1      45.674  34.013  30.628  1.00  0.00     0.131 A 
ATOM     83  C   UNL A   1      45.441  36.025  28.742  1.00  0.00     0.055 A 
ATOM     84  C   UNL A   1      46.315  35.233  30.841  1.00  0.00     0.041 A 
ATOM     85  F   UNL A   1      45.832  33.055  31.555  1.00  0.00    -0.206 F 
ATOM     86  C   UNL A   1      46.209  36.245  29.891  1.00  0.00     0.022 A 
BRANCH  83  87
ATOM     87  S   UNL A   1      45.373  37.288  27.443  1.00  0.00     0.124 S 
ATOM     88  O   UNL A   1      44.000  37.157  26.965  1.00  0.00    -0.237 OA
ATOM     89  O   UNL A   1      45.679  38.512  28.176  1.00  0.00    -0.237 OA
ATOM     90  O   UNL A   1      46.402  36.862  26.495  1.00  0.00    -0.744 OA
ENDBRANCH  83  87
ENDBRANCH  57  80
ENDBRANCH  31  32
ENDBRANCH  24  26
ENDBRANCH  23  24
ENDBRANCH   1  23
TORSDOF 16
ENDMDL
MODEL 3
REMARK VINA RESULT:     -11.6      4.910     10.119
REMARK SMILES CSc1ccc([C@H]2[NH2+][C@@H](C(=O)OCCOC(=O)c3ccc(-c4c5nc(c(-c6cc(S(=O)(=O)[O-])ccc6F)c6ccc([nH]6)c(-c6cc(S(=O)(=O)[O-])ccc6F)c6nc(c(-c7cc(S(=O)(=O)[O-])ccc7F)c7ccc4[nH]7)C=C6)C=C5)cc3)C(C)(C)S2)cc1
REMARK SMILES IDX 14 1 13 2 12 3 10 4 11 5 9 6 7 7 8 8 84 9 81 12 82 13 83 14
REMARK SMILES IDX 6 15 3 16 4 17 86 18 5 19 85 20 2 21 1 22 15 23 16 24 17 25
REMARK SMILES IDX 18 26 19 27 80 28 20 29 79 30 21 31 22 32 23 33 73 34 24 35
REMARK SMILES IDX 78 36 72 37 74 38 25 39 77 40 71 41 70 42 26 44 58 45 38 46
REMARK SMILES IDX 57 47 39 48 42 49 56 50 75 51 40 52 41 53 55 55 76 56 43 57
REMARK SMILES IDX 27 58 28 59 36 60 29 61 35 62 37 63 34 64 30 65 31 66 32 67
REMARK SMILES IDX 33 68 59 69 60 70 68 71 61 72 67 73 69 74 66 75 62 76 63 77
REMARK SMILES IDX 64 78 65 79 44 80 45 81 53 82 46 83 52 84 54 85 51 86 47 87
REMARK SMILES IDX 48 88 49 89 50 90
REMARK H PARENT 8 10 8 11 74 43 42 54
REMARK Flexibility Score: inf
ROOT
ATOM      1  C   UNL A   1      36.042  21.251  24.761  1.00  0.00     0.275 C 
ENDROOT
BRANCH   1   2
ATOM      2  C   UNL A   1      35.581  22.511  24.028  1.00  0.00     0.274 C 
BRANCH   2   3
ATOM      3  O   UNL A   1      34.226  22.393  23.553  1.00  0.00    -0.458 OA
BRANCH   3   4
ATOM      4  C   UNL A   1      33.637  23.552  23.162  1.00  0.00     0.366 C 
ATOM      5  O   UNL A   1      34.038  24.236  22.225  1.00  0.00    -0.245 OA
BRANCH   4   6
ATOM      6  C   UNL A   1      32.497  24.017  24.089  1.00  0.00     0.310 C 
ATOM      7  C   UNL A   1      30.519  25.311  24.144  1.00  0.00     0.274 C 
ATOM      8  N   UNL A   1      31.589  24.846  23.267  1.00  0.00    -0.319 N 
ATOM      9  S   UNL A   1      31.218  25.592  25.788  1.00  0.00    -0.081 SA
ATOM     10  H   UNL A   1      32.096  25.643  22.882  1.00  0.00     0.348 HD
ATOM     11  H   UNL A   1      31.211  24.307  22.487  1.00  0.00     0.348 HD
ATOM     12  C   UNL A   1      32.819  24.758  25.411  1.00  0.00     0.079 C 
ATOM     13  C   UNL A   1      33.871  25.869  25.356  1.00  0.00     0.030 C 
ATOM     14  C   UNL A   1      33.123  23.794  26.559  1.00  0.00     0.030 C 
BRANCH   7  15
ATOM     15  C   UNL A   1      29.875  26.539  23.542  1.00  0.00     0.020 A 
ATOM     16  C   UNL A   1      28.736  28.961  22.653  1.00  0.00     0.007 A 
ATOM     17  C   UNL A   1      30.091  28.694  22.439  1.00  0.00     0.015 A 
ATOM     18  C   UNL A   1      27.953  28.015  23.315  1.00  0.00     0.015 A 
ATOM     19  C   UNL A   1      30.658  27.494  22.880  1.00  0.00     0.012 A 
ATOM     20  C   UNL A   1      28.510  26.811  23.738  1.00  0.00     0.012 A 
BRANCH  16  21
ATOM     21  S   UNL A   1      28.066  30.524  22.113  1.00  0.00    -0.130 SA
ATOM     22  C   UNL A   1      28.216  31.484  23.642  1.00  0.00     0.091 C 
ENDBRANCH  16  21
ENDBRANCH   7  15
ENDBRANCH   4   6
ENDBRANCH   3   4
ENDBRANCH   2   3
ENDBRANCH   1   2
BRANCH   1  23
ATOM     23  O   UNL A   1      36.845  21.577  25.909  1.00  0.00    -0.458 OA
BRANCH  23  24
ATOM     24  C   UNL A   1      38.165  21.305  25.791  1.00  0.00     0.338 C 
ATOM     25  O   UNL A   1      38.671  20.332  25.263  1.00  0.00    -0.246 OA
BRANCH  24  26
ATOM     26  C   UNL A   1      38.942  22.431  26.333  1.00  0.00     0.060 A 
ATOM     27  C   UNL A   1      38.589  23.736  25.980  1.00  0.00     0.016 A 
ATOM     28  C   UNL A   1      40.059  22.194  27.129  1.00  0.00     0.016 A 
ATOM     29  C   UNL A   1      39.336  24.817  26.432  1.00  0.00     0.010 A 
ATOM     30  C   UNL A   1      40.799  23.282  27.603  1.00  0.00     0.010 A 
ATOM     31  C   UNL A   1      40.439  24.598  27.261  1.00  0.00    -0.014 A 
BRANCH  31  32
ATOM     32  C   UNL A   1      41.228  25.747  27.764  1.00  0.00     0.031 A 
ATOM     33  C   UNL A   1      40.559  26.799  28.594  1.00  0.00     0.074 A 
ATOM     34  C   UNL A   1      42.537  25.839  27.462  1.00  0.00     0.049 A 
ATOM     35  N   UNL A   1      41.006  27.970  28.964  1.00  0.00    -0.248 NA
ATOM     36  C   UNL A   1      39.201  26.491  29.065  1.00  0.00     0.031 C 
ATOM     37  C   UNL A   1      43.308  24.832  26.728  1.00  0.00     0.029 A 
ATOM     38  N   UNL A   1      43.445  26.833  27.718  1.00  0.00    -0.354 N 
ATOM     39  C   UNL A   1      39.975  28.555  29.688  1.00  0.00     0.074 A 
ATOM     40  C   UNL A   1      38.876  27.612  29.694  1.00  0.00     0.031 C 
ATOM     41  C   UNL A   1      44.569  25.267  26.584  1.00  0.00     0.029 A 
ATOM     42  C   UNL A   1      44.676  26.610  27.144  1.00  0.00     0.049 A 
ATOM     43  H   UNL A   1      43.238  27.629  28.261  1.00  0.00     0.167 HD
ATOM     44  C   UNL A   1      39.954  29.773  30.286  1.00  0.00     0.034 A 
ATOM     45  C   UNL A   1      45.745  27.420  27.031  1.00  0.00     0.034 A 
ATOM     46  C   UNL A   1      41.068  30.690  30.265  1.00  0.00     0.049 A 
ATOM     47  C   UNL A   1      45.661  28.811  27.604  1.00  0.00     0.074 A 
ATOM     48  C   UNL A   1      41.166  31.944  30.841  1.00  0.00     0.029 A 
ATOM     49  N   UNL A   1      42.278  30.455  29.622  1.00  0.00    -0.354 N 
ATOM     50  N   UNL A   1      44.666  29.379  28.247  1.00  0.00    -0.248 NA
ATOM     51  C   UNL A   1      46.833  29.675  27.422  1.00  0.00     0.031 C 
ATOM     52  C   UNL A   1      42.407  32.491  30.494  1.00  0.00     0.029 A 
ATOM     53  C   UNL A   1      43.112  31.553  29.756  1.00  0.00     0.049 A 
ATOM     54  H   UNL A   1      42.508  29.628  29.140  1.00  0.00     0.167 HD
ATOM     55  C   UNL A   1      45.102  30.663  28.561  1.00  0.00     0.074 A 
ATOM     56  C   UNL A   1      46.452  30.779  28.048  1.00  0.00     0.031 C 
ATOM     57  C   UNL A   1      44.448  31.655  29.216  1.00  0.00     0.034 A 
BRANCH  44  58
ATOM     58  C   UNL A   1      38.667  30.198  30.945  1.00  0.00     0.023 A 
ATOM     59  C   UNL A   1      37.667  30.896  30.247  1.00  0.00     0.031 A 
ATOM     60  C   UNL A   1      38.453  29.930  32.310  1.00  0.00     0.131 A 
ATOM     61  C   UNL A   1      36.532  31.361  30.930  1.00  0.00     0.055 A 
ATOM     62  C   UNL A   1      37.289  30.331  32.967  1.00  0.00     0.041 A 
ATOM     63  F   UNL A   1      39.384  29.287  33.033  1.00  0.00    -0.206 F 
ATOM     64  C   UNL A   1      36.325  31.063  32.279  1.00  0.00     0.022 A 
BRANCH  61  65
ATOM     65  S   UNL A   1      35.393  32.476  30.064  1.00  0.00     0.124 S 
ATOM     66  O   UNL A   1      34.941  31.636  28.957  1.00  0.00    -0.237 OA
ATOM     67  O   UNL A   1      34.400  32.770  31.090  1.00  0.00    -0.237 OA
ATOM     68  O   UNL A   1      36.242  33.601  29.676  1.00  0.00    -0.744 OA
ENDBRANCH  61  65
ENDBRANCH  44  58
BRANCH  45  69
ATOM     69  C   UNL A   1      46.950  26.975  26.274  1.00  0.00     0.023 A 
ATOM     70  C   UNL A   1      48.026  26.353  26.924  1.00  0.00     0.031 A 
ATOM     71  C   UNL A   1      47.055  27.199  24.889  1.00  0.00     0.131 A 
ATOM     72  C   UNL A   1      49.174  26.004  26.196  1.00  0.00     0.055 A 
ATOM     73  C   UNL A   1      48.177  26.804  24.160  1.00  0.00     0.041 A 
ATOM     74  F   UNL A   1      46.055  27.795  24.220  1.00  0.00    -0.206 F 
ATOM     75  C   UNL A   1      49.251  26.212  24.817  1.00  0.00     0.022 A 
BRANCH  72  76
ATOM     76  S   UNL A   1      50.603  25.339  27.092  1.00  0.00     0.124 S 
ATOM     77  O   UNL A   1      51.477  24.930  25.999  1.00  0.00    -0.237 OA
ATOM     78  O   UNL A   1      51.041  26.494  27.867  1.00  0.00    -0.237 OA
ATOM     79  O   UNL A   1      50.033  24.245  27.877  1.00  0.00    -0.744 OA
ENDBRANCH  72  76
ENDBRANCH  45  69
BRANCH  57  80
ATOM     80  C   UNL A   1      45.208  32.936  29.437  1.00  0.00     0.023 A 
ATOM     81  C   UNL A   1      45.166  33.987  28.503  1.00  0.00     0.031 A 
ATOM     82  C   UNL A   1      45.991  33.103  30.592  1.00  0.00     0.131 A 
ATOM     83  C   UNL A   1      45.930  35.142  28.722  1.00  0.00     0.055 A 
ATOM     84  C   UNL A   1      46.710  34.275  30.828  1.00  0.00     0.041 A 
ATOM     85  F   UNL A   1      46.067  32.128  31.512  1.00  0.00    -0.206 F 
ATOM     86  C   UNL A   1      46.689  35.299  29.886  1.00  0.00     0.022 A 
BRANCH  83  87
ATOM     87  S   UNL A   1      45.972  36.417  27.433  1.00  0.00     0.124 S 
ATOM     88  O   UNL A   1      47.139  37.203  27.822  1.00  0.00    -0.237 OA
ATOM     89  O   UNL A   1      46.113  35.628  26.213  1.00  0.00    -0.237 OA
ATOM     90  O   UNL A   1      44.687  37.099  27.583  1.00  0.00    -0.744 OA
ENDBRANCH  83  87
ENDBRANCH  57  80
ENDBRANCH  31  32
ENDBRANCH  24  26
ENDBRANCH  23  24
ENDBRANCH   1  23
TORSDOF 16
ENDMDL
