MODEL 1
REMARK VINA RESULT:     -10.3      0.000      0.000
REMARK SMILES C[C@@H]1OCC[C@@H]1C#CC(=O)OCCOC(=O)c1ccc(-c2c3nc(c(-c4cc(S(=O)(=O)[O-])ccc4F)c4ccc([nH]4)c(-c4cc(S(=O)(=O)[O-])ccc4F)c4nc(c(-c5cc(S(=O)(=O)[O-])ccc5F)c5ccc2[nH]5)C=C4)C=C3)cc1
REMARK SMILES IDX 13 1 12 2 11 3 9 4 10 5 8 6 7 7 6 8 1 9 2 10 3 11 4 12 5 13
REMARK SMILES IDX 14 14 15 15 16 16 17 17 18 18 79 19 19 20 78 21 20 22 21 23
REMARK SMILES IDX 22 24 72 25 23 26 77 27 71 28 73 29 24 30 76 31 70 32 69 33
REMARK SMILES IDX 25 35 57 36 37 37 56 38 38 39 41 40 55 41 74 42 39 43 40 44
REMARK SMILES IDX 54 46 75 47 42 48 26 49 27 50 35 51 28 52 34 53 36 54 33 55
REMARK SMILES IDX 29 56 30 57 31 58 32 59 58 60 59 61 67 62 60 63 66 64 68 65
REMARK SMILES IDX 65 66 61 67 62 68 63 69 64 70 43 71 44 72 52 73 45 74 51 75
REMARK SMILES IDX 53 76 50 77 46 78 47 79 48 80 49 81
REMARK H PARENT 73 34 41 45
REMARK Flexibility Score: inf
ROOT
ATOM      1  C   UNL A   1      40.772  19.930  26.011  1.00  0.00     0.275 C 
ENDROOT
BRANCH   1   2
ATOM      2  C   UNL A   1      42.075  19.272  26.479  1.00  0.00     0.275 C 
BRANCH   2   3
ATOM      3  O   UNL A   1      42.758  18.635  25.385  1.00  0.00    -0.452 OA
BRANCH   3   4
ATOM      4  C   UNL A   1      44.094  18.870  25.323  1.00  0.00     0.384 C 
ATOM      5  O   UNL A   1      44.963  18.049  25.071  1.00  0.00    -0.236 OA
BRANCH   4   6
ATOM      6  C   UNL A   1      44.432  20.263  25.504  1.00  0.00     0.017 C 
ATOM      7  C   UNL A   1      44.704  21.401  25.776  1.00  0.00    -0.085 C 
BRANCH   7   8
ATOM      8  C   UNL A   1      44.997  22.804  26.146  1.00  0.00     0.096 C 
ATOM      9  C   UNL A   1      42.835  23.651  24.965  1.00  0.00     0.040 C 
ATOM     10  C   UNL A   1      44.306  23.853  25.267  1.00  0.00     0.130 C 
ATOM     11  O   UNL A   1      45.074  23.927  24.049  1.00  0.00    -0.377 OA
ATOM     12  C   UNL A   1      46.380  23.399  24.324  1.00  0.00     0.162 C 
ATOM     13  C   UNL A   1      46.445  23.121  25.817  1.00  0.00     0.048 C 
ENDBRANCH   7   8
ENDBRANCH   4   6
ENDBRANCH   3   4
ENDBRANCH   2   3
ENDBRANCH   1   2
BRANCH   1  14
ATOM     14  O   UNL A   1      40.219  20.815  27.004  1.00  0.00    -0.458 OA
BRANCH  14  15
ATOM     15  C   UNL A   1      39.440  21.810  26.510  1.00  0.00     0.338 C 
ATOM     16  O   UNL A   1      38.469  21.680  25.784  1.00  0.00    -0.246 OA
BRANCH  15  17
ATOM     17  C   UNL A   1      39.842  23.106  27.080  1.00  0.00     0.060 A 
ATOM     18  C   UNL A   1      39.270  24.258  26.541  1.00  0.00     0.016 A 
ATOM     19  C   UNL A   1      40.839  23.205  28.053  1.00  0.00     0.016 A 
ATOM     20  C   UNL A   1      39.704  25.513  26.950  1.00  0.00     0.010 A 
ATOM     21  C   UNL A   1      41.264  24.473  28.475  1.00  0.00     0.010 A 
ATOM     22  C   UNL A   1      40.710  25.638  27.915  1.00  0.00    -0.014 A 
BRANCH  22  23
ATOM     23  C   UNL A   1      41.191  26.996  28.276  1.00  0.00     0.031 A 
ATOM     24  C   UNL A   1      42.618  27.387  28.012  1.00  0.00     0.074 A 
ATOM     25  C   UNL A   1      40.325  27.900  28.775  1.00  0.00     0.049 A 
ATOM     26  N   UNL A   1      43.228  28.517  28.266  1.00  0.00    -0.248 NA
ATOM     27  C   UNL A   1      43.473  26.372  27.379  1.00  0.00     0.031 C 
ATOM     28  C   UNL A   1      38.902  27.654  29.019  1.00  0.00     0.029 A 
ATOM     29  N   UNL A   1      40.506  29.207  29.154  1.00  0.00    -0.354 N 
ATOM     30  C   UNL A   1      44.541  28.348  27.836  1.00  0.00     0.074 A 
ATOM     31  C   UNL A   1      44.644  26.991  27.340  1.00  0.00     0.031 C 
ATOM     32  C   UNL A   1      38.338  28.777  29.490  1.00  0.00     0.029 A 
ATOM     33  C   UNL A   1      39.366  29.802  29.644  1.00  0.00     0.049 A 
ATOM     34  H   UNL A   1      41.370  29.674  29.083  1.00  0.00     0.167 HD
ATOM     35  C   UNL A   1      45.559  29.245  27.849  1.00  0.00     0.034 A 
ATOM     36  C   UNL A   1      39.175  31.022  30.184  1.00  0.00     0.034 A 
ATOM     37  C   UNL A   1      45.436  30.594  28.353  1.00  0.00     0.049 A 
ATOM     38  C   UNL A   1      40.349  31.966  30.277  1.00  0.00     0.074 A 
ATOM     39  C   UNL A   1      46.400  31.585  28.402  1.00  0.00     0.029 A 
ATOM     40  N   UNL A   1      44.285  31.139  28.909  1.00  0.00    -0.354 N 
ATOM     41  N   UNL A   1      41.586  31.791  29.872  1.00  0.00    -0.248 NA
ATOM     42  C   UNL A   1      40.097  33.273  30.894  1.00  0.00     0.031 C 
ATOM     43  C   UNL A   1      45.863  32.692  29.068  1.00  0.00     0.029 A 
ATOM     44  C   UNL A   1      44.530  32.435  29.342  1.00  0.00     0.049 A 
ATOM     45  H   UNL A   1      43.420  30.673  28.984  1.00  0.00     0.167 HD
ATOM     46  C   UNL A   1      42.250  32.981  30.157  1.00  0.00     0.074 A 
ATOM     47  C   UNL A   1      41.271  33.870  30.747  1.00  0.00     0.031 C 
ATOM     48  C   UNL A   1      43.551  33.311  29.945  1.00  0.00     0.034 A 
BRANCH  35  49
ATOM     49  C   UNL A   1      46.909  28.776  27.358  1.00  0.00     0.023 A 
ATOM     50  C   UNL A   1      47.163  28.524  25.999  1.00  0.00     0.031 A 
ATOM     51  C   UNL A   1      47.958  28.561  28.272  1.00  0.00     0.131 A 
ATOM     52  C   UNL A   1      48.405  28.004  25.602  1.00  0.00     0.055 A 
ATOM     53  C   UNL A   1      49.220  28.128  27.859  1.00  0.00     0.041 A 
ATOM     54  F   UNL A   1      47.772  28.759  29.585  1.00  0.00    -0.206 F 
ATOM     55  C   UNL A   1      49.445  27.831  26.518  1.00  0.00     0.022 A 
BRANCH  52  56
ATOM     56  S   UNL A   1      48.593  27.409  23.898  1.00  0.00     0.124 S 
ATOM     57  O   UNL A   1      49.834  28.064  23.492  1.00  0.00    -0.237 OA
ATOM     58  O   UNL A   1      48.662  25.963  24.074  1.00  0.00    -0.237 OA
ATOM     59  O   UNL A   1      47.391  27.901  23.229  1.00  0.00    -0.744 OA
ENDBRANCH  52  56
ENDBRANCH  35  49
BRANCH  36  60
ATOM     60  C   UNL A   1      37.841  31.408  30.728  1.00  0.00     0.023 A 
ATOM     61  C   UNL A   1      36.889  32.063  29.929  1.00  0.00     0.031 A 
ATOM     62  C   UNL A   1      37.518  31.182  32.079  1.00  0.00     0.131 A 
ATOM     63  C   UNL A   1      35.688  32.514  30.500  1.00  0.00     0.055 A 
ATOM     64  C   UNL A   1      36.295  31.570  32.624  1.00  0.00     0.041 A 
ATOM     65  F   UNL A   1      38.395  30.570  32.893  1.00  0.00    -0.206 F 
ATOM     66  C   UNL A   1      35.376  32.255  31.835  1.00  0.00     0.022 A 
BRANCH  63  67
ATOM     67  S   UNL A   1      34.585  33.548  29.497  1.00  0.00     0.124 S 
ATOM     68  O   UNL A   1      33.721  34.133  30.517  1.00  0.00    -0.237 OA
ATOM     69  O   UNL A   1      35.523  34.458  28.851  1.00  0.00    -0.237 OA
ATOM     70  O   UNL A   1      33.937  32.588  28.606  1.00  0.00    -0.744 OA
ENDBRANCH  63  67
ENDBRANCH  36  60
BRANCH  48  71
ATOM     71  C   UNL A   1      43.972  34.717  30.310  1.00  0.00     0.023 A 
ATOM     72  C   UNL A   1      43.817  35.796  29.420  1.00  0.00     0.031 A 
ATOM     73  C   UNL A   1      44.562  34.977  31.561  1.00  0.00     0.131 A 
ATOM     74  C   UNL A   1      44.314  37.063  29.763  1.00  0.00     0.055 A 
ATOM     75  C   UNL A   1      44.982  36.257  31.927  1.00  0.00     0.041 A 
ATOM     76  F   UNL A   1      44.744  33.988  32.451  1.00  0.00    -0.206 F 
ATOM     77  C   UNL A   1      44.876  37.305  31.018  1.00  0.00     0.022 A 
BRANCH  74  78
ATOM     78  S   UNL A   1      44.335  38.361  28.495  1.00  0.00     0.124 S 
ATOM     79  O   UNL A   1      45.765  38.532  28.262  1.00  0.00    -0.237 OA
ATOM     80  O   UNL A   1      43.581  37.746  27.407  1.00  0.00    -0.237 OA
ATOM     81  O   UNL A   1      43.673  39.488  29.148  1.00  0.00    -0.744 OA
ENDBRANCH  74  78
ENDBRANCH  48  71
ENDBRANCH  22  23
ENDBRANCH  15  17
ENDBRANCH  14  15
ENDBRANCH   1  14
TORSDOF 15
ENDMDL
MODEL 2
REMARK VINA RESULT:     -10.3      4.933     12.251
REMARK SMILES C[C@@H]1OCC[C@@H]1C#CC(=O)OCCOC(=O)c1ccc(-c2c3nc(c(-c4cc(S(=O)(=O)[O-])ccc4F)c4ccc([nH]4)c(-c4cc(S(=O)(=O)[O-])ccc4F)c4nc(c(-c5cc(S(=O)(=O)[O-])ccc5F)c5ccc2[nH]5)C=C4)C=C3)cc1
REMARK SMILES IDX 13 1 12 2 11 3 9 4 10 5 8 6 7 7 6 8 1 9 2 10 3 11 4 12 5 13
REMARK SMILES IDX 14 14 15 15 16 16 17 17 18 18 79 19 19 20 78 21 20 22 21 23
REMARK SMILES IDX 22 24 72 25 23 26 77 27 71 28 73 29 24 30 76 31 70 32 69 33
REMARK SMILES IDX 25 35 57 36 37 37 56 38 38 39 41 40 55 41 74 42 39 43 40 44
REMARK SMILES IDX 54 46 75 47 42 48 26 49 27 50 35 51 28 52 34 53 36 54 33 55
REMARK SMILES IDX 29 56 30 57 31 58 32 59 58 60 59 61 67 62 60 63 66 64 68 65
REMARK SMILES IDX 65 66 61 67 62 68 63 69 64 70 43 71 44 72 52 73 45 74 51 75
REMARK SMILES IDX 53 76 50 77 46 78 47 79 48 80 49 81
REMARK H PARENT 73 34 41 45
REMARK Flexibility Score: inf
ROOT
ATOM      1  C   UNL A   1      33.293  33.802  28.090  1.00  0.00     0.275 C 
ENDROOT
BRANCH   1   2
ATOM      2  C   UNL A   1      33.619  35.233  28.534  1.00  0.00     0.275 C 
BRANCH   2   3
ATOM      3  O   UNL A   1      32.578  35.767  29.370  1.00  0.00    -0.452 OA
BRANCH   3   4
ATOM      4  C   UNL A   1      32.984  36.205  30.590  1.00  0.00     0.384 C 
ATOM      5  O   UNL A   1      32.642  37.242  31.137  1.00  0.00    -0.236 OA
BRANCH   4   6
ATOM      6  C   UNL A   1      33.835  35.261  31.275  1.00  0.00     0.017 C 
ATOM      7  C   UNL A   1      34.596  34.452  31.734  1.00  0.00    -0.085 C 
BRANCH   7   8
ATOM      8  C   UNL A   1      35.521  33.423  32.260  1.00  0.00     0.096 C 
ATOM      9  C   UNL A   1      35.339  34.380  34.677  1.00  0.00     0.040 C 
ATOM     10  C   UNL A   1      36.207  33.796  33.580  1.00  0.00     0.130 C 
ATOM     11  O   UNL A   1      37.275  34.701  33.237  1.00  0.00    -0.377 OA
ATOM     12  C   UNL A   1      37.578  34.511  31.846  1.00  0.00     0.162 C 
ATOM     13  C   UNL A   1      36.743  33.337  31.363  1.00  0.00     0.048 C 
ENDBRANCH   7   8
ENDBRANCH   4   6
ENDBRANCH   3   4
ENDBRANCH   2   3
ENDBRANCH   1   2
BRANCH   1  14
ATOM     14  O   UNL A   1      34.122  32.824  28.747  1.00  0.00    -0.458 OA
BRANCH  14  15
ATOM     15  C   UNL A   1      34.266  31.655  28.074  1.00  0.00     0.338 C 
ATOM     16  O   UNL A   1      33.503  31.198  27.239  1.00  0.00    -0.246 OA
BRANCH  15  17
ATOM     17  C   UNL A   1      35.566  31.040  28.387  1.00  0.00     0.060 A 
ATOM     18  C   UNL A   1      35.567  29.884  29.167  1.00  0.00     0.016 A 
ATOM     19  C   UNL A   1      36.772  31.639  28.015  1.00  0.00     0.016 A 
ATOM     20  C   UNL A   1      36.767  29.332  29.600  1.00  0.00     0.010 A 
ATOM     21  C   UNL A   1      37.981  31.072  28.441  1.00  0.00     0.010 A 
ATOM     22  C   UNL A   1      37.988  29.922  29.250  1.00  0.00    -0.014 A 
BRANCH  22  23
ATOM     23  C   UNL A   1      39.244  29.339  29.788  1.00  0.00     0.031 A 
ATOM     24  C   UNL A   1      39.860  29.898  31.040  1.00  0.00     0.074 A 
ATOM     25  C   UNL A   1      39.789  28.261  29.190  1.00  0.00     0.049 A 
ATOM     26  N   UNL A   1      40.956  29.535  31.658  1.00  0.00    -0.248 NA
ATOM     27  C   UNL A   1      39.150  31.013  31.682  1.00  0.00     0.031 C 
ATOM     28  C   UNL A   1      39.247  27.595  28.004  1.00  0.00     0.029 A 
ATOM     29  N   UNL A   1      40.908  27.529  29.501  1.00  0.00    -0.354 N 
ATOM     30  C   UNL A   1      41.076  30.383  32.753  1.00  0.00     0.074 A 
ATOM     31  C   UNL A   1      39.958  31.303  32.692  1.00  0.00     0.031 C 
ATOM     32  C   UNL A   1      40.025  26.544  27.699  1.00  0.00     0.029 A 
ATOM     33  C   UNL A   1      41.154  26.498  28.623  1.00  0.00     0.049 A 
ATOM     34  H   UNL A   1      41.481  27.723  30.277  1.00  0.00     0.167 HD
ATOM     35  C   UNL A   1      42.026  30.386  33.723  1.00  0.00     0.034 A 
ATOM     36  C   UNL A   1      42.185  25.634  28.551  1.00  0.00     0.034 A 
ATOM     37  C   UNL A   1      43.137  29.462  33.763  1.00  0.00     0.049 A 
ATOM     38  C   UNL A   1      43.280  25.723  29.584  1.00  0.00     0.074 A 
ATOM     39  C   UNL A   1      44.147  29.372  34.704  1.00  0.00     0.029 A 
ATOM     40  N   UNL A   1      43.393  28.477  32.817  1.00  0.00    -0.354 N 
ATOM     41  N   UNL A   1      43.385  26.534  30.612  1.00  0.00    -0.248 NA
ATOM     42  C   UNL A   1      44.394  24.776  29.450  1.00  0.00     0.031 C 
ATOM     43  C   UNL A   1      45.060  28.401  34.281  1.00  0.00     0.029 A 
ATOM     44  C   UNL A   1      44.569  27.808  33.130  1.00  0.00     0.049 A 
ATOM     45  H   UNL A   1      42.824  28.283  32.037  1.00  0.00     0.167 HD
ATOM     46  C   UNL A   1      44.560  26.170  31.265  1.00  0.00     0.074 A 
ATOM     47  C   UNL A   1      45.114  25.055  30.527  1.00  0.00     0.031 C 
ATOM     48  C   UNL A   1      45.125  26.706  32.378  1.00  0.00     0.034 A 
BRANCH  35  49
ATOM     49  C   UNL A   1      41.939  31.460  34.783  1.00  0.00     0.023 A 
ATOM     50  C   UNL A   1      40.933  31.460  35.764  1.00  0.00     0.031 A 
ATOM     51  C   UNL A   1      42.871  32.514  34.800  1.00  0.00     0.131 A 
ATOM     52  C   UNL A   1      40.839  32.526  36.673  1.00  0.00     0.055 A 
ATOM     53  C   UNL A   1      42.825  33.525  35.762  1.00  0.00     0.041 A 
ATOM     54  F   UNL A   1      43.840  32.585  33.875  1.00  0.00    -0.206 F 
ATOM     55  C   UNL A   1      41.795  33.544  36.697  1.00  0.00     0.022 A 
BRANCH  52  56
ATOM     56  S   UNL A   1      39.362  32.647  37.720  1.00  0.00     0.124 S 
ATOM     57  O   UNL A   1      39.949  32.643  39.059  1.00  0.00    -0.237 OA
ATOM     58  O   UNL A   1      38.769  33.906  37.287  1.00  0.00    -0.237 OA
ATOM     59  O   UNL A   1      38.601  31.447  37.379  1.00  0.00    -0.744 OA
ENDBRANCH  52  56
ENDBRANCH  35  49
BRANCH  36  60
ATOM     60  C   UNL A   1      42.265  24.643  27.438  1.00  0.00     0.023 A 
ATOM     61  C   UNL A   1      41.526  23.450  27.467  1.00  0.00     0.031 A 
ATOM     62  C   UNL A   1      43.135  24.848  26.351  1.00  0.00     0.131 A 
ATOM     63  C   UNL A   1      41.710  22.488  26.461  1.00  0.00     0.055 A 
ATOM     64  C   UNL A   1      43.261  23.921  25.317  1.00  0.00     0.041 A 
ATOM     65  F   UNL A   1      43.876  25.967  26.275  1.00  0.00    -0.206 F 
ATOM     66  C   UNL A   1      42.556  22.723  25.376  1.00  0.00     0.022 A 
BRANCH  63  67
ATOM     67  S   UNL A   1      40.909  20.871  26.649  1.00  0.00     0.124 S 
ATOM     68  O   UNL A   1      39.624  21.102  25.999  1.00  0.00    -0.237 OA
ATOM     69  O   UNL A   1      41.834  19.989  25.948  1.00  0.00    -0.237 OA
ATOM     70  O   UNL A   1      40.851  20.686  28.097  1.00  0.00    -0.744 OA
ENDBRANCH  63  67
ENDBRANCH  36  60
BRANCH  48  71
ATOM     71  C   UNL A   1      46.389  26.051  32.890  1.00  0.00     0.023 A 
ATOM     72  C   UNL A   1      46.355  24.942  33.755  1.00  0.00     0.031 A 
ATOM     73  C   UNL A   1      47.649  26.563  32.528  1.00  0.00     0.131 A 
ATOM     74  C   UNL A   1      47.550  24.430  34.284  1.00  0.00     0.055 A 
ATOM     75  C   UNL A   1      48.837  25.999  32.996  1.00  0.00     0.041 A 
ATOM     76  F   UNL A   1      47.747  27.625  31.712  1.00  0.00    -0.206 F 
ATOM     77  C   UNL A   1      48.791  24.938  33.893  1.00  0.00     0.022 A 
BRANCH  74  78
ATOM     78  S   UNL A   1      47.455  23.176  35.592  1.00  0.00     0.124 S 
ATOM     79  O   UNL A   1      47.418  21.938  34.821  1.00  0.00    -0.237 OA
ATOM     80  O   UNL A   1      48.680  23.420  36.347  1.00  0.00    -0.237 OA
ATOM     81  O   UNL A   1      46.217  23.506  36.295  1.00  0.00    -0.744 OA
ENDBRANCH  74  78
ENDBRANCH  48  71
ENDBRANCH  22  23
ENDBRANCH  15  17
ENDBRANCH  14  15
ENDBRANCH   1  14
TORSDOF 15
ENDMDL
MODEL 3
REMARK VINA RESULT:     -10.1      4.481     11.897
REMARK SMILES C[C@@H]1OCC[C@@H]1C#CC(=O)OCCOC(=O)c1ccc(-c2c3nc(c(-c4cc(S(=O)(=O)[O-])ccc4F)c4ccc([nH]4)c(-c4cc(S(=O)(=O)[O-])ccc4F)c4nc(c(-c5cc(S(=O)(=O)[O-])ccc5F)c5ccc2[nH]5)C=C4)C=C3)cc1
REMARK SMILES IDX 13 1 12 2 11 3 9 4 10 5 8 6 7 7 6 8 1 9 2 10 3 11 4 12 5 13
REMARK SMILES IDX 14 14 15 15 16 16 17 17 18 18 79 19 19 20 78 21 20 22 21 23
REMARK SMILES IDX 22 24 72 25 23 26 77 27 71 28 73 29 24 30 76 31 70 32 69 33
REMARK SMILES IDX 25 35 57 36 37 37 56 38 38 39 41 40 55 41 74 42 39 43 40 44
REMARK SMILES IDX 54 46 75 47 42 48 26 49 27 50 35 51 28 52 34 53 36 54 33 55
REMARK SMILES IDX 29 56 30 57 31 58 32 59 58 60 59 61 67 62 60 63 66 64 68 65
REMARK SMILES IDX 65 66 61 67 62 68 63 69 64 70 43 71 44 72 52 73 45 74 51 75
REMARK SMILES IDX 53 76 50 77 46 78 47 79 48 80 49 81
REMARK H PARENT 73 34 41 45
REMARK Flexibility Score: inf
ROOT
ATOM      1  C   UNL A   1      33.499  33.799  28.030  1.00  0.00     0.275 C 
ENDROOT
BRANCH   1   2
ATOM      2  C   UNL A   1      33.440  35.159  28.735  1.00  0.00     0.275 C 
BRANCH   2   3
ATOM      3  O   UNL A   1      32.483  35.146  29.808  1.00  0.00    -0.452 OA
BRANCH   3   4
ATOM      4  C   UNL A   1      32.917  35.685  30.977  1.00  0.00     0.384 C 
ATOM      5  O   UNL A   1      32.372  36.576  31.610  1.00  0.00    -0.236 OA
BRANCH   4   6
ATOM      6  C   UNL A   1      34.097  35.033  31.495  1.00  0.00     0.017 C 
ATOM      7  C   UNL A   1      35.143  34.588  31.885  1.00  0.00    -0.085 C 
BRANCH   7   8
ATOM      8  C   UNL A   1      36.453  34.053  32.318  1.00  0.00     0.096 C 
ATOM      9  C   UNL A   1      35.655  31.597  31.969  1.00  0.00     0.040 C 
ATOM     10  C   UNL A   1      36.418  32.601  32.810  1.00  0.00     0.130 C 
ATOM     11  O   UNL A   1      35.898  32.644  34.154  1.00  0.00    -0.377 OA
ATOM     12  C   UNL A   1      36.083  33.978  34.651  1.00  0.00     0.162 C 
ATOM     13  C   UNL A   1      36.879  34.739  33.604  1.00  0.00     0.048 C 
ENDBRANCH   7   8
ENDBRANCH   4   6
ENDBRANCH   3   4
ENDBRANCH   2   3
ENDBRANCH   1   2
BRANCH   1  14
ATOM     14  O   UNL A   1      34.384  32.876  28.695  1.00  0.00    -0.458 OA
BRANCH  14  15
ATOM     15  C   UNL A   1      34.513  31.672  28.084  1.00  0.00     0.338 C 
ATOM     16  O   UNL A   1      33.730  31.167  27.297  1.00  0.00    -0.246 OA
BRANCH  15  17
ATOM     17  C   UNL A   1      35.824  31.079  28.395  1.00  0.00     0.060 A 
ATOM     18  C   UNL A   1      35.850  29.759  28.842  1.00  0.00     0.016 A 
ATOM     19  C   UNL A   1      37.001  31.830  28.352  1.00  0.00     0.016 A 
ATOM     20  C   UNL A   1      37.043  29.187  29.271  1.00  0.00     0.010 A 
ATOM     21  C   UNL A   1      38.204  31.247  28.771  1.00  0.00     0.010 A 
ATOM     22  C   UNL A   1      38.232  29.925  29.249  1.00  0.00    -0.014 A 
BRANCH  22  23
ATOM     23  C   UNL A   1      39.472  29.299  29.777  1.00  0.00     0.031 A 
ATOM     24  C   UNL A   1      40.108  29.826  31.033  1.00  0.00     0.074 A 
ATOM     25  C   UNL A   1      39.983  28.212  29.166  1.00  0.00     0.049 A 
ATOM     26  N   UNL A   1      41.194  29.424  31.644  1.00  0.00    -0.248 NA
ATOM     27  C   UNL A   1      39.433  30.956  31.688  1.00  0.00     0.031 C 
ATOM     28  C   UNL A   1      39.418  27.574  27.976  1.00  0.00     0.029 A 
ATOM     29  N   UNL A   1      41.080  27.443  29.467  1.00  0.00    -0.354 N 
ATOM     30  C   UNL A   1      41.342  30.258  32.747  1.00  0.00     0.074 A 
ATOM     31  C   UNL A   1      40.252  31.212  32.698  1.00  0.00     0.031 C 
ATOM     32  C   UNL A   1      40.163  26.503  27.658  1.00  0.00     0.029 A 
ATOM     33  C   UNL A   1      41.293  26.414  28.578  1.00  0.00     0.049 A 
ATOM     34  H   UNL A   1      41.661  27.612  30.244  1.00  0.00     0.167 HD
ATOM     35  C   UNL A   1      42.295  30.223  33.714  1.00  0.00     0.034 A 
ATOM     36  C   UNL A   1      42.297  25.520  28.495  1.00  0.00     0.034 A 
ATOM     37  C   UNL A   1      43.377  29.266  33.742  1.00  0.00     0.049 A 
ATOM     38  C   UNL A   1      43.397  25.566  29.526  1.00  0.00     0.074 A 
ATOM     39  C   UNL A   1      44.387  29.136  34.679  1.00  0.00     0.029 A 
ATOM     40  N   UNL A   1      43.601  28.283  32.785  1.00  0.00    -0.354 N 
ATOM     41  N   UNL A   1      43.529  26.363  30.562  1.00  0.00    -0.248 NA
ATOM     42  C   UNL A   1      44.482  24.588  29.379  1.00  0.00     0.031 C 
ATOM     43  C   UNL A   1      45.269  28.143  34.243  1.00  0.00     0.029 A 
ATOM     44  C   UNL A   1      44.757  27.576  33.088  1.00  0.00     0.049 A 
ATOM     45  H   UNL A   1      43.024  28.113  32.005  1.00  0.00     0.167 HD
ATOM     46  C   UNL A   1      44.694  25.957  31.208  1.00  0.00     0.074 A 
ATOM     47  C   UNL A   1      45.212  24.834  30.456  1.00  0.00     0.031 C 
ATOM     48  C   UNL A   1      45.278  26.465  32.324  1.00  0.00     0.034 A 
BRANCH  35  49
ATOM     49  C   UNL A   1      42.242  31.288  34.785  1.00  0.00     0.023 A 
ATOM     50  C   UNL A   1      42.884  32.530  34.634  1.00  0.00     0.031 A 
ATOM     51  C   UNL A   1      41.552  31.049  35.987  1.00  0.00     0.131 A 
ATOM     52  C   UNL A   1      42.883  33.453  35.692  1.00  0.00     0.055 A 
ATOM     53  C   UNL A   1      41.480  32.007  37.001  1.00  0.00     0.041 A 
ATOM     54  F   UNL A   1      40.941  29.875  36.203  1.00  0.00    -0.206 F 
ATOM     55  C   UNL A   1      42.162  33.212  36.863  1.00  0.00     0.022 A 
BRANCH  52  56
ATOM     56  S   UNL A   1      43.966  34.904  35.579  1.00  0.00     0.124 S 
ATOM     57  O   UNL A   1      43.486  35.535  34.351  1.00  0.00    -0.237 OA
ATOM     58  O   UNL A   1      43.674  35.614  36.818  1.00  0.00    -0.237 OA
ATOM     59  O   UNL A   1      45.306  34.327  35.490  1.00  0.00    -0.744 OA
ENDBRANCH  52  56
ENDBRANCH  35  49
BRANCH  36  60
ATOM     60  C   UNL A   1      42.345  24.538  27.372  1.00  0.00     0.023 A 
ATOM     61  C   UNL A   1      41.566  23.370  27.389  1.00  0.00     0.031 A 
ATOM     62  C   UNL A   1      43.221  24.726  26.287  1.00  0.00     0.131 A 
ATOM     63  C   UNL A   1      41.718  22.413  26.374  1.00  0.00     0.055 A 
ATOM     64  C   UNL A   1      43.317  23.805  25.244  1.00  0.00     0.041 A 
ATOM     65  F   UNL A   1      43.999  25.820  26.222  1.00  0.00    -0.206 F 
ATOM     66  C   UNL A   1      42.572  22.631  25.291  1.00  0.00     0.022 A 
BRANCH  63  67
ATOM     67  S   UNL A   1      40.864  20.822  26.545  1.00  0.00     0.124 S 
ATOM     68  O   UNL A   1      40.895  20.625  27.990  1.00  0.00    -0.237 OA
ATOM     69  O   UNL A   1      39.558  21.113  25.965  1.00  0.00    -0.237 OA
ATOM     70  O   UNL A   1      41.696  19.903  25.772  1.00  0.00    -0.744 OA
ENDBRANCH  63  67
ENDBRANCH  36  60
BRANCH  48  71
ATOM     71  C   UNL A   1      46.523  25.768  32.826  1.00  0.00     0.023 A 
ATOM     72  C   UNL A   1      47.781  25.967  32.227  1.00  0.00     0.031 A 
ATOM     73  C   UNL A   1      46.445  24.870  33.906  1.00  0.00     0.131 A 
ATOM     74  C   UNL A   1      48.888  25.223  32.662  1.00  0.00     0.055 A 
ATOM     75  C   UNL A   1      47.567  24.193  34.386  1.00  0.00     0.041 A 
ATOM     76  F   UNL A   1      45.272  24.632  34.515  1.00  0.00    -0.206 F 
ATOM     77  C   UNL A   1      48.794  24.353  33.751  1.00  0.00     0.022 A 
BRANCH  74  78
ATOM     78  S   UNL A   1      50.425  25.308  31.701  1.00  0.00     0.124 S 
ATOM     79  O   UNL A   1      50.870  23.919  31.720  1.00  0.00    -0.237 OA
ATOM     80  O   UNL A   1      49.960  25.811  30.413  1.00  0.00    -0.237 OA
ATOM     81  O   UNL A   1      51.256  26.236  32.465  1.00  0.00    -0.744 OA
ENDBRANCH  74  78
ENDBRANCH  48  71
ENDBRANCH  22  23
ENDBRANCH  15  17
ENDBRANCH  14  15
ENDBRANCH   1  14
TORSDOF 15
ENDMDL
