MODEL 1
REMARK VINA RESULT:     -15.6      0.000      0.000
REMARK SMILES O=C(OCCOC(=O)c1ccccc1C(=O)Nc1ccc(N2C(=O)[C@H]3[C@@H]4CC[C@@H](C4)[C@@H]3C2=O)cc1)c1ccc(-c2c3nc(c(-c4cc(S(=O)(=O)[O-])ccc4F)c4ccc([nH]4)c(-c4cc(S(=O)(=O)[O-])ccc4F)c4nc(c(-c5cc(S(=O)(=O)[O-])ccc5F)c5ccc2[nH]5)C=C4)C=C3)cc1
REMARK SMILES IDX 4 1 3 2 2 3 1 4 36 5 37 6 98 7 38 8 97 9 39 10 40 11 41 12
REMARK SMILES IDX 91 13 42 14 96 15 90 16 92 17 43 18 95 19 89 20 88 21 44 23
REMARK SMILES IDX 76 24 56 25 75 26 57 27 60 28 74 29 93 30 58 31 59 32 73 34
REMARK SMILES IDX 94 35 61 36 45 37 46 38 54 39 47 40 53 41 55 42 52 43 48 44
REMARK SMILES IDX 49 45 50 46 51 47 77 48 78 49 86 50 79 51 85 52 87 53 84 54
REMARK SMILES IDX 80 55 81 56 82 57 83 58 62 59 63 60 71 61 64 62 70 63 72 64
REMARK SMILES IDX 69 65 65 66 66 67 67 68 68 69 5 70 6 71 7 72 8 73 9 74 10 75
REMARK SMILES IDX 14 76 11 77 13 78 12 79 15 80 16 81 17 82 18 84 19 85 35 86
REMARK SMILES IDX 20 87 34 88 21 89 22 90 23 91 32 92 24 93 25 94 31 95 33 96
REMARK SMILES IDX 26 97 29 98 27 99 30 100 28 101
REMARK H PARENT 92 22 60 33 17 83
REMARK Flexibility Score: inf
ROOT
ATOM      1  C   UNL A   1      48.825  39.820  30.030  1.00  0.00     0.275 C 
ENDROOT
BRANCH   1   2
ATOM      2  O   UNL A   1      48.116  38.140  30.073  1.00  0.00    -0.458 OA
BRANCH   2   3
ATOM      3  C   UNL A   1      46.801  37.254  29.922  1.00  0.00     0.338 C 
ATOM      4  O   UNL A   1      45.804  37.874  30.326  1.00  0.00    -0.246 OA
BRANCH   3   5
ATOM      5  C   UNL A   1      46.393  35.632  29.339  1.00  0.00     0.060 A 
ATOM      6  C   UNL A   1      46.563  34.331  29.922  1.00  0.00     0.016 A 
ATOM      7  C   UNL A   1      45.636  35.478  28.156  1.00  0.00     0.016 A 
ATOM      8  C   UNL A   1      45.878  33.111  29.609  1.00  0.00     0.010 A 
ATOM      9  C   UNL A   1      44.941  34.217  27.791  1.00  0.00     0.010 A 
ATOM     10  C   UNL A   1      44.976  33.033  28.570  1.00  0.00    -0.014 A 
BRANCH  10  11
ATOM     11  C   UNL A   1      44.252  31.699  28.323  1.00  0.00     0.031 A 
ATOM     12  C   UNL A   1      44.903  30.646  27.456  1.00  0.00     0.074 A 
ATOM     13  C   UNL A   1      43.176  31.218  29.010  1.00  0.00     0.049 A 
ATOM     14  N   UNL A   1      44.510  29.420  27.201  1.00  0.00    -0.248 NA
ATOM     15  C   UNL A   1      46.201  31.001  26.881  1.00  0.00     0.031 C 
ATOM     16  C   UNL A   1      42.599  31.832  30.184  1.00  0.00     0.029 A 
ATOM     17  N   UNL A   1      42.390  30.078  28.865  1.00  0.00    -0.354 N 
ATOM     18  C   UNL A   1      45.539  28.828  26.484  1.00  0.00     0.074 A 
ATOM     19  C   UNL A   1      46.547  29.860  26.303  1.00  0.00     0.031 C 
ATOM     20  C   UNL A   1      41.480  31.189  30.564  1.00  0.00     0.029 A 
ATOM     21  C   UNL A   1      41.285  30.029  29.702  1.00  0.00     0.049 A 
ATOM     22  H   UNL A   1      42.601  29.365  28.220  1.00  0.00     0.167 HD
ATOM     23  C   UNL A   1      45.661  27.552  26.033  1.00  0.00     0.034 A 
ATOM     24  C   UNL A   1      40.246  29.166  29.821  1.00  0.00     0.034 A 
ATOM     25  C   UNL A   1      44.672  26.503  26.135  1.00  0.00     0.049 A 
ATOM     26  C   UNL A   1      40.240  27.879  29.028  1.00  0.00     0.074 A 
ATOM     27  C   UNL A   1      44.724  25.224  25.599  1.00  0.00     0.029 A 
ATOM     28  N   UNL A   1      43.452  26.594  26.788  1.00  0.00    -0.354 N 
ATOM     29  N   UNL A   1      41.195  27.373  28.291  1.00  0.00    -0.248 NA
ATOM     30  C   UNL A   1      39.042  27.024  29.122  1.00  0.00     0.031 C 
ATOM     31  C   UNL A   1      43.508  24.575  25.854  1.00  0.00     0.029 A 
ATOM     32  C   UNL A   1      42.722  25.419  26.616  1.00  0.00     0.049 A 
ATOM     33  H   UNL A   1      43.144  27.377  27.299  1.00  0.00     0.167 HD
ATOM     34  C   UNL A   1      40.744  26.114  27.896  1.00  0.00     0.074 A 
ATOM     35  C   UNL A   1      39.426  25.940  28.463  1.00  0.00     0.031 C 
ATOM     36  C   UNL A   1      41.399  25.189  27.152  1.00  0.00     0.034 A 
BRANCH  23  37
ATOM     37  C   UNL A   1      46.929  27.262  25.276  1.00  0.00     0.023 A 
ATOM     38  C   UNL A   1      47.130  27.742  23.971  1.00  0.00     0.031 A 
ATOM     39  C   UNL A   1      47.893  26.403  25.831  1.00  0.00     0.131 A 
ATOM     40  C   UNL A   1      48.224  27.281  23.227  1.00  0.00     0.055 A 
ATOM     41  C   UNL A   1      49.021  26.013  25.115  1.00  0.00     0.041 A 
ATOM     42  F   UNL A   1      47.730  25.904  27.067  1.00  0.00    -0.206 F 
ATOM     43  C   UNL A   1      49.181  26.434  23.797  1.00  0.00     0.022 A 
BRANCH  40  44
ATOM     44  S   UNL A   1      48.278  27.645  21.451  1.00  0.00     0.124 S 
ATOM     45  O   UNL A   1      49.456  28.502  21.358  1.00  0.00    -0.237 OA
ATOM     46  O   UNL A   1      48.403  26.318  20.860  1.00  0.00    -0.237 OA
ATOM     47  O   UNL A   1      47.006  28.322  21.203  1.00  0.00    -0.744 OA
ENDBRANCH  40  44
ENDBRANCH  23  37
BRANCH  24  48
ATOM     48  C   UNL A   1      39.058  29.471  30.691  1.00  0.00     0.023 A 
ATOM     49  C   UNL A   1      38.081  30.419  30.328  1.00  0.00     0.031 A 
ATOM     50  C   UNL A   1      38.989  28.934  31.992  1.00  0.00     0.131 A 
ATOM     51  C   UNL A   1      37.122  30.842  31.269  1.00  0.00     0.055 A 
ATOM     52  C   UNL A   1      38.008  29.327  32.908  1.00  0.00     0.041 A 
ATOM     53  F   UNL A   1      39.907  28.048  32.411  1.00  0.00    -0.206 F 
ATOM     54  C   UNL A   1      37.077  30.298  32.554  1.00  0.00     0.022 A 
BRANCH  51  55
ATOM     55  S   UNL A   1      36.001  32.209  30.838  1.00  0.00     0.124 S 
ATOM     56  O   UNL A   1      35.415  31.732  29.591  1.00  0.00    -0.237 OA
ATOM     57  O   UNL A   1      35.111  32.248  31.993  1.00  0.00    -0.237 OA
ATOM     58  O   UNL A   1      36.897  33.356  30.706  1.00  0.00    -0.744 OA
ENDBRANCH  51  55
ENDBRANCH  24  48
BRANCH  36  59
ATOM     59  C   UNL A   1      40.726  23.849  26.938  1.00  0.00     0.023 A 
ATOM     60  C   UNL A   1      39.541  23.713  26.190  1.00  0.00     0.031 A 
ATOM     61  C   UNL A   1      41.274  22.684  27.508  1.00  0.00     0.131 A 
ATOM     62  C   UNL A   1      38.923  22.455  26.067  1.00  0.00     0.055 A 
ATOM     63  C   UNL A   1      40.682  21.429  27.342  1.00  0.00     0.041 A 
ATOM     64  F   UNL A   1      42.398  22.745  28.239  1.00  0.00    -0.206 F 
ATOM     65  C   UNL A   1      39.494  21.310  26.628  1.00  0.00     0.022 A 
BRANCH  62  66
ATOM     66  S   UNL A   1      37.319  22.339  25.222  1.00  0.00     0.124 S 
ATOM     67  O   UNL A   1      37.257  20.922  24.878  1.00  0.00    -0.237 OA
ATOM     68  O   UNL A   1      36.390  22.785  26.255  1.00  0.00    -0.237 OA
ATOM     69  O   UNL A   1      37.461  23.247  24.086  1.00  0.00    -0.744 OA
ENDBRANCH  62  66
ENDBRANCH  36  59
ENDBRANCH  10  11
ENDBRANCH   3   5
ENDBRANCH   2   3
ENDBRANCH   1   2
BRANCH   1  70
ATOM     70  C   UNL A   1      47.749  41.220  29.283  1.00  0.00     0.275 C 
BRANCH  70  71
ATOM     71  O   UNL A   1      48.754  42.660  28.242  1.00  0.00    -0.458 OA
BRANCH  71  72
ATOM     72  C   UNL A   1      48.526  43.957  27.446  1.00  0.00     0.339 C 
ATOM     73  O   UNL A   1      49.455  44.436  26.769  1.00  0.00    -0.246 OA
BRANCH  72  74
ATOM     74  C   UNL A   1      47.616  45.122  27.659  1.00  0.00     0.072 A 
ATOM     75  C   UNL A   1      48.362  46.377  27.584  1.00  0.00     0.016 A 
ATOM     76  C   UNL A   1      46.277  45.210  28.012  1.00  0.00     0.054 A 
ATOM     77  C   UNL A   1      47.849  47.643  27.777  1.00  0.00     0.001 A 
ATOM     78  C   UNL A   1      45.761  46.542  28.186  1.00  0.00     0.015 A 
ATOM     79  C   UNL A   1      46.516  47.726  28.064  1.00  0.00     0.001 A 
BRANCH  76  80
ATOM     80  C   UNL A   1      45.234  44.142  28.134  1.00  0.00     0.256 C 
ATOM     81  O   UNL A   1      44.853  43.858  29.275  1.00  0.00    -0.269 OA
ATOM     82  N   UNL A   1      44.566  43.490  27.122  1.00  0.00    -0.322 N 
ATOM     83  H   UNL A   1      43.821  42.920  27.419  1.00  0.00     0.170 HD
BRANCH  82  84
ATOM     84  C   UNL A   1      44.778  43.511  25.745  1.00  0.00     0.041 A 
ATOM     85  C   UNL A   1      43.800  42.300  24.911  1.00  0.00     0.028 A 
ATOM     86  C   UNL A   1      45.232  45.034  24.980  1.00  0.00     0.028 A 
ATOM     87  C   UNL A   1      43.121  42.568  23.317  1.00  0.00     0.029 A 
ATOM     88  C   UNL A   1      44.505  45.380  23.351  1.00  0.00     0.029 A 
ATOM     89  C   UNL A   1      43.461  44.057  22.438  1.00  0.00     0.052 A 
BRANCH  89  90
ATOM     90  N   UNL A   1      43.263  43.804  20.785  1.00  0.00    -0.250 N 
ATOM     91  C   UNL A   1      44.283  43.896  19.805  1.00  0.00     0.237 C 
ATOM     92  C   UNL A   1      42.072  43.709  19.998  1.00  0.00     0.237 C 
ATOM     93  O   UNL A   1      45.323  43.266  19.715  1.00  0.00    -0.274 OA
ATOM     94  C   UNL A   1      43.676  44.784  18.739  1.00  0.00     0.095 C 
ATOM     95  C   UNL A   1      42.453  43.940  18.536  1.00  0.00     0.095 C 
ATOM     96  O   UNL A   1      40.936  43.357  20.263  1.00  0.00    -0.274 OA
ATOM     97  C   UNL A   1      43.905  45.449  17.379  1.00  0.00     0.002 C 
ATOM     98  C   UNL A   1      41.777  44.690  17.377  1.00  0.00     0.002 C 
ATOM     99  C   UNL A   1      43.060  46.769  17.433  1.00  0.00     0.005 C 
ATOM    100  C   UNL A   1      42.992  44.682  16.411  1.00  0.00     0.009 C 
ATOM    101  C   UNL A   1      41.614  46.218  17.589  1.00  0.00     0.005 C 
ENDBRANCH  89  90
ENDBRANCH  82  84
ENDBRANCH  76  80
ENDBRANCH  72  74
ENDBRANCH  71  72
ENDBRANCH  70  71
ENDBRANCH   1  70
TORSDOF 17
ENDMDL
MODEL 2
REMARK VINA RESULT:     -15.3      6.675     14.660
REMARK SMILES O=C(OCCOC(=O)c1ccccc1C(=O)Nc1ccc(N2C(=O)[C@H]3[C@@H]4CC[C@@H](C4)[C@@H]3C2=O)cc1)c1ccc(-c2c3nc(c(-c4cc(S(=O)(=O)[O-])ccc4F)c4ccc([nH]4)c(-c4cc(S(=O)(=O)[O-])ccc4F)c4nc(c(-c5cc(S(=O)(=O)[O-])ccc5F)c5ccc2[nH]5)C=C4)C=C3)cc1
REMARK SMILES IDX 4 1 3 2 2 3 1 4 36 5 37 6 98 7 38 8 97 9 39 10 40 11 41 12
REMARK SMILES IDX 91 13 42 14 96 15 90 16 92 17 43 18 95 19 89 20 88 21 44 23
REMARK SMILES IDX 76 24 56 25 75 26 57 27 60 28 74 29 93 30 58 31 59 32 73 34
REMARK SMILES IDX 94 35 61 36 45 37 46 38 54 39 47 40 53 41 55 42 52 43 48 44
REMARK SMILES IDX 49 45 50 46 51 47 77 48 78 49 86 50 79 51 85 52 87 53 84 54
REMARK SMILES IDX 80 55 81 56 82 57 83 58 62 59 63 60 71 61 64 62 70 63 72 64
REMARK SMILES IDX 69 65 65 66 66 67 67 68 68 69 5 70 6 71 7 72 8 73 9 74 10 75
REMARK SMILES IDX 14 76 11 77 13 78 12 79 15 80 16 81 17 82 18 84 19 85 35 86
REMARK SMILES IDX 20 87 34 88 21 89 22 90 23 91 32 92 24 93 25 94 31 95 33 96
REMARK SMILES IDX 26 97 29 98 27 99 30 100 28 101
REMARK H PARENT 92 22 60 33 17 83
REMARK Flexibility Score: inf
ROOT
ATOM      1  C   UNL A   1      40.158  20.426  26.541  1.00  0.00     0.275 C 
ENDROOT
BRANCH   1   2
ATOM      2  O   UNL A   1      39.232  21.921  26.055  1.00  0.00    -0.458 OA
BRANCH   2   3
ATOM      3  C   UNL A   1      39.048  23.489  26.264  1.00  0.00     0.338 C 
ATOM      4  O   UNL A   1      37.969  23.874  25.787  1.00  0.00    -0.246 OA
BRANCH   3   5
ATOM      5  C   UNL A   1      39.974  24.816  26.987  1.00  0.00     0.060 A 
ATOM      6  C   UNL A   1      40.217  26.164  26.557  1.00  0.00     0.016 A 
ATOM      7  C   UNL A   1      40.499  24.679  28.291  1.00  0.00     0.016 A 
ATOM      8  C   UNL A   1      40.622  27.296  27.339  1.00  0.00     0.010 A 
ATOM      9  C   UNL A   1      40.955  25.830  29.112  1.00  0.00     0.010 A 
ATOM     10  C   UNL A   1      40.933  27.179  28.675  1.00  0.00    -0.014 A 
BRANCH  10  11
ATOM     11  C   UNL A   1      41.320  28.447  29.454  1.00  0.00     0.031 A 
ATOM     12  C   UNL A   1      40.248  29.437  29.848  1.00  0.00     0.074 A 
ATOM     13  C   UNL A   1      42.507  28.685  30.082  1.00  0.00     0.049 A 
ATOM     14  N   UNL A   1      40.345  30.516  30.590  1.00  0.00    -0.248 NA
ATOM     15  C   UNL A   1      38.887  29.113  29.419  1.00  0.00     0.031 C 
ATOM     16  C   UNL A   1      43.576  27.724  30.229  1.00  0.00     0.029 A 
ATOM     17  N   UNL A   1      43.016  29.787  30.764  1.00  0.00    -0.354 N 
ATOM     18  C   UNL A   1      39.049  30.974  30.772  1.00  0.00     0.074 A 
ATOM     19  C   UNL A   1      38.195  30.076  30.010  1.00  0.00     0.031 C 
ATOM     20  C   UNL A   1      44.659  28.289  30.791  1.00  0.00     0.029 A 
ATOM     21  C   UNL A   1      44.345  29.668  31.142  1.00  0.00     0.049 A 
ATOM     22  H   UNL A   1      42.476  30.586  30.960  1.00  0.00     0.167 HD
ATOM     23  C   UNL A   1      38.593  32.019  31.512  1.00  0.00     0.034 A 
ATOM     24  C   UNL A   1      45.224  30.518  31.729  1.00  0.00     0.034 A 
ATOM     25  C   UNL A   1      39.396  32.975  32.241  1.00  0.00     0.049 A 
ATOM     26  C   UNL A   1      44.749  31.854  32.250  1.00  0.00     0.074 A 
ATOM     27  C   UNL A   1      38.970  34.107  32.921  1.00  0.00     0.029 A 
ATOM     28  N   UNL A   1      40.775  32.942  32.381  1.00  0.00    -0.354 N 
ATOM     29  N   UNL A   1      43.523  32.302  32.343  1.00  0.00    -0.248 NA
ATOM     30  C   UNL A   1      45.763  32.777  32.791  1.00  0.00     0.031 C 
ATOM     31  C   UNL A   1      40.092  34.799  33.397  1.00  0.00     0.029 A 
ATOM     32  C   UNL A   1      41.218  34.062  33.081  1.00  0.00     0.049 A 
ATOM     33  H   UNL A   1      41.359  32.229  32.034  1.00  0.00     0.167 HD
ATOM     34  C   UNL A   1      43.613  33.520  33.015  1.00  0.00     0.074 A 
ATOM     35  C   UNL A   1      45.012  33.747  33.295  1.00  0.00     0.031 C 
ATOM     36  C   UNL A   1      42.603  34.346  33.384  1.00  0.00     0.034 A 
BRANCH  23  37
ATOM     37  C   UNL A   1      37.103  32.227  31.471  1.00  0.00     0.023 A 
ATOM     38  C   UNL A   1      36.459  32.693  30.313  1.00  0.00     0.031 A 
ATOM     39  C   UNL A   1      36.343  32.062  32.641  1.00  0.00     0.131 A 
ATOM     40  C   UNL A   1      35.110  33.070  30.377  1.00  0.00     0.055 A 
ATOM     41  C   UNL A   1      34.984  32.362  32.677  1.00  0.00     0.041 A 
ATOM     42  F   UNL A   1      36.923  31.641  33.777  1.00  0.00    -0.206 F 
ATOM     43  C   UNL A   1      34.364  32.890  31.546  1.00  0.00     0.022 A 
BRANCH  40  44
ATOM     44  S   UNL A   1      34.398  33.974  28.976  1.00  0.00     0.124 S 
ATOM     45  O   UNL A   1      33.101  34.380  29.511  1.00  0.00    -0.237 OA
ATOM     46  O   UNL A   1      35.367  35.044  28.765  1.00  0.00    -0.237 OA
ATOM     47  O   UNL A   1      34.337  32.969  27.916  1.00  0.00    -0.744 OA
ENDBRANCH  40  44
ENDBRANCH  23  37
BRANCH  24  48
ATOM     48  C   UNL A   1      46.689  30.192  31.839  1.00  0.00     0.023 A 
ATOM     49  C   UNL A   1      47.612  30.521  30.828  1.00  0.00     0.031 A 
ATOM     50  C   UNL A   1      47.145  29.378  32.894  1.00  0.00     0.131 A 
ATOM     51  C   UNL A   1      48.918  29.993  30.862  1.00  0.00     0.055 A 
ATOM     52  C   UNL A   1      48.455  28.892  32.946  1.00  0.00     0.041 A 
ATOM     53  F   UNL A   1      46.308  29.003  33.874  1.00  0.00    -0.206 F 
ATOM     54  C   UNL A   1      49.345  29.186  31.918  1.00  0.00     0.022 A 
BRANCH  51  55
ATOM     55  S   UNL A   1      50.024  30.272  29.445  1.00  0.00     0.124 S 
ATOM     56  O   UNL A   1      49.113  30.107  28.319  1.00  0.00    -0.237 OA
ATOM     57  O   UNL A   1      50.501  31.628  29.694  1.00  0.00    -0.237 OA
ATOM     58  O   UNL A   1      51.032  29.223  29.588  1.00  0.00    -0.744 OA
ENDBRANCH  51  55
ENDBRANCH  24  48
BRANCH  36  59
ATOM     59  C   UNL A   1      42.956  35.574  34.197  1.00  0.00     0.023 A 
ATOM     60  C   UNL A   1      43.184  36.830  33.602  1.00  0.00     0.031 A 
ATOM     61  C   UNL A   1      43.081  35.485  35.597  1.00  0.00     0.131 A 
ATOM     62  C   UNL A   1      43.565  37.929  34.394  1.00  0.00     0.055 A 
ATOM     63  C   UNL A   1      43.412  36.591  36.384  1.00  0.00     0.041 A 
ATOM     64  F   UNL A   1      42.883  34.315  36.226  1.00  0.00    -0.206 F 
ATOM     65  C   UNL A   1      43.667  37.819  35.783  1.00  0.00     0.022 A 
BRANCH  62  66
ATOM     66  S   UNL A   1      43.996  39.495  33.581  1.00  0.00     0.124 S 
ATOM     67  O   UNL A   1      44.905  39.053  32.528  1.00  0.00    -0.237 OA
ATOM     68  O   UNL A   1      42.695  39.984  33.137  1.00  0.00    -0.237 OA
ATOM     69  O   UNL A   1      44.618  40.278  34.647  1.00  0.00    -0.744 OA
ENDBRANCH  62  66
ENDBRANCH  36  59
ENDBRANCH  10  11
ENDBRANCH   3   5
ENDBRANCH   2   3
ENDBRANCH   1   2
BRANCH   1  70
ATOM     70  C   UNL A   1      41.907  20.182  25.794  1.00  0.00     0.275 C 
BRANCH  70  71
ATOM     71  O   UNL A   1      42.941  21.889  25.365  1.00  0.00    -0.458 OA
BRANCH  71  72
ATOM     72  C   UNL A   1      43.155  23.329  25.861  1.00  0.00     0.339 C 
ATOM     73  O   UNL A   1      42.948  24.284  25.088  1.00  0.00    -0.246 OA
BRANCH  72  74
ATOM     74  C   UNL A   1      44.054  23.913  26.901  1.00  0.00     0.072 A 
ATOM     75  C   UNL A   1      43.693  23.417  28.228  1.00  0.00     0.016 A 
ATOM     76  C   UNL A   1      45.045  24.882  26.843  1.00  0.00     0.054 A 
ATOM     77  C   UNL A   1      44.282  23.781  29.422  1.00  0.00     0.001 A 
ATOM     78  C   UNL A   1      45.658  25.228  28.098  1.00  0.00     0.015 A 
ATOM     79  C   UNL A   1      45.299  24.691  29.351  1.00  0.00     0.001 A 
BRANCH  76  80
ATOM     80  C   UNL A   1      45.673  25.558  25.663  1.00  0.00     0.256 C 
ATOM     81  O   UNL A   1      46.081  24.830  24.751  1.00  0.00    -0.269 OA
ATOM     82  N   UNL A   1      45.773  26.908  25.414  1.00  0.00    -0.322 N 
ATOM     83  H   UNL A   1      46.100  27.140  24.515  1.00  0.00     0.170 HD
BRANCH  82  84
ATOM     84  C   UNL A   1      45.484  27.998  26.234  1.00  0.00     0.041 A 
ATOM     85  C   UNL A   1      46.686  29.281  26.069  1.00  0.00     0.028 A 
ATOM     86  C   UNL A   1      43.798  28.341  26.625  1.00  0.00     0.028 A 
ATOM     87  C   UNL A   1      46.273  30.982  26.172  1.00  0.00     0.029 A 
ATOM     88  C   UNL A   1      43.312  30.090  26.685  1.00  0.00     0.029 A 
ATOM     89  C   UNL A   1      44.621  31.482  26.528  1.00  0.00     0.052 A 
BRANCH  89  90
ATOM     90  N   UNL A   1      44.621  33.030  27.190  1.00  0.00    -0.250 N 
ATOM     91  C   UNL A   1      44.783  33.344  28.562  1.00  0.00     0.237 C 
ATOM     92  C   UNL A   1      44.223  34.281  26.621  1.00  0.00     0.237 C 
ATOM     93  O   UNL A   1      45.718  33.093  29.304  1.00  0.00    -0.274 OA
ATOM     94  C   UNL A   1      43.637  34.291  28.850  1.00  0.00     0.095 C 
ATOM     95  C   UNL A   1      43.987  35.266  27.765  1.00  0.00     0.095 C 
ATOM     96  O   UNL A   1      44.191  34.691  25.474  1.00  0.00    -0.274 OA
ATOM     97  C   UNL A   1      42.955  35.148  29.920  1.00  0.00     0.002 C 
ATOM     98  C   UNL A   1      42.938  36.361  28.014  1.00  0.00     0.002 C 
ATOM     99  C   UNL A   1      41.439  35.154  29.520  1.00  0.00     0.005 C 
ATOM    100  C   UNL A   1      43.261  36.597  29.514  1.00  0.00     0.009 C 
ATOM    101  C   UNL A   1      41.476  35.855  28.132  1.00  0.00     0.005 C 
ENDBRANCH  89  90
ENDBRANCH  82  84
ENDBRANCH  76  80
ENDBRANCH  72  74
ENDBRANCH  71  72
ENDBRANCH  70  71
ENDBRANCH   1  70
TORSDOF 17
ENDMDL
MODEL 3
REMARK VINA RESULT:     -14.9      6.937     16.852
REMARK SMILES O=C(OCCOC(=O)c1ccccc1C(=O)Nc1ccc(N2C(=O)[C@H]3[C@@H]4CC[C@@H](C4)[C@@H]3C2=O)cc1)c1ccc(-c2c3nc(c(-c4cc(S(=O)(=O)[O-])ccc4F)c4ccc([nH]4)c(-c4cc(S(=O)(=O)[O-])ccc4F)c4nc(c(-c5cc(S(=O)(=O)[O-])ccc5F)c5ccc2[nH]5)C=C4)C=C3)cc1
REMARK SMILES IDX 4 1 3 2 2 3 1 4 36 5 37 6 98 7 38 8 97 9 39 10 40 11 41 12
REMARK SMILES IDX 91 13 42 14 96 15 90 16 92 17 43 18 95 19 89 20 88 21 44 23
REMARK SMILES IDX 76 24 56 25 75 26 57 27 60 28 74 29 93 30 58 31 59 32 73 34
REMARK SMILES IDX 94 35 61 36 45 37 46 38 54 39 47 40 53 41 55 42 52 43 48 44
REMARK SMILES IDX 49 45 50 46 51 47 77 48 78 49 86 50 79 51 85 52 87 53 84 54
REMARK SMILES IDX 80 55 81 56 82 57 83 58 62 59 63 60 71 61 64 62 70 63 72 64
REMARK SMILES IDX 69 65 65 66 66 67 67 68 68 69 5 70 6 71 7 72 8 73 9 74 10 75
REMARK SMILES IDX 14 76 11 77 13 78 12 79 15 80 16 81 17 82 18 84 19 85 35 86
REMARK SMILES IDX 20 87 34 88 21 89 22 90 23 91 32 92 24 93 25 94 31 95 33 96
REMARK SMILES IDX 26 97 29 98 27 99 30 100 28 101
REMARK H PARENT 92 22 60 33 17 83
REMARK Flexibility Score: inf
ROOT
ATOM      1  C   UNL A   1      37.578  22.754  25.858  1.00  0.00     0.275 C 
ENDROOT
BRANCH   1   2
ATOM      2  O   UNL A   1      38.748  24.147  25.995  1.00  0.00    -0.458 OA
BRANCH   2   3
ATOM      3  C   UNL A   1      40.234  24.597  26.350  1.00  0.00     0.338 C 
ATOM      4  O   UNL A   1      40.997  23.618  26.370  1.00  0.00    -0.246 OA
BRANCH   3   5
ATOM      5  C   UNL A   1      41.073  26.112  26.723  1.00  0.00     0.060 A 
ATOM      6  C   UNL A   1      40.893  27.453  26.244  1.00  0.00     0.016 A 
ATOM      7  C   UNL A   1      42.021  26.152  27.770  1.00  0.00     0.016 A 
ATOM      8  C   UNL A   1      41.309  28.685  26.847  1.00  0.00     0.010 A 
ATOM      9  C   UNL A   1      42.493  27.415  28.393  1.00  0.00     0.010 A 
ATOM     10  C   UNL A   1      42.066  28.709  27.998  1.00  0.00    -0.014 A 
BRANCH  10  11
ATOM     11  C   UNL A   1      42.439  30.071  28.606  1.00  0.00     0.031 A 
ATOM     12  C   UNL A   1      41.661  30.596  29.791  1.00  0.00     0.074 A 
ATOM     13  C   UNL A   1      43.580  30.780  28.374  1.00  0.00     0.049 A 
ATOM     14  N   UNL A   1      41.874  31.671  30.514  1.00  0.00    -0.248 NA
ATOM     15  C   UNL A   1      40.563  29.752  30.263  1.00  0.00     0.031 C 
ATOM     16  C   UNL A   1      44.707  30.311  27.600  1.00  0.00     0.029 A 
ATOM     17  N   UNL A   1      44.023  32.030  28.797  1.00  0.00    -0.354 N 
ATOM     18  C   UNL A   1      40.975  31.609  31.569  1.00  0.00     0.074 A 
ATOM     19  C   UNL A   1      40.182  30.410  31.348  1.00  0.00     0.031 C 
ATOM     20  C   UNL A   1      45.629  31.279  27.454  1.00  0.00     0.029 A 
ATOM     21  C   UNL A   1      45.209  32.451  28.212  1.00  0.00     0.049 A 
ATOM     22  H   UNL A   1      43.534  32.572  29.457  1.00  0.00     0.167 HD
ATOM     23  C   UNL A   1      40.826  32.440  32.632  1.00  0.00     0.034 A 
ATOM     24  C   UNL A   1      45.919  33.605  28.276  1.00  0.00     0.034 A 
ATOM     25  C   UNL A   1      41.546  33.670  32.873  1.00  0.00     0.049 A 
ATOM     26  C   UNL A   1      45.517  34.685  29.253  1.00  0.00     0.074 A 
ATOM     27  C   UNL A   1      41.348  34.591  33.893  1.00  0.00     0.029 A 
ATOM     28  N   UNL A   1      42.578  34.176  32.098  1.00  0.00    -0.354 N 
ATOM     29  N   UNL A   1      44.609  34.635  30.194  1.00  0.00    -0.248 NA
ATOM     30  C   UNL A   1      46.265  35.955  29.213  1.00  0.00     0.031 C 
ATOM     31  C   UNL A   1      42.198  35.686  33.687  1.00  0.00     0.029 A 
ATOM     32  C   UNL A   1      42.983  35.419  32.581  1.00  0.00     0.049 A 
ATOM     33  H   UNL A   1      42.970  33.721  31.317  1.00  0.00     0.167 HD
ATOM     34  C   UNL A   1      44.727  35.831  30.900  1.00  0.00     0.074 A 
ATOM     35  C   UNL A   1      45.783  36.591  30.272  1.00  0.00     0.031 C 
ATOM     36  C   UNL A   1      44.027  36.227  31.992  1.00  0.00     0.034 A 
BRANCH  23  37
ATOM     37  C   UNL A   1      39.728  32.060  33.590  1.00  0.00     0.023 A 
ATOM     38  C   UNL A   1      38.543  32.809  33.681  1.00  0.00     0.031 A 
ATOM     39  C   UNL A   1      39.926  31.003  34.494  1.00  0.00     0.131 A 
ATOM     40  C   UNL A   1      37.641  32.549  34.722  1.00  0.00     0.055 A 
ATOM     41  C   UNL A   1      38.987  30.698  35.475  1.00  0.00     0.041 A 
ATOM     42  F   UNL A   1      41.054  30.275  34.456  1.00  0.00    -0.206 F 
ATOM     43  C   UNL A   1      37.846  31.487  35.608  1.00  0.00     0.022 A 
BRANCH  40  44
ATOM     44  S   UNL A   1      36.300  33.733  35.020  1.00  0.00     0.124 S 
ATOM     45  O   UNL A   1      35.164  33.059  34.399  1.00  0.00    -0.237 OA
ATOM     46  O   UNL A   1      36.276  33.822  36.475  1.00  0.00    -0.237 OA
ATOM     47  O   UNL A   1      36.751  34.940  34.328  1.00  0.00    -0.744 OA
ENDBRANCH  40  44
ENDBRANCH  23  37
BRANCH  24  48
ATOM     48  C   UNL A   1      47.083  33.870  27.361  1.00  0.00     0.023 A 
ATOM     49  C   UNL A   1      48.416  33.633  27.750  1.00  0.00     0.031 A 
ATOM     50  C   UNL A   1      46.873  34.539  26.140  1.00  0.00     0.131 A 
ATOM     51  C   UNL A   1      49.480  34.112  26.960  1.00  0.00     0.055 A 
ATOM     52  C   UNL A   1      47.933  34.975  25.338  1.00  0.00     0.041 A 
ATOM     53  F   UNL A   1      45.628  34.822  25.726  1.00  0.00    -0.206 F 
ATOM     54  C   UNL A   1      49.245  34.776  25.754  1.00  0.00     0.022 A 
BRANCH  51  55
ATOM     55  S   UNL A   1      51.183  33.968  27.584  1.00  0.00     0.124 S 
ATOM     56  O   UNL A   1      50.977  34.022  29.027  1.00  0.00    -0.237 OA
ATOM     57  O   UNL A   1      51.597  32.679  27.041  1.00  0.00    -0.237 OA
ATOM     58  O   UNL A   1      51.857  35.130  27.008  1.00  0.00    -0.744 OA
ENDBRANCH  51  55
ENDBRANCH  24  48
BRANCH  36  59
ATOM     59  C   UNL A   1      44.411  37.542  32.638  1.00  0.00     0.023 A 
ATOM     60  C   UNL A   1      43.655  38.717  32.463  1.00  0.00     0.031 A 
ATOM     61  C   UNL A   1      45.569  37.626  33.436  1.00  0.00     0.131 A 
ATOM     62  C   UNL A   1      44.084  39.927  33.038  1.00  0.00     0.055 A 
ATOM     63  C   UNL A   1      45.965  38.820  34.045  1.00  0.00     0.041 A 
ATOM     64  F   UNL A   1      46.339  36.545  33.638  1.00  0.00    -0.206 F 
ATOM     65  C   UNL A   1      45.228  39.982  33.839  1.00  0.00     0.022 A 
BRANCH  62  66
ATOM     66  S   UNL A   1      43.169  41.452  32.671  1.00  0.00     0.124 S 
ATOM     67  O   UNL A   1      41.952  41.274  33.456  1.00  0.00    -0.237 OA
ATOM     68  O   UNL A   1      44.085  42.486  33.141  1.00  0.00    -0.237 OA
ATOM     69  O   UNL A   1      42.984  41.404  31.222  1.00  0.00    -0.744 OA
ENDBRANCH  62  66
ENDBRANCH  36  59
ENDBRANCH  10  11
ENDBRANCH   3   5
ENDBRANCH   2   3
ENDBRANCH   1   2
BRANCH   1  70
ATOM     70  C   UNL A   1      37.200  22.079  24.104  1.00  0.00     0.275 C 
BRANCH  70  71
ATOM     71  O   UNL A   1      35.753  23.069  23.058  1.00  0.00    -0.458 OA
BRANCH  71  72
ATOM     72  C   UNL A   1      34.314  23.595  23.189  1.00  0.00     0.339 C 
ATOM     73  O   UNL A   1      34.061  24.781  22.901  1.00  0.00    -0.246 OA
BRANCH  72  74
ATOM     74  C   UNL A   1      33.175  23.204  24.074  1.00  0.00     0.072 A 
ATOM     75  C   UNL A   1      33.506  21.997  24.831  1.00  0.00     0.016 A 
ATOM     76  C   UNL A   1      31.885  23.694  24.210  1.00  0.00     0.054 A 
ATOM     77  C   UNL A   1      32.673  21.332  25.708  1.00  0.00     0.001 A 
ATOM     78  C   UNL A   1      31.044  22.996  25.146  1.00  0.00     0.015 A 
ATOM     79  C   UNL A   1      31.424  21.856  25.882  1.00  0.00     0.001 A 
BRANCH  76  80
ATOM     80  C   UNL A   1      31.244  24.914  23.622  1.00  0.00     0.256 C 
ATOM     81  O   UNL A   1      30.428  24.734  22.710  1.00  0.00    -0.269 OA
ATOM     82  N   UNL A   1      31.376  26.222  24.030  1.00  0.00    -0.322 N 
ATOM     83  H   UNL A   1      30.763  26.855  23.594  1.00  0.00     0.170 HD
BRANCH  82  84
ATOM     84  C   UNL A   1      32.242  26.789  24.963  1.00  0.00     0.041 A 
ATOM     85  C   UNL A   1      33.386  27.901  24.207  1.00  0.00     0.028 A 
ATOM     86  C   UNL A   1      31.675  27.014  26.618  1.00  0.00     0.028 A 
ATOM     87  C   UNL A   1      33.952  29.359  24.999  1.00  0.00     0.029 A 
ATOM     88  C   UNL A   1      32.190  28.540  27.458  1.00  0.00     0.029 A 
ATOM     89  C   UNL A   1      33.449  29.736  26.646  1.00  0.00     0.052 A 
BRANCH  89  90
ATOM     90  N   UNL A   1      34.573  30.759  27.369  1.00  0.00    -0.250 N 
ATOM     91  C   UNL A   1      35.877  30.393  27.787  1.00  0.00     0.237 C 
ATOM     92  C   UNL A   1      34.410  32.062  27.936  1.00  0.00     0.237 C 
ATOM     93  O   UNL A   1      36.800  29.945  27.127  1.00  0.00    -0.274 OA
ATOM     94  C   UNL A   1      35.959  30.920  29.204  1.00  0.00     0.095 C 
ATOM     95  C   UNL A   1      35.607  32.333  28.847  1.00  0.00     0.095 C 
ATOM     96  O   UNL A   1      33.623  32.965  27.713  1.00  0.00    -0.274 OA
ATOM     97  C   UNL A   1      36.848  31.056  30.444  1.00  0.00     0.002 C 
ATOM     98  C   UNL A   1      35.756  33.020  30.214  1.00  0.00     0.002 C 
ATOM     99  C   UNL A   1      35.849  31.049  31.653  1.00  0.00     0.005 C 
ATOM    100  C   UNL A   1      37.206  32.548  30.506  1.00  0.00     0.009 C 
ATOM    101  C   UNL A   1      35.008  32.328  31.382  1.00  0.00     0.005 C 
ENDBRANCH  89  90
ENDBRANCH  82  84
ENDBRANCH  76  80
ENDBRANCH  72  74
ENDBRANCH  71  72
ENDBRANCH  70  71
ENDBRANCH   1  70
TORSDOF 17
ENDMDL
