MODEL 1
REMARK VINA RESULT:     -12.5      0.000      0.000
REMARK SMILES O=C(OCCOC(=O)[C@@H]1c2ccccc2C(=O)N(C2CCCC2)C12CCCCC2)c1ccc(-c2c3nc(c(-c4cc(S(=O)(=O)[O-])ccc4F)c4ccc([nH]4)c(-c4cc(S(=O)(=O)[O-])ccc4F)c4nc(c(-c5cc(S(=O)(=O)[O-])ccc5F)c5ccc2[nH]5)C=C4)C=C3)cc1
REMARK SMILES IDX 4 1 3 2 2 3 1 4 30 5 31 6 92 7 32 8 91 9 33 10 34 11 35 12
REMARK SMILES IDX 85 13 36 14 90 15 84 16 86 17 37 18 89 19 83 20 82 21 38 23
REMARK SMILES IDX 70 24 50 25 69 26 51 27 54 28 68 29 87 30 52 31 53 32 67 34
REMARK SMILES IDX 88 35 55 36 39 37 40 38 48 39 41 40 47 41 49 42 46 43 42 44
REMARK SMILES IDX 43 45 44 46 45 47 71 48 72 49 80 50 73 51 79 52 81 53 78 54
REMARK SMILES IDX 74 55 75 56 76 57 77 58 56 59 57 60 65 61 58 62 64 63 66 64
REMARK SMILES IDX 63 65 59 66 60 67 61 68 62 69 5 70 6 71 7 72 8 73 9 74 10 75
REMARK SMILES IDX 24 76 11 77 15 78 18 79 25 80 29 81 12 82 14 83 16 84 26 85
REMARK SMILES IDX 28 86 13 87 17 88 27 89 19 90 20 91 23 92 21 93 22 94
REMARK H PARENT 86 22 54 33
REMARK Flexibility Score: inf
ROOT
ATOM      1  C   UNL A   1      32.671  29.269  26.768  1.00  0.00     0.275 C 
ENDROOT
BRANCH   1   2
ATOM      2  O   UNL A   1      32.971  30.400  27.608  1.00  0.00    -0.458 OA
BRANCH   2   3
ATOM      3  C   UNL A   1      34.138  31.068  27.793  1.00  0.00     0.338 C 
ATOM      4  O   UNL A   1      34.120  32.290  27.637  1.00  0.00    -0.246 OA
BRANCH   3   5
ATOM      5  C   UNL A   1      35.460  30.427  28.137  1.00  0.00     0.060 A 
ATOM      6  C   UNL A   1      35.583  29.926  29.441  1.00  0.00     0.016 A 
ATOM      7  C   UNL A   1      36.549  30.207  27.285  1.00  0.00     0.016 A 
ATOM      8  C   UNL A   1      36.784  29.346  29.893  1.00  0.00     0.010 A 
ATOM      9  C   UNL A   1      37.777  29.658  27.760  1.00  0.00     0.010 A 
ATOM     10  C   UNL A   1      37.950  29.294  29.100  1.00  0.00    -0.014 A 
BRANCH  10  11
ATOM     11  C   UNL A   1      39.203  28.656  29.646  1.00  0.00     0.031 A 
ATOM     12  C   UNL A   1      39.871  27.355  29.200  1.00  0.00     0.074 A 
ATOM     13  C   UNL A   1      39.828  29.333  30.621  1.00  0.00     0.049 A 
ATOM     14  N   UNL A   1      41.127  26.979  29.304  1.00  0.00    -0.248 NA
ATOM     15  C   UNL A   1      39.068  26.343  28.527  1.00  0.00     0.031 C 
ATOM     16  C   UNL A   1      39.358  30.587  31.203  1.00  0.00     0.029 A 
ATOM     17  N   UNL A   1      40.949  29.014  31.338  1.00  0.00    -0.354 N 
ATOM     18  C   UNL A   1      41.271  25.828  28.516  1.00  0.00     0.074 A 
ATOM     19  C   UNL A   1      39.969  25.527  27.987  1.00  0.00     0.031 C 
ATOM     20  C   UNL A   1      40.128  30.881  32.255  1.00  0.00     0.029 A 
ATOM     21  C   UNL A   1      41.099  29.806  32.441  1.00  0.00     0.049 A 
ATOM     22  H   UNL A   1      41.575  28.296  31.087  1.00  0.00     0.167 HD
ATOM     23  C   UNL A   1      42.362  25.047  28.307  1.00  0.00     0.034 A 
ATOM     24  C   UNL A   1      41.862  29.631  33.534  1.00  0.00     0.034 A 
ATOM     25  C   UNL A   1      43.488  25.062  29.197  1.00  0.00     0.049 A 
ATOM     26  C   UNL A   1      42.886  28.537  33.541  1.00  0.00     0.074 A 
ATOM     27  C   UNL A   1      44.602  24.244  29.188  1.00  0.00     0.029 A 
ATOM     28  N   UNL A   1      43.556  25.831  30.346  1.00  0.00    -0.354 N 
ATOM     29  N   UNL A   1      43.170  27.674  32.594  1.00  0.00    -0.248 NA
ATOM     30  C   UNL A   1      43.721  28.407  34.739  1.00  0.00     0.031 C 
ATOM     31  C   UNL A   1      45.262  24.421  30.405  1.00  0.00     0.029 A 
ATOM     32  C   UNL A   1      44.620  25.422  31.122  1.00  0.00     0.049 A 
ATOM     33  H   UNL A   1      42.936  26.562  30.574  1.00  0.00     0.167 HD
ATOM     34  C   UNL A   1      44.248  26.930  33.060  1.00  0.00     0.074 A 
ATOM     35  C   UNL A   1      44.554  27.434  34.383  1.00  0.00     0.031 C 
ATOM     36  C   UNL A   1      44.929  25.937  32.436  1.00  0.00     0.034 A 
BRANCH  23  37
ATOM     37  C   UNL A   1      42.404  24.065  27.153  1.00  0.00     0.023 A 
ATOM     38  C   UNL A   1      41.960  22.734  27.272  1.00  0.00     0.031 A 
ATOM     39  C   UNL A   1      43.099  24.418  25.981  1.00  0.00     0.131 A 
ATOM     40  C   UNL A   1      42.219  21.815  26.236  1.00  0.00     0.055 A 
ATOM     41  C   UNL A   1      43.333  23.509  24.946  1.00  0.00     0.041 A 
ATOM     42  F   UNL A   1      43.621  25.645  25.847  1.00  0.00    -0.206 F 
ATOM     43  C   UNL A   1      42.895  22.197  25.072  1.00  0.00     0.022 A 
BRANCH  40  44
ATOM     44  S   UNL A   1      41.709  20.075  26.359  1.00  0.00     0.124 S 
ATOM     45  O   UNL A   1      42.427  19.466  25.240  1.00  0.00    -0.237 OA
ATOM     46  O   UNL A   1      42.194  19.704  27.685  1.00  0.00    -0.237 OA
ATOM     47  O   UNL A   1      40.259  20.128  26.202  1.00  0.00    -0.744 OA
ENDBRANCH  40  44
ENDBRANCH  23  37
BRANCH  24  48
ATOM     48  C   UNL A   1      41.589  30.537  34.679  1.00  0.00     0.023 A 
ATOM     49  C   UNL A   1      40.361  30.427  35.368  1.00  0.00     0.031 A 
ATOM     50  C   UNL A   1      42.399  31.649  34.929  1.00  0.00     0.131 A 
ATOM     51  C   UNL A   1      39.927  31.473  36.187  1.00  0.00     0.055 A 
ATOM     52  C   UNL A   1      41.996  32.655  35.809  1.00  0.00     0.041 A 
ATOM     53  F   UNL A   1      43.558  31.802  34.272  1.00  0.00    -0.206 F 
ATOM     54  C   UNL A   1      40.744  32.583  36.419  1.00  0.00     0.022 A 
BRANCH  51  55
ATOM     55  S   UNL A   1      38.211  31.523  36.784  1.00  0.00     0.124 S 
ATOM     56  O   UNL A   1      38.353  32.236  38.049  1.00  0.00    -0.237 OA
ATOM     57  O   UNL A   1      37.536  32.257  35.717  1.00  0.00    -0.237 OA
ATOM     58  O   UNL A   1      37.840  30.115  36.889  1.00  0.00    -0.744 OA
ENDBRANCH  51  55
ENDBRANCH  24  48
BRANCH  36  59
ATOM     59  C   UNL A   1      46.093  25.283  33.132  1.00  0.00     0.023 A 
ATOM     60  C   UNL A   1      45.843  24.224  34.025  1.00  0.00     0.031 A 
ATOM     61  C   UNL A   1      47.366  25.872  33.126  1.00  0.00     0.131 A 
ATOM     62  C   UNL A   1      46.821  23.854  34.951  1.00  0.00     0.055 A 
ATOM     63  C   UNL A   1      48.362  25.455  34.009  1.00  0.00     0.041 A 
ATOM     64  F   UNL A   1      47.644  26.892  32.298  1.00  0.00    -0.206 F 
ATOM     65  C   UNL A   1      48.082  24.462  34.946  1.00  0.00     0.022 A 
BRANCH  62  66
ATOM     66  S   UNL A   1      46.429  22.708  36.301  1.00  0.00     0.124 S 
ATOM     67  O   UNL A   1      46.502  23.583  37.469  1.00  0.00    -0.237 OA
ATOM     68  O   UNL A   1      45.088  22.256  35.942  1.00  0.00    -0.237 OA
ATOM     69  O   UNL A   1      47.474  21.694  36.216  1.00  0.00    -0.744 OA
ENDBRANCH  62  66
ENDBRANCH  36  59
ENDBRANCH  10  11
ENDBRANCH   3   5
ENDBRANCH   2   3
ENDBRANCH   1   2
BRANCH   1  70
ATOM     70  C   UNL A   1      31.775  28.224  27.428  1.00  0.00     0.274 C 
BRANCH  70  71
ATOM     71  O   UNL A   1      32.311  26.916  27.215  1.00  0.00    -0.462 OA
BRANCH  71  72
ATOM     72  C   UNL A   1      31.749  26.204  26.192  1.00  0.00     0.315 C 
ATOM     73  O   UNL A   1      30.547  26.136  25.988  1.00  0.00    -0.251 OA
BRANCH  72  74
ATOM     74  C   UNL A   1      32.855  25.592  25.334  1.00  0.00     0.156 C 
ATOM     75  C   UNL A   1      32.984  26.323  24.015  1.00  0.00    -0.019 A 
ATOM     76  C   UNL A   1      32.866  24.018  25.220  1.00  0.00     0.061 C 
ATOM     77  C   UNL A   1      32.831  27.721  23.957  1.00  0.00     0.005 A 
ATOM     78  C   UNL A   1      33.403  25.648  22.868  1.00  0.00     0.044 A 
ATOM     79  N   UNL A   1      33.993  23.682  24.218  1.00  0.00    -0.329 N 
ATOM     80  C   UNL A   1      31.579  23.323  24.671  1.00  0.00     0.030 C 
ATOM     81  C   UNL A   1      33.068  23.466  26.640  1.00  0.00     0.030 C 
ATOM     82  C   UNL A   1      33.025  28.414  22.765  1.00  0.00     0.000 A 
ATOM     83  C   UNL A   1      33.571  26.344  21.663  1.00  0.00     0.014 A 
ATOM     84  C   UNL A   1      33.892  24.249  22.935  1.00  0.00     0.254 C 
ATOM     85  C   UNL A   1      30.348  23.248  25.579  1.00  0.00     0.002 C 
ATOM     86  C   UNL A   1      31.837  23.481  27.567  1.00  0.00     0.002 C 
ATOM     87  C   UNL A   1      33.376  27.722  21.613  1.00  0.00     0.001 A 
ATOM     88  O   UNL A   1      34.309  23.716  21.911  1.00  0.00    -0.269 OA
ATOM     89  C   UNL A   1      30.647  22.760  26.983  1.00  0.00     0.000 C 
BRANCH  79  90
ATOM     90  C   UNL A   1      35.112  22.719  24.333  1.00  0.00     0.086 C 
ATOM     91  C   UNL A   1      36.312  23.084  25.181  1.00  0.00     0.025 C 
ATOM     92  C   UNL A   1      34.817  21.285  24.745  1.00  0.00     0.025 C 
ATOM     93  C   UNL A   1      37.194  21.845  25.092  1.00  0.00     0.002 C 
ATOM     94  C   UNL A   1      36.205  20.682  25.043  1.00  0.00     0.002 C 
ENDBRANCH  79  90
ENDBRANCH  72  74
ENDBRANCH  71  72
ENDBRANCH  70  71
ENDBRANCH   1  70
TORSDOF 15
ENDMDL
MODEL 2
REMARK VINA RESULT:     -12.5      4.678      9.844
REMARK SMILES O=C(OCCOC(=O)[C@@H]1c2ccccc2C(=O)N(C2CCCC2)C12CCCCC2)c1ccc(-c2c3nc(c(-c4cc(S(=O)(=O)[O-])ccc4F)c4ccc([nH]4)c(-c4cc(S(=O)(=O)[O-])ccc4F)c4nc(c(-c5cc(S(=O)(=O)[O-])ccc5F)c5ccc2[nH]5)C=C4)C=C3)cc1
REMARK SMILES IDX 4 1 3 2 2 3 1 4 30 5 31 6 92 7 32 8 91 9 33 10 34 11 35 12
REMARK SMILES IDX 85 13 36 14 90 15 84 16 86 17 37 18 89 19 83 20 82 21 38 23
REMARK SMILES IDX 70 24 50 25 69 26 51 27 54 28 68 29 87 30 52 31 53 32 67 34
REMARK SMILES IDX 88 35 55 36 39 37 40 38 48 39 41 40 47 41 49 42 46 43 42 44
REMARK SMILES IDX 43 45 44 46 45 47 71 48 72 49 80 50 73 51 79 52 81 53 78 54
REMARK SMILES IDX 74 55 75 56 76 57 77 58 56 59 57 60 65 61 58 62 64 63 66 64
REMARK SMILES IDX 63 65 59 66 60 67 61 68 62 69 5 70 6 71 7 72 8 73 9 74 10 75
REMARK SMILES IDX 24 76 11 77 15 78 18 79 25 80 29 81 12 82 14 83 16 84 26 85
REMARK SMILES IDX 28 86 13 87 17 88 27 89 19 90 20 91 23 92 21 93 22 94
REMARK H PARENT 86 22 54 33
REMARK Flexibility Score: inf
ROOT
ATOM      1  C   UNL A   1      37.134  23.302  24.601  1.00  0.00     0.275 C 
ENDROOT
BRANCH   1   2
ATOM      2  O   UNL A   1      38.022  22.384  25.266  1.00  0.00    -0.458 OA
BRANCH   2   3
ATOM      3  C   UNL A   1      38.995  22.617  26.183  1.00  0.00     0.338 C 
ATOM      4  O   UNL A   1      39.654  21.648  26.566  1.00  0.00    -0.246 OA
BRANCH   3   5
ATOM      5  C   UNL A   1      39.307  23.960  26.796  1.00  0.00     0.060 A 
ATOM      6  C   UNL A   1      40.007  24.863  25.983  1.00  0.00     0.016 A 
ATOM      7  C   UNL A   1      38.914  24.437  28.053  1.00  0.00     0.016 A 
ATOM      8  C   UNL A   1      40.393  26.130  26.460  1.00  0.00     0.010 A 
ATOM      9  C   UNL A   1      39.346  25.704  28.545  1.00  0.00     0.010 A 
ATOM     10  C   UNL A   1      40.170  26.545  27.789  1.00  0.00    -0.014 A 
BRANCH  10  11
ATOM     11  C   UNL A   1      40.608  27.918  28.234  1.00  0.00     0.031 A 
ATOM     12  C   UNL A   1      39.733  29.129  28.556  1.00  0.00     0.074 A 
ATOM     13  C   UNL A   1      41.928  28.086  28.399  1.00  0.00     0.049 A 
ATOM     14  N   UNL A   1      39.983  30.161  29.334  1.00  0.00    -0.248 NA
ATOM     15  C   UNL A   1      38.400  29.213  27.976  1.00  0.00     0.031 C 
ATOM     16  C   UNL A   1      42.941  27.066  28.137  1.00  0.00     0.029 A 
ATOM     17  N   UNL A   1      42.638  29.200  28.754  1.00  0.00    -0.354 N 
ATOM     18  C   UNL A   1      38.772  30.848  29.494  1.00  0.00     0.074 A 
ATOM     19  C   UNL A   1      37.799  30.161  28.690  1.00  0.00     0.031 C 
ATOM     20  C   UNL A   1      44.148  27.631  28.243  1.00  0.00     0.029 A 
ATOM     21  C   UNL A   1      43.978  29.055  28.525  1.00  0.00     0.049 A 
ATOM     22  H   UNL A   1      42.231  30.013  29.132  1.00  0.00     0.167 HD
ATOM     23  C   UNL A   1      38.502  31.987  30.183  1.00  0.00     0.034 A 
ATOM     24  C   UNL A   1      44.947  29.982  28.446  1.00  0.00     0.034 A 
ATOM     25  C   UNL A   1      39.536  32.910  30.559  1.00  0.00     0.049 A 
ATOM     26  C   UNL A   1      44.646  31.389  28.860  1.00  0.00     0.074 A 
ATOM     27  C   UNL A   1      39.405  34.156  31.142  1.00  0.00     0.029 A 
ATOM     28  N   UNL A   1      40.872  32.750  30.233  1.00  0.00    -0.354 N 
ATOM     29  N   UNL A   1      43.518  31.887  29.313  1.00  0.00    -0.248 NA
ATOM     30  C   UNL A   1      45.744  32.358  28.795  1.00  0.00     0.031 C 
ATOM     31  C   UNL A   1      40.638  34.801  31.034  1.00  0.00     0.029 A 
ATOM     32  C   UNL A   1      41.558  33.920  30.482  1.00  0.00     0.049 A 
ATOM     33  H   UNL A   1      41.271  31.923  29.876  1.00  0.00     0.167 HD
ATOM     34  C   UNL A   1      43.783  33.215  29.631  1.00  0.00     0.074 A 
ATOM     35  C   UNL A   1      45.174  33.446  29.304  1.00  0.00     0.031 C 
ATOM     36  C   UNL A   1      42.950  34.143  30.165  1.00  0.00     0.034 A 
BRANCH  23  37
ATOM     37  C   UNL A   1      37.076  32.368  30.524  1.00  0.00     0.023 A 
ATOM     38  C   UNL A   1      36.217  32.999  29.604  1.00  0.00     0.031 A 
ATOM     39  C   UNL A   1      36.648  32.287  31.864  1.00  0.00     0.131 A 
ATOM     40  C   UNL A   1      34.982  33.517  30.040  1.00  0.00     0.055 A 
ATOM     41  C   UNL A   1      35.413  32.782  32.288  1.00  0.00     0.041 A 
ATOM     42  F   UNL A   1      37.457  31.776  32.802  1.00  0.00    -0.206 F 
ATOM     43  C   UNL A   1      34.573  33.406  31.374  1.00  0.00     0.022 A 
BRANCH  40  44
ATOM     44  S   UNL A   1      33.858  34.381  28.903  1.00  0.00     0.124 S 
ATOM     45  O   UNL A   1      34.729  35.409  28.334  1.00  0.00    -0.237 OA
ATOM     46  O   UNL A   1      33.469  33.317  27.985  1.00  0.00    -0.237 OA
ATOM     47  O   UNL A   1      32.804  34.886  29.777  1.00  0.00    -0.744 OA
ENDBRANCH  40  44
ENDBRANCH  23  37
BRANCH  24  48
ATOM     48  C   UNL A   1      46.254  29.523  27.908  1.00  0.00     0.023 A 
ATOM     49  C   UNL A   1      46.378  29.266  26.525  1.00  0.00     0.031 A 
ATOM     50  C   UNL A   1      47.279  29.103  28.762  1.00  0.00     0.131 A 
ATOM     51  C   UNL A   1      47.450  28.504  26.053  1.00  0.00     0.055 A 
ATOM     52  C   UNL A   1      48.388  28.409  28.274  1.00  0.00     0.041 A 
ATOM     53  F   UNL A   1      47.182  29.304  30.084  1.00  0.00    -0.206 F 
ATOM     54  C   UNL A   1      48.462  28.083  26.920  1.00  0.00     0.022 A 
BRANCH  51  55
ATOM     55  S   UNL A   1      47.440  27.853  24.356  1.00  0.00     0.124 S 
ATOM     56  O   UNL A   1      46.749  28.913  23.631  1.00  0.00    -0.237 OA
ATOM     57  O   UNL A   1      48.866  27.716  24.071  1.00  0.00    -0.237 OA
ATOM     58  O   UNL A   1      46.715  26.590  24.474  1.00  0.00    -0.744 OA
ENDBRANCH  51  55
ENDBRANCH  24  48
BRANCH  36  59
ATOM     59  C   UNL A   1      43.467  35.526  30.453  1.00  0.00     0.023 A 
ATOM     60  C   UNL A   1      43.607  35.934  31.794  1.00  0.00     0.031 A 
ATOM     61  C   UNL A   1      43.548  36.496  29.443  1.00  0.00     0.131 A 
ATOM     62  C   UNL A   1      43.716  37.293  32.095  1.00  0.00     0.055 A 
ATOM     63  C   UNL A   1      43.722  37.847  29.746  1.00  0.00     0.041 A 
ATOM     64  F   UNL A   1      43.409  36.152  28.152  1.00  0.00    -0.206 F 
ATOM     65  C   UNL A   1      43.777  38.253  31.078  1.00  0.00     0.022 A 
BRANCH  62  66
ATOM     66  S   UNL A   1      43.597  37.871  33.811  1.00  0.00     0.124 S 
ATOM     67  O   UNL A   1      44.999  37.879  34.223  1.00  0.00    -0.237 OA
ATOM     68  O   UNL A   1      42.985  39.187  33.651  1.00  0.00    -0.237 OA
ATOM     69  O   UNL A   1      42.762  36.868  34.464  1.00  0.00    -0.744 OA
ENDBRANCH  62  66
ENDBRANCH  36  59
ENDBRANCH  10  11
ENDBRANCH   3   5
ENDBRANCH   2   3
ENDBRANCH   1   2
BRANCH   1  70
ATOM     70  C   UNL A   1      36.361  22.687  23.437  1.00  0.00     0.274 C 
BRANCH  70  71
ATOM     71  O   UNL A   1      35.481  23.658  22.867  1.00  0.00    -0.462 OA
BRANCH  71  72
ATOM     72  C   UNL A   1      34.155  23.502  23.161  1.00  0.00     0.315 C 
ATOM     73  O   UNL A   1      33.405  22.751  22.558  1.00  0.00    -0.251 OA
BRANCH  72  74
ATOM     74  C   UNL A   1      33.806  24.348  24.385  1.00  0.00     0.156 C 
ATOM     75  C   UNL A   1      33.405  23.472  25.553  1.00  0.00    -0.019 A 
ATOM     76  C   UNL A   1      32.862  25.588  24.136  1.00  0.00     0.061 C 
ATOM     77  C   UNL A   1      34.066  22.251  25.787  1.00  0.00     0.005 A 
ATOM     78  C   UNL A   1      32.484  23.926  26.497  1.00  0.00     0.044 A 
ATOM     79  N   UNL A   1      32.582  26.184  25.534  1.00  0.00    -0.329 N 
ATOM     80  C   UNL A   1      31.464  25.316  23.495  1.00  0.00     0.030 C 
ATOM     81  C   UNL A   1      33.597  26.523  23.162  1.00  0.00     0.030 C 
ATOM     82  C   UNL A   1      33.761  21.474  26.902  1.00  0.00     0.000 A 
ATOM     83  C   UNL A   1      32.159  23.129  27.603  1.00  0.00     0.014 A 
ATOM     84  C   UNL A   1      31.998  25.327  26.484  1.00  0.00     0.254 C 
ATOM     85  C   UNL A   1      31.401  24.971  22.004  1.00  0.00     0.002 C 
ATOM     86  C   UNL A   1      33.596  26.110  21.678  1.00  0.00     0.002 C 
ATOM     87  C   UNL A   1      32.792  21.905  27.800  1.00  0.00     0.001 A 
ATOM     88  O   UNL A   1      31.236  25.700  27.371  1.00  0.00    -0.269 OA
ATOM     89  C   UNL A   1      32.209  25.901  21.121  1.00  0.00     0.000 C 
BRANCH  79  90
ATOM     90  C   UNL A   1      32.689  27.582  26.010  1.00  0.00     0.086 C 
ATOM     91  C   UNL A   1      34.031  28.281  25.947  1.00  0.00     0.025 C 
ATOM     92  C   UNL A   1      31.725  28.626  25.467  1.00  0.00     0.025 C 
ATOM     93  C   UNL A   1      33.722  29.681  26.461  1.00  0.00     0.002 C 
ATOM     94  C   UNL A   1      32.314  29.970  25.942  1.00  0.00     0.002 C 
ENDBRANCH  79  90
ENDBRANCH  72  74
ENDBRANCH  71  72
ENDBRANCH  70  71
ENDBRANCH   1  70
TORSDOF 15
ENDMDL
MODEL 3
REMARK VINA RESULT:     -12.2      1.483      1.692
REMARK SMILES O=C(OCCOC(=O)[C@@H]1c2ccccc2C(=O)N(C2CCCC2)C12CCCCC2)c1ccc(-c2c3nc(c(-c4cc(S(=O)(=O)[O-])ccc4F)c4ccc([nH]4)c(-c4cc(S(=O)(=O)[O-])ccc4F)c4nc(c(-c5cc(S(=O)(=O)[O-])ccc5F)c5ccc2[nH]5)C=C4)C=C3)cc1
REMARK SMILES IDX 4 1 3 2 2 3 1 4 30 5 31 6 92 7 32 8 91 9 33 10 34 11 35 12
REMARK SMILES IDX 85 13 36 14 90 15 84 16 86 17 37 18 89 19 83 20 82 21 38 23
REMARK SMILES IDX 70 24 50 25 69 26 51 27 54 28 68 29 87 30 52 31 53 32 67 34
REMARK SMILES IDX 88 35 55 36 39 37 40 38 48 39 41 40 47 41 49 42 46 43 42 44
REMARK SMILES IDX 43 45 44 46 45 47 71 48 72 49 80 50 73 51 79 52 81 53 78 54
REMARK SMILES IDX 74 55 75 56 76 57 77 58 56 59 57 60 65 61 58 62 64 63 66 64
REMARK SMILES IDX 63 65 59 66 60 67 61 68 62 69 5 70 6 71 7 72 8 73 9 74 10 75
REMARK SMILES IDX 24 76 11 77 15 78 18 79 25 80 29 81 12 82 14 83 16 84 26 85
REMARK SMILES IDX 28 86 13 87 17 88 27 89 19 90 20 91 23 92 21 93 22 94
REMARK H PARENT 86 22 54 33
REMARK Flexibility Score: inf
ROOT
ATOM      1  C   UNL A   1      32.927  28.648  27.132  1.00  0.00     0.275 C 
ENDROOT
BRANCH   1   2
ATOM      2  O   UNL A   1      33.058  30.067  27.343  1.00  0.00    -0.458 OA
BRANCH   2   3
ATOM      3  C   UNL A   1      34.136  30.800  27.720  1.00  0.00     0.338 C 
ATOM      4  O   UNL A   1      34.005  32.025  27.749  1.00  0.00    -0.246 OA
BRANCH   3   5
ATOM      5  C   UNL A   1      35.491  30.235  28.069  1.00  0.00     0.060 A 
ATOM      6  C   UNL A   1      35.619  29.683  29.352  1.00  0.00     0.016 A 
ATOM      7  C   UNL A   1      36.613  30.129  27.237  1.00  0.00     0.016 A 
ATOM      8  C   UNL A   1      36.846  29.165  29.808  1.00  0.00     0.010 A 
ATOM      9  C   UNL A   1      37.864  29.644  27.719  1.00  0.00     0.010 A 
ATOM     10  C   UNL A   1      38.031  29.230  29.045  1.00  0.00    -0.014 A 
BRANCH  10  11
ATOM     11  C   UNL A   1      39.313  28.653  29.593  1.00  0.00     0.031 A 
ATOM     12  C   UNL A   1      40.027  27.370  29.170  1.00  0.00     0.074 A 
ATOM     13  C   UNL A   1      39.917  29.375  30.548  1.00  0.00     0.049 A 
ATOM     14  N   UNL A   1      41.298  27.046  29.272  1.00  0.00    -0.248 NA
ATOM     15  C   UNL A   1      39.260  26.313  28.525  1.00  0.00     0.031 C 
ATOM     16  C   UNL A   1      39.402  30.623  31.107  1.00  0.00     0.029 A 
ATOM     17  N   UNL A   1      41.055  29.116  31.262  1.00  0.00    -0.354 N 
ATOM     18  C   UNL A   1      41.481  25.885  28.507  1.00  0.00     0.074 A 
ATOM     19  C   UNL A   1      40.188  25.521  27.996  1.00  0.00     0.031 C 
ATOM     20  C   UNL A   1      40.168  30.969  32.147  1.00  0.00     0.029 A 
ATOM     21  C   UNL A   1      41.183  29.937  32.348  1.00  0.00     0.049 A 
ATOM     22  H   UNL A   1      41.707  28.418  31.022  1.00  0.00     0.167 HD
ATOM     23  C   UNL A   1      42.601  25.143  28.306  1.00  0.00     0.034 A 
ATOM     24  C   UNL A   1      41.959  29.816  33.438  1.00  0.00     0.034 A 
ATOM     25  C   UNL A   1      43.732  25.222  29.186  1.00  0.00     0.049 A 
ATOM     26  C   UNL A   1      43.026  28.764  33.460  1.00  0.00     0.074 A 
ATOM     27  C   UNL A   1      44.877  24.447  29.185  1.00  0.00     0.029 A 
ATOM     28  N   UNL A   1      43.778  26.018  30.318  1.00  0.00    -0.354 N 
ATOM     29  N   UNL A   1      43.337  27.892  32.528  1.00  0.00    -0.248 NA
ATOM     30  C   UNL A   1      43.874  28.693  34.653  1.00  0.00     0.031 C 
ATOM     31  C   UNL A   1      45.539  24.677  30.393  1.00  0.00     0.029 A 
ATOM     32  C   UNL A   1      44.863  25.667  31.093  1.00  0.00     0.049 A 
ATOM     33  H   UNL A   1      43.131  26.728  30.535  1.00  0.00     0.167 HD
ATOM     34  C   UNL A   1      44.447  27.201  33.002  1.00  0.00     0.074 A 
ATOM     35  C   UNL A   1      44.742  27.746  34.310  1.00  0.00     0.031 C 
ATOM     36  C   UNL A   1      45.162  26.222  32.393  1.00  0.00     0.034 A 
BRANCH  23  37
ATOM     37  C   UNL A   1      42.673  24.139  27.173  1.00  0.00     0.023 A 
ATOM     38  C   UNL A   1      42.134  22.841  27.272  1.00  0.00     0.031 A 
ATOM     39  C   UNL A   1      43.484  24.424  26.058  1.00  0.00     0.131 A 
ATOM     40  C   UNL A   1      42.416  21.888  26.274  1.00  0.00     0.055 A 
ATOM     41  C   UNL A   1      43.742  23.483  25.058  1.00  0.00     0.041 A 
ATOM     42  F   UNL A   1      44.093  25.612  25.951  1.00  0.00    -0.206 F 
ATOM     43  C   UNL A   1      43.209  22.204  25.165  1.00  0.00     0.022 A 
BRANCH  40  44
ATOM     44  S   UNL A   1      41.786  20.187  26.379  1.00  0.00     0.124 S 
ATOM     45  O   UNL A   1      42.492  19.531  25.278  1.00  0.00    -0.237 OA
ATOM     46  O   UNL A   1      42.206  19.783  27.716  1.00  0.00    -0.237 OA
ATOM     47  O   UNL A   1      40.348  20.340  26.181  1.00  0.00    -0.744 OA
ENDBRANCH  40  44
ENDBRANCH  23  37
BRANCH  24  48
ATOM     48  C   UNL A   1      41.660  30.735  34.565  1.00  0.00     0.023 A 
ATOM     49  C   UNL A   1      40.479  30.543  35.316  1.00  0.00     0.031 A 
ATOM     50  C   UNL A   1      42.379  31.922  34.740  1.00  0.00     0.131 A 
ATOM     51  C   UNL A   1      39.992  31.577  36.121  1.00  0.00     0.055 A 
ATOM     52  C   UNL A   1      41.928  32.920  35.606  1.00  0.00     0.041 A 
ATOM     53  F   UNL A   1      43.489  32.151  34.023  1.00  0.00    -0.206 F 
ATOM     54  C   UNL A   1      40.717  32.761  36.278  1.00  0.00     0.022 A 
BRANCH  51  55
ATOM     55  S   UNL A   1      38.307  31.499  36.799  1.00  0.00     0.124 S 
ATOM     56  O   UNL A   1      38.422  32.336  37.988  1.00  0.00    -0.237 OA
ATOM     57  O   UNL A   1      37.511  32.055  35.707  1.00  0.00    -0.237 OA
ATOM     58  O   UNL A   1      38.098  30.075  37.045  1.00  0.00    -0.744 OA
ENDBRANCH  51  55
ENDBRANCH  24  48
BRANCH  36  59
ATOM     59  C   UNL A   1      46.355  25.630  33.093  1.00  0.00     0.023 A 
ATOM     60  C   UNL A   1      47.643  25.918  32.601  1.00  0.00     0.031 A 
ATOM     61  C   UNL A   1      46.209  24.598  34.031  1.00  0.00     0.131 A 
ATOM     62  C   UNL A   1      48.721  25.112  32.972  1.00  0.00     0.055 A 
ATOM     63  C   UNL A   1      47.301  23.837  34.448  1.00  0.00     0.041 A 
ATOM     64  F   UNL A   1      44.998  24.283  34.517  1.00  0.00    -0.206 F 
ATOM     65  C   UNL A   1      48.559  24.073  33.896  1.00  0.00     0.022 A 
BRANCH  62  66
ATOM     66  S   UNL A   1      50.323  25.267  32.133  1.00  0.00     0.124 S 
ATOM     67  O   UNL A   1      50.676  23.868  31.900  1.00  0.00    -0.237 OA
ATOM     68  O   UNL A   1      49.972  26.031  30.939  1.00  0.00    -0.237 OA
ATOM     69  O   UNL A   1      51.160  25.968  33.100  1.00  0.00    -0.744 OA
ENDBRANCH  62  66
ENDBRANCH  36  59
ENDBRANCH  10  11
ENDBRANCH   3   5
ENDBRANCH   2   3
ENDBRANCH   1   2
BRANCH   1  70
ATOM     70  C   UNL A   1      31.498  28.129  27.266  1.00  0.00     0.274 C 
BRANCH  70  71
ATOM     71  O   UNL A   1      31.494  26.700  27.252  1.00  0.00    -0.462 OA
BRANCH  71  72
ATOM     72  C   UNL A   1      31.236  26.119  26.041  1.00  0.00     0.315 C 
ATOM     73  O   UNL A   1      30.129  26.071  25.529  1.00  0.00    -0.251 OA
BRANCH  72  74
ATOM     74  C   UNL A   1      32.546  25.625  25.428  1.00  0.00     0.156 C 
ATOM     75  C   UNL A   1      32.854  26.363  24.143  1.00  0.00    -0.019 A 
ATOM     76  C   UNL A   1      32.741  24.061  25.354  1.00  0.00     0.061 C 
ATOM     77  C   UNL A   1      32.572  27.737  24.024  1.00  0.00     0.005 A 
ATOM     78  C   UNL A   1      33.556  25.733  23.115  1.00  0.00     0.044 A 
ATOM     79  N   UNL A   1      34.070  23.843  24.598  1.00  0.00    -0.329 N 
ATOM     80  C   UNL A   1      31.665  23.233  24.582  1.00  0.00     0.030 C 
ATOM     81  C   UNL A   1      32.718  23.537  26.799  1.00  0.00     0.030 C 
ATOM     82  C   UNL A   1      32.922  28.444  22.877  1.00  0.00     0.000 A 
ATOM     83  C   UNL A   1      33.883  26.440  21.950  1.00  0.00     0.014 A 
ATOM     84  C   UNL A   1      34.164  24.394  23.307  1.00  0.00     0.254 C 
ATOM     85  C   UNL A   1      30.294  23.030  25.236  1.00  0.00     0.002 C 
ATOM     86  C   UNL A   1      31.335  23.424  27.469  1.00  0.00     0.002 C 
ATOM     87  C   UNL A   1      33.561  27.790  21.830  1.00  0.00     0.001 A 
ATOM     88  O   UNL A   1      34.826  23.905  22.396  1.00  0.00    -0.269 OA
ATOM     89  C   UNL A   1      30.362  22.580  26.682  1.00  0.00     0.000 C 
BRANCH  79  90
ATOM     90  C   UNL A   1      35.238  23.004  24.950  1.00  0.00     0.086 C 
ATOM     91  C   UNL A   1      35.190  21.518  24.664  1.00  0.00     0.025 C 
ATOM     92  C   UNL A   1      36.619  23.410  24.458  1.00  0.00     0.025 C 
ATOM     93  C   UNL A   1      36.564  21.031  25.107  1.00  0.00     0.002 C 
ATOM     94  C   UNL A   1      37.504  22.182  24.752  1.00  0.00     0.002 C 
ENDBRANCH  79  90
ENDBRANCH  72  74
ENDBRANCH  71  72
ENDBRANCH  70  71
ENDBRANCH   1  70
TORSDOF 15
ENDMDL
