MODEL 1
REMARK VINA RESULT:     -11.1      0.000      0.000
REMARK SMILES C/C=C/C=C/C(=O)N[C@@](C)(C(=O)OCCOC(=O)c1ccc(-c2c3nc(c(-c4cc(S(=O)(=O)[O-])ccc4F)c4ccc([nH]4)c(-c4cc(S(=O)(=O)[O-])ccc4F)c4nc(c(-c5cc(S(=O)(=O)[O-])ccc5F)c5ccc2[nH]5)C=C4)C=C3)cc1)C(F)(F)F
REMARK SMILES IDX 14 1 13 2 11 3 12 4 9 5 10 6 8 7 6 8 7 9 5 11 4 12 3 13 1 14
REMARK SMILES IDX 2 15 82 16 83 17 84 18 85 19 15 20 16 21 17 22 18 23 19 24
REMARK SMILES IDX 20 25 81 26 21 27 80 28 22 29 23 30 24 31 74 32 25 33 79 34
REMARK SMILES IDX 73 35 75 36 26 37 78 38 72 39 71 40 27 42 59 43 39 44 58 45
REMARK SMILES IDX 40 46 43 47 57 48 76 49 41 50 42 51 56 53 77 54 44 55 28 56
REMARK SMILES IDX 29 57 37 58 30 59 36 60 38 61 35 62 31 63 32 64 33 65 34 66
REMARK SMILES IDX 60 67 61 68 69 69 62 70 68 71 70 72 67 73 63 74 64 75 65 76
REMARK SMILES IDX 66 77 45 78 46 79 54 80 47 81 53 82 55 83 52 84 48 85 49 86
REMARK SMILES IDX 50 87 51 88
REMARK H PARENT 8 10 75 41 43 52
REMARK Flexibility Score: inf
ROOT
ATOM      1  C   UNL A   1      34.799  21.024  25.651  1.00  0.00     0.274 C 
ENDROOT
BRANCH   1   2
ATOM      2  O   UNL A   1      33.818  21.323  24.635  1.00  0.00    -0.460 OA
BRANCH   2   3
ATOM      3  C   UNL A   1      32.564  21.628  25.099  1.00  0.00     0.341 C 
ATOM      4  O   UNL A   1      31.685  20.789  25.247  1.00  0.00    -0.249 OA
BRANCH   3   5
ATOM      5  C   UNL A   1      32.335  23.141  25.165  1.00  0.00     0.231 C 
ATOM      6  C   UNL A   1      30.818  23.331  24.909  1.00  0.00     0.058 C 
BRANCH   5   7
ATOM      7  N   UNL A   1      33.002  23.885  24.037  1.00  0.00    -0.329 N 
ATOM      8  C   UNL A   1      33.406  25.143  23.751  1.00  0.00     0.245 C 
ATOM      9  O   UNL A   1      34.135  25.279  22.767  1.00  0.00    -0.270 OA
ATOM     10  H   UNL A   1      33.202  23.278  23.290  1.00  0.00     0.165 HD
BRANCH   8  11
ATOM     11  C   UNL A   1      33.090  26.328  24.559  1.00  0.00     0.071 C 
ATOM     12  C   UNL A   1      33.890  26.832  25.507  1.00  0.00     0.005 C 
BRANCH  12  13
ATOM     13  C   UNL A   1      33.513  27.961  26.329  1.00  0.00    -0.004 C 
ATOM     14  C   UNL A   1      31.917  29.790  26.964  1.00  0.00     0.035 C 
ATOM     15  C   UNL A   1      32.371  28.635  26.129  1.00  0.00    -0.030 C 
ENDBRANCH  12  13
ENDBRANCH   8  11
ENDBRANCH   5   7
BRANCH   5  16
ATOM     16  C   UNL A   1      32.590  23.561  26.618  1.00  0.00     0.422 C 
ATOM     17  F   UNL A   1      32.307  22.593  27.509  1.00  0.00    -0.168 F 
ATOM     18  F   UNL A   1      33.885  23.927  26.788  1.00  0.00    -0.168 F 
ATOM     19  F   UNL A   1      31.862  24.650  26.970  1.00  0.00    -0.168 F 
ENDBRANCH   5  16
ENDBRANCH   3   5
ENDBRANCH   2   3
ENDBRANCH   1   2
BRANCH   1  20
ATOM     20  C   UNL A   1      36.094  20.504  25.041  1.00  0.00     0.275 C 
BRANCH  20  21
ATOM     21  O   UNL A   1      37.091  21.538  25.072  1.00  0.00    -0.458 OA
BRANCH  21  22
ATOM     22  C   UNL A   1      38.283  21.170  25.592  1.00  0.00     0.338 C 
ATOM     23  O   UNL A   1      38.794  20.057  25.552  1.00  0.00    -0.246 OA
BRANCH  22  24
ATOM     24  C   UNL A   1      38.921  22.320  26.247  1.00  0.00     0.060 A 
ATOM     25  C   UNL A   1      38.413  23.602  26.055  1.00  0.00     0.016 A 
ATOM     26  C   UNL A   1      40.104  22.132  26.958  1.00  0.00     0.016 A 
ATOM     27  C   UNL A   1      39.137  24.708  26.501  1.00  0.00     0.010 A 
ATOM     28  C   UNL A   1      40.780  23.239  27.481  1.00  0.00     0.010 A 
ATOM     29  C   UNL A   1      40.329  24.547  27.224  1.00  0.00    -0.014 A 
BRANCH  29  30
ATOM     30  C   UNL A   1      41.143  25.727  27.646  1.00  0.00     0.031 A 
ATOM     31  C   UNL A   1      40.535  26.776  28.545  1.00  0.00     0.074 A 
ATOM     32  C   UNL A   1      42.428  25.865  27.260  1.00  0.00     0.049 A 
ATOM     33  N   UNL A   1      40.975  27.973  28.844  1.00  0.00    -0.248 NA
ATOM     34  C   UNL A   1      39.250  26.437  29.177  1.00  0.00     0.031 C 
ATOM     35  C   UNL A   1      43.181  24.899  26.458  1.00  0.00     0.029 A 
ATOM     36  N   UNL A   1      43.338  26.866  27.507  1.00  0.00    -0.354 N 
ATOM     37  C   UNL A   1      39.990  28.557  29.636  1.00  0.00     0.074 A 
ATOM     38  C   UNL A   1      38.933  27.578  29.774  1.00  0.00     0.031 C 
ATOM     39  C   UNL A   1      44.449  25.323  26.335  1.00  0.00     0.029 A 
ATOM     40  C   UNL A   1      44.575  26.641  26.947  1.00  0.00     0.049 A 
ATOM     41  H   UNL A   1      43.123  27.668  28.035  1.00  0.00     0.167 HD
ATOM     42  C   UNL A   1      39.967  29.798  30.185  1.00  0.00     0.034 A 
ATOM     43  C   UNL A   1      45.673  27.423  26.886  1.00  0.00     0.034 A 
ATOM     44  C   UNL A   1      41.054  30.743  30.089  1.00  0.00     0.049 A 
ATOM     45  C   UNL A   1      45.610  28.813  27.467  1.00  0.00     0.074 A 
ATOM     46  C   UNL A   1      41.131  32.027  30.600  1.00  0.00     0.029 A 
ATOM     47  N   UNL A   1      42.265  30.498  29.455  1.00  0.00    -0.354 N 
ATOM     48  N   UNL A   1      44.625  29.398  28.106  1.00  0.00    -0.248 NA
ATOM     49  C   UNL A   1      46.798  29.659  27.286  1.00  0.00     0.031 C 
ATOM     50  C   UNL A   1      42.365  32.576  30.233  1.00  0.00     0.029 A 
ATOM     51  C   UNL A   1      43.085  31.613  29.547  1.00  0.00     0.049 A 
ATOM     52  H   UNL A   1      42.506  29.657  29.004  1.00  0.00     0.167 HD
ATOM     53  C   UNL A   1      45.076  30.681  28.401  1.00  0.00     0.074 A 
ATOM     54  C   UNL A   1      46.432  30.774  27.900  1.00  0.00     0.031 C 
ATOM     55  C   UNL A   1      44.426  31.698  29.021  1.00  0.00     0.034 A 
BRANCH  42  56
ATOM     56  C   UNL A   1      38.697  30.231  30.877  1.00  0.00     0.023 A 
ATOM     57  C   UNL A   1      37.657  30.886  30.199  1.00  0.00     0.031 A 
ATOM     58  C   UNL A   1      38.539  29.995  32.256  1.00  0.00     0.131 A 
ATOM     59  C   UNL A   1      36.534  31.338  30.911  1.00  0.00     0.055 A 
ATOM     60  C   UNL A   1      37.388  30.382  32.944  1.00  0.00     0.041 A 
ATOM     61  F   UNL A   1      39.510  29.391  32.961  1.00  0.00    -0.206 F 
ATOM     62  C   UNL A   1      36.382  31.070  32.274  1.00  0.00     0.022 A 
BRANCH  59  63
ATOM     63  S   UNL A   1      35.333  32.397  30.060  1.00  0.00     0.124 S 
ATOM     64  O   UNL A   1      34.337  32.613  31.107  1.00  0.00    -0.237 OA
ATOM     65  O   UNL A   1      36.139  33.557  29.695  1.00  0.00    -0.237 OA
ATOM     66  O   UNL A   1      34.882  31.574  28.940  1.00  0.00    -0.744 OA
ENDBRANCH  59  63
ENDBRANCH  42  56
BRANCH  43  67
ATOM     67  C   UNL A   1      46.902  26.953  26.183  1.00  0.00     0.023 A 
ATOM     68  C   UNL A   1      47.939  26.320  26.885  1.00  0.00     0.031 A 
ATOM     69  C   UNL A   1      47.080  27.175  24.804  1.00  0.00     0.131 A 
ATOM     70  C   UNL A   1      49.120  25.961  26.215  1.00  0.00     0.055 A 
ATOM     71  C   UNL A   1      48.230  26.761  24.131  1.00  0.00     0.041 A 
ATOM     72  F   UNL A   1      46.126  27.788  24.085  1.00  0.00    -0.206 F 
ATOM     73  C   UNL A   1      49.265  26.160  24.840  1.00  0.00     0.022 A 
BRANCH  70  74
ATOM     74  S   UNL A   1      50.506  25.306  27.185  1.00  0.00     0.124 S 
ATOM     75  O   UNL A   1      51.462  24.958  26.141  1.00  0.00    -0.237 OA
ATOM     76  O   UNL A   1      50.858  26.448  28.023  1.00  0.00    -0.237 OA
ATOM     77  O   UNL A   1      49.918  24.173  27.896  1.00  0.00    -0.744 OA
ENDBRANCH  70  74
ENDBRANCH  43  67
BRANCH  55  78
ATOM     78  C   UNL A   1      45.190  32.984  29.204  1.00  0.00     0.023 A 
ATOM     79  C   UNL A   1      45.052  34.053  28.302  1.00  0.00     0.031 A 
ATOM     80  C   UNL A   1      46.077  33.135  30.283  1.00  0.00     0.131 A 
ATOM     81  C   UNL A   1      45.827  35.211  28.469  1.00  0.00     0.055 A 
ATOM     82  C   UNL A   1      46.811  34.307  30.471  1.00  0.00     0.041 A 
ATOM     83  F   UNL A   1      46.246  32.142  31.172  1.00  0.00    -0.206 F 
ATOM     84  C   UNL A   1      46.696  35.348  29.555  1.00  0.00     0.022 A 
BRANCH  81  85
ATOM     85  S   UNL A   1      45.738  36.510  27.207  1.00  0.00     0.124 S 
ATOM     86  O   UNL A   1      46.838  36.149  26.320  1.00  0.00    -0.237 OA
ATOM     87  O   UNL A   1      44.395  36.329  26.665  1.00  0.00    -0.237 OA
ATOM     88  O   UNL A   1      45.935  37.743  27.968  1.00  0.00    -0.744 OA
ENDBRANCH  81  85
ENDBRANCH  55  78
ENDBRANCH  29  30
ENDBRANCH  22  24
ENDBRANCH  21  22
ENDBRANCH  20  21
ENDBRANCH   1  20
TORSDOF 18
ENDMDL
MODEL 2
REMARK VINA RESULT:     -11.0      1.851      2.285
REMARK SMILES C/C=C/C=C/C(=O)N[C@@](C)(C(=O)OCCOC(=O)c1ccc(-c2c3nc(c(-c4cc(S(=O)(=O)[O-])ccc4F)c4ccc([nH]4)c(-c4cc(S(=O)(=O)[O-])ccc4F)c4nc(c(-c5cc(S(=O)(=O)[O-])ccc5F)c5ccc2[nH]5)C=C4)C=C3)cc1)C(F)(F)F
REMARK SMILES IDX 14 1 13 2 11 3 12 4 9 5 10 6 8 7 6 8 7 9 5 11 4 12 3 13 1 14
REMARK SMILES IDX 2 15 82 16 83 17 84 18 85 19 15 20 16 21 17 22 18 23 19 24
REMARK SMILES IDX 20 25 81 26 21 27 80 28 22 29 23 30 24 31 74 32 25 33 79 34
REMARK SMILES IDX 73 35 75 36 26 37 78 38 72 39 71 40 27 42 59 43 39 44 58 45
REMARK SMILES IDX 40 46 43 47 57 48 76 49 41 50 42 51 56 53 77 54 44 55 28 56
REMARK SMILES IDX 29 57 37 58 30 59 36 60 38 61 35 62 31 63 32 64 33 65 34 66
REMARK SMILES IDX 60 67 61 68 69 69 62 70 68 71 70 72 67 73 63 74 64 75 65 76
REMARK SMILES IDX 66 77 45 78 46 79 54 80 47 81 53 82 55 83 52 84 48 85 49 86
REMARK SMILES IDX 50 87 51 88
REMARK H PARENT 8 10 75 41 43 52
REMARK Flexibility Score: inf
ROOT
ATOM      1  C   UNL A   1      35.342  20.984  24.628  1.00  0.00     0.274 C 
ENDROOT
BRANCH   1   2
ATOM      2  O   UNL A   1      34.458  21.088  25.766  1.00  0.00    -0.460 OA
BRANCH   2   3
ATOM      3  C   UNL A   1      33.322  21.827  25.563  1.00  0.00     0.341 C 
ATOM      4  O   UNL A   1      32.591  21.675  24.592  1.00  0.00    -0.249 OA
BRANCH   3   5
ATOM      5  C   UNL A   1      33.226  23.002  26.541  1.00  0.00     0.231 C 
ATOM      6  C   UNL A   1      34.002  22.543  27.801  1.00  0.00     0.058 C 
BRANCH   5   7
ATOM      7  N   UNL A   1      31.822  23.243  27.033  1.00  0.00    -0.329 N 
ATOM      8  C   UNL A   1      30.712  23.909  26.644  1.00  0.00     0.245 C 
ATOM      9  O   UNL A   1      29.672  23.653  27.251  1.00  0.00    -0.270 OA
ATOM     10  H   UNL A   1      31.667  22.780  27.887  1.00  0.00     0.165 HD
BRANCH   8  11
ATOM     11  C   UNL A   1      30.654  24.857  25.523  1.00  0.00     0.071 C 
ATOM     12  C   UNL A   1      30.801  26.182  25.645  1.00  0.00     0.005 C 
BRANCH  12  13
ATOM     13  C   UNL A   1      30.669  27.090  24.526  1.00  0.00    -0.004 C 
ATOM     14  C   UNL A   1      29.297  28.220  22.755  1.00  0.00     0.035 C 
ATOM     15  C   UNL A   1      29.498  27.275  23.898  1.00  0.00    -0.030 C 
ENDBRANCH  12  13
ENDBRANCH   8  11
ENDBRANCH   5   7
BRANCH   5  16
ATOM     16  C   UNL A   1      34.031  24.153  25.925  1.00  0.00     0.422 C 
ATOM     17  F   UNL A   1      35.361  24.004  26.061  1.00  0.00    -0.168 F 
ATOM     18  F   UNL A   1      33.752  24.277  24.604  1.00  0.00    -0.168 F 
ATOM     19  F   UNL A   1      33.709  25.352  26.472  1.00  0.00    -0.168 F 
ENDBRANCH   5  16
ENDBRANCH   3   5
ENDBRANCH   2   3
ENDBRANCH   1   2
BRANCH   1  20
ATOM     20  C   UNL A   1      36.752  20.591  25.049  1.00  0.00     0.275 C 
BRANCH  20  21
ATOM     21  O   UNL A   1      37.456  21.752  25.516  1.00  0.00    -0.458 OA
BRANCH  21  22
ATOM     22  C   UNL A   1      38.712  21.522  25.959  1.00  0.00     0.338 C 
ATOM     23  O   UNL A   1      39.345  20.476  25.875  1.00  0.00    -0.246 OA
BRANCH  22  24
ATOM     24  C   UNL A   1      39.251  22.734  26.588  1.00  0.00     0.060 A 
ATOM     25  C   UNL A   1      38.731  23.983  26.258  1.00  0.00     0.016 A 
ATOM     26  C   UNL A   1      40.364  22.635  27.421  1.00  0.00     0.016 A 
ATOM     27  C   UNL A   1      39.378  25.141  26.691  1.00  0.00     0.010 A 
ATOM     28  C   UNL A   1      40.956  23.798  27.926  1.00  0.00     0.010 A 
ATOM     29  C   UNL A   1      40.498  25.070  27.534  1.00  0.00    -0.014 A 
BRANCH  29  30
ATOM     30  C   UNL A   1      41.234  26.302  27.947  1.00  0.00     0.031 A 
ATOM     31  C   UNL A   1      40.542  27.344  28.792  1.00  0.00     0.074 A 
ATOM     32  C   UNL A   1      42.524  26.495  27.601  1.00  0.00     0.049 A 
ATOM     33  N   UNL A   1      40.909  28.570  29.068  1.00  0.00    -0.248 NA
ATOM     34  C   UNL A   1      39.254  26.957  29.390  1.00  0.00     0.031 C 
ATOM     35  C   UNL A   1      43.353  25.547  26.856  1.00  0.00     0.029 A 
ATOM     36  N   UNL A   1      43.372  27.549  27.848  1.00  0.00    -0.354 N 
ATOM     37  C   UNL A   1      39.868  29.125  29.807  1.00  0.00     0.074 A 
ATOM     38  C   UNL A   1      38.858  28.096  29.939  1.00  0.00     0.031 C 
ATOM     39  C   UNL A   1      44.601  26.033  26.763  1.00  0.00     0.029 A 
ATOM     40  C   UNL A   1      44.638  27.373  27.338  1.00  0.00     0.049 A 
ATOM     41  H   UNL A   1      43.098  28.354  28.343  1.00  0.00     0.167 HD
ATOM     42  C   UNL A   1      39.762  30.379  30.316  1.00  0.00     0.034 A 
ATOM     43  C   UNL A   1      45.696  28.209  27.290  1.00  0.00     0.034 A 
ATOM     44  C   UNL A   1      40.802  31.376  30.228  1.00  0.00     0.049 A 
ATOM     45  C   UNL A   1      45.542  29.610  27.825  1.00  0.00     0.074 A 
ATOM     46  C   UNL A   1      40.794  32.677  30.701  1.00  0.00     0.029 A 
ATOM     47  N   UNL A   1      42.046  31.177  29.644  1.00  0.00    -0.354 N 
ATOM     48  N   UNL A   1      44.506  30.162  28.412  1.00  0.00    -0.248 NA
ATOM     49  C   UNL A   1      46.691  30.511  27.659  1.00  0.00     0.031 C 
ATOM     50  C   UNL A   1      42.011  33.279  30.360  1.00  0.00     0.029 A 
ATOM     51  C   UNL A   1      42.804  32.335  29.729  1.00  0.00     0.049 A 
ATOM     52  H   UNL A   1      42.346  30.336  29.228  1.00  0.00     0.167 HD
ATOM     53  C   UNL A   1      44.880  31.475  28.682  1.00  0.00     0.074 A 
ATOM     54  C   UNL A   1      46.246  31.623  28.225  1.00  0.00     0.031 C 
ATOM     55  C   UNL A   1      44.156  32.474  29.247  1.00  0.00     0.034 A 
BRANCH  42  56
ATOM     56  C   UNL A   1      38.447  30.765  30.951  1.00  0.00     0.023 A 
ATOM     57  C   UNL A   1      37.421  31.394  30.229  1.00  0.00     0.031 A 
ATOM     58  C   UNL A   1      38.231  30.511  32.318  1.00  0.00     0.131 A 
ATOM     59  C   UNL A   1      36.251  31.804  30.891  1.00  0.00     0.055 A 
ATOM     60  C   UNL A   1      37.037  30.854  32.954  1.00  0.00     0.041 A 
ATOM     61  F   UNL A   1      39.186  29.930  33.063  1.00  0.00    -0.206 F 
ATOM     62  C   UNL A   1      36.043  31.517  32.242  1.00  0.00     0.022 A 
BRANCH  59  63
ATOM     63  S   UNL A   1      35.059  32.834  29.992  1.00  0.00     0.124 S 
ATOM     64  O   UNL A   1      35.931  33.852  29.409  1.00  0.00    -0.237 OA
ATOM     65  O   UNL A   1      34.468  31.885  29.055  1.00  0.00    -0.237 OA
ATOM     66  O   UNL A   1      34.164  33.317  31.040  1.00  0.00    -0.744 OA
ENDBRANCH  59  63
ENDBRANCH  42  56
BRANCH  43  67
ATOM     67  C   UNL A   1      46.972  27.784  26.644  1.00  0.00     0.023 A 
ATOM     68  C   UNL A   1      47.163  27.924  25.261  1.00  0.00     0.031 A 
ATOM     69  C   UNL A   1      48.001  27.184  27.394  1.00  0.00     0.131 A 
ATOM     70  C   UNL A   1      48.339  27.441  24.665  1.00  0.00     0.055 A 
ATOM     71  C   UNL A   1      49.194  26.762  26.806  1.00  0.00     0.041 A 
ATOM     72  F   UNL A   1      47.867  27.013  28.719  1.00  0.00    -0.206 F 
ATOM     73  C   UNL A   1      49.364  26.878  25.430  1.00  0.00     0.022 A 
BRANCH  70  74
ATOM     74  S   UNL A   1      48.477  27.479  22.857  1.00  0.00     0.124 S 
ATOM     75  O   UNL A   1      48.487  26.058  22.529  1.00  0.00    -0.237 OA
ATOM     76  O   UNL A   1      47.278  28.217  22.475  1.00  0.00    -0.237 OA
ATOM     77  O   UNL A   1      49.738  28.181  22.627  1.00  0.00    -0.744 OA
ENDBRANCH  70  74
ENDBRANCH  43  67
BRANCH  55  78
ATOM     78  C   UNL A   1      44.847  33.803  29.416  1.00  0.00     0.023 A 
ATOM     79  C   UNL A   1      44.777  34.797  28.424  1.00  0.00     0.031 A 
ATOM     80  C   UNL A   1      45.596  34.071  30.575  1.00  0.00     0.131 A 
ATOM     81  C   UNL A   1      45.484  35.997  28.588  1.00  0.00     0.055 A 
ATOM     82  C   UNL A   1      46.259  35.286  30.754  1.00  0.00     0.041 A 
ATOM     83  F   UNL A   1      45.695  33.154  31.551  1.00  0.00    -0.206 F 
ATOM     84  C   UNL A   1      46.215  36.252  29.753  1.00  0.00     0.022 A 
BRANCH  81  85
ATOM     85  S   UNL A   1      45.497  37.196  27.227  1.00  0.00     0.124 S 
ATOM     86  O   UNL A   1      46.241  36.480  26.198  1.00  0.00    -0.237 OA
ATOM     87  O   UNL A   1      44.074  37.389  26.968  1.00  0.00    -0.237 OA
ATOM     88  O   UNL A   1      46.183  38.355  27.797  1.00  0.00    -0.744 OA
ENDBRANCH  81  85
ENDBRANCH  55  78
ENDBRANCH  29  30
ENDBRANCH  22  24
ENDBRANCH  21  22
ENDBRANCH  20  21
ENDBRANCH   1  20
TORSDOF 18
ENDMDL
MODEL 3
REMARK VINA RESULT:     -10.9      1.803      2.150
REMARK SMILES C/C=C/C=C/C(=O)N[C@@](C)(C(=O)OCCOC(=O)c1ccc(-c2c3nc(c(-c4cc(S(=O)(=O)[O-])ccc4F)c4ccc([nH]4)c(-c4cc(S(=O)(=O)[O-])ccc4F)c4nc(c(-c5cc(S(=O)(=O)[O-])ccc5F)c5ccc2[nH]5)C=C4)C=C3)cc1)C(F)(F)F
REMARK SMILES IDX 14 1 13 2 11 3 12 4 9 5 10 6 8 7 6 8 7 9 5 11 4 12 3 13 1 14
REMARK SMILES IDX 2 15 82 16 83 17 84 18 85 19 15 20 16 21 17 22 18 23 19 24
REMARK SMILES IDX 20 25 81 26 21 27 80 28 22 29 23 30 24 31 74 32 25 33 79 34
REMARK SMILES IDX 73 35 75 36 26 37 78 38 72 39 71 40 27 42 59 43 39 44 58 45
REMARK SMILES IDX 40 46 43 47 57 48 76 49 41 50 42 51 56 53 77 54 44 55 28 56
REMARK SMILES IDX 29 57 37 58 30 59 36 60 38 61 35 62 31 63 32 64 33 65 34 66
REMARK SMILES IDX 60 67 61 68 69 69 62 70 68 71 70 72 67 73 63 74 64 75 65 76
REMARK SMILES IDX 66 77 45 78 46 79 54 80 47 81 53 82 55 83 52 84 48 85 49 86
REMARK SMILES IDX 50 87 51 88
REMARK H PARENT 8 10 75 41 43 52
REMARK Flexibility Score: inf
ROOT
ATOM      1  C   UNL A   1      35.339  22.423  25.769  1.00  0.00     0.274 C 
ENDROOT
BRANCH   1   2
ATOM      2  O   UNL A   1      34.067  22.439  25.085  1.00  0.00    -0.460 OA
BRANCH   2   3
ATOM      3  C   UNL A   1      33.903  23.448  24.171  1.00  0.00     0.341 C 
ATOM      4  O   UNL A   1      34.550  24.487  24.202  1.00  0.00    -0.249 OA
BRANCH   3   5
ATOM      5  C   UNL A   1      32.670  23.222  23.290  1.00  0.00     0.231 C 
ATOM      6  C   UNL A   1      32.556  21.685  23.142  1.00  0.00     0.058 C 
BRANCH   5   7
ATOM      7  N   UNL A   1      32.855  23.724  21.882  1.00  0.00    -0.329 N 
ATOM      8  C   UNL A   1      32.757  24.885  21.198  1.00  0.00     0.245 C 
ATOM      9  O   UNL A   1      33.229  24.899  20.060  1.00  0.00    -0.270 OA
ATOM     10  H   UNL A   1      33.128  22.991  21.284  1.00  0.00     0.165 HD
BRANCH   8  11
ATOM     11  C   UNL A   1      32.191  26.129  21.737  1.00  0.00     0.071 C 
ATOM     12  C   UNL A   1      32.837  26.955  22.570  1.00  0.00     0.005 C 
BRANCH  12  13
ATOM     13  C   UNL A   1      32.220  28.135  23.134  1.00  0.00    -0.004 C 
ATOM     14  C   UNL A   1      30.202  29.527  23.668  1.00  0.00     0.035 C 
ATOM     15  C   UNL A   1      30.896  28.339  23.078  1.00  0.00    -0.030 C 
ENDBRANCH  12  13
ENDBRANCH   8  11
ENDBRANCH   5   7
BRANCH   5  16
ATOM     16  C   UNL A   1      31.456  23.675  24.112  1.00  0.00     0.422 C 
ATOM     17  F   UNL A   1      31.680  24.797  24.819  1.00  0.00    -0.168 F 
ATOM     18  F   UNL A   1      30.387  23.890  23.305  1.00  0.00    -0.168 F 
ATOM     19  F   UNL A   1      31.053  22.725  24.993  1.00  0.00    -0.168 F 
ENDBRANCH   5  16
ENDBRANCH   3   5
ENDBRANCH   2   3
ENDBRANCH   1   2
BRANCH   1  20
ATOM     20  C   UNL A   1      36.186  21.229  25.346  1.00  0.00     0.275 C 
BRANCH  20  21
ATOM     21  O   UNL A   1      37.467  21.686  24.887  1.00  0.00    -0.458 OA
BRANCH  21  22
ATOM     22  C   UNL A   1      38.517  21.313  25.652  1.00  0.00     0.338 C 
ATOM     23  O   UNL A   1      38.945  20.176  25.817  1.00  0.00    -0.246 OA
BRANCH  22  24
ATOM     24  C   UNL A   1      39.109  22.492  26.298  1.00  0.00     0.060 A 
ATOM     25  C   UNL A   1      38.613  23.763  26.022  1.00  0.00     0.016 A 
ATOM     26  C   UNL A   1      40.245  22.338  27.091  1.00  0.00     0.016 A 
ATOM     27  C   UNL A   1      39.304  24.890  26.467  1.00  0.00     0.010 A 
ATOM     28  C   UNL A   1      40.884  23.469  27.610  1.00  0.00     0.010 A 
ATOM     29  C   UNL A   1      40.448  24.764  27.271  1.00  0.00    -0.014 A 
BRANCH  29  30
ATOM     30  C   UNL A   1      41.231  25.963  27.696  1.00  0.00     0.031 A 
ATOM     31  C   UNL A   1      40.595  26.997  28.593  1.00  0.00     0.074 A 
ATOM     32  C   UNL A   1      42.513  26.134  27.312  1.00  0.00     0.049 A 
ATOM     33  N   UNL A   1      41.004  28.204  28.894  1.00  0.00    -0.248 NA
ATOM     34  C   UNL A   1      39.318  26.626  29.222  1.00  0.00     0.031 C 
ATOM     35  C   UNL A   1      43.292  25.188  26.512  1.00  0.00     0.029 A 
ATOM     36  N   UNL A   1      43.397  27.157  27.562  1.00  0.00    -0.354 N 
ATOM     37  C   UNL A   1      40.003  28.763  29.683  1.00  0.00     0.074 A 
ATOM     38  C   UNL A   1      38.970  27.757  29.819  1.00  0.00     0.031 C 
ATOM     39  C   UNL A   1      44.549  25.643  26.392  1.00  0.00     0.029 A 
ATOM     40  C   UNL A   1      44.641  26.963  27.005  1.00  0.00     0.049 A 
ATOM     41  H   UNL A   1      43.161  27.954  28.090  1.00  0.00     0.167 HD
ATOM     42  C   UNL A   1      39.948  30.003  30.232  1.00  0.00     0.034 A 
ATOM     43  C   UNL A   1      45.719  27.773  26.947  1.00  0.00     0.034 A 
ATOM     44  C   UNL A   1      41.011  30.975  30.139  1.00  0.00     0.049 A 
ATOM     45  C   UNL A   1      45.620  29.160  27.527  1.00  0.00     0.074 A 
ATOM     46  C   UNL A   1      41.054  32.261  30.651  1.00  0.00     0.029 A 
ATOM     47  N   UNL A   1      42.229  30.761  29.508  1.00  0.00    -0.354 N 
ATOM     48  N   UNL A   1      44.619  29.721  28.164  1.00  0.00    -0.248 NA
ATOM     49  C   UNL A   1      46.787  30.036  27.349  1.00  0.00     0.031 C 
ATOM     50  C   UNL A   1      42.275  32.841  30.287  1.00  0.00     0.029 A 
ATOM     51  C   UNL A   1      43.021  31.896  29.602  1.00  0.00     0.049 A 
ATOM     52  H   UNL A   1      42.492  29.926  29.057  1.00  0.00     0.167 HD
ATOM     53  C   UNL A   1      45.037  31.015  28.461  1.00  0.00     0.074 A 
ATOM     54  C   UNL A   1      46.391  31.141  27.963  1.00  0.00     0.031 C 
ATOM     55  C   UNL A   1      44.360  32.014  29.080  1.00  0.00     0.034 A 
BRANCH  42  56
ATOM     56  C   UNL A   1      38.666  30.404  30.922  1.00  0.00     0.023 A 
ATOM     57  C   UNL A   1      37.625  31.064  30.249  1.00  0.00     0.031 A 
ATOM     58  C   UNL A   1      38.496  30.132  32.292  1.00  0.00     0.131 A 
ATOM     59  C   UNL A   1      36.490  31.485  30.960  1.00  0.00     0.055 A 
ATOM     60  C   UNL A   1      37.333  30.487  32.978  1.00  0.00     0.041 A 
ATOM     61  F   UNL A   1      39.466  29.522  32.992  1.00  0.00    -0.206 F 
ATOM     62  C   UNL A   1      36.326  31.181  32.314  1.00  0.00     0.022 A 
BRANCH  59  63
ATOM     63  S   UNL A   1      35.285  32.551  30.123  1.00  0.00     0.124 S 
ATOM     64  O   UNL A   1      34.304  32.776  31.183  1.00  0.00    -0.237 OA
ATOM     65  O   UNL A   1      36.095  33.704  29.745  1.00  0.00    -0.237 OA
ATOM     66  O   UNL A   1      34.814  31.729  29.011  1.00  0.00    -0.744 OA
ENDBRANCH  59  63
ENDBRANCH  42  56
BRANCH  43  67
ATOM     67  C   UNL A   1      46.961  27.334  26.246  1.00  0.00     0.023 A 
ATOM     68  C   UNL A   1      47.212  27.709  24.917  1.00  0.00     0.031 A 
ATOM     69  C   UNL A   1      47.894  26.492  26.879  1.00  0.00     0.131 A 
ATOM     70  C   UNL A   1      48.347  27.216  24.252  1.00  0.00     0.055 A 
ATOM     71  C   UNL A   1      49.051  26.055  26.235  1.00  0.00     0.041 A 
ATOM     72  F   UNL A   1      47.699  26.092  28.145  1.00  0.00    -0.206 F 
ATOM     73  C   UNL A   1      49.278  26.407  24.909  1.00  0.00     0.022 A 
BRANCH  70  74
ATOM     74  S   UNL A   1      48.547  27.578  22.487  1.00  0.00     0.124 S 
ATOM     75  O   UNL A   1      49.790  28.340  22.478  1.00  0.00    -0.237 OA
ATOM     76  O   UNL A   1      48.611  26.240  21.907  1.00  0.00    -0.237 OA
ATOM     77  O   UNL A   1      47.345  28.341  22.157  1.00  0.00    -0.744 OA
ENDBRANCH  70  74
ENDBRANCH  43  67
BRANCH  55  78
ATOM     78  C   UNL A   1      45.091  33.319  29.265  1.00  0.00     0.023 A 
ATOM     79  C   UNL A   1      45.093  34.307  28.264  1.00  0.00     0.031 A 
ATOM     80  C   UNL A   1      45.807  33.570  30.448  1.00  0.00     0.131 A 
ATOM     81  C   UNL A   1      45.837  35.482  28.446  1.00  0.00     0.055 A 
ATOM     82  C   UNL A   1      46.507  34.761  30.643  1.00  0.00     0.041 A 
ATOM     83  F   UNL A   1      45.837  32.658  31.433  1.00  0.00    -0.206 F 
ATOM     84  C   UNL A   1      46.533  35.721  29.634  1.00  0.00     0.022 A 
BRANCH  81  85
ATOM     85  S   UNL A   1      45.942  36.669  27.078  1.00  0.00     0.124 S 
ATOM     86  O   UNL A   1      47.048  37.521  27.499  1.00  0.00    -0.237 OA
ATOM     87  O   UNL A   1      46.203  35.805  25.932  1.00  0.00    -0.237 OA
ATOM     88  O   UNL A   1      44.628  37.312  27.079  1.00  0.00    -0.744 OA
ENDBRANCH  81  85
ENDBRANCH  55  78
ENDBRANCH  29  30
ENDBRANCH  22  24
ENDBRANCH  21  22
ENDBRANCH  20  21
ENDBRANCH   1  20
TORSDOF 18
ENDMDL
