MODEL 1
REMARK VINA RESULT:     -12.4      0.000      0.000
REMARK SMILES COc1cc(/C=C2/S/C(=[NH+]\C(C)=O)NC2=O)cc(Br)c1OCC(=O)OCCOC(=O)c1ccc(-c2c3nc(c(-c4cc(S(=O)(=O)[O-])ccc4F)c4ccc([nH]4)c(-c4cc(S(=O)(=O)[O-])ccc4F)c4nc(c(-c5cc(S(=O)(=O)[O-])ccc5F)c5ccc2[nH]5)C=C4)C=C3)cc1
REMARK SMILES IDX 26 1 25 2 23 3 24 4 22 5 21 6 20 7 3 8 4 9 5 10 18 11 17 12
REMARK SMILES IDX 19 13 2 14 1 15 6 16 7 17 8 18 15 19 9 20 14 21 16 22 10 23
REMARK SMILES IDX 11 25 12 27 13 28 27 29 28 30 29 31 30 32 31 33 32 34 93 35
REMARK SMILES IDX 33 36 92 37 34 38 35 39 36 40 86 41 37 42 91 43 85 44 87 45
REMARK SMILES IDX 38 46 90 47 84 48 83 49 39 51 71 52 51 53 70 54 52 55 55 56
REMARK SMILES IDX 69 57 88 58 53 59 54 60 68 62 89 63 56 64 40 65 41 66 49 67
REMARK SMILES IDX 42 68 48 69 50 70 47 71 43 72 44 73 45 74 46 75 72 76 73 77
REMARK SMILES IDX 81 78 74 79 80 80 82 81 79 82 75 83 76 84 77 85 78 86 57 87
REMARK SMILES IDX 58 88 66 89 59 90 65 91 67 92 64 93 60 94 61 95 62 96 63 97
REMARK H PARENT 14 24 10 26 87 50 55 61
REMARK Flexibility Score: inf
ROOT
ATOM      1  C   UNL A   1      30.902  30.893  25.233  1.00  0.00     0.274 C 
ENDROOT
BRANCH   1   2
ATOM      2  O   UNL A   1      31.286  29.595  24.721  1.00  0.00    -0.460 OA
BRANCH   2   3
ATOM      3  C   UNL A   1      30.691  29.229  23.559  1.00  0.00     0.344 C 
ATOM      4  O   UNL A   1      29.758  29.852  23.050  1.00  0.00    -0.248 OA
BRANCH   3   5
ATOM      5  C   UNL A   1      31.201  27.919  22.930  1.00  0.00     0.352 C 
BRANCH   5   6
ATOM      6  O   UNL A   1      32.436  27.260  23.129  1.00  0.00    -0.477 OA
BRANCH   6   7
ATOM      7  C   UNL A   1      32.410  25.923  23.428  1.00  0.00     0.176 A 
ATOM      8  C   UNL A   1      32.860  25.064  22.407  1.00  0.00     0.162 A 
ATOM      9  C   UNL A   1      32.771  23.673  22.563  1.00  0.00     0.058 A 
ATOM     10  C   UNL A   1      32.278  23.121  23.749  1.00  0.00    -0.019 A 
ATOM     11  C   UNL A   1      32.115  25.362  24.678  1.00  0.00     0.064 A 
ATOM     12  C   UNL A   1      32.001  23.970  24.825  1.00  0.00     0.028 A 
ATOM     13  Br  UNL A   1      32.113  26.376  26.287  1.00  0.00    -0.047 Br
BRANCH   8  14
ATOM     14  O   UNL A   1      33.393  25.683  21.299  1.00  0.00    -0.493 OA
ATOM     15  C   UNL A   1      32.668  25.561  20.084  1.00  0.00     0.278 C 
ENDBRANCH   8  14
BRANCH  10  16
ATOM     16  C   UNL A   1      32.150  21.666  23.904  1.00  0.00     0.032 C 
ATOM     17  C   UNL A   1      33.102  20.826  24.339  1.00  0.00     0.110 C 
ATOM     18  S   UNL A   1      32.868  19.103  24.436  1.00  0.00     0.007 SA
ATOM     19  C   UNL A   1      34.497  21.123  24.766  1.00  0.00     0.346 C 
ATOM     20  C   UNL A   1      34.549  18.779  24.710  1.00  0.00     0.324 C 
ATOM     21  N   UNL A   1      35.214  19.961  24.798  1.00  0.00    -0.199 N 
ATOM     22  O   UNL A   1      34.940  22.187  25.164  1.00  0.00    -0.240 OA
ATOM     23  N   UNL A   1      35.234  17.715  24.884  1.00  0.00    -0.204 N 
ATOM     24  H   UNL A   1      36.195  19.979  24.884  1.00  0.00     0.316 HD
ATOM     25  C   UNL A   1      34.829  16.412  24.992  1.00  0.00     0.304 C 
ATOM     26  H   UNL A   1      36.206  17.854  24.952  1.00  0.00     0.316 HD
ATOM     27  C   UNL A   1      33.590  15.863  24.339  1.00  0.00     0.144 C 
ATOM     28  O   UNL A   1      35.550  15.609  25.588  1.00  0.00    -0.247 OA
ENDBRANCH  10  16
ENDBRANCH   6   7
ENDBRANCH   5   6
ENDBRANCH   3   5
ENDBRANCH   2   3
ENDBRANCH   1   2
BRANCH   1  29
ATOM     29  C   UNL A   1      31.455  31.184  26.635  1.00  0.00     0.275 C 
BRANCH  29  30
ATOM     30  O   UNL A   1      32.854  30.861  26.759  1.00  0.00    -0.458 OA
BRANCH  30  31
ATOM     31  C   UNL A   1      33.563  31.833  27.369  1.00  0.00     0.338 C 
ATOM     32  O   UNL A   1      33.162  32.944  27.671  1.00  0.00    -0.246 OA
BRANCH  31  33
ATOM     33  C   UNL A   1      34.904  31.407  27.764  1.00  0.00     0.060 A 
ATOM     34  C   UNL A   1      35.055  30.097  28.205  1.00  0.00     0.016 A 
ATOM     35  C   UNL A   1      35.912  32.351  27.972  1.00  0.00     0.016 A 
ATOM     36  C   UNL A   1      36.194  29.739  28.917  1.00  0.00     0.010 A 
ATOM     37  C   UNL A   1      37.093  31.962  28.616  1.00  0.00     0.010 A 
ATOM     38  C   UNL A   1      37.238  30.656  29.117  1.00  0.00    -0.014 A 
BRANCH  38  39
ATOM     39  C   UNL A   1      38.474  30.217  29.823  1.00  0.00     0.031 A 
ATOM     40  C   UNL A   1      39.426  29.230  29.201  1.00  0.00     0.074 A 
ATOM     41  C   UNL A   1      38.750  30.737  31.038  1.00  0.00     0.049 A 
ATOM     42  N   UNL A   1      40.469  28.642  29.731  1.00  0.00    -0.248 NA
ATOM     43  C   UNL A   1      39.166  28.844  27.807  1.00  0.00     0.031 C 
ATOM     44  C   UNL A   1      37.933  31.738  31.730  1.00  0.00     0.029 A 
ATOM     45  N   UNL A   1      39.789  30.506  31.902  1.00  0.00    -0.354 N 
ATOM     46  C   UNL A   1      40.972  27.789  28.752  1.00  0.00     0.074 A 
ATOM     47  C   UNL A   1      40.103  27.928  27.600  1.00  0.00     0.031 C 
ATOM     48  C   UNL A   1      38.522  32.062  32.889  1.00  0.00     0.029 A 
ATOM     49  C   UNL A   1      39.692  31.217  33.076  1.00  0.00     0.049 A 
ATOM     50  H   UNL A   1      40.532  29.891  31.702  1.00  0.00     0.167 HD
ATOM     51  C   UNL A   1      42.053  26.969  28.817  1.00  0.00     0.034 A 
ATOM     52  C   UNL A   1      40.424  31.161  34.205  1.00  0.00     0.034 A 
ATOM     53  C   UNL A   1      42.920  26.866  29.971  1.00  0.00     0.049 A 
ATOM     54  C   UNL A   1      41.571  30.194  34.277  1.00  0.00     0.074 A 
ATOM     55  C   UNL A   1      44.054  26.086  30.131  1.00  0.00     0.029 A 
ATOM     56  N   UNL A   1      42.754  27.561  31.164  1.00  0.00    -0.354 N 
ATOM     57  N   UNL A   1      42.006  29.359  33.362  1.00  0.00    -0.248 NA
ATOM     58  C   UNL A   1      42.321  30.155  35.537  1.00  0.00     0.031 C 
ATOM     59  C   UNL A   1      44.524  26.249  31.439  1.00  0.00     0.029 A 
ATOM     60  C   UNL A   1      43.740  27.198  32.072  1.00  0.00     0.049 A 
ATOM     61  H   UNL A   1      42.040  28.216  31.340  1.00  0.00     0.167 HD
ATOM     62  C   UNL A   1      43.095  28.709  33.932  1.00  0.00     0.074 A 
ATOM     63  C   UNL A   1      43.263  29.266  35.259  1.00  0.00     0.031 C 
ATOM     64  C   UNL A   1      43.886  27.740  33.404  1.00  0.00     0.034 A 
BRANCH  51  65
ATOM     65  C   UNL A   1      42.327  26.067  27.632  1.00  0.00     0.023 A 
ATOM     66  C   UNL A   1      41.804  24.766  27.540  1.00  0.00     0.031 A 
ATOM     67  C   UNL A   1      43.133  26.525  26.572  1.00  0.00     0.131 A 
ATOM     68  C   UNL A   1      42.144  23.950  26.447  1.00  0.00     0.055 A 
ATOM     69  C   UNL A   1      43.399  25.739  25.449  1.00  0.00     0.041 A 
ATOM     70  F   UNL A   1      43.682  27.750  26.611  1.00  0.00    -0.206 F 
ATOM     71  C   UNL A   1      42.914  24.437  25.389  1.00  0.00     0.022 A 
BRANCH  68  72
ATOM     72  S   UNL A   1      41.689  22.195  26.499  1.00  0.00     0.124 S 
ATOM     73  O   UNL A   1      42.521  21.642  25.432  1.00  0.00    -0.237 OA
ATOM     74  O   UNL A   1      42.052  21.813  27.857  1.00  0.00    -0.237 OA
ATOM     75  O   UNL A   1      40.254  22.204  26.214  1.00  0.00    -0.744 OA
ENDBRANCH  68  72
ENDBRANCH  51  65
BRANCH  52  76
ATOM     76  C   UNL A   1      40.044  31.997  35.380  1.00  0.00     0.023 A 
ATOM     77  C   UNL A   1      39.122  31.534  36.329  1.00  0.00     0.031 A 
ATOM     78  C   UNL A   1      40.587  33.283  35.556  1.00  0.00     0.131 A 
ATOM     79  C   UNL A   1      38.743  32.366  37.394  1.00  0.00     0.055 A 
ATOM     80  C   UNL A   1      40.254  34.081  36.650  1.00  0.00     0.041 A 
ATOM     81  F   UNL A   1      41.472  33.775  34.674  1.00  0.00    -0.206 F 
ATOM     82  C   UNL A   1      39.317  33.628  37.572  1.00  0.00     0.022 A 
BRANCH  79  83
ATOM     83  S   UNL A   1      37.418  31.809  38.498  1.00  0.00     0.124 S 
ATOM     84  O   UNL A   1      36.401  32.831  38.281  1.00  0.00    -0.237 OA
ATOM     85  O   UNL A   1      37.120  30.482  37.968  1.00  0.00    -0.237 OA
ATOM     86  O   UNL A   1      38.047  31.824  39.818  1.00  0.00    -0.744 OA
ENDBRANCH  79  83
ENDBRANCH  52  76
BRANCH  64  87
ATOM     87  C   UNL A   1      45.028  27.257  34.265  1.00  0.00     0.023 A 
ATOM     88  C   UNL A   1      44.911  26.116  35.080  1.00  0.00     0.031 A 
ATOM     89  C   UNL A   1      46.238  27.973  34.302  1.00  0.00     0.131 A 
ATOM     90  C   UNL A   1      45.957  25.766  35.947  1.00  0.00     0.055 A 
ATOM     91  C   UNL A   1      47.300  27.582  35.118  1.00  0.00     0.041 A 
ATOM     92  F   UNL A   1      46.405  29.073  33.549  1.00  0.00    -0.206 F 
ATOM     93  C   UNL A   1      47.157  26.482  35.959  1.00  0.00     0.022 A 
BRANCH  90  94
ATOM     94  S   UNL A   1      45.687  24.429  37.143  1.00  0.00     0.124 S 
ATOM     95  O   UNL A   1      47.048  24.140  37.586  1.00  0.00    -0.237 OA
ATOM     96  O   UNL A   1      44.817  25.062  38.128  1.00  0.00    -0.237 OA
ATOM     97  O   UNL A   1      45.058  23.377  36.346  1.00  0.00    -0.744 OA
ENDBRANCH  90  94
ENDBRANCH  64  87
ENDBRANCH  38  39
ENDBRANCH  31  33
ENDBRANCH  30  31
ENDBRANCH  29  30
ENDBRANCH   1  29
TORSDOF 18
ENDMDL
MODEL 2
REMARK VINA RESULT:     -11.5      2.410      3.066
REMARK SMILES COc1cc(/C=C2/S/C(=[NH+]\C(C)=O)NC2=O)cc(Br)c1OCC(=O)OCCOC(=O)c1ccc(-c2c3nc(c(-c4cc(S(=O)(=O)[O-])ccc4F)c4ccc([nH]4)c(-c4cc(S(=O)(=O)[O-])ccc4F)c4nc(c(-c5cc(S(=O)(=O)[O-])ccc5F)c5ccc2[nH]5)C=C4)C=C3)cc1
REMARK SMILES IDX 26 1 25 2 23 3 24 4 22 5 21 6 20 7 3 8 4 9 5 10 18 11 17 12
REMARK SMILES IDX 19 13 2 14 1 15 6 16 7 17 8 18 15 19 9 20 14 21 16 22 10 23
REMARK SMILES IDX 11 25 12 27 13 28 27 29 28 30 29 31 30 32 31 33 32 34 93 35
REMARK SMILES IDX 33 36 92 37 34 38 35 39 36 40 86 41 37 42 91 43 85 44 87 45
REMARK SMILES IDX 38 46 90 47 84 48 83 49 39 51 71 52 51 53 70 54 52 55 55 56
REMARK SMILES IDX 69 57 88 58 53 59 54 60 68 62 89 63 56 64 40 65 41 66 49 67
REMARK SMILES IDX 42 68 48 69 50 70 47 71 43 72 44 73 45 74 46 75 72 76 73 77
REMARK SMILES IDX 81 78 74 79 80 80 82 81 79 82 75 83 76 84 77 85 78 86 57 87
REMARK SMILES IDX 58 88 66 89 59 90 65 91 67 92 64 93 60 94 61 95 62 96 63 97
REMARK H PARENT 14 24 10 26 87 50 55 61
REMARK Flexibility Score: inf
ROOT
ATOM      1  C   UNL A   1      31.375  29.608  24.928  1.00  0.00     0.274 C 
ENDROOT
BRANCH   1   2
ATOM      2  O   UNL A   1      31.308  28.162  24.889  1.00  0.00    -0.460 OA
BRANCH   2   3
ATOM      3  C   UNL A   1      30.812  27.634  23.743  1.00  0.00     0.344 C 
ATOM      4  O   UNL A   1      30.565  28.304  22.739  1.00  0.00    -0.248 OA
BRANCH   3   5
ATOM      5  C   UNL A   1      30.491  26.128  23.785  1.00  0.00     0.352 C 
BRANCH   5   6
ATOM      6  O   UNL A   1      30.960  25.096  22.939  1.00  0.00    -0.477 OA
BRANCH   6   7
ATOM      7  C   UNL A   1      31.987  24.311  23.392  1.00  0.00     0.176 A 
ATOM      8  C   UNL A   1      33.197  24.427  22.681  1.00  0.00     0.162 A 
ATOM      9  C   UNL A   1      34.280  23.589  22.987  1.00  0.00     0.058 A 
ATOM     10  C   UNL A   1      34.189  22.661  24.029  1.00  0.00    -0.019 A 
ATOM     11  C   UNL A   1      31.980  23.530  24.555  1.00  0.00     0.064 A 
ATOM     12  C   UNL A   1      33.053  22.673  24.845  1.00  0.00     0.028 A 
ATOM     13  Br  UNL A   1      30.690  23.752  25.936  1.00  0.00    -0.047 Br
BRANCH   8  14
ATOM     14  O   UNL A   1      33.231  25.409  21.717  1.00  0.00    -0.493 OA
ATOM     15  C   UNL A   1      33.747  26.673  22.104  1.00  0.00     0.278 C 
ENDBRANCH   8  14
BRANCH  10  16
ATOM     16  C   UNL A   1      35.307  21.758  24.330  1.00  0.00     0.032 C 
ATOM     17  C   UNL A   1      36.358  22.029  25.119  1.00  0.00     0.110 C 
ATOM     18  S   UNL A   1      37.664  20.905  25.370  1.00  0.00     0.007 SA
ATOM     19  C   UNL A   1      36.672  23.273  25.875  1.00  0.00     0.346 C 
ATOM     20  C   UNL A   1      38.675  22.084  26.141  1.00  0.00     0.324 C 
ATOM     21  N   UNL A   1      37.983  23.248  26.257  1.00  0.00    -0.199 N 
ATOM     22  O   UNL A   1      35.892  24.137  26.239  1.00  0.00    -0.240 OA
ATOM     23  N   UNL A   1      39.853  22.060  26.637  1.00  0.00    -0.204 N 
ATOM     24  H   UNL A   1      38.418  24.057  26.609  1.00  0.00     0.316 HD
ATOM     25  C   UNL A   1      40.722  21.014  26.796  1.00  0.00     0.304 C 
ATOM     26  H   UNL A   1      40.188  22.930  26.954  1.00  0.00     0.316 HD
ATOM     27  C   UNL A   1      40.752  19.805  25.901  1.00  0.00     0.144 C 
ATOM     28  O   UNL A   1      41.590  21.086  27.669  1.00  0.00    -0.247 OA
ENDBRANCH  10  16
ENDBRANCH   6   7
ENDBRANCH   5   6
ENDBRANCH   3   5
ENDBRANCH   2   3
ENDBRANCH   1   2
BRANCH   1  29
ATOM     29  C   UNL A   1      31.903  30.158  26.260  1.00  0.00     0.275 C 
BRANCH  29  30
ATOM     30  O   UNL A   1      33.338  30.285  26.280  1.00  0.00    -0.458 OA
BRANCH  30  31
ATOM     31  C   UNL A   1      33.768  31.213  27.159  1.00  0.00     0.338 C 
ATOM     32  O   UNL A   1      33.136  32.169  27.575  1.00  0.00    -0.246 OA
BRANCH  31  33
ATOM     33  C   UNL A   1      35.096  30.924  27.698  1.00  0.00     0.060 A 
ATOM     34  C   UNL A   1      35.299  29.669  28.261  1.00  0.00     0.016 A 
ATOM     35  C   UNL A   1      36.013  31.956  27.906  1.00  0.00     0.016 A 
ATOM     36  C   UNL A   1      36.392  29.458  29.092  1.00  0.00     0.010 A 
ATOM     37  C   UNL A   1      37.158  31.711  28.676  1.00  0.00     0.010 A 
ATOM     38  C   UNL A   1      37.348  30.465  29.297  1.00  0.00    -0.014 A 
BRANCH  38  39
ATOM     39  C   UNL A   1      38.545  30.180  30.138  1.00  0.00     0.031 A 
ATOM     40  C   UNL A   1      39.658  29.293  29.645  1.00  0.00     0.074 A 
ATOM     41  C   UNL A   1      38.635  30.750  31.357  1.00  0.00     0.049 A 
ATOM     42  N   UNL A   1      40.699  28.835  30.295  1.00  0.00    -0.248 NA
ATOM     43  C   UNL A   1      39.587  28.854  28.244  1.00  0.00     0.031 C 
ATOM     44  C   UNL A   1      37.647  31.667  31.933  1.00  0.00     0.029 A 
ATOM     45  N   UNL A   1      39.599  30.653  32.328  1.00  0.00    -0.354 N 
ATOM     46  C   UNL A   1      41.390  28.024  29.398  1.00  0.00     0.074 A 
ATOM     47  C   UNL A   1      40.635  28.044  28.161  1.00  0.00     0.031 C 
ATOM     48  C   UNL A   1      38.074  32.077  33.134  1.00  0.00     0.029 A 
ATOM     49  C   UNL A   1      39.304  31.372  33.464  1.00  0.00     0.049 A 
ATOM     50  H   UNL A   1      40.420  30.121  32.223  1.00  0.00     0.167 HD
ATOM     51  C   UNL A   1      42.541  27.331  29.597  1.00  0.00     0.034 A 
ATOM     52  C   UNL A   1      39.917  31.419  34.663  1.00  0.00     0.034 A 
ATOM     53  C   UNL A   1      43.290  27.348  30.835  1.00  0.00     0.049 A 
ATOM     54  C   UNL A   1      41.148  30.587  34.880  1.00  0.00     0.074 A 
ATOM     55  C   UNL A   1      44.479  26.702  31.132  1.00  0.00     0.029 A 
ATOM     56  N   UNL A   1      42.927  28.042  31.983  1.00  0.00    -0.354 N 
ATOM     57  N   UNL A   1      41.764  29.789  34.039  1.00  0.00    -0.248 NA
ATOM     58  C   UNL A   1      41.763  30.656  36.210  1.00  0.00     0.031 C 
ATOM     59  C   UNL A   1      44.791  26.942  32.475  1.00  0.00     0.029 A 
ATOM     60  C   UNL A   1      43.847  27.809  32.997  1.00  0.00     0.049 A 
ATOM     61  H   UNL A   1      42.131  28.617  32.066  1.00  0.00     0.167 HD
ATOM     62  C   UNL A   1      42.852  29.274  34.736  1.00  0.00     0.074 A 
ATOM     63  C   UNL A   1      42.820  29.872  36.055  1.00  0.00     0.031 C 
ATOM     64  C   UNL A   1      43.794  28.389  34.320  1.00  0.00     0.034 A 
BRANCH  51  65
ATOM     65  C   UNL A   1      43.033  26.443  28.474  1.00  0.00     0.023 A 
ATOM     66  C   UNL A   1      44.137  26.784  27.674  1.00  0.00     0.031 A 
ATOM     67  C   UNL A   1      42.376  25.228  28.200  1.00  0.00     0.131 A 
ATOM     68  C   UNL A   1      44.509  25.953  26.603  1.00  0.00     0.055 A 
ATOM     69  C   UNL A   1      42.803  24.366  27.187  1.00  0.00     0.041 A 
ATOM     70  F   UNL A   1      41.300  24.857  28.912  1.00  0.00    -0.206 F 
ATOM     71  C   UNL A   1      43.868  24.734  26.373  1.00  0.00     0.022 A 
BRANCH  68  72
ATOM     72  S   UNL A   1      45.749  26.557  25.425  1.00  0.00     0.124 S 
ATOM     73  O   UNL A   1      45.035  27.660  24.784  1.00  0.00    -0.237 OA
ATOM     74  O   UNL A   1      46.857  26.931  26.294  1.00  0.00    -0.237 OA
ATOM     75  O   UNL A   1      45.994  25.402  24.562  1.00  0.00    -0.744 OA
ENDBRANCH  68  72
ENDBRANCH  51  65
BRANCH  52  76
ATOM     76  C   UNL A   1      39.328  32.229  35.767  1.00  0.00     0.023 A 
ATOM     77  C   UNL A   1      39.755  33.543  36.008  1.00  0.00     0.031 A 
ATOM     78  C   UNL A   1      38.342  31.689  36.613  1.00  0.00     0.131 A 
ATOM     79  C   UNL A   1      39.221  34.261  37.090  1.00  0.00     0.055 A 
ATOM     80  C   UNL A   1      37.769  32.428  37.647  1.00  0.00     0.041 A 
ATOM     81  F   UNL A   1      37.900  30.433  36.426  1.00  0.00    -0.206 F 
ATOM     82  C   UNL A   1      38.218  33.719  37.898  1.00  0.00     0.022 A 
BRANCH  79  83
ATOM     83  S   UNL A   1      39.923  35.885  37.481  1.00  0.00     0.124 S 
ATOM     84  O   UNL A   1      39.085  36.311  38.597  1.00  0.00    -0.237 OA
ATOM     85  O   UNL A   1      41.305  35.547  37.808  1.00  0.00    -0.237 OA
ATOM     86  O   UNL A   1      39.745  36.640  36.242  1.00  0.00    -0.744 OA
ENDBRANCH  79  83
ENDBRANCH  52  76
BRANCH  64  87
ATOM     87  C   UNL A   1      44.887  28.053  35.305  1.00  0.00     0.023 A 
ATOM     88  C   UNL A   1      44.752  27.003  36.231  1.00  0.00     0.031 A 
ATOM     89  C   UNL A   1      46.063  28.822  35.347  1.00  0.00     0.131 A 
ATOM     90  C   UNL A   1      45.743  26.795  37.202  1.00  0.00     0.055 A 
ATOM     91  C   UNL A   1      47.076  28.569  36.272  1.00  0.00     0.041 A 
ATOM     92  F   UNL A   1      46.245  29.841  34.491  1.00  0.00    -0.206 F 
ATOM     93  C   UNL A   1      46.912  27.561  37.218  1.00  0.00     0.022 A 
BRANCH  90  94
ATOM     94  S   UNL A   1      45.435  25.583  38.517  1.00  0.00     0.124 S 
ATOM     95  O   UNL A   1      46.654  25.685  39.313  1.00  0.00    -0.237 OA
ATOM     96  O   UNL A   1      44.221  26.101  39.141  1.00  0.00    -0.237 OA
ATOM     97  O   UNL A   1      45.271  24.325  37.792  1.00  0.00    -0.744 OA
ENDBRANCH  90  94
ENDBRANCH  64  87
ENDBRANCH  38  39
ENDBRANCH  31  33
ENDBRANCH  30  31
ENDBRANCH  29  30
ENDBRANCH   1  29
TORSDOF 18
ENDMDL
MODEL 3
REMARK VINA RESULT:     -11.3      2.429      3.415
REMARK SMILES COc1cc(/C=C2/S/C(=[NH+]\C(C)=O)NC2=O)cc(Br)c1OCC(=O)OCCOC(=O)c1ccc(-c2c3nc(c(-c4cc(S(=O)(=O)[O-])ccc4F)c4ccc([nH]4)c(-c4cc(S(=O)(=O)[O-])ccc4F)c4nc(c(-c5cc(S(=O)(=O)[O-])ccc5F)c5ccc2[nH]5)C=C4)C=C3)cc1
REMARK SMILES IDX 26 1 25 2 23 3 24 4 22 5 21 6 20 7 3 8 4 9 5 10 18 11 17 12
REMARK SMILES IDX 19 13 2 14 1 15 6 16 7 17 8 18 15 19 9 20 14 21 16 22 10 23
REMARK SMILES IDX 11 25 12 27 13 28 27 29 28 30 29 31 30 32 31 33 32 34 93 35
REMARK SMILES IDX 33 36 92 37 34 38 35 39 36 40 86 41 37 42 91 43 85 44 87 45
REMARK SMILES IDX 38 46 90 47 84 48 83 49 39 51 71 52 51 53 70 54 52 55 55 56
REMARK SMILES IDX 69 57 88 58 53 59 54 60 68 62 89 63 56 64 40 65 41 66 49 67
REMARK SMILES IDX 42 68 48 69 50 70 47 71 43 72 44 73 45 74 46 75 72 76 73 77
REMARK SMILES IDX 81 78 74 79 80 80 82 81 79 82 75 83 76 84 77 85 78 86 57 87
REMARK SMILES IDX 58 88 66 89 59 90 65 91 67 92 64 93 60 94 61 95 62 96 63 97
REMARK H PARENT 14 24 10 26 87 50 55 61
REMARK Flexibility Score: inf
ROOT
ATOM      1  C   UNL A   1      31.987  28.838  25.049  1.00  0.00     0.274 C 
ENDROOT
BRANCH   1   2
ATOM      2  O   UNL A   1      30.793  28.040  25.238  1.00  0.00    -0.460 OA
BRANCH   2   3
ATOM      3  C   UNL A   1      30.998  26.802  25.752  1.00  0.00     0.344 C 
ATOM      4  O   UNL A   1      30.584  26.449  26.857  1.00  0.00    -0.248 OA
BRANCH   3   5
ATOM      5  C   UNL A   1      31.863  25.857  24.895  1.00  0.00     0.352 C 
BRANCH   5   6
ATOM      6  O   UNL A   1      32.150  24.488  25.097  1.00  0.00    -0.477 OA
BRANCH   6   7
ATOM      7  C   UNL A   1      33.466  24.109  25.159  1.00  0.00     0.176 A 
ATOM      8  C   UNL A   1      33.888  23.586  26.397  1.00  0.00     0.162 A 
ATOM      9  C   UNL A   1      35.239  23.273  26.608  1.00  0.00     0.058 A 
ATOM     10  C   UNL A   1      36.174  23.432  25.581  1.00  0.00    -0.019 A 
ATOM     11  C   UNL A   1      34.366  24.069  24.086  1.00  0.00     0.064 A 
ATOM     12  C   UNL A   1      35.722  23.781  24.305  1.00  0.00     0.028 A 
ATOM     13  Br  UNL A   1      33.805  24.129  22.269  1.00  0.00    -0.047 Br
BRANCH   8  14
ATOM     14  O   UNL A   1      32.897  23.396  27.333  1.00  0.00    -0.493 OA
ATOM     15  C   UNL A   1      32.951  22.197  28.091  1.00  0.00     0.278 C 
ENDBRANCH   8  14
BRANCH  10  16
ATOM     16  C   UNL A   1      37.595  23.139  25.807  1.00  0.00     0.032 C 
ATOM     17  C   UNL A   1      38.202  21.955  25.628  1.00  0.00     0.110 C 
ATOM     18  S   UNL A   1      39.887  21.695  25.978  1.00  0.00     0.007 SA
ATOM     19  C   UNL A   1      37.624  20.661  25.171  1.00  0.00     0.346 C 
ATOM     20  C   UNL A   1      39.764  19.971  25.836  1.00  0.00     0.324 C 
ATOM     21  N   UNL A   1      38.498  19.651  25.458  1.00  0.00    -0.199 N 
ATOM     22  O   UNL A   1      36.607  20.492  24.519  1.00  0.00    -0.240 OA
ATOM     23  N   UNL A   1      40.591  19.005  25.961  1.00  0.00    -0.204 N 
ATOM     24  H   UNL A   1      38.217  18.711  25.393  1.00  0.00     0.316 HD
ATOM     25  C   UNL A   1      41.942  19.024  26.187  1.00  0.00     0.304 C 
ATOM     26  H   UNL A   1      40.196  18.107  25.882  1.00  0.00     0.316 HD
ATOM     27  C   UNL A   1      42.652  20.121  26.932  1.00  0.00     0.144 C 
ATOM     28  O   UNL A   1      42.619  18.055  25.837  1.00  0.00    -0.247 OA
ENDBRANCH  10  16
ENDBRANCH   6   7
ENDBRANCH   5   6
ENDBRANCH   3   5
ENDBRANCH   2   3
ENDBRANCH   1   2
BRANCH   1  29
ATOM     29  C   UNL A   1      32.302  29.753  26.240  1.00  0.00     0.275 C 
BRANCH  29  30
ATOM     30  O   UNL A   1      33.605  30.362  26.143  1.00  0.00    -0.458 OA
BRANCH  30  31
ATOM     31  C   UNL A   1      33.904  31.128  27.213  1.00  0.00     0.338 C 
ATOM     32  O   UNL A   1      33.165  31.922  27.768  1.00  0.00    -0.246 OA
BRANCH  31  33
ATOM     33  C   UNL A   1      35.229  30.854  27.765  1.00  0.00     0.060 A 
ATOM     34  C   UNL A   1      35.450  29.589  28.300  1.00  0.00     0.016 A 
ATOM     35  C   UNL A   1      36.122  31.898  28.012  1.00  0.00     0.016 A 
ATOM     36  C   UNL A   1      36.536  29.381  29.143  1.00  0.00     0.010 A 
ATOM     37  C   UNL A   1      37.259  31.659  28.793  1.00  0.00     0.010 A 
ATOM     38  C   UNL A   1      37.467  30.402  29.387  1.00  0.00    -0.014 A 
BRANCH  38  39
ATOM     39  C   UNL A   1      38.657  30.122  30.239  1.00  0.00     0.031 A 
ATOM     40  C   UNL A   1      39.777  29.240  29.757  1.00  0.00     0.074 A 
ATOM     41  C   UNL A   1      38.732  30.691  31.460  1.00  0.00     0.049 A 
ATOM     42  N   UNL A   1      40.814  28.785  30.417  1.00  0.00    -0.248 NA
ATOM     43  C   UNL A   1      39.722  28.801  28.355  1.00  0.00     0.031 C 
ATOM     44  C   UNL A   1      37.735  31.604  32.027  1.00  0.00     0.029 A 
ATOM     45  N   UNL A   1      39.687  30.597  32.440  1.00  0.00    -0.354 N 
ATOM     46  C   UNL A   1      41.517  27.978  29.526  1.00  0.00     0.074 A 
ATOM     47  C   UNL A   1      40.774  27.995  28.282  1.00  0.00     0.031 C 
ATOM     48  C   UNL A   1      38.149  32.015  33.232  1.00  0.00     0.029 A 
ATOM     49  C   UNL A   1      39.378  31.314  33.573  1.00  0.00     0.049 A 
ATOM     50  H   UNL A   1      40.511  30.069  32.343  1.00  0.00     0.167 HD
ATOM     51  C   UNL A   1      42.669  27.290  29.735  1.00  0.00     0.034 A 
ATOM     52  C   UNL A   1      39.979  31.364  34.778  1.00  0.00     0.034 A 
ATOM     53  C   UNL A   1      43.405  27.308  30.981  1.00  0.00     0.049 A 
ATOM     54  C   UNL A   1      41.212  30.536  35.007  1.00  0.00     0.074 A 
ATOM     55  C   UNL A   1      44.595  26.667  31.289  1.00  0.00     0.029 A 
ATOM     56  N   UNL A   1      43.029  28.001  32.126  1.00  0.00    -0.354 N 
ATOM     57  N   UNL A   1      41.839  29.741  34.171  1.00  0.00    -0.248 NA
ATOM     58  C   UNL A   1      41.813  30.607  36.342  1.00  0.00     0.031 C 
ATOM     59  C   UNL A   1      44.892  26.907  32.636  1.00  0.00     0.029 A 
ATOM     60  C   UNL A   1      43.940  27.770  33.149  1.00  0.00     0.049 A 
ATOM     61  H   UNL A   1      42.230  28.572  32.202  1.00  0.00     0.167 HD
ATOM     62  C   UNL A   1      42.922  29.231  34.878  1.00  0.00     0.074 A 
ATOM     63  C   UNL A   1      42.874  29.828  36.198  1.00  0.00     0.031 C 
ATOM     64  C   UNL A   1      43.872  28.350  34.471  1.00  0.00     0.034 A 
BRANCH  51  65
ATOM     65  C   UNL A   1      43.175  26.404  28.617  1.00  0.00     0.023 A 
ATOM     66  C   UNL A   1      44.243  26.780  27.784  1.00  0.00     0.031 A 
ATOM     67  C   UNL A   1      42.569  25.155  28.381  1.00  0.00     0.131 A 
ATOM     68  C   UNL A   1      44.628  25.947  26.720  1.00  0.00     0.055 A 
ATOM     69  C   UNL A   1      43.013  24.295  27.373  1.00  0.00     0.041 A 
ATOM     70  F   UNL A   1      41.529  24.748  29.126  1.00  0.00    -0.206 F 
ATOM     71  C   UNL A   1      44.040  24.696  26.527  1.00  0.00     0.022 A 
BRANCH  68  72
ATOM     72  S   UNL A   1      45.811  26.586  25.501  1.00  0.00     0.124 S 
ATOM     73  O   UNL A   1      45.079  27.723  24.947  1.00  0.00    -0.237 OA
ATOM     74  O   UNL A   1      46.969  26.910  26.323  1.00  0.00    -0.237 OA
ATOM     75  O   UNL A   1      45.992  25.466  24.579  1.00  0.00    -0.744 OA
ENDBRANCH  68  72
ENDBRANCH  51  65
BRANCH  52  76
ATOM     76  C   UNL A   1      39.377  32.171  35.877  1.00  0.00     0.023 A 
ATOM     77  C   UNL A   1      38.590  31.570  36.870  1.00  0.00     0.031 A 
ATOM     78  C   UNL A   1      39.565  33.565  35.936  1.00  0.00     0.131 A 
ATOM     79  C   UNL A   1      37.992  32.365  37.860  1.00  0.00     0.055 A 
ATOM     80  C   UNL A   1      39.020  34.341  36.957  1.00  0.00     0.041 A 
ATOM     81  F   UNL A   1      40.308  34.190  35.007  1.00  0.00    -0.206 F 
ATOM     82  C   UNL A   1      38.217  33.742  37.921  1.00  0.00     0.022 A 
BRANCH  79  83
ATOM     83  S   UNL A   1      36.838  31.581  39.018  1.00  0.00     0.124 S 
ATOM     84  O   UNL A   1      36.817  30.206  38.533  1.00  0.00    -0.237 OA
ATOM     85  O   UNL A   1      37.501  31.800  40.300  1.00  0.00    -0.237 OA
ATOM     86  O   UNL A   1      35.599  32.332  38.823  1.00  0.00    -0.744 OA
ENDBRANCH  79  83
ENDBRANCH  52  76
BRANCH  64  87
ATOM     87  C   UNL A   1      44.956  28.017  35.467  1.00  0.00     0.023 A 
ATOM     88  C   UNL A   1      44.754  27.083  36.499  1.00  0.00     0.031 A 
ATOM     89  C   UNL A   1      46.197  28.676  35.408  1.00  0.00     0.131 A 
ATOM     90  C   UNL A   1      45.748  26.886  37.469  1.00  0.00     0.055 A 
ATOM     91  C   UNL A   1      47.208  28.427  36.337  1.00  0.00     0.041 A 
ATOM     92  F   UNL A   1      46.445  29.582  34.448  1.00  0.00    -0.206 F 
ATOM     93  C   UNL A   1      46.980  27.540  37.385  1.00  0.00     0.022 A 
BRANCH  90  94
ATOM     94  S   UNL A   1      45.369  25.847  38.907  1.00  0.00     0.124 S 
ATOM     95  O   UNL A   1      44.333  26.627  39.579  1.00  0.00    -0.237 OA
ATOM     96  O   UNL A   1      44.927  24.603  38.285  1.00  0.00    -0.237 OA
ATOM     97  O   UNL A   1      46.643  25.767  39.618  1.00  0.00    -0.744 OA
ENDBRANCH  90  94
ENDBRANCH  64  87
ENDBRANCH  38  39
ENDBRANCH  31  33
ENDBRANCH  30  31
ENDBRANCH  29  30
ENDBRANCH   1  29
TORSDOF 18
ENDMDL
