MODEL 1
REMARK VINA RESULT:     -10.5      0.000      0.000
REMARK SMILES COCC[C@H]([NH3+])C(=O)N1CC(n2cc(C(=O)OCCOC(=O)c3ccc(-c4c5nc(c(-c6cc(S(=O)(=O)[O-])ccc6F)c6ccc([nH]6)c(-c6cc(S(=O)(=O)[O-])ccc6F)c6nc(c(-c7cc(S(=O)(=O)[O-])ccc7F)c7ccc4[nH]7)C=C6)C=C5)cc3)nn2)C1
REMARK SMILES IDX 18 1 17 2 15 3 16 4 14 5 12 6 13 7 87 8 86 9 11 10 7 11 8 12
REMARK SMILES IDX 9 13 10 14 88 15 5 16 4 17 3 18 2 19 1 20 6 21 19 25 20 26
REMARK SMILES IDX 21 27 22 28 23 29 24 30 85 31 25 32 84 33 26 34 27 35 28 36
REMARK SMILES IDX 78 37 29 38 83 39 77 40 79 41 30 42 82 43 76 44 75 45 31 47
REMARK SMILES IDX 63 48 43 49 62 50 44 51 47 52 61 53 80 54 45 55 46 56 60 58
REMARK SMILES IDX 81 59 48 60 32 61 33 62 41 63 34 64 40 65 42 66 39 67 35 68
REMARK SMILES IDX 36 69 37 70 38 71 64 72 65 73 73 74 66 75 72 76 74 77 71 78
REMARK SMILES IDX 67 79 68 80 69 81 70 82 49 83 50 84 58 85 51 86 57 87 59 88
REMARK SMILES IDX 56 89 52 90 53 91 54 92 55 93
REMARK H PARENT 6 22 6 23 6 24 79 46 47 57
REMARK Flexibility Score: inf
ROOT
ATOM      1  C   UNL A   1      33.342  34.500  28.154  1.00  0.00     0.275 C 
ENDROOT
BRANCH   1   2
ATOM      2  O   UNL A   1      32.891  34.477  29.518  1.00  0.00    -0.457 OA
BRANCH   2   3
ATOM      3  C   UNL A   1      33.034  35.653  30.206  1.00  0.00     0.360 C 
ATOM      4  O   UNL A   1      32.481  36.705  29.884  1.00  0.00    -0.244 OA
BRANCH   3   5
ATOM      5  C   UNL A   1      33.916  35.532  31.354  1.00  0.00     0.190 A 
ATOM      6  N   UNL A   1      35.481  35.024  32.763  1.00  0.00    -0.245 N 
ATOM      7  C   UNL A   1      35.002  34.694  31.529  1.00  0.00     0.147 A 
ATOM      8  N   UNL A   1      34.750  35.998  33.326  1.00  0.00    -0.066 NA
ATOM      9  N   UNL A   1      33.771  36.302  32.485  1.00  0.00    -0.123 NA
BRANCH   6  10
ATOM     10  C   UNL A   1      36.689  34.494  33.319  1.00  0.00     0.148 C 
ATOM     11  C   UNL A   1      38.080  32.034  35.065  1.00  0.00     0.280 C 
ATOM     12  O   UNL A   1      39.076  31.600  34.480  1.00  0.00    -0.268 OA
ATOM     13  N   UNL A   1      37.173  32.827  34.417  1.00  0.00    -0.333 N 
ATOM     14  C   UNL A   1      36.990  33.027  32.986  1.00  0.00     0.149 C 
ATOM     15  C   UNL A   1      36.465  34.037  34.781  1.00  0.00     0.149 C 
BRANCH  11  16
ATOM     16  C   UNL A   1      37.796  31.652  36.544  1.00  0.00     0.273 C 
BRANCH  16  17
ATOM     17  C   UNL A   1      38.358  32.705  37.531  1.00  0.00     0.104 C 
BRANCH  17  18
ATOM     18  C   UNL A   1      39.849  33.033  37.492  1.00  0.00     0.166 C 
BRANCH  18  19
ATOM     19  O   UNL A   1      40.670  31.869  37.400  1.00  0.00    -0.384 OA
ATOM     20  C   UNL A   1      42.015  32.060  37.799  1.00  0.00     0.194 C 
ENDBRANCH  18  19
ENDBRANCH  17  18
ENDBRANCH  16  17
BRANCH  16  21
ATOM     21  N   UNL A   1      38.068  30.227  36.771  1.00  0.00    -0.347 N 
ATOM     22  H   UNL A   1      37.346  29.668  36.319  1.00  0.00     0.345 HD
ATOM     23  H   UNL A   1      38.068  30.037  37.773  1.00  0.00     0.345 HD
ATOM     24  H   UNL A   1      38.979  29.988  36.379  1.00  0.00     0.345 HD
ENDBRANCH  16  21
ENDBRANCH  11  16
ENDBRANCH   6  10
ENDBRANCH   3   5
ENDBRANCH   2   3
ENDBRANCH   1   2
BRANCH   1  25
ATOM     25  C   UNL A   1      34.809  34.109  28.053  1.00  0.00     0.275 C 
BRANCH  25  26
ATOM     26  O   UNL A   1      34.966  32.726  27.737  1.00  0.00    -0.458 OA
BRANCH  26  27
ATOM     27  C   UNL A   1      35.209  31.918  28.797  1.00  0.00     0.338 C 
ATOM     28  O   UNL A   1      34.551  31.850  29.822  1.00  0.00    -0.246 OA
BRANCH  27  29
ATOM     29  C   UNL A   1      36.537  31.311  28.633  1.00  0.00     0.060 A 
ATOM     30  C   UNL A   1      36.602  29.964  28.266  1.00  0.00     0.016 A 
ATOM     31  C   UNL A   1      37.669  31.997  29.099  1.00  0.00     0.016 A 
ATOM     32  C   UNL A   1      37.771  29.267  28.514  1.00  0.00     0.010 A 
ATOM     33  C   UNL A   1      38.822  31.297  29.365  1.00  0.00     0.010 A 
ATOM     34  C   UNL A   1      38.842  29.925  29.134  1.00  0.00    -0.014 A 
BRANCH  34  35
ATOM     35  C   UNL A   1      40.073  29.197  29.374  1.00  0.00     0.031 A 
ATOM     36  C   UNL A   1      40.371  29.081  30.821  1.00  0.00     0.074 A 
ATOM     37  C   UNL A   1      40.788  28.582  28.409  1.00  0.00     0.049 A 
ATOM     38  N   UNL A   1      41.285  29.713  31.475  1.00  0.00    -0.248 NA
ATOM     39  C   UNL A   1      39.414  28.360  31.679  1.00  0.00     0.031 C 
ATOM     40  C   UNL A   1      40.460  28.422  26.992  1.00  0.00     0.029 A 
ATOM     41  N   UNL A   1      41.953  27.888  28.524  1.00  0.00    -0.354 N 
ATOM     42  C   UNL A   1      41.182  29.268  32.787  1.00  0.00     0.074 A 
ATOM     43  C   UNL A   1      39.895  28.638  32.893  1.00  0.00     0.031 C 
ATOM     44  C   UNL A   1      41.285  27.497  26.441  1.00  0.00     0.029 A 
ATOM     45  C   UNL A   1      42.278  27.094  27.425  1.00  0.00     0.049 A 
ATOM     46  H   UNL A   1      42.525  27.942  29.324  1.00  0.00     0.167 HD
ATOM     47  C   UNL A   1      42.276  29.222  33.591  1.00  0.00     0.034 A 
ATOM     48  C   UNL A   1      43.263  26.151  27.353  1.00  0.00     0.034 A 
ATOM     49  C   UNL A   1      43.354  30.014  33.040  1.00  0.00     0.049 A 
ATOM     50  C   UNL A   1      44.245  26.488  28.418  1.00  0.00     0.074 A 
ATOM     51  C   UNL A   1      43.504  31.349  32.716  1.00  0.00     0.029 A 
ATOM     52  N   UNL A   1      44.349  29.350  32.357  1.00  0.00    -0.354 N 
ATOM     53  N   UNL A   1      44.967  27.576  28.395  1.00  0.00    -0.248 NA
ATOM     54  C   UNL A   1      44.044  25.910  29.739  1.00  0.00     0.031 C 
ATOM     55  C   UNL A   1      44.236  31.348  31.492  1.00  0.00     0.029 A 
ATOM     56  C   UNL A   1      44.577  30.029  31.184  1.00  0.00     0.049 A 
ATOM     57  H   UNL A   1      44.814  28.536  32.656  1.00  0.00     0.167 HD
ATOM     58  C   UNL A   1      44.925  28.062  29.693  1.00  0.00     0.074 A 
ATOM     59  C   UNL A   1      44.413  26.949  30.496  1.00  0.00     0.031 C 
ATOM     60  C   UNL A   1      45.024  29.400  29.953  1.00  0.00     0.034 A 
BRANCH  47  61
ATOM     61  C   UNL A   1      42.515  28.171  34.649  1.00  0.00     0.023 A 
ATOM     62  C   UNL A   1      43.339  27.086  34.297  1.00  0.00     0.031 A 
ATOM     63  C   UNL A   1      41.767  28.017  35.837  1.00  0.00     0.131 A 
ATOM     64  C   UNL A   1      43.317  25.895  35.041  1.00  0.00     0.055 A 
ATOM     65  C   UNL A   1      41.802  26.856  36.613  1.00  0.00     0.041 A 
ATOM     66  F   UNL A   1      40.885  28.927  36.267  1.00  0.00    -0.206 F 
ATOM     67  C   UNL A   1      42.555  25.773  36.198  1.00  0.00     0.022 A 
BRANCH  64  68
ATOM     68  S   UNL A   1      44.165  24.447  34.362  1.00  0.00     0.124 S 
ATOM     69  O   UNL A   1      43.771  24.507  32.959  1.00  0.00    -0.237 OA
ATOM     70  O   UNL A   1      45.562  24.752  34.653  1.00  0.00    -0.237 OA
ATOM     71  O   UNL A   1      43.599  23.336  35.124  1.00  0.00    -0.744 OA
ENDBRANCH  64  68
ENDBRANCH  47  61
BRANCH  48  72
ATOM     72  C   UNL A   1      43.200  24.804  26.700  1.00  0.00     0.023 A 
ATOM     73  C   UNL A   1      42.248  23.809  27.038  1.00  0.00     0.031 A 
ATOM     74  C   UNL A   1      43.945  24.580  25.520  1.00  0.00     0.131 A 
ATOM     75  C   UNL A   1      42.080  22.665  26.212  1.00  0.00     0.055 A 
ATOM     76  C   UNL A   1      43.770  23.456  24.709  1.00  0.00     0.041 A 
ATOM     77  F   UNL A   1      44.813  25.495  25.062  1.00  0.00    -0.206 F 
ATOM     78  C   UNL A   1      42.829  22.497  25.046  1.00  0.00     0.022 A 
BRANCH  75  79
ATOM     79  S   UNL A   1      40.821  21.395  26.594  1.00  0.00     0.124 S 
ATOM     80  O   UNL A   1      39.633  21.923  25.934  1.00  0.00    -0.237 OA
ATOM     81  O   UNL A   1      41.404  20.189  26.017  1.00  0.00    -0.237 OA
ATOM     82  O   UNL A   1      40.760  21.401  28.057  1.00  0.00    -0.744 OA
ENDBRANCH  75  79
ENDBRANCH  48  72
BRANCH  60  83
ATOM     83  C   UNL A   1      45.463  30.323  28.830  1.00  0.00     0.023 A 
ATOM     84  C   UNL A   1      46.803  30.650  28.512  1.00  0.00     0.031 A 
ATOM     85  C   UNL A   1      44.458  30.799  27.971  1.00  0.00     0.131 A 
ATOM     86  C   UNL A   1      47.087  31.437  27.376  1.00  0.00     0.055 A 
ATOM     87  C   UNL A   1      44.744  31.553  26.834  1.00  0.00     0.041 A 
ATOM     88  F   UNL A   1      43.168  30.507  28.205  1.00  0.00    -0.206 F 
ATOM     89  C   UNL A   1      46.060  31.880  26.536  1.00  0.00     0.022 A 
BRANCH  86  90
ATOM     90  S   UNL A   1      48.798  31.925  26.975  1.00  0.00     0.124 S 
ATOM     91  O   UNL A   1      49.401  30.690  26.488  1.00  0.00    -0.237 OA
ATOM     92  O   UNL A   1      48.605  32.978  25.980  1.00  0.00    -0.237 OA
ATOM     93  O   UNL A   1      49.328  32.395  28.257  1.00  0.00    -0.744 OA
ENDBRANCH  86  90
ENDBRANCH  60  83
ENDBRANCH  34  35
ENDBRANCH  27  29
ENDBRANCH  26  27
ENDBRANCH  25  26
ENDBRANCH   1  25
TORSDOF 20
ENDMDL
MODEL 2
REMARK VINA RESULT:     -10.3      1.877      2.305
REMARK SMILES COCC[C@H]([NH3+])C(=O)N1CC(n2cc(C(=O)OCCOC(=O)c3ccc(-c4c5nc(c(-c6cc(S(=O)(=O)[O-])ccc6F)c6ccc([nH]6)c(-c6cc(S(=O)(=O)[O-])ccc6F)c6nc(c(-c7cc(S(=O)(=O)[O-])ccc7F)c7ccc4[nH]7)C=C6)C=C5)cc3)nn2)C1
REMARK SMILES IDX 18 1 17 2 15 3 16 4 14 5 12 6 13 7 87 8 86 9 11 10 7 11 8 12
REMARK SMILES IDX 9 13 10 14 88 15 5 16 4 17 3 18 2 19 1 20 6 21 19 25 20 26
REMARK SMILES IDX 21 27 22 28 23 29 24 30 85 31 25 32 84 33 26 34 27 35 28 36
REMARK SMILES IDX 78 37 29 38 83 39 77 40 79 41 30 42 82 43 76 44 75 45 31 47
REMARK SMILES IDX 63 48 43 49 62 50 44 51 47 52 61 53 80 54 45 55 46 56 60 58
REMARK SMILES IDX 81 59 48 60 32 61 33 62 41 63 34 64 40 65 42 66 39 67 35 68
REMARK SMILES IDX 36 69 37 70 38 71 64 72 65 73 73 74 66 75 72 76 74 77 71 78
REMARK SMILES IDX 67 79 68 80 69 81 70 82 49 83 50 84 58 85 51 86 57 87 59 88
REMARK SMILES IDX 56 89 52 90 53 91 54 92 55 93
REMARK H PARENT 6 22 6 23 6 24 79 46 47 57
REMARK Flexibility Score: inf
ROOT
ATOM      1  C   UNL A   1      33.650  33.869  28.452  1.00  0.00     0.275 C 
ENDROOT
BRANCH   1   2
ATOM      2  O   UNL A   1      34.010  35.193  28.881  1.00  0.00    -0.457 OA
BRANCH   2   3
ATOM      3  C   UNL A   1      33.185  35.753  29.821  1.00  0.00     0.360 C 
ATOM      4  O   UNL A   1      32.172  36.396  29.544  1.00  0.00    -0.244 OA
BRANCH   3   5
ATOM      5  C   UNL A   1      33.635  35.516  31.181  1.00  0.00     0.190 A 
ATOM      6  N   UNL A   1      34.322  34.675  33.056  1.00  0.00    -0.245 N 
ATOM      7  C   UNL A   1      33.895  34.313  31.811  1.00  0.00     0.147 A 
ATOM      8  N   UNL A   1      34.330  36.009  33.200  1.00  0.00    -0.066 NA
ATOM      9  N   UNL A   1      33.886  36.538  32.068  1.00  0.00    -0.123 NA
BRANCH   6  10
ATOM     10  C   UNL A   1      34.827  33.753  34.027  1.00  0.00     0.148 C 
ATOM     11  C   UNL A   1      37.502  32.187  35.219  1.00  0.00     0.280 C 
ATOM     12  O   UNL A   1      37.564  32.310  36.445  1.00  0.00    -0.268 OA
ATOM     13  N   UNL A   1      36.678  32.982  34.472  1.00  0.00    -0.333 N 
ATOM     14  C   UNL A   1      36.034  34.236  34.840  1.00  0.00     0.149 C 
ATOM     15  C   UNL A   1      35.779  32.726  33.365  1.00  0.00     0.149 C 
BRANCH  11  16
ATOM     16  C   UNL A   1      38.399  31.156  34.477  1.00  0.00     0.273 C 
BRANCH  16  17
ATOM     17  C   UNL A   1      39.090  31.778  33.238  1.00  0.00     0.104 C 
BRANCH  17  18
ATOM     18  C   UNL A   1      40.437  32.475  33.416  1.00  0.00     0.166 C 
BRANCH  18  19
ATOM     19  O   UNL A   1      41.232  31.891  34.447  1.00  0.00    -0.384 OA
ATOM     20  C   UNL A   1      41.620  32.785  35.474  1.00  0.00     0.194 C 
ENDBRANCH  18  19
ENDBRANCH  17  18
ENDBRANCH  16  17
BRANCH  16  21
ATOM     21  N   UNL A   1      37.711  29.865  34.354  1.00  0.00    -0.347 N 
ATOM     22  H   UNL A   1      37.899  29.466  33.435  1.00  0.00     0.345 HD
ATOM     23  H   UNL A   1      36.707  30.004  34.466  1.00  0.00     0.345 HD
ATOM     24  H   UNL A   1      38.049  29.230  35.077  1.00  0.00     0.345 HD
ENDBRANCH  16  21
ENDBRANCH  11  16
ENDBRANCH   6  10
ENDBRANCH   3   5
ENDBRANCH   2   3
ENDBRANCH   1   2
BRANCH   1  25
ATOM     25  C   UNL A   1      34.874  33.088  27.996  1.00  0.00     0.275 C 
BRANCH  25  26
ATOM     26  O   UNL A   1      35.390  32.262  29.039  1.00  0.00    -0.458 OA
BRANCH  26  27
ATOM     27  C   UNL A   1      36.500  32.738  29.653  1.00  0.00     0.338 C 
ATOM     28  O   UNL A   1      36.628  33.838  30.165  1.00  0.00    -0.246 OA
BRANCH  27  29
ATOM     29  C   UNL A   1      37.617  31.821  29.389  1.00  0.00     0.060 A 
ATOM     30  C   UNL A   1      37.330  30.460  29.253  1.00  0.00     0.016 A 
ATOM     31  C   UNL A   1      38.934  32.278  29.546  1.00  0.00     0.016 A 
ATOM     32  C   UNL A   1      38.354  29.547  29.430  1.00  0.00     0.010 A 
ATOM     33  C   UNL A   1      39.947  31.369  29.743  1.00  0.00     0.010 A 
ATOM     34  C   UNL A   1      39.637  30.013  29.750  1.00  0.00    -0.014 A 
BRANCH  34  35
ATOM     35  C   UNL A   1      40.714  29.054  29.915  1.00  0.00     0.031 A 
ATOM     36  C   UNL A   1      41.004  28.792  31.343  1.00  0.00     0.074 A 
ATOM     37  C   UNL A   1      41.289  28.382  28.896  1.00  0.00     0.049 A 
ATOM     38  N   UNL A   1      42.029  29.200  32.012  1.00  0.00    -0.248 NA
ATOM     39  C   UNL A   1      39.941  28.207  32.180  1.00  0.00     0.031 C 
ATOM     40  C   UNL A   1      40.918  28.377  27.480  1.00  0.00     0.029 A 
ATOM     41  N   UNL A   1      42.305  27.477  28.940  1.00  0.00    -0.354 N 
ATOM     42  C   UNL A   1      41.862  28.699  33.297  1.00  0.00     0.074 A 
ATOM     43  C   UNL A   1      40.481  28.312  33.396  1.00  0.00     0.031 C 
ATOM     44  C   UNL A   1      41.547  27.352  26.853  1.00  0.00     0.029 A 
ATOM     45  C   UNL A   1      42.461  26.710  27.786  1.00  0.00     0.049 A 
ATOM     46  H   UNL A   1      42.888  27.372  29.727  1.00  0.00     0.167 HD
ATOM     47  C   UNL A   1      42.939  28.398  34.069  1.00  0.00     0.034 A 
ATOM     48  C   UNL A   1      43.252  25.606  27.632  1.00  0.00     0.034 A 
ATOM     49  C   UNL A   1      44.138  29.010  33.540  1.00  0.00     0.049 A 
ATOM     50  C   UNL A   1      44.294  25.687  28.691  1.00  0.00     0.074 A 
ATOM     51  C   UNL A   1      44.531  30.312  33.294  1.00  0.00     0.029 A 
ATOM     52  N   UNL A   1      44.983  28.219  32.793  1.00  0.00    -0.354 N 
ATOM     53  N   UNL A   1      45.206  26.620  28.716  1.00  0.00    -0.248 NA
ATOM     54  C   UNL A   1      44.006  25.071  29.979  1.00  0.00     0.031 C 
ATOM     55  C   UNL A   1      45.233  30.255  32.055  1.00  0.00     0.029 A 
ATOM     56  C   UNL A   1      45.318  28.918  31.658  1.00  0.00     0.049 A 
ATOM     57  H   UNL A   1      45.291  27.315  33.030  1.00  0.00     0.167 HD
ATOM     58  C   UNL A   1      45.272  27.021  30.042  1.00  0.00     0.074 A 
ATOM     59  C   UNL A   1      44.572  25.973  30.788  1.00  0.00     0.031 C 
ATOM     60  C   UNL A   1      45.623  28.298  30.380  1.00  0.00     0.034 A 
BRANCH  47  61
ATOM     61  C   UNL A   1      42.992  27.255  35.054  1.00  0.00     0.023 A 
ATOM     62  C   UNL A   1      43.695  26.103  34.659  1.00  0.00     0.031 A 
ATOM     63  C   UNL A   1      42.168  27.114  36.193  1.00  0.00     0.131 A 
ATOM     64  C   UNL A   1      43.489  24.875  35.309  1.00  0.00     0.055 A 
ATOM     65  C   UNL A   1      42.020  25.906  36.879  1.00  0.00     0.041 A 
ATOM     66  F   UNL A   1      41.381  28.095  36.650  1.00  0.00    -0.206 F 
ATOM     67  C   UNL A   1      42.657  24.769  36.419  1.00  0.00     0.022 A 
BRANCH  64  68
ATOM     68  S   UNL A   1      44.189  23.383  34.562  1.00  0.00     0.124 S 
ATOM     69  O   UNL A   1      43.043  22.853  33.833  1.00  0.00    -0.237 OA
ATOM     70  O   UNL A   1      45.271  23.931  33.750  1.00  0.00    -0.237 OA
ATOM     71  O   UNL A   1      44.616  22.595  35.716  1.00  0.00    -0.744 OA
ENDBRANCH  64  68
ENDBRANCH  47  61
BRANCH  48  72
ATOM     72  C   UNL A   1      42.930  24.340  26.899  1.00  0.00     0.023 A 
ATOM     73  C   UNL A   1      43.846  23.666  26.053  1.00  0.00     0.031 A 
ATOM     74  C   UNL A   1      41.760  23.628  27.244  1.00  0.00     0.131 A 
ATOM     75  C   UNL A   1      43.569  22.349  25.597  1.00  0.00     0.055 A 
ATOM     76  C   UNL A   1      41.496  22.330  26.797  1.00  0.00     0.041 A 
ATOM     77  F   UNL A   1      40.864  24.137  28.104  1.00  0.00    -0.206 F 
ATOM     78  C   UNL A   1      42.405  21.680  25.979  1.00  0.00     0.022 A 
BRANCH  75  79
ATOM     79  S   UNL A   1      44.759  21.436  24.551  1.00  0.00     0.124 S 
ATOM     80  O   UNL A   1      44.704  22.176  23.296  1.00  0.00    -0.237 OA
ATOM     81  O   UNL A   1      45.998  21.541  25.315  1.00  0.00    -0.237 OA
ATOM     82  O   UNL A   1      44.196  20.086  24.488  1.00  0.00    -0.744 OA
ENDBRANCH  75  79
ENDBRANCH  48  72
BRANCH  60  83
ATOM     83  C   UNL A   1      46.212  29.194  29.305  1.00  0.00     0.023 A 
ATOM     84  C   UNL A   1      45.506  30.195  28.593  1.00  0.00     0.031 A 
ATOM     85  C   UNL A   1      47.595  29.092  29.082  1.00  0.00     0.131 A 
ATOM     86  C   UNL A   1      46.193  31.035  27.692  1.00  0.00     0.055 A 
ATOM     87  C   UNL A   1      48.275  29.942  28.211  1.00  0.00     0.041 A 
ATOM     88  F   UNL A   1      48.325  28.177  29.741  1.00  0.00    -0.206 F 
ATOM     89  C   UNL A   1      47.574  30.914  27.507  1.00  0.00     0.022 A 
BRANCH  86  90
ATOM     90  S   UNL A   1      45.302  32.293  26.716  1.00  0.00     0.124 S 
ATOM     91  O   UNL A   1      44.808  33.222  27.725  1.00  0.00    -0.237 OA
ATOM     92  O   UNL A   1      46.344  32.806  25.829  1.00  0.00    -0.237 OA
ATOM     93  O   UNL A   1      44.258  31.522  26.037  1.00  0.00    -0.744 OA
ENDBRANCH  86  90
ENDBRANCH  60  83
ENDBRANCH  34  35
ENDBRANCH  27  29
ENDBRANCH  26  27
ENDBRANCH  25  26
ENDBRANCH   1  25
TORSDOF 20
ENDMDL
MODEL 3
REMARK VINA RESULT:     -10.1      4.183      6.748
REMARK SMILES COCC[C@H]([NH3+])C(=O)N1CC(n2cc(C(=O)OCCOC(=O)c3ccc(-c4c5nc(c(-c6cc(S(=O)(=O)[O-])ccc6F)c6ccc([nH]6)c(-c6cc(S(=O)(=O)[O-])ccc6F)c6nc(c(-c7cc(S(=O)(=O)[O-])ccc7F)c7ccc4[nH]7)C=C6)C=C5)cc3)nn2)C1
REMARK SMILES IDX 18 1 17 2 15 3 16 4 14 5 12 6 13 7 87 8 86 9 11 10 7 11 8 12
REMARK SMILES IDX 9 13 10 14 88 15 5 16 4 17 3 18 2 19 1 20 6 21 19 25 20 26
REMARK SMILES IDX 21 27 22 28 23 29 24 30 85 31 25 32 84 33 26 34 27 35 28 36
REMARK SMILES IDX 78 37 29 38 83 39 77 40 79 41 30 42 82 43 76 44 75 45 31 47
REMARK SMILES IDX 63 48 43 49 62 50 44 51 47 52 61 53 80 54 45 55 46 56 60 58
REMARK SMILES IDX 81 59 48 60 32 61 33 62 41 63 34 64 40 65 42 66 39 67 35 68
REMARK SMILES IDX 36 69 37 70 38 71 64 72 65 73 73 74 66 75 72 76 74 77 71 78
REMARK SMILES IDX 67 79 68 80 69 81 70 82 49 83 50 84 58 85 51 86 57 87 59 88
REMARK SMILES IDX 56 89 52 90 53 91 54 92 55 93
REMARK H PARENT 6 22 6 23 6 24 79 46 47 57
REMARK Flexibility Score: inf
ROOT
ATOM      1  C   UNL A   1      32.700  30.457  27.222  1.00  0.00     0.275 C 
ENDROOT
BRANCH   1   2
ATOM      2  O   UNL A   1      32.799  30.027  25.854  1.00  0.00    -0.457 OA
BRANCH   2   3
ATOM      3  C   UNL A   1      31.652  29.503  25.316  1.00  0.00     0.360 C 
ATOM      4  O   UNL A   1      30.789  30.178  24.756  1.00  0.00    -0.244 OA
BRANCH   3   5
ATOM      5  C   UNL A   1      31.558  28.063  25.484  1.00  0.00     0.190 A 
ATOM      6  N   UNL A   1      31.562  25.910  25.245  1.00  0.00    -0.245 N 
ATOM      7  C   UNL A   1      31.718  27.067  24.538  1.00  0.00     0.147 A 
ATOM      8  N   UNL A   1      31.320  26.158  26.541  1.00  0.00    -0.066 NA
ATOM      9  N   UNL A   1      31.288  27.474  26.698  1.00  0.00    -0.123 NA
BRANCH   6  10
ATOM     10  C   UNL A   1      31.769  24.604  24.695  1.00  0.00     0.148 C 
ATOM     11  C   UNL A   1      32.330  21.394  25.339  1.00  0.00     0.280 C 
ATOM     12  O   UNL A   1      31.540  20.684  24.712  1.00  0.00    -0.268 OA
ATOM     13  N   UNL A   1      32.110  22.737  25.480  1.00  0.00    -0.333 N 
ATOM     14  C   UNL A   1      30.882  23.491  25.268  1.00  0.00     0.149 C 
ATOM     15  C   UNL A   1      32.965  23.903  25.386  1.00  0.00     0.149 C 
BRANCH  11  16
ATOM     16  C   UNL A   1      33.574  20.776  26.035  1.00  0.00     0.273 C 
BRANCH  16  17
ATOM     17  C   UNL A   1      34.846  20.897  25.159  1.00  0.00     0.104 C 
BRANCH  17  18
ATOM     18  C   UNL A   1      35.983  21.802  25.629  1.00  0.00     0.166 C 
BRANCH  18  19
ATOM     19  O   UNL A   1      37.175  21.080  25.939  1.00  0.00    -0.384 OA
ATOM     20  C   UNL A   1      38.368  21.672  25.460  1.00  0.00     0.194 C 
ENDBRANCH  18  19
ENDBRANCH  17  18
ENDBRANCH  16  17
BRANCH  16  21
ATOM     21  N   UNL A   1      33.236  19.487  26.651  1.00  0.00    -0.347 N 
ATOM     22  H   UNL A   1      33.006  18.813  25.922  1.00  0.00     0.345 HD
ATOM     23  H   UNL A   1      32.434  19.606  27.269  1.00  0.00     0.345 HD
ATOM     24  H   UNL A   1      34.034  19.147  27.189  1.00  0.00     0.345 HD
ENDBRANCH  16  21
ENDBRANCH  11  16
ENDBRANCH   6  10
ENDBRANCH   3   5
ENDBRANCH   2   3
ENDBRANCH   1   2
BRANCH   1  25
ATOM     25  C   UNL A   1      33.631  31.629  27.498  1.00  0.00     0.275 C 
BRANCH  25  26
ATOM     26  O   UNL A   1      34.608  31.304  28.486  1.00  0.00    -0.458 OA
BRANCH  26  27
ATOM     27  C   UNL A   1      35.805  31.921  28.336  1.00  0.00     0.338 C 
ATOM     28  O   UNL A   1      36.040  32.880  27.619  1.00  0.00    -0.246 OA
BRANCH  27  29
ATOM     29  C   UNL A   1      36.842  31.102  28.978  1.00  0.00     0.060 A 
ATOM     30  C   UNL A   1      38.047  31.721  29.321  1.00  0.00     0.016 A 
ATOM     31  C   UNL A   1      36.710  29.705  28.983  1.00  0.00     0.016 A 
ATOM     32  C   UNL A   1      39.164  30.930  29.520  1.00  0.00     0.010 A 
ATOM     33  C   UNL A   1      37.827  28.922  29.160  1.00  0.00     0.010 A 
ATOM     34  C   UNL A   1      39.056  29.541  29.359  1.00  0.00    -0.014 A 
BRANCH  34  35
ATOM     35  C   UNL A   1      40.224  28.712  29.589  1.00  0.00     0.031 A 
ATOM     36  C   UNL A   1      40.528  28.577  31.033  1.00  0.00     0.074 A 
ATOM     37  C   UNL A   1      40.873  28.035  28.619  1.00  0.00     0.049 A 
ATOM     38  N   UNL A   1      41.501  29.132  31.673  1.00  0.00    -0.248 NA
ATOM     39  C   UNL A   1      39.524  27.944  31.906  1.00  0.00     0.031 C 
ATOM     40  C   UNL A   1      40.515  27.897  27.206  1.00  0.00     0.029 A 
ATOM     41  N   UNL A   1      41.976  27.244  28.724  1.00  0.00    -0.354 N 
ATOM     42  C   UNL A   1      41.375  28.703  32.988  1.00  0.00     0.074 A 
ATOM     43  C   UNL A   1      40.041  28.185  33.112  1.00  0.00     0.031 C 
ATOM     44  C   UNL A   1      41.251  26.903  26.650  1.00  0.00     0.029 A 
ATOM     45  C   UNL A   1      42.219  26.422  27.625  1.00  0.00     0.049 A 
ATOM     46  H   UNL A   1      42.560  27.253  29.517  1.00  0.00     0.167 HD
ATOM     47  C   UNL A   1      42.472  28.567  33.780  1.00  0.00     0.034 A 
ATOM     48  C   UNL A   1      43.120  25.397  27.547  1.00  0.00     0.034 A 
ATOM     49  C   UNL A   1      43.606  29.263  33.212  1.00  0.00     0.049 A 
ATOM     50  C   UNL A   1      44.139  25.655  28.598  1.00  0.00     0.074 A 
ATOM     51  C   UNL A   1      43.865  30.579  32.880  1.00  0.00     0.029 A 
ATOM     52  N   UNL A   1      44.533  28.514  32.521  1.00  0.00    -0.354 N 
ATOM     53  N   UNL A   1      44.951  26.677  28.561  1.00  0.00    -0.248 NA
ATOM     54  C   UNL A   1      43.906  25.101  29.925  1.00  0.00     0.031 C 
ATOM     55  C   UNL A   1      44.579  30.511  31.647  1.00  0.00     0.029 A 
ATOM     56  C   UNL A   1      44.804  29.166  31.342  1.00  0.00     0.049 A 
ATOM     57  H   UNL A   1      44.931  27.664  32.819  1.00  0.00     0.167 HD
ATOM     58  C   UNL A   1      44.965  27.171  29.858  1.00  0.00     0.074 A 
ATOM     59  C   UNL A   1      44.370  26.108  30.671  1.00  0.00     0.031 C 
ATOM     60  C   UNL A   1      45.181  28.496  30.109  1.00  0.00     0.034 A 
BRANCH  47  61
ATOM     61  C   UNL A   1      42.633  27.505  34.840  1.00  0.00     0.023 A 
ATOM     62  C   UNL A   1      43.420  26.386  34.509  1.00  0.00     0.031 A 
ATOM     63  C   UNL A   1      41.843  27.379  36.005  1.00  0.00     0.131 A 
ATOM     64  C   UNL A   1      43.325  25.195  35.247  1.00  0.00     0.055 A 
ATOM     65  C   UNL A   1      41.805  26.215  36.776  1.00  0.00     0.041 A 
ATOM     66  F   UNL A   1      40.988  28.325  36.411  1.00  0.00    -0.206 F 
ATOM     67  C   UNL A   1      42.524  25.102  36.380  1.00  0.00     0.022 A 
BRANCH  64  68
ATOM     68  S   UNL A   1      44.131  23.714  34.588  1.00  0.00     0.124 S 
ATOM     69  O   UNL A   1      43.160  23.268  33.596  1.00  0.00    -0.237 OA
ATOM     70  O   UNL A   1      45.381  24.257  34.069  1.00  0.00    -0.237 OA
ATOM     71  O   UNL A   1      44.266  22.853  35.761  1.00  0.00    -0.744 OA
ENDBRANCH  64  68
ENDBRANCH  47  61
BRANCH  48  72
ATOM     72  C   UNL A   1      42.935  24.059  26.901  1.00  0.00     0.023 A 
ATOM     73  C   UNL A   1      43.820  23.524  25.931  1.00  0.00     0.031 A 
ATOM     74  C   UNL A   1      41.989  23.161  27.443  1.00  0.00     0.131 A 
ATOM     75  C   UNL A   1      43.732  22.158  25.552  1.00  0.00     0.055 A 
ATOM     76  C   UNL A   1      41.911  21.816  27.071  1.00  0.00     0.041 A 
ATOM     77  F   UNL A   1      41.157  23.538  28.427  1.00  0.00    -0.206 F 
ATOM     78  C   UNL A   1      42.789  21.305  26.130  1.00  0.00     0.022 A 
BRANCH  75  79
ATOM     79  S   UNL A   1      44.897  21.429  24.345  1.00  0.00     0.124 S 
ATOM     80  O   UNL A   1      44.593  22.173  23.129  1.00  0.00    -0.237 OA
ATOM     81  O   UNL A   1      46.193  21.689  24.961  1.00  0.00    -0.237 OA
ATOM     82  O   UNL A   1      44.514  20.016  24.308  1.00  0.00    -0.744 OA
ENDBRANCH  75  79
ENDBRANCH  48  72
BRANCH  60  83
ATOM     83  C   UNL A   1      45.683  29.374  28.976  1.00  0.00     0.023 A 
ATOM     84  C   UNL A   1      47.043  29.597  28.651  1.00  0.00     0.031 A 
ATOM     85  C   UNL A   1      44.712  29.917  28.117  1.00  0.00     0.131 A 
ATOM     86  C   UNL A   1      47.379  30.350  27.506  1.00  0.00     0.055 A 
ATOM     87  C   UNL A   1      45.049  30.638  26.973  1.00  0.00     0.041 A 
ATOM     88  F   UNL A   1      43.405  29.724  28.359  1.00  0.00    -0.206 F 
ATOM     89  C   UNL A   1      46.386  30.862  26.666  1.00  0.00     0.022 A 
BRANCH  86  90
ATOM     90  S   UNL A   1      49.121  30.705  27.095  1.00  0.00     0.124 S 
ATOM     91  O   UNL A   1      49.791  30.672  28.389  1.00  0.00    -0.237 OA
ATOM     92  O   UNL A   1      49.458  29.623  26.172  1.00  0.00    -0.237 OA
ATOM     93  O   UNL A   1      49.062  32.031  26.475  1.00  0.00    -0.744 OA
ENDBRANCH  86  90
ENDBRANCH  60  83
ENDBRANCH  34  35
ENDBRANCH  27  29
ENDBRANCH  26  27
ENDBRANCH  25  26
ENDBRANCH   1  25
TORSDOF 20
ENDMDL
