MODEL 1
REMARK VINA RESULT:     -12.2      0.000      0.000
REMARK SMILES COC(=O)c1c(NC(=O)[C@@H]2[C@H]3CC[C@H](CC3)[C@H]2C(=O)OCCOC(=O)c2ccc(-c3c4nc(c(-c5cc(S(=O)(=O)[O-])ccc5F)c5ccc([nH]5)c(-c5cc(S(=O)(=O)[O-])ccc5F)c5nc(c(-c6cc(S(=O)(=O)[O-])ccc6F)c6ccc3[nH]6)C=C5)C=C4)cc2)sc(C)c1-c1ccc(C)cc1
REMARK SMILES IDX 21 1 20 2 18 3 19 4 17 5 10 6 11 7 12 8 16 9 14 10 13 11
REMARK SMILES IDX 15 12 8 13 7 14 9 16 6 17 5 18 92 19 89 20 90 21 91 22 3 23
REMARK SMILES IDX 4 24 2 25 1 26 93 27 94 28 99 29 95 30 98 31 96 32 97 33
REMARK SMILES IDX 22 34 23 35 24 36 25 37 26 38 27 39 88 40 28 41 87 42 29 43
REMARK SMILES IDX 30 44 31 45 81 46 32 47 86 48 80 49 82 50 33 51 85 52 79 53
REMARK SMILES IDX 78 54 34 56 66 57 46 58 65 59 47 60 50 61 64 62 83 63 48 64
REMARK SMILES IDX 49 65 63 67 84 68 51 69 35 70 36 71 44 72 37 73 43 74 45 75
REMARK SMILES IDX 42 76 38 77 39 78 40 79 41 80 67 81 68 82 76 83 69 84 75 85
REMARK SMILES IDX 77 86 74 87 70 88 71 89 72 90 73 91 52 92 53 93 61 94 54 95
REMARK SMILES IDX 60 96 62 97 59 98 55 99 56 100 57 101 58 102
REMARK H PARENT 7 15 82 55 50 66
REMARK Flexibility Score: inf
ROOT
ATOM      1  C   UNL A   1      31.768  28.860  27.598  1.00  0.00     0.274 C 
ENDROOT
BRANCH   1   2
ATOM      2  O   UNL A   1      31.531  27.717  26.751  1.00  0.00    -0.462 OA
BRANCH   2   3
ATOM      3  C   UNL A   1      32.607  27.296  26.054  1.00  0.00     0.310 C 
ATOM      4  O   UNL A   1      33.763  27.345  26.473  1.00  0.00    -0.252 OA
BRANCH   3   5
ATOM      5  C   UNL A   1      32.303  26.694  24.692  1.00  0.00     0.115 C 
ATOM      6  C   UNL A   1      30.901  26.660  24.100  1.00  0.00     0.096 C 
ATOM      7  C   UNL A   1      30.893  27.547  22.813  1.00  0.00     0.002 C 
ATOM      8  C   UNL A   1      31.553  28.914  23.125  1.00  0.00     0.005 C 
ATOM      9  C   UNL A   1      31.733  26.871  21.718  1.00  0.00     0.005 C 
ATOM     10  C   UNL A   1      33.321  27.226  23.651  1.00  0.00     0.004 C 
ATOM     11  C   UNL A   1      33.040  28.725  23.470  1.00  0.00     0.005 C 
ATOM     12  C   UNL A   1      33.130  26.570  22.265  1.00  0.00     0.005 C 
BRANCH   6  13
ATOM     13  C   UNL A   1      30.189  25.299  23.794  1.00  0.00     0.229 C 
ATOM     14  N   UNL A   1      30.565  23.998  23.964  1.00  0.00    -0.317 N 
ATOM     15  H   UNL A   1      29.971  23.408  23.446  1.00  0.00     0.170 HD
ATOM     16  O   UNL A   1      29.130  25.409  23.143  1.00  0.00    -0.274 OA
BRANCH  14  17
ATOM     17  C   UNL A   1      31.518  23.237  24.634  1.00  0.00     0.111 A 
ATOM     18  C   UNL A   1      32.716  22.698  24.146  1.00  0.00     0.102 A 
ATOM     19  C   UNL A   1      33.514  22.154  25.244  1.00  0.00     0.012 A 
ATOM     20  S   UNL A   1      31.222  22.478  26.115  1.00  0.00    -0.122 S 
ATOM     21  C   UNL A   1      32.857  22.291  26.452  1.00  0.00     0.012 A 
ATOM     22  C   UNL A   1      33.281  22.128  27.870  1.00  0.00     0.057 C 
BRANCH  18  23
ATOM     23  C   UNL A   1      33.051  22.689  22.724  1.00  0.00     0.341 C 
ATOM     24  O   UNL A   1      33.955  23.362  22.257  1.00  0.00    -0.246 OA
BRANCH  23  25
ATOM     25  O   UNL A   1      32.183  21.931  22.001  1.00  0.00    -0.465 OA
ATOM     26  C   UNL A   1      32.073  20.557  22.373  1.00  0.00     0.282 C 
ENDBRANCH  23  25
ENDBRANCH  18  23
BRANCH  19  27
ATOM     27  C   UNL A   1      34.798  21.477  25.225  1.00  0.00    -0.016 A 
ATOM     28  C   UNL A   1      34.909  20.108  24.984  1.00  0.00     0.009 A 
ATOM     29  C   UNL A   1      35.953  22.257  25.388  1.00  0.00     0.009 A 
ATOM     30  C   UNL A   1      36.179  19.531  24.885  1.00  0.00     0.004 A 
ATOM     31  C   UNL A   1      37.213  21.683  25.280  1.00  0.00     0.004 A 
ATOM     32  C   UNL A   1      37.335  20.317  25.014  1.00  0.00    -0.051 A 
ATOM     33  C   UNL A   1      38.700  19.700  24.919  1.00  0.00     0.044 C 
ENDBRANCH  19  27
ENDBRANCH  14  17
ENDBRANCH   6  13
ENDBRANCH   3   5
ENDBRANCH   2   3
ENDBRANCH   1   2
BRANCH   1  34
ATOM     34  C   UNL A   1      31.679  30.158  26.799  1.00  0.00     0.275 C 
BRANCH  34  35
ATOM     35  O   UNL A   1      32.983  30.639  26.420  1.00  0.00    -0.458 OA
BRANCH  35  36
ATOM     36  C   UNL A   1      33.446  31.655  27.189  1.00  0.00     0.338 C 
ATOM     37  O   UNL A   1      32.844  32.668  27.501  1.00  0.00    -0.246 OA
BRANCH  36  38
ATOM     38  C   UNL A   1      34.792  31.340  27.690  1.00  0.00     0.060 A 
ATOM     39  C   UNL A   1      35.070  30.018  28.028  1.00  0.00     0.016 A 
ATOM     40  C   UNL A   1      35.719  32.346  27.961  1.00  0.00     0.016 A 
ATOM     41  C   UNL A   1      36.261  29.691  28.677  1.00  0.00     0.010 A 
ATOM     42  C   UNL A   1      36.927  32.014  28.590  1.00  0.00     0.010 A 
ATOM     43  C   UNL A   1      37.198  30.687  28.976  1.00  0.00    -0.014 A 
BRANCH  43  44
ATOM     44  C   UNL A   1      38.421  30.353  29.758  1.00  0.00     0.031 A 
ATOM     45  C   UNL A   1      39.423  29.377  29.201  1.00  0.00     0.074 A 
ATOM     46  C   UNL A   1      38.649  30.926  30.955  1.00  0.00     0.049 A 
ATOM     47  N   UNL A   1      40.472  28.843  29.775  1.00  0.00    -0.248 NA
ATOM     48  C   UNL A   1      39.206  28.943  27.815  1.00  0.00     0.031 C 
ATOM     49  C   UNL A   1      37.792  31.929  31.588  1.00  0.00     0.029 A 
ATOM     50  N   UNL A   1      39.665  30.734  31.860  1.00  0.00    -0.354 N 
ATOM     51  C   UNL A   1      41.023  27.981  28.832  1.00  0.00     0.074 A 
ATOM     52  C   UNL A   1      40.178  28.056  27.658  1.00  0.00     0.031 C 
ATOM     53  C   UNL A   1      38.309  32.252  32.785  1.00  0.00     0.029 A 
ATOM     54  C   UNL A   1      39.498  31.440  33.029  1.00  0.00     0.049 A 
ATOM     55  H   UNL A   1      40.437  30.148  31.689  1.00  0.00     0.167 HD
ATOM     56  C   UNL A   1      42.131  27.201  28.936  1.00  0.00     0.034 A 
ATOM     57  C   UNL A   1      40.190  31.401  34.185  1.00  0.00     0.034 A 
ATOM     58  C   UNL A   1      42.974  27.145  30.107  1.00  0.00     0.049 A 
ATOM     59  C   UNL A   1      41.377  30.480  34.308  1.00  0.00     0.074 A 
ATOM     60  C   UNL A   1      44.129  26.409  30.305  1.00  0.00     0.029 A 
ATOM     61  N   UNL A   1      42.750  27.849  31.284  1.00  0.00    -0.354 N 
ATOM     62  N   UNL A   1      41.871  29.647  33.423  1.00  0.00    -0.248 NA
ATOM     63  C   UNL A   1      42.095  30.494  35.590  1.00  0.00     0.031 C 
ATOM     64  C   UNL A   1      44.568  26.616  31.618  1.00  0.00     0.029 A 
ATOM     65  C   UNL A   1      43.728  27.539  32.221  1.00  0.00     0.049 A 
ATOM     66  H   UNL A   1      42.007  28.476  31.433  1.00  0.00     0.167 HD
ATOM     67  C   UNL A   1      42.965  29.045  34.038  1.00  0.00     0.074 A 
ATOM     68  C   UNL A   1      43.070  29.624  35.362  1.00  0.00     0.031 C 
ATOM     69  C   UNL A   1      43.810  28.101  33.549  1.00  0.00     0.034 A 
BRANCH  56  70
ATOM     70  C   UNL A   1      42.444  26.295  27.769  1.00  0.00     0.023 A 
ATOM     71  C   UNL A   1      41.892  25.008  27.653  1.00  0.00     0.031 A 
ATOM     72  C   UNL A   1      43.355  26.710  26.780  1.00  0.00     0.131 A 
ATOM     73  C   UNL A   1      42.317  24.153  26.624  1.00  0.00     0.055 A 
ATOM     74  C   UNL A   1      43.713  25.884  25.713  1.00  0.00     0.041 A 
ATOM     75  F   UNL A   1      43.929  27.922  26.845  1.00  0.00    -0.206 F 
ATOM     76  C   UNL A   1      43.208  24.590  25.641  1.00  0.00     0.022 A 
BRANCH  73  77
ATOM     77  S   UNL A   1      41.815  22.410  26.680  1.00  0.00     0.124 S 
ATOM     78  O   UNL A   1      42.322  21.917  25.402  1.00  0.00    -0.237 OA
ATOM     79  O   UNL A   1      42.501  21.925  27.873  1.00  0.00    -0.237 OA
ATOM     80  O   UNL A   1      40.358  22.477  26.781  1.00  0.00    -0.744 OA
ENDBRANCH  73  77
ENDBRANCH  56  70
BRANCH  57  81
ATOM     81  C   UNL A   1      39.728  32.202  35.353  1.00  0.00     0.023 A 
ATOM     82  C   UNL A   1      40.154  33.524  35.549  1.00  0.00     0.031 A 
ATOM     83  C   UNL A   1      38.862  31.635  36.306  1.00  0.00     0.131 A 
ATOM     84  C   UNL A   1      39.733  34.229  36.688  1.00  0.00     0.055 A 
ATOM     85  C   UNL A   1      38.414  32.354  37.414  1.00  0.00     0.041 A 
ATOM     86  F   UNL A   1      38.424  30.374  36.159  1.00  0.00    -0.206 F 
ATOM     87  C   UNL A   1      38.857  33.657  37.615  1.00  0.00     0.022 A 
BRANCH  84  88
ATOM     88  S   UNL A   1      40.382  35.899  36.966  1.00  0.00     0.124 S 
ATOM     89  O   UNL A   1      39.914  36.181  38.318  1.00  0.00    -0.237 OA
ATOM     90  O   UNL A   1      41.820  35.694  36.814  1.00  0.00    -0.237 OA
ATOM     91  O   UNL A   1      39.755  36.690  35.910  1.00  0.00    -0.744 OA
ENDBRANCH  84  88
ENDBRANCH  57  81
BRANCH  69  92
ATOM     92  C   UNL A   1      44.942  27.663  34.448  1.00  0.00     0.023 A 
ATOM     93  C   UNL A   1      44.808  26.580  35.333  1.00  0.00     0.031 A 
ATOM     94  C   UNL A   1      46.167  28.353  34.426  1.00  0.00     0.131 A 
ATOM     95  C   UNL A   1      45.865  26.247  36.197  1.00  0.00     0.055 A 
ATOM     96  C   UNL A   1      47.233  27.985  35.249  1.00  0.00     0.041 A 
ATOM     97  F   UNL A   1      46.348  29.398  33.602  1.00  0.00    -0.206 F 
ATOM     98  C   UNL A   1      47.081  26.934  36.149  1.00  0.00     0.022 A 
BRANCH  95  99
ATOM     99  S   UNL A   1      45.603  24.955  37.442  1.00  0.00     0.124 S 
ATOM    100  O   UNL A   1      44.149  24.946  37.571  1.00  0.00    -0.237 OA
ATOM    101  O   UNL A   1      46.194  23.782  36.805  1.00  0.00    -0.237 OA
ATOM    102  O   UNL A   1      46.325  25.453  38.612  1.00  0.00    -0.744 OA
ENDBRANCH  95  99
ENDBRANCH  69  92
ENDBRANCH  43  44
ENDBRANCH  36  38
ENDBRANCH  35  36
ENDBRANCH  34  35
ENDBRANCH   1  34
TORSDOF 19
ENDMDL
MODEL 2
REMARK VINA RESULT:     -12.2      4.452      9.891
REMARK SMILES COC(=O)c1c(NC(=O)[C@@H]2[C@H]3CC[C@H](CC3)[C@H]2C(=O)OCCOC(=O)c2ccc(-c3c4nc(c(-c5cc(S(=O)(=O)[O-])ccc5F)c5ccc([nH]5)c(-c5cc(S(=O)(=O)[O-])ccc5F)c5nc(c(-c6cc(S(=O)(=O)[O-])ccc6F)c6ccc3[nH]6)C=C5)C=C4)cc2)sc(C)c1-c1ccc(C)cc1
REMARK SMILES IDX 21 1 20 2 18 3 19 4 17 5 10 6 11 7 12 8 16 9 14 10 13 11
REMARK SMILES IDX 15 12 8 13 7 14 9 16 6 17 5 18 92 19 89 20 90 21 91 22 3 23
REMARK SMILES IDX 4 24 2 25 1 26 93 27 94 28 99 29 95 30 98 31 96 32 97 33
REMARK SMILES IDX 22 34 23 35 24 36 25 37 26 38 27 39 88 40 28 41 87 42 29 43
REMARK SMILES IDX 30 44 31 45 81 46 32 47 86 48 80 49 82 50 33 51 85 52 79 53
REMARK SMILES IDX 78 54 34 56 66 57 46 58 65 59 47 60 50 61 64 62 83 63 48 64
REMARK SMILES IDX 49 65 63 67 84 68 51 69 35 70 36 71 44 72 37 73 43 74 45 75
REMARK SMILES IDX 42 76 38 77 39 78 40 79 41 80 67 81 68 82 76 83 69 84 75 85
REMARK SMILES IDX 77 86 74 87 70 88 71 89 72 90 73 91 52 92 53 93 61 94 54 95
REMARK SMILES IDX 60 96 62 97 59 98 55 99 56 100 57 101 58 102
REMARK H PARENT 7 15 82 55 50 66
REMARK Flexibility Score: inf
ROOT
ATOM      1  C   UNL A   1      36.474  19.551  24.814  1.00  0.00     0.274 C 
ENDROOT
BRANCH   1   2
ATOM      2  O   UNL A   1      35.568  20.336  25.614  1.00  0.00    -0.462 OA
BRANCH   2   3
ATOM      3  C   UNL A   1      34.480  20.792  24.957  1.00  0.00     0.310 C 
ATOM      4  O   UNL A   1      33.503  20.100  24.677  1.00  0.00    -0.252 OA
BRANCH   3   5
ATOM      5  C   UNL A   1      34.508  22.270  24.604  1.00  0.00     0.115 C 
ATOM      6  C   UNL A   1      33.255  23.057  24.247  1.00  0.00     0.096 C 
ATOM      7  C   UNL A   1      33.035  24.149  25.343  1.00  0.00     0.002 C 
ATOM      8  C   UNL A   1      33.152  23.502  26.746  1.00  0.00     0.005 C 
ATOM      9  C   UNL A   1      34.138  25.214  25.235  1.00  0.00     0.005 C 
ATOM     10  C   UNL A   1      35.353  23.038  25.653  1.00  0.00     0.004 C 
ATOM     11  C   UNL A   1      34.581  22.984  26.980  1.00  0.00     0.005 C 
ATOM     12  C   UNL A   1      35.508  24.532  25.293  1.00  0.00     0.005 C 
BRANCH   6  13
ATOM     13  C   UNL A   1      33.087  23.704  22.831  1.00  0.00     0.229 C 
ATOM     14  N   UNL A   1      32.233  24.647  22.337  1.00  0.00    -0.317 N 
ATOM     15  H   UNL A   1      32.257  24.638  21.354  1.00  0.00     0.170 HD
ATOM     16  O   UNL A   1      33.769  23.162  21.936  1.00  0.00    -0.274 OA
BRANCH  14  17
ATOM     17  C   UNL A   1      31.339  25.619  22.778  1.00  0.00     0.111 A 
ATOM     18  C   UNL A   1      31.413  27.011  22.636  1.00  0.00     0.102 A 
ATOM     19  C   UNL A   1      30.157  27.632  23.055  1.00  0.00     0.012 A 
ATOM     20  S   UNL A   1      30.141  25.319  23.931  1.00  0.00    -0.122 S 
ATOM     21  C   UNL A   1      29.259  26.684  23.505  1.00  0.00     0.012 A 
ATOM     22  C   UNL A   1      27.805  26.724  23.823  1.00  0.00     0.057 C 
BRANCH  18  23
ATOM     23  C   UNL A   1      32.613  27.690  22.154  1.00  0.00     0.341 C 
ATOM     24  O   UNL A   1      33.438  27.141  21.441  1.00  0.00    -0.246 OA
BRANCH  23  25
ATOM     25  O   UNL A   1      32.735  28.941  22.674  1.00  0.00    -0.465 OA
ATOM     26  C   UNL A   1      33.830  29.158  23.565  1.00  0.00     0.282 C 
ENDBRANCH  23  25
ENDBRANCH  18  23
BRANCH  19  27
ATOM     27  C   UNL A   1      29.777  29.032  23.115  1.00  0.00    -0.016 A 
ATOM     28  C   UNL A   1      30.086  29.836  24.211  1.00  0.00     0.009 A 
ATOM     29  C   UNL A   1      29.141  29.587  21.995  1.00  0.00     0.009 A 
ATOM     30  C   UNL A   1      29.775  31.200  24.169  1.00  0.00     0.004 A 
ATOM     31  C   UNL A   1      28.841  30.942  21.952  1.00  0.00     0.004 A 
ATOM     32  C   UNL A   1      29.169  31.762  23.034  1.00  0.00    -0.051 A 
ATOM     33  C   UNL A   1      28.826  33.222  22.990  1.00  0.00     0.044 C 
ENDBRANCH  19  27
ENDBRANCH  14  17
ENDBRANCH   6  13
ENDBRANCH   3   5
ENDBRANCH   2   3
ENDBRANCH   1   2
BRANCH   1  34
ATOM     34  C   UNL A   1      37.780  20.305  24.574  1.00  0.00     0.275 C 
BRANCH  34  35
ATOM     35  O   UNL A   1      38.104  21.171  25.679  1.00  0.00    -0.458 OA
BRANCH  35  36
ATOM     36  C   UNL A   1      39.352  20.992  26.178  1.00  0.00     0.338 C 
ATOM     37  O   UNL A   1      40.037  19.988  26.091  1.00  0.00    -0.246 OA
BRANCH  36  38
ATOM     38  C   UNL A   1      39.836  22.237  26.794  1.00  0.00     0.060 A 
ATOM     39  C   UNL A   1      39.335  23.443  26.309  1.00  0.00     0.016 A 
ATOM     40  C   UNL A   1      40.868  22.229  27.731  1.00  0.00     0.016 A 
ATOM     41  C   UNL A   1      39.888  24.654  26.725  1.00  0.00     0.010 A 
ATOM     42  C   UNL A   1      41.406  23.448  28.169  1.00  0.00     0.010 A 
ATOM     43  C   UNL A   1      40.938  24.670  27.651  1.00  0.00    -0.014 A 
BRANCH  43  44
ATOM     44  C   UNL A   1      41.593  25.957  28.017  1.00  0.00     0.031 A 
ATOM     45  C   UNL A   1      40.812  27.014  28.750  1.00  0.00     0.074 A 
ATOM     46  C   UNL A   1      42.885  26.181  27.710  1.00  0.00     0.049 A 
ATOM     47  N   UNL A   1      41.145  28.248  29.034  1.00  0.00    -0.248 NA
ATOM     48  C   UNL A   1      39.475  26.626  29.219  1.00  0.00     0.031 C 
ATOM     49  C   UNL A   1      43.775  25.224  27.053  1.00  0.00     0.029 A 
ATOM     50  N   UNL A   1      43.670  27.293  27.899  1.00  0.00    -0.354 N 
ATOM     51  C   UNL A   1      40.045  28.798  29.685  1.00  0.00     0.074 A 
ATOM     52  C   UNL A   1      39.032  27.763  29.735  1.00  0.00     0.031 C 
ATOM     53  C   UNL A   1      44.978  25.796  26.877  1.00  0.00     0.029 A 
ATOM     54  C   UNL A   1      44.928  27.175  27.357  1.00  0.00     0.049 A 
ATOM     55  H   UNL A   1      43.361  28.097  28.376  1.00  0.00     0.167 HD
ATOM     56  C   UNL A   1      39.894  30.049  30.193  1.00  0.00     0.034 A 
ATOM     57  C   UNL A   1      45.913  28.084  27.214  1.00  0.00     0.034 A 
ATOM     58  C   UNL A   1      40.916  31.069  30.149  1.00  0.00     0.049 A 
ATOM     59  C   UNL A   1      45.704  29.488  27.722  1.00  0.00     0.074 A 
ATOM     60  C   UNL A   1      40.872  32.357  30.655  1.00  0.00     0.029 A 
ATOM     61  N   UNL A   1      42.165  30.920  29.559  1.00  0.00    -0.354 N 
ATOM     62  N   UNL A   1      44.651  30.007  28.308  1.00  0.00    -0.248 NA
ATOM     63  C   UNL A   1      46.820  30.428  27.546  1.00  0.00     0.031 C 
ATOM     64  C   UNL A   1      42.066  33.006  30.317  1.00  0.00     0.029 A 
ATOM     65  C   UNL A   1      42.886  32.103  29.661  1.00  0.00     0.049 A 
ATOM     66  H   UNL A   1      42.491  30.097  29.130  1.00  0.00     0.167 HD
ATOM     67  C   UNL A   1      44.981  31.331  28.579  1.00  0.00     0.074 A 
ATOM     68  C   UNL A   1      46.337  31.527  28.110  1.00  0.00     0.031 C 
ATOM     69  C   UNL A   1      44.230  32.298  29.167  1.00  0.00     0.034 A 
BRANCH  56  70
ATOM     70  C   UNL A   1      38.544  30.395  30.776  1.00  0.00     0.023 A 
ATOM     71  C   UNL A   1      37.543  31.027  30.018  1.00  0.00     0.031 A 
ATOM     72  C   UNL A   1      38.275  30.133  32.132  1.00  0.00     0.131 A 
ATOM     73  C   UNL A   1      36.357  31.450  30.639  1.00  0.00     0.055 A 
ATOM     74  C   UNL A   1      37.060  30.484  32.724  1.00  0.00     0.041 A 
ATOM     75  F   UNL A   1      39.198  29.548  32.912  1.00  0.00    -0.206 F 
ATOM     76  C   UNL A   1      36.100  31.164  31.982  1.00  0.00     0.022 A 
BRANCH  73  77
ATOM     77  S   UNL A   1      35.225  32.521  29.709  1.00  0.00     0.124 S 
ATOM     78  O   UNL A   1      36.129  33.565  29.236  1.00  0.00    -0.237 OA
ATOM     79  O   UNL A   1      34.703  31.615  28.690  1.00  0.00    -0.237 OA
ATOM     80  O   UNL A   1      34.257  32.952  30.716  1.00  0.00    -0.744 OA
ENDBRANCH  73  77
ENDBRANCH  56  70
BRANCH  57  81
ATOM     81  C   UNL A   1      47.158  27.720  26.483  1.00  0.00     0.023 A 
ATOM     82  C   UNL A   1      47.259  27.862  25.091  1.00  0.00     0.031 A 
ATOM     83  C   UNL A   1      48.264  27.199  27.179  1.00  0.00     0.131 A 
ATOM     84  C   UNL A   1      48.433  27.462  24.435  1.00  0.00     0.055 A 
ATOM     85  C   UNL A   1      49.444  26.841  26.526  1.00  0.00     0.041 A 
ATOM     86  F   UNL A   1      48.217  27.047  28.513  1.00  0.00    -0.206 F 
ATOM     87  C   UNL A   1      49.530  26.964  25.143  1.00  0.00     0.022 A 
BRANCH  84  88
ATOM     88  S   UNL A   1      48.495  27.562  22.625  1.00  0.00     0.124 S 
ATOM     89  O   UNL A   1      49.756  28.262  22.406  1.00  0.00    -0.237 OA
ATOM     90  O   UNL A   1      48.467  26.154  22.243  1.00  0.00    -0.237 OA
ATOM     91  O   UNL A   1      47.293  28.320  22.284  1.00  0.00    -0.744 OA
ENDBRANCH  84  88
ENDBRANCH  57  81
BRANCH  69  92
ATOM     92  C   UNL A   1      44.881  33.647  29.363  1.00  0.00     0.023 A 
ATOM     93  C   UNL A   1      45.614  33.952  30.523  1.00  0.00     0.031 A 
ATOM     94  C   UNL A   1      44.750  34.643  28.381  1.00  0.00     0.131 A 
ATOM     95  C   UNL A   1      46.150  35.240  30.692  1.00  0.00     0.055 A 
ATOM     96  C   UNL A   1      45.328  35.905  28.531  1.00  0.00     0.041 A 
ATOM     97  F   UNL A   1      44.056  34.406  27.256  1.00  0.00    -0.206 F 
ATOM     98  C   UNL A   1      46.023  36.212  29.697  1.00  0.00     0.022 A 
BRANCH  95  99
ATOM     99  S   UNL A   1      46.946  35.656  32.268  1.00  0.00     0.124 S 
ATOM    100  O   UNL A   1      45.992  35.129  33.239  1.00  0.00    -0.237 OA
ATOM    101  O   UNL A   1      48.217  34.946  32.173  1.00  0.00    -0.237 OA
ATOM    102  O   UNL A   1      47.047  37.114  32.228  1.00  0.00    -0.744 OA
ENDBRANCH  95  99
ENDBRANCH  69  92
ENDBRANCH  43  44
ENDBRANCH  36  38
ENDBRANCH  35  36
ENDBRANCH  34  35
ENDBRANCH   1  34
TORSDOF 19
ENDMDL
MODEL 3
REMARK VINA RESULT:     -12.1      4.704      8.103
REMARK SMILES COC(=O)c1c(NC(=O)[C@@H]2[C@H]3CC[C@H](CC3)[C@H]2C(=O)OCCOC(=O)c2ccc(-c3c4nc(c(-c5cc(S(=O)(=O)[O-])ccc5F)c5ccc([nH]5)c(-c5cc(S(=O)(=O)[O-])ccc5F)c5nc(c(-c6cc(S(=O)(=O)[O-])ccc6F)c6ccc3[nH]6)C=C5)C=C4)cc2)sc(C)c1-c1ccc(C)cc1
REMARK SMILES IDX 21 1 20 2 18 3 19 4 17 5 10 6 11 7 12 8 16 9 14 10 13 11
REMARK SMILES IDX 15 12 8 13 7 14 9 16 6 17 5 18 92 19 89 20 90 21 91 22 3 23
REMARK SMILES IDX 4 24 2 25 1 26 93 27 94 28 99 29 95 30 98 31 96 32 97 33
REMARK SMILES IDX 22 34 23 35 24 36 25 37 26 38 27 39 88 40 28 41 87 42 29 43
REMARK SMILES IDX 30 44 31 45 81 46 32 47 86 48 80 49 82 50 33 51 85 52 79 53
REMARK SMILES IDX 78 54 34 56 66 57 46 58 65 59 47 60 50 61 64 62 83 63 48 64
REMARK SMILES IDX 49 65 63 67 84 68 51 69 35 70 36 71 44 72 37 73 43 74 45 75
REMARK SMILES IDX 42 76 38 77 39 78 40 79 41 80 67 81 68 82 76 83 69 84 75 85
REMARK SMILES IDX 77 86 74 87 70 88 71 89 72 90 73 91 52 92 53 93 61 94 54 95
REMARK SMILES IDX 60 96 62 97 59 98 55 99 56 100 57 101 58 102
REMARK H PARENT 7 15 82 55 50 66
REMARK Flexibility Score: inf
ROOT
ATOM      1  C   UNL A   1      36.773  20.245  24.453  1.00  0.00     0.274 C 
ENDROOT
BRANCH   1   2
ATOM      2  O   UNL A   1      35.651  19.850  25.267  1.00  0.00    -0.462 OA
BRANCH   2   3
ATOM      3  C   UNL A   1      34.508  20.526  25.024  1.00  0.00     0.310 C 
ATOM      4  O   UNL A   1      33.396  20.004  24.961  1.00  0.00    -0.252 OA
BRANCH   3   5
ATOM      5  C   UNL A   1      34.666  22.030  24.870  1.00  0.00     0.115 C 
ATOM      6  C   UNL A   1      33.522  22.940  24.442  1.00  0.00     0.096 C 
ATOM      7  C   UNL A   1      33.199  23.908  25.625  1.00  0.00     0.002 C 
ATOM      8  C   UNL A   1      33.072  23.093  26.937  1.00  0.00     0.005 C 
ATOM      9  C   UNL A   1      34.360  24.898  25.810  1.00  0.00     0.005 C 
ATOM     10  C   UNL A   1      35.384  22.608  26.116  1.00  0.00     0.004 C 
ATOM     11  C   UNL A   1      34.421  22.452  27.303  1.00  0.00     0.005 C 
ATOM     12  C   UNL A   1      35.668  24.120  25.974  1.00  0.00     0.005 C 
BRANCH   6  13
ATOM     13  C   UNL A   1      33.601  23.760  23.110  1.00  0.00     0.229 C 
ATOM     14  N   UNL A   1      32.830  24.757  22.587  1.00  0.00    -0.317 N 
ATOM     15  H   UNL A   1      33.034  24.871  21.631  1.00  0.00     0.170 HD
ATOM     16  O   UNL A   1      34.448  23.335  22.296  1.00  0.00    -0.274 OA
BRANCH  14  17
ATOM     17  C   UNL A   1      31.848  25.665  22.972  1.00  0.00     0.111 A 
ATOM     18  C   UNL A   1      31.824  27.057  22.809  1.00  0.00     0.102 A 
ATOM     19  C   UNL A   1      30.508  27.588  23.162  1.00  0.00     0.012 A 
ATOM     20  S   UNL A   1      30.625  25.293  24.077  1.00  0.00    -0.122 S 
ATOM     21  C   UNL A   1      29.664  26.581  23.589  1.00  0.00     0.012 A 
ATOM     22  C   UNL A   1      28.198  26.517  23.844  1.00  0.00     0.057 C 
BRANCH  18  23
ATOM     23  C   UNL A   1      32.991  27.817  22.367  1.00  0.00     0.341 C 
ATOM     24  O   UNL A   1      33.694  27.461  21.435  1.00  0.00    -0.246 OA
BRANCH  23  25
ATOM     25  O   UNL A   1      33.239  28.885  23.173  1.00  0.00    -0.465 OA
ATOM     26  C   UNL A   1      33.776  28.597  24.465  1.00  0.00     0.282 C 
ENDBRANCH  23  25
ENDBRANCH  18  23
BRANCH  19  27
ATOM     27  C   UNL A   1      30.023  28.956  23.181  1.00  0.00    -0.016 A 
ATOM     28  C   UNL A   1      30.208  29.792  24.281  1.00  0.00     0.009 A 
ATOM     29  C   UNL A   1      29.412  29.451  22.019  1.00  0.00     0.009 A 
ATOM     30  C   UNL A   1      29.801  31.128  24.203  1.00  0.00     0.004 A 
ATOM     31  C   UNL A   1      29.017  30.780  21.941  1.00  0.00     0.004 A 
ATOM     32  C   UNL A   1      29.221  31.632  23.028  1.00  0.00    -0.051 A 
ATOM     33  C   UNL A   1      28.773  33.062  22.944  1.00  0.00     0.044 C 
ENDBRANCH  19  27
ENDBRANCH  14  17
ENDBRANCH   6  13
ENDBRANCH   3   5
ENDBRANCH   2   3
ENDBRANCH   1   2
BRANCH   1  34
ATOM     34  C   UNL A   1      38.080  20.125  25.234  1.00  0.00     0.275 C 
BRANCH  34  35
ATOM     35  O   UNL A   1      38.556  21.411  25.675  1.00  0.00    -0.458 OA
BRANCH  35  36
ATOM     36  C   UNL A   1      39.639  21.354  26.489  1.00  0.00     0.338 C 
ATOM     37  O   UNL A   1      40.322  20.374  26.729  1.00  0.00    -0.246 OA
BRANCH  36  38
ATOM     38  C   UNL A   1      39.954  22.693  27.009  1.00  0.00     0.060 A 
ATOM     39  C   UNL A   1      39.368  23.791  26.383  1.00  0.00     0.016 A 
ATOM     40  C   UNL A   1      40.917  22.879  27.999  1.00  0.00     0.016 A 
ATOM     41  C   UNL A   1      39.769  25.086  26.710  1.00  0.00     0.010 A 
ATOM     42  C   UNL A   1      41.302  24.182  28.347  1.00  0.00     0.010 A 
ATOM     43  C   UNL A   1      40.748  25.297  27.688  1.00  0.00    -0.014 A 
BRANCH  43  44
ATOM     44  C   UNL A   1      41.247  26.673  27.965  1.00  0.00     0.031 A 
ATOM     45  C   UNL A   1      42.664  27.041  27.615  1.00  0.00     0.074 A 
ATOM     46  C   UNL A   1      40.438  27.598  28.516  1.00  0.00     0.049 A 
ATOM     47  N   UNL A   1      43.336  28.128  27.899  1.00  0.00    -0.248 NA
ATOM     48  C   UNL A   1      43.422  26.046  26.846  1.00  0.00     0.031 C 
ATOM     49  C   UNL A   1      39.030  27.395  28.853  1.00  0.00     0.029 A 
ATOM     50  N   UNL A   1      40.692  28.893  28.901  1.00  0.00    -0.354 N 
ATOM     51  C   UNL A   1      44.610  27.935  27.375  1.00  0.00     0.074 A 
ATOM     52  C   UNL A   1      44.615  26.618  26.771  1.00  0.00     0.031 C 
ATOM     53  C   UNL A   1      38.548  28.519  29.411  1.00  0.00     0.029 A 
ATOM     54  C   UNL A   1      39.625  29.499  29.522  1.00  0.00     0.049 A 
ATOM     55  H   UNL A   1      41.555  29.342  28.748  1.00  0.00     0.167 HD
ATOM     56  C   UNL A   1      45.676  28.777  27.395  1.00  0.00     0.034 A 
ATOM     57  C   UNL A   1      39.535  30.685  30.156  1.00  0.00     0.034 A 
ATOM     58  C   UNL A   1      45.655  30.095  27.989  1.00  0.00     0.049 A 
ATOM     59  C   UNL A   1      40.746  31.580  30.229  1.00  0.00     0.074 A 
ATOM     60  C   UNL A   1      46.670  31.034  28.040  1.00  0.00     0.029 A 
ATOM     61  N   UNL A   1      44.564  30.658  28.640  1.00  0.00    -0.354 N 
ATOM     62  N   UNL A   1      41.954  31.376  29.758  1.00  0.00    -0.248 NA
ATOM     63  C   UNL A   1      40.579  32.864  30.923  1.00  0.00     0.031 C 
ATOM     64  C   UNL A   1      46.217  32.136  28.776  1.00  0.00     0.029 A 
ATOM     65  C   UNL A   1      44.893  31.918  29.124  1.00  0.00     0.049 A 
ATOM     66  H   UNL A   1      43.686  30.227  28.744  1.00  0.00     0.167 HD
ATOM     67  C   UNL A   1      42.687  32.511  30.090  1.00  0.00     0.074 A 
ATOM     68  C   UNL A   1      41.783  33.404  30.785  1.00  0.00     0.031 C 
ATOM     69  C   UNL A   1      43.993  32.791  29.839  1.00  0.00     0.034 A 
BRANCH  56  70
ATOM     70  C   UNL A   1      46.971  28.261  26.815  1.00  0.00     0.023 A 
ATOM     71  C   UNL A   1      47.220  28.252  25.432  1.00  0.00     0.031 A 
ATOM     72  C   UNL A   1      47.955  27.719  27.664  1.00  0.00     0.131 A 
ATOM     73  C   UNL A   1      48.380  27.639  24.933  1.00  0.00     0.055 A 
ATOM     74  C   UNL A   1      49.144  27.184  27.165  1.00  0.00     0.041 A 
ATOM     75  F   UNL A   1      47.768  27.684  28.992  1.00  0.00    -0.206 F 
ATOM     76  C   UNL A   1      49.354  27.124  25.792  1.00  0.00     0.022 A 
BRANCH  73  77
ATOM     77  S   UNL A   1      48.523  27.380  23.143  1.00  0.00     0.124 S 
ATOM     78  O   UNL A   1      49.843  27.943  22.869  1.00  0.00    -0.237 OA
ATOM     79  O   UNL A   1      48.408  25.930  23.027  1.00  0.00    -0.237 OA
ATOM     80  O   UNL A   1      47.402  28.142  22.596  1.00  0.00    -0.744 OA
ENDBRANCH  73  77
ENDBRANCH  56  70
BRANCH  57  81
ATOM     81  C   UNL A   1      38.271  31.062  30.848  1.00  0.00     0.023 A 
ATOM     82  C   UNL A   1      37.256  31.768  30.186  1.00  0.00     0.031 A 
ATOM     83  C   UNL A   1      38.077  30.733  32.202  1.00  0.00     0.131 A 
ATOM     84  C   UNL A   1      36.101  32.146  30.887  1.00  0.00     0.055 A 
ATOM     85  C   UNL A   1      36.908  31.075  32.883  1.00  0.00     0.041 A 
ATOM     86  F   UNL A   1      39.018  30.054  32.877  1.00  0.00    -0.206 F 
ATOM     87  C   UNL A   1      35.915  31.794  32.227  1.00  0.00     0.022 A 
BRANCH  84  88
ATOM     88  S   UNL A   1      34.853  33.146  30.033  1.00  0.00     0.124 S 
ATOM     89  O   UNL A   1      34.043  33.629  31.145  1.00  0.00    -0.237 OA
ATOM     90  O   UNL A   1      35.676  34.145  29.357  1.00  0.00    -0.237 OA
ATOM     91  O   UNL A   1      34.193  32.188  29.149  1.00  0.00    -0.744 OA
ENDBRANCH  84  88
ENDBRANCH  57  81
BRANCH  69  92
ATOM     92  C   UNL A   1      44.504  34.137  30.294  1.00  0.00     0.023 A 
ATOM     93  C   UNL A   1      44.258  35.309  29.558  1.00  0.00     0.031 A 
ATOM     94  C   UNL A   1      45.261  34.243  31.474  1.00  0.00     0.131 A 
ATOM     95  C   UNL A   1      44.806  36.531  29.984  1.00  0.00     0.055 A 
ATOM     96  C   UNL A   1      45.759  35.468  31.920  1.00  0.00     0.041 A 
ATOM     97  F   UNL A   1      45.529  33.154  32.213  1.00  0.00    -0.206 F 
ATOM     98  C   UNL A   1      45.543  36.618  31.169  1.00  0.00     0.022 A 
BRANCH  95  99
ATOM     99  S   UNL A   1      44.614  37.992  28.927  1.00  0.00     0.124 S 
ATOM    100  O   UNL A   1      45.870  38.699  29.154  1.00  0.00    -0.237 OA
ATOM    101  O   UNL A   1      44.444  37.402  27.604  1.00  0.00    -0.237 OA
ATOM    102  O   UNL A   1      43.426  38.653  29.467  1.00  0.00    -0.744 OA
ENDBRANCH  95  99
ENDBRANCH  69  92
ENDBRANCH  43  44
ENDBRANCH  36  38
ENDBRANCH  35  36
ENDBRANCH  34  35
ENDBRANCH   1  34
TORSDOF 19
ENDMDL
