MODEL 1
REMARK VINA RESULT:     -10.9      0.000      0.000
REMARK SMILES CCC[NH+]1CCN(c2cc(C(=O)OCCOC(=O)c3ccc(-c4c5nc(c(-c6cc(S(=O)(=O)[O-])ccc6F)c6ccc([nH]6)c(-c6cc(S(=O)(=O)[O-])ccc6F)c6nc(c(-c7cc(S(=O)(=O)[O-])ccc7F)c7ccc4[nH]7)C=C6)C=C5)cc3)c3cc(NC(=O)c4ccc(F)cc4)ccc3n2)CC1
REMARK SMILES IDX 14 1 13 2 11 3 12 4 10 5 8 6 9 7 98 8 97 9 82 10 96 11 83 12
REMARK SMILES IDX 95 13 84 14 7 15 4 16 5 17 100 18 6 20 99 21 3 22 2 23 1 24
REMARK SMILES IDX 85 25 86 26 87 28 88 29 89 30 94 31 90 32 93 33 91 34 92 35
REMARK SMILES IDX 15 36 16 37 17 38 18 39 19 40 20 41 81 42 21 43 80 44 22 45
REMARK SMILES IDX 23 46 24 47 74 48 25 49 79 50 73 51 75 52 26 53 78 54 72 55
REMARK SMILES IDX 71 56 27 58 59 59 39 60 58 61 40 62 43 63 57 64 76 65 41 66
REMARK SMILES IDX 42 67 56 69 77 70 44 71 28 72 29 73 37 74 30 75 36 76 38 77
REMARK SMILES IDX 35 78 31 79 32 80 33 81 34 82 60 83 61 84 69 85 62 86 68 87
REMARK SMILES IDX 70 88 67 89 63 90 64 91 65 92 66 93 45 94 46 95 54 96 47 97
REMARK SMILES IDX 53 98 55 99 52 100 48 101 49 102 50 103 51 104
REMARK H PARENT 4 19 85 27 75 57 43 68
REMARK Flexibility Score: inf
ROOT
ATOM      1  C   UNL A   1      34.019  35.333  28.033  1.00  0.00     0.275 C 
ENDROOT
BRANCH   1   2
ATOM      2  O   UNL A   1      34.248  33.944  28.349  1.00  0.00    -0.458 OA
BRANCH   2   3
ATOM      3  C   UNL A   1      33.351  33.069  27.833  1.00  0.00     0.339 C 
ATOM      4  O   UNL A   1      32.238  33.342  27.413  1.00  0.00    -0.246 OA
BRANCH   3   5
ATOM      5  C   UNL A   1      33.908  31.701  27.756  1.00  0.00     0.073 A 
ATOM      6  C   UNL A   1      35.710  30.239  28.351  1.00  0.00     0.130 A 
ATOM      7  C   UNL A   1      35.087  31.464  28.468  1.00  0.00     0.063 A 
ATOM      8  N   UNL A   1      35.284  29.329  27.458  1.00  0.00    -0.231 NA
ATOM      9  C   UNL A   1      34.166  29.555  26.759  1.00  0.00     0.074 A 
ATOM     10  C   UNL A   1      33.387  30.714  26.898  1.00  0.00     0.017 A 
ATOM     11  C   UNL A   1      33.768  28.587  25.855  1.00  0.00     0.031 A 
ATOM     12  C   UNL A   1      32.181  30.825  26.158  1.00  0.00     0.037 A 
ATOM     13  C   UNL A   1      32.611  28.732  25.085  1.00  0.00     0.028 A 
ATOM     14  C   UNL A   1      31.807  29.862  25.225  1.00  0.00     0.042 A 
BRANCH   6  15
ATOM     15  N   UNL A   1      36.753  29.878  29.160  1.00  0.00    -0.345 N 
ATOM     16  N   UNL A   1      38.907  28.867  30.855  1.00  0.00    -0.332 N 
ATOM     17  C   UNL A   1      37.522  28.989  31.335  1.00  0.00     0.284 C 
ATOM     18  C   UNL A   1      38.955  28.785  29.385  1.00  0.00     0.284 C 
ATOM     19  H   UNL A   1      39.232  27.969  31.213  1.00  0.00     0.348 HD
ATOM     20  C   UNL A   1      36.638  30.036  30.610  1.00  0.00     0.179 C 
ATOM     21  C   UNL A   1      38.095  29.798  28.597  1.00  0.00     0.179 C 
BRANCH  16  22
ATOM     22  C   UNL A   1      39.902  29.746  31.470  1.00  0.00     0.262 C 
BRANCH  22  23
ATOM     23  C   UNL A   1      39.715  30.197  32.920  1.00  0.00     0.058 C 
ATOM     24  C   UNL A   1      41.021  30.343  33.679  1.00  0.00     0.010 C 
ENDBRANCH  22  23
ENDBRANCH  16  22
ENDBRANCH   6  15
BRANCH  14  25
ATOM     25  N   UNL A   1      30.651  29.920  24.430  1.00  0.00    -0.322 N 
ATOM     26  C   UNL A   1      30.071  29.052  23.535  1.00  0.00     0.255 C 
ATOM     27  H   UNL A   1      30.149  30.760  24.536  1.00  0.00     0.170 HD
ATOM     28  O   UNL A   1      29.175  29.465  22.798  1.00  0.00    -0.269 OA
BRANCH  26  29
ATOM     29  C   UNL A   1      30.426  27.620  23.446  1.00  0.00     0.040 A 
ATOM     30  C   UNL A   1      31.344  27.231  22.462  1.00  0.00     0.017 A 
ATOM     31  C   UNL A   1      29.805  26.655  24.253  1.00  0.00     0.017 A 
ATOM     32  C   UNL A   1      31.664  25.883  22.303  1.00  0.00     0.040 A 
ATOM     33  C   UNL A   1      30.147  25.308  24.106  1.00  0.00     0.040 A 
ATOM     34  C   UNL A   1      31.061  24.935  23.126  1.00  0.00     0.123 A 
ATOM     35  F   UNL A   1      31.404  23.647  22.997  1.00  0.00    -0.207 F 
ENDBRANCH  26  29
ENDBRANCH  14  25
ENDBRANCH   3   5
ENDBRANCH   2   3
ENDBRANCH   1   2
BRANCH   1  36
ATOM     36  C   UNL A   1      33.342  36.057  29.200  1.00  0.00     0.275 C 
BRANCH  36  37
ATOM     37  O   UNL A   1      32.844  35.081  30.128  1.00  0.00    -0.458 OA
BRANCH  37  38
ATOM     38  C   UNL A   1      32.802  35.523  31.404  1.00  0.00     0.338 C 
ATOM     39  O   UNL A   1      31.862  36.037  31.982  1.00  0.00    -0.246 OA
BRANCH  38  40
ATOM     40  C   UNL A   1      33.982  34.989  32.091  1.00  0.00     0.060 A 
ATOM     41  C   UNL A   1      34.431  35.711  33.194  1.00  0.00     0.016 A 
ATOM     42  C   UNL A   1      34.668  33.866  31.643  1.00  0.00     0.016 A 
ATOM     43  C   UNL A   1      35.632  35.385  33.804  1.00  0.00     0.010 A 
ATOM     44  C   UNL A   1      35.861  33.512  32.280  1.00  0.00     0.010 A 
ATOM     45  C   UNL A   1      36.377  34.302  33.328  1.00  0.00    -0.014 A 
BRANCH  45  46
ATOM     46  C   UNL A   1      37.784  34.134  33.773  1.00  0.00     0.031 A 
ATOM     47  C   UNL A   1      38.039  33.945  35.248  1.00  0.00     0.074 A 
ATOM     48  C   UNL A   1      38.791  33.986  32.891  1.00  0.00     0.049 A 
ATOM     49  N   UNL A   1      39.167  33.939  35.905  1.00  0.00    -0.248 NA
ATOM     50  C   UNL A   1      36.852  33.724  36.093  1.00  0.00     0.031 C 
ATOM     51  C   UNL A   1      38.645  33.943  31.435  1.00  0.00     0.029 A 
ATOM     52  N   UNL A   1      40.133  33.781  33.095  1.00  0.00    -0.354 N 
ATOM     53  C   UNL A   1      38.823  33.785  37.245  1.00  0.00     0.074 A 
ATOM     54  C   UNL A   1      37.382  33.694  37.305  1.00  0.00     0.031 C 
ATOM     55  C   UNL A   1      39.841  33.684  30.882  1.00  0.00     0.029 A 
ATOM     56  C   UNL A   1      40.856  33.656  31.930  1.00  0.00     0.049 A 
ATOM     57  H   UNL A   1      40.540  33.728  33.989  1.00  0.00     0.167 HD
ATOM     58  C   UNL A   1      39.643  33.732  38.322  1.00  0.00     0.034 A 
ATOM     59  C   UNL A   1      42.189  33.581  31.736  1.00  0.00     0.034 A 
ATOM     60  C   UNL A   1      41.080  33.772  38.221  1.00  0.00     0.049 A 
ATOM     61  C   UNL A   1      43.088  33.636  32.950  1.00  0.00     0.074 A 
ATOM     62  C   UNL A   1      42.020  33.799  39.234  1.00  0.00     0.029 A 
ATOM     63  N   UNL A   1      41.786  33.763  37.023  1.00  0.00    -0.354 N 
ATOM     64  N   UNL A   1      42.759  33.660  34.223  1.00  0.00    -0.248 NA
ATOM     65  C   UNL A   1      44.534  33.676  32.703  1.00  0.00     0.031 C 
ATOM     66  C   UNL A   1      43.291  33.861  38.651  1.00  0.00     0.029 A 
ATOM     67  C   UNL A   1      43.146  33.798  37.273  1.00  0.00     0.049 A 
ATOM     68  H   UNL A   1      41.377  33.737  36.128  1.00  0.00     0.167 HD
ATOM     69  C   UNL A   1      43.959  33.697  34.925  1.00  0.00     0.074 A 
ATOM     70  C   UNL A   1      45.018  33.664  33.936  1.00  0.00     0.031 C 
ATOM     71  C   UNL A   1      44.177  33.761  36.264  1.00  0.00     0.034 A 
BRANCH  58  72
ATOM     72  C   UNL A   1      39.001  33.720  39.689  1.00  0.00     0.023 A 
ATOM     73  C   UNL A   1      38.724  32.530  40.382  1.00  0.00     0.031 A 
ATOM     74  C   UNL A   1      38.626  34.936  40.290  1.00  0.00     0.131 A 
ATOM     75  C   UNL A   1      38.038  32.580  41.607  1.00  0.00     0.055 A 
ATOM     76  C   UNL A   1      38.013  34.981  41.544  1.00  0.00     0.041 A 
ATOM     77  F   UNL A   1      38.837  36.103  39.662  1.00  0.00    -0.206 F 
ATOM     78  C   UNL A   1      37.705  33.797  42.204  1.00  0.00     0.022 A 
BRANCH  75  79
ATOM     79  S   UNL A   1      37.466  31.025  42.347  1.00  0.00     0.124 S 
ATOM     80  O   UNL A   1      36.016  31.206  42.328  1.00  0.00    -0.237 OA
ATOM     81  O   UNL A   1      37.999  30.025  41.429  1.00  0.00    -0.237 OA
ATOM     82  O   UNL A   1      38.070  31.036  43.678  1.00  0.00    -0.744 OA
ENDBRANCH  75  79
ENDBRANCH  58  72
BRANCH  59  83
ATOM     83  C   UNL A   1      42.768  33.554  30.357  1.00  0.00     0.023 A 
ATOM     84  C   UNL A   1      42.831  34.714  29.566  1.00  0.00     0.031 A 
ATOM     85  C   UNL A   1      43.193  32.344  29.775  1.00  0.00     0.131 A 
ATOM     86  C   UNL A   1      43.259  34.630  28.230  1.00  0.00     0.055 A 
ATOM     87  C   UNL A   1      43.684  32.279  28.469  1.00  0.00     0.041 A 
ATOM     88  F   UNL A   1      43.136  31.196  30.469  1.00  0.00    -0.206 F 
ATOM     89  C   UNL A   1      43.704  33.424  27.683  1.00  0.00     0.022 A 
BRANCH  86  90
ATOM     90  S   UNL A   1      43.110  36.098  27.174  1.00  0.00     0.124 S 
ATOM     91  O   UNL A   1      42.745  35.506  25.893  1.00  0.00    -0.237 OA
ATOM     92  O   UNL A   1      42.064  36.853  27.854  1.00  0.00    -0.237 OA
ATOM     93  O   UNL A   1      44.443  36.694  27.230  1.00  0.00    -0.744 OA
ENDBRANCH  86  90
ENDBRANCH  59  83
BRANCH  71  94
ATOM     94  C   UNL A   1      45.613  33.745  36.722  1.00  0.00     0.023 A 
ATOM     95  C   UNL A   1      46.284  32.543  37.002  1.00  0.00     0.031 A 
ATOM     96  C   UNL A   1      46.312  34.953  36.893  1.00  0.00     0.131 A 
ATOM     97  C   UNL A   1      47.595  32.578  37.499  1.00  0.00     0.055 A 
ATOM     98  C   UNL A   1      47.637  34.978  37.327  1.00  0.00     0.041 A 
ATOM     99  F   UNL A   1      45.716  36.129  36.636  1.00  0.00    -0.206 F 
ATOM    100  C   UNL A   1      48.281  33.786  37.647  1.00  0.00     0.022 A 
BRANCH  97 101
ATOM    101  S   UNL A   1      48.359  31.025  38.040  1.00  0.00     0.124 S 
ATOM    102  O   UNL A   1      49.396  30.829  37.031  1.00  0.00    -0.237 OA
ATOM    103  O   UNL A   1      48.828  31.358  39.381  1.00  0.00    -0.237 OA
ATOM    104  O   UNL A   1      47.257  30.066  37.990  1.00  0.00    -0.744 OA
ENDBRANCH  97 101
ENDBRANCH  71  94
ENDBRANCH  45  46
ENDBRANCH  38  40
ENDBRANCH  37  38
ENDBRANCH  36  37
ENDBRANCH   1  36
TORSDOF 19
ENDMDL
MODEL 2
REMARK VINA RESULT:     -10.9      1.820      2.123
REMARK SMILES CCC[NH+]1CCN(c2cc(C(=O)OCCOC(=O)c3ccc(-c4c5nc(c(-c6cc(S(=O)(=O)[O-])ccc6F)c6ccc([nH]6)c(-c6cc(S(=O)(=O)[O-])ccc6F)c6nc(c(-c7cc(S(=O)(=O)[O-])ccc7F)c7ccc4[nH]7)C=C6)C=C5)cc3)c3cc(NC(=O)c4ccc(F)cc4)ccc3n2)CC1
REMARK SMILES IDX 14 1 13 2 11 3 12 4 10 5 8 6 9 7 98 8 97 9 82 10 96 11 83 12
REMARK SMILES IDX 95 13 84 14 7 15 4 16 5 17 100 18 6 20 99 21 3 22 2 23 1 24
REMARK SMILES IDX 85 25 86 26 87 28 88 29 89 30 94 31 90 32 93 33 91 34 92 35
REMARK SMILES IDX 15 36 16 37 17 38 18 39 19 40 20 41 81 42 21 43 80 44 22 45
REMARK SMILES IDX 23 46 24 47 74 48 25 49 79 50 73 51 75 52 26 53 78 54 72 55
REMARK SMILES IDX 71 56 27 58 59 59 39 60 58 61 40 62 43 63 57 64 76 65 41 66
REMARK SMILES IDX 42 67 56 69 77 70 44 71 28 72 29 73 37 74 30 75 36 76 38 77
REMARK SMILES IDX 35 78 31 79 32 80 33 81 34 82 60 83 61 84 69 85 62 86 68 87
REMARK SMILES IDX 70 88 67 89 63 90 64 91 65 92 66 93 45 94 46 95 54 96 47 97
REMARK SMILES IDX 53 98 55 99 52 100 48 101 49 102 50 103 51 104
REMARK H PARENT 4 19 85 27 75 57 43 68
REMARK Flexibility Score: inf
ROOT
ATOM      1  C   UNL A   1      34.204  35.388  28.049  1.00  0.00     0.275 C 
ENDROOT
BRANCH   1   2
ATOM      2  O   UNL A   1      34.457  34.019  28.432  1.00  0.00    -0.458 OA
BRANCH   2   3
ATOM      3  C   UNL A   1      33.595  33.102  27.933  1.00  0.00     0.339 C 
ATOM      4  O   UNL A   1      32.516  33.334  27.412  1.00  0.00    -0.246 OA
BRANCH   3   5
ATOM      5  C   UNL A   1      34.148  31.732  28.019  1.00  0.00     0.073 A 
ATOM      6  C   UNL A   1      35.903  30.333  28.856  1.00  0.00     0.130 A 
ATOM      7  C   UNL A   1      35.280  31.563  28.820  1.00  0.00     0.063 A 
ATOM      8  N   UNL A   1      35.526  29.343  28.029  1.00  0.00    -0.231 NA
ATOM      9  C   UNL A   1      34.454  29.502  27.245  1.00  0.00     0.074 A 
ATOM     10  C   UNL A   1      33.674  30.669  27.227  1.00  0.00     0.017 A 
ATOM     11  C   UNL A   1      34.106  28.453  26.414  1.00  0.00     0.031 A 
ATOM     12  C   UNL A   1      32.516  30.709  26.409  1.00  0.00     0.037 A 
ATOM     13  C   UNL A   1      32.998  28.524  25.565  1.00  0.00     0.028 A 
ATOM     14  C   UNL A   1      32.193  29.663  25.549  1.00  0.00     0.042 A 
BRANCH   6  15
ATOM     15  N   UNL A   1      36.893  30.050  29.757  1.00  0.00    -0.345 N 
ATOM     16  N   UNL A   1      38.981  29.203  31.616  1.00  0.00    -0.332 N 
ATOM     17  C   UNL A   1      37.550  29.050  31.921  1.00  0.00     0.284 C 
ATOM     18  C   UNL A   1      39.209  29.298  30.165  1.00  0.00     0.284 C 
ATOM     19  H   UNL A   1      39.411  28.332  31.928  1.00  0.00     0.348 HD
ATOM     20  C   UNL A   1      36.590  30.021  31.188  1.00  0.00     0.179 C 
ATOM     21  C   UNL A   1      38.284  30.247  29.370  1.00  0.00     0.179 C 
BRANCH  16  22
ATOM     22  C   UNL A   1      39.737  30.151  32.436  1.00  0.00     0.262 C 
BRANCH  22  23
ATOM     23  C   UNL A   1      39.253  30.475  33.851  1.00  0.00     0.058 C 
ATOM     24  C   UNL A   1      40.364  30.934  34.778  1.00  0.00     0.010 C 
ENDBRANCH  22  23
ENDBRANCH  16  22
ENDBRANCH   6  15
BRANCH  14  25
ATOM     25  N   UNL A   1      31.087  29.645  24.684  1.00  0.00    -0.322 N 
ATOM     26  C   UNL A   1      30.788  28.940  23.543  1.00  0.00     0.255 C 
ATOM     27  H   UNL A   1      30.376  30.270  24.951  1.00  0.00     0.170 HD
ATOM     28  O   UNL A   1      29.835  29.301  22.850  1.00  0.00    -0.269 OA
BRANCH  26  29
ATOM     29  C   UNL A   1      31.515  27.723  23.125  1.00  0.00     0.040 A 
ATOM     30  C   UNL A   1      30.979  26.480  23.489  1.00  0.00     0.017 A 
ATOM     31  C   UNL A   1      32.750  27.792  22.464  1.00  0.00     0.017 A 
ATOM     32  C   UNL A   1      31.661  25.307  23.166  1.00  0.00     0.040 A 
ATOM     33  C   UNL A   1      33.417  26.614  22.121  1.00  0.00     0.040 A 
ATOM     34  C   UNL A   1      32.874  25.386  22.487  1.00  0.00     0.123 A 
ATOM     35  F   UNL A   1      33.504  24.256  22.143  1.00  0.00    -0.207 F 
ENDBRANCH  26  29
ENDBRANCH  14  25
ENDBRANCH   3   5
ENDBRANCH   2   3
ENDBRANCH   1   2
BRANCH   1  36
ATOM     36  C   UNL A   1      33.311  36.089  29.076  1.00  0.00     0.275 C 
BRANCH  36  37
ATOM     37  O   UNL A   1      32.786  35.107  29.984  1.00  0.00    -0.458 OA
BRANCH  37  38
ATOM     38  C   UNL A   1      32.703  35.543  31.260  1.00  0.00     0.338 C 
ATOM     39  O   UNL A   1      31.735  36.025  31.819  1.00  0.00    -0.246 OA
BRANCH  38  40
ATOM     40  C   UNL A   1      33.885  35.045  31.970  1.00  0.00     0.060 A 
ATOM     41  C   UNL A   1      34.395  35.870  32.969  1.00  0.00     0.016 A 
ATOM     42  C   UNL A   1      34.514  33.851  31.635  1.00  0.00     0.016 A 
ATOM     43  C   UNL A   1      35.603  35.568  33.578  1.00  0.00     0.010 A 
ATOM     44  C   UNL A   1      35.714  33.526  32.274  1.00  0.00     0.010 A 
ATOM     45  C   UNL A   1      36.292  34.409  33.209  1.00  0.00    -0.014 A 
BRANCH  45  46
ATOM     46  C   UNL A   1      37.706  34.237  33.631  1.00  0.00     0.031 A 
ATOM     47  C   UNL A   1      37.984  34.034  35.100  1.00  0.00     0.074 A 
ATOM     48  C   UNL A   1      38.700  34.098  32.732  1.00  0.00     0.049 A 
ATOM     49  N   UNL A   1      39.123  34.023  35.739  1.00  0.00    -0.248 NA
ATOM     50  C   UNL A   1      36.810  33.805  35.961  1.00  0.00     0.031 C 
ATOM     51  C   UNL A   1      38.530  34.068  31.278  1.00  0.00     0.029 A 
ATOM     52  N   UNL A   1      40.045  33.891  32.913  1.00  0.00    -0.354 N 
ATOM     53  C   UNL A   1      38.799  33.856  37.083  1.00  0.00     0.074 A 
ATOM     54  C   UNL A   1      37.359  33.764  37.165  1.00  0.00     0.031 C 
ATOM     55  C   UNL A   1      39.718  33.815  30.704  1.00  0.00     0.029 A 
ATOM     56  C   UNL A   1      40.749  33.777  31.736  1.00  0.00     0.049 A 
ATOM     57  H   UNL A   1      40.465  33.830  33.800  1.00  0.00     0.167 HD
ATOM     58  C   UNL A   1      39.636  33.793  38.147  1.00  0.00     0.034 A 
ATOM     59  C   UNL A   1      42.079  33.704  31.520  1.00  0.00     0.034 A 
ATOM     60  C   UNL A   1      41.072  33.835  38.023  1.00  0.00     0.049 A 
ATOM     61  C   UNL A   1      42.997  33.748  32.720  1.00  0.00     0.074 A 
ATOM     62  C   UNL A   1      42.027  33.852  39.022  1.00  0.00     0.029 A 
ATOM     63  N   UNL A   1      41.758  33.837  36.815  1.00  0.00    -0.354 N 
ATOM     64  N   UNL A   1      42.687  33.760  33.998  1.00  0.00    -0.248 NA
ATOM     65  C   UNL A   1      44.439  33.791  32.451  1.00  0.00     0.031 C 
ATOM     66  C   UNL A   1      43.288  33.921  38.419  1.00  0.00     0.029 A 
ATOM     67  C   UNL A   1      43.122  33.870  37.043  1.00  0.00     0.049 A 
ATOM     68  H   UNL A   1      41.335  33.819  35.926  1.00  0.00     0.167 HD
ATOM     69  C   UNL A   1      43.899  33.791  34.682  1.00  0.00     0.074 A 
ATOM     70  C   UNL A   1      44.942  33.767  33.677  1.00  0.00     0.031 C 
ATOM     71  C   UNL A   1      44.138  33.843  36.018  1.00  0.00     0.034 A 
BRANCH  58  72
ATOM     72  C   UNL A   1      39.015  33.769  39.523  1.00  0.00     0.023 A 
ATOM     73  C   UNL A   1      38.698  32.572  40.186  1.00  0.00     0.031 A 
ATOM     74  C   UNL A   1      38.703  34.981  40.165  1.00  0.00     0.131 A 
ATOM     75  C   UNL A   1      38.034  32.614  41.423  1.00  0.00     0.055 A 
ATOM     76  C   UNL A   1      38.113  35.015  41.430  1.00  0.00     0.041 A 
ATOM     77  F   UNL A   1      38.955  36.156  39.567  1.00  0.00    -0.206 F 
ATOM     78  C   UNL A   1      37.763  33.827  42.061  1.00  0.00     0.022 A 
BRANCH  75  79
ATOM     79  S   UNL A   1      37.407  31.064  42.128  1.00  0.00     0.124 S 
ATOM     80  O   UNL A   1      35.963  31.241  41.988  1.00  0.00    -0.237 OA
ATOM     81  O   UNL A   1      38.015  30.058  41.265  1.00  0.00    -0.237 OA
ATOM     82  O   UNL A   1      37.900  31.088  43.503  1.00  0.00    -0.744 OA
ENDBRANCH  75  79
ENDBRANCH  58  72
BRANCH  59  83
ATOM     83  C   UNL A   1      42.636  33.690  30.132  1.00  0.00     0.023 A 
ATOM     84  C   UNL A   1      43.004  32.489  29.503  1.00  0.00     0.031 A 
ATOM     85  C   UNL A   1      42.886  34.892  29.441  1.00  0.00     0.131 A 
ATOM     86  C   UNL A   1      43.644  32.520  28.251  1.00  0.00     0.055 A 
ATOM     87  C   UNL A   1      43.457  34.912  28.167  1.00  0.00     0.041 A 
ATOM     88  F   UNL A   1      42.579  36.075  29.998  1.00  0.00    -0.206 F 
ATOM     89  C   UNL A   1      43.856  33.722  27.572  1.00  0.00     0.022 A 
BRANCH  86  90
ATOM     90  S   UNL A   1      44.311  30.974  27.576  1.00  0.00     0.124 S 
ATOM     91  O   UNL A   1      43.904  31.061  26.178  1.00  0.00    -0.237 OA
ATOM     92  O   UNL A   1      45.737  31.120  27.840  1.00  0.00    -0.237 OA
ATOM     93  O   UNL A   1      43.635  29.941  28.360  1.00  0.00    -0.744 OA
ENDBRANCH  86  90
ENDBRANCH  59  83
BRANCH  71  94
ATOM     94  C   UNL A   1      45.580  33.823  36.453  1.00  0.00     0.023 A 
ATOM     95  C   UNL A   1      46.311  35.009  36.639  1.00  0.00     0.031 A 
ATOM     96  C   UNL A   1      46.235  32.597  36.670  1.00  0.00     0.131 A 
ATOM     97  C   UNL A   1      47.671  34.943  36.970  1.00  0.00     0.055 A 
ATOM     98  C   UNL A   1      47.572  32.540  37.061  1.00  0.00     0.041 A 
ATOM     99  F   UNL A   1      45.580  31.436  36.507  1.00  0.00    -0.206 F 
ATOM    100  C   UNL A   1      48.302  33.717  37.199  1.00  0.00     0.022 A 
BRANCH  97 101
ATOM    101  S   UNL A   1      48.631  36.481  37.005  1.00  0.00     0.124 S 
ATOM    102  O   UNL A   1      47.707  37.400  37.664  1.00  0.00    -0.237 OA
ATOM    103  O   UNL A   1      49.808  36.098  37.778  1.00  0.00    -0.237 OA
ATOM    104  O   UNL A   1      48.882  36.761  35.593  1.00  0.00    -0.744 OA
ENDBRANCH  97 101
ENDBRANCH  71  94
ENDBRANCH  45  46
ENDBRANCH  38  40
ENDBRANCH  37  38
ENDBRANCH  36  37
ENDBRANCH   1  36
TORSDOF 19
ENDMDL
MODEL 3
REMARK VINA RESULT:     -10.6      1.748      2.122
REMARK SMILES CCC[NH+]1CCN(c2cc(C(=O)OCCOC(=O)c3ccc(-c4c5nc(c(-c6cc(S(=O)(=O)[O-])ccc6F)c6ccc([nH]6)c(-c6cc(S(=O)(=O)[O-])ccc6F)c6nc(c(-c7cc(S(=O)(=O)[O-])ccc7F)c7ccc4[nH]7)C=C6)C=C5)cc3)c3cc(NC(=O)c4ccc(F)cc4)ccc3n2)CC1
REMARK SMILES IDX 14 1 13 2 11 3 12 4 10 5 8 6 9 7 98 8 97 9 82 10 96 11 83 12
REMARK SMILES IDX 95 13 84 14 7 15 4 16 5 17 100 18 6 20 99 21 3 22 2 23 1 24
REMARK SMILES IDX 85 25 86 26 87 28 88 29 89 30 94 31 90 32 93 33 91 34 92 35
REMARK SMILES IDX 15 36 16 37 17 38 18 39 19 40 20 41 81 42 21 43 80 44 22 45
REMARK SMILES IDX 23 46 24 47 74 48 25 49 79 50 73 51 75 52 26 53 78 54 72 55
REMARK SMILES IDX 71 56 27 58 59 59 39 60 58 61 40 62 43 63 57 64 76 65 41 66
REMARK SMILES IDX 42 67 56 69 77 70 44 71 28 72 29 73 37 74 30 75 36 76 38 77
REMARK SMILES IDX 35 78 31 79 32 80 33 81 34 82 60 83 61 84 69 85 62 86 68 87
REMARK SMILES IDX 70 88 67 89 63 90 64 91 65 92 66 93 45 94 46 95 54 96 47 97
REMARK SMILES IDX 53 98 55 99 52 100 48 101 49 102 50 103 51 104
REMARK H PARENT 4 19 85 27 75 57 43 68
REMARK Flexibility Score: inf
ROOT
ATOM      1  C   UNL A   1      33.703  35.422  28.123  1.00  0.00     0.275 C 
ENDROOT
BRANCH   1   2
ATOM      2  O   UNL A   1      33.968  34.051  28.488  1.00  0.00    -0.458 OA
BRANCH   2   3
ATOM      3  C   UNL A   1      33.197  33.121  27.875  1.00  0.00     0.339 C 
ATOM      4  O   UNL A   1      32.146  33.327  27.290  1.00  0.00    -0.246 OA
BRANCH   3   5
ATOM      5  C   UNL A   1      33.822  31.780  27.923  1.00  0.00     0.073 A 
ATOM      6  C   UNL A   1      35.611  30.436  28.777  1.00  0.00     0.130 A 
ATOM      7  C   UNL A   1      34.923  31.632  28.769  1.00  0.00     0.063 A 
ATOM      8  N   UNL A   1      35.329  29.471  27.886  1.00  0.00    -0.231 NA
ATOM      9  C   UNL A   1      34.286  29.611  27.059  1.00  0.00     0.074 A 
ATOM     10  C   UNL A   1      33.445  30.734  27.059  1.00  0.00     0.017 A 
ATOM     11  C   UNL A   1      34.036  28.588  26.163  1.00  0.00     0.031 A 
ATOM     12  C   UNL A   1      32.325  30.753  26.188  1.00  0.00     0.037 A 
ATOM     13  C   UNL A   1      32.966  28.643  25.266  1.00  0.00     0.028 A 
ATOM     14  C   UNL A   1      32.101  29.736  25.265  1.00  0.00     0.042 A 
BRANCH   6  15
ATOM     15  N   UNL A   1      36.573  30.162  29.711  1.00  0.00    -0.345 N 
ATOM     16  N   UNL A   1      38.457  29.423  31.817  1.00  0.00    -0.332 N 
ATOM     17  C   UNL A   1      37.382  30.403  32.035  1.00  0.00     0.284 C 
ATOM     18  C   UNL A   1      38.142  28.528  30.692  1.00  0.00     0.284 C 
ATOM     19  H   UNL A   1      38.466  28.849  32.660  1.00  0.00     0.348 HD
ATOM     20  C   UNL A   1      36.856  31.129  30.771  1.00  0.00     0.179 C 
ATOM     21  C   UNL A   1      37.609  29.185  29.399  1.00  0.00     0.179 C 
BRANCH  16  22
ATOM     22  C   UNL A   1      39.832  29.927  31.855  1.00  0.00     0.262 C 
BRANCH  22  23
ATOM     23  C   UNL A   1      40.997  28.936  31.834  1.00  0.00     0.058 C 
ATOM     24  C   UNL A   1      41.321  28.357  33.199  1.00  0.00     0.010 C 
ENDBRANCH  22  23
ENDBRANCH  16  22
ENDBRANCH   6  15
BRANCH  14  25
ATOM     25  N   UNL A   1      31.039  29.703  24.347  1.00  0.00    -0.322 N 
ATOM     26  C   UNL A   1      30.451  28.700  23.613  1.00  0.00     0.255 C 
ATOM     27  H   UNL A   1      30.629  30.585  24.197  1.00  0.00     0.170 HD
ATOM     28  O   UNL A   1      29.681  29.001  22.700  1.00  0.00    -0.269 OA
BRANCH  26  29
ATOM     29  C   UNL A   1      30.646  27.263  23.898  1.00  0.00     0.040 A 
ATOM     30  C   UNL A   1      30.076  26.742  25.068  1.00  0.00     0.017 A 
ATOM     31  C   UNL A   1      31.449  26.451  23.083  1.00  0.00     0.017 A 
ATOM     32  C   UNL A   1      30.282  25.406  25.407  1.00  0.00     0.040 A 
ATOM     33  C   UNL A   1      31.632  25.107  23.415  1.00  0.00     0.040 A 
ATOM     34  C   UNL A   1      31.059  24.602  24.578  1.00  0.00     0.123 A 
ATOM     35  F   UNL A   1      31.220  23.309  24.886  1.00  0.00    -0.207 F 
ENDBRANCH  26  29
ENDBRANCH  14  25
ENDBRANCH   3   5
ENDBRANCH   2   3
ENDBRANCH   1   2
BRANCH   1  36
ATOM     36  C   UNL A   1      33.157  36.211  29.316  1.00  0.00     0.275 C 
BRANCH  36  37
ATOM     37  O   UNL A   1      32.526  35.300  30.228  1.00  0.00    -0.458 OA
BRANCH  37  38
ATOM     38  C   UNL A   1      32.404  35.790  31.482  1.00  0.00     0.338 C 
ATOM     39  O   UNL A   1      31.440  36.350  31.971  1.00  0.00    -0.246 OA
BRANCH  38  40
ATOM     40  C   UNL A   1      33.516  35.252  32.271  1.00  0.00     0.060 A 
ATOM     41  C   UNL A   1      34.065  36.106  33.224  1.00  0.00     0.016 A 
ATOM     42  C   UNL A   1      34.051  33.987  32.050  1.00  0.00     0.016 A 
ATOM     43  C   UNL A   1      35.222  35.753  33.899  1.00  0.00     0.010 A 
ATOM     44  C   UNL A   1      35.197  33.614  32.757  1.00  0.00     0.010 A 
ATOM     45  C   UNL A   1      35.820  34.515  33.645  1.00  0.00    -0.014 A 
BRANCH  45  46
ATOM     46  C   UNL A   1      37.200  34.259  34.130  1.00  0.00     0.031 A 
ATOM     47  C   UNL A   1      37.375  33.850  35.572  1.00  0.00     0.074 A 
ATOM     48  C   UNL A   1      38.251  34.226  33.288  1.00  0.00     0.049 A 
ATOM     49  N   UNL A   1      38.467  33.728  36.277  1.00  0.00    -0.248 NA
ATOM     50  C   UNL A   1      36.143  33.526  36.314  1.00  0.00     0.031 C 
ATOM     51  C   UNL A   1      38.181  34.401  31.837  1.00  0.00     0.029 A 
ATOM     52  N   UNL A   1      39.579  33.970  33.528  1.00  0.00    -0.354 N 
ATOM     53  C   UNL A   1      38.051  33.383  37.561  1.00  0.00     0.074 A 
ATOM     54  C   UNL A   1      36.608  33.309  37.533  1.00  0.00     0.031 C 
ATOM     55  C   UNL A   1      39.403  34.207  31.313  1.00  0.00     0.029 A 
ATOM     56  C   UNL A   1      40.361  34.006  32.395  1.00  0.00     0.049 A 
ATOM     57  H   UNL A   1      39.937  33.779  34.424  1.00  0.00     0.167 HD
ATOM     58  C   UNL A   1      38.813  33.157  38.658  1.00  0.00     0.034 A 
ATOM     59  C   UNL A   1      41.701  33.938  32.260  1.00  0.00     0.034 A 
ATOM     60  C   UNL A   1      40.254  33.187  38.637  1.00  0.00     0.049 A 
ATOM     61  C   UNL A   1      42.535  33.798  33.513  1.00  0.00     0.074 A 
ATOM     62  C   UNL A   1      41.139  33.047  39.689  1.00  0.00     0.029 A 
ATOM     63  N   UNL A   1      41.021  33.343  37.489  1.00  0.00    -0.354 N 
ATOM     64  N   UNL A   1      42.140  33.639  34.757  1.00  0.00    -0.248 NA
ATOM     65  C   UNL A   1      43.993  33.849  33.348  1.00  0.00     0.031 C 
ATOM     66  C   UNL A   1      42.439  33.174  39.187  1.00  0.00     0.029 A 
ATOM     67  C   UNL A   1      42.367  33.318  37.809  1.00  0.00     0.049 A 
ATOM     68  H   UNL A   1      40.660  33.457  36.580  1.00  0.00     0.167 HD
ATOM     69  C   UNL A   1      43.302  33.551  35.517  1.00  0.00     0.074 A 
ATOM     70  C   UNL A   1      44.411  33.646  34.589  1.00  0.00     0.031 C 
ATOM     71  C   UNL A   1      43.450  33.413  36.859  1.00  0.00     0.034 A 
BRANCH  58  72
ATOM     72  C   UNL A   1      38.099  32.955  39.973  1.00  0.00     0.023 A 
ATOM     73  C   UNL A   1      38.094  33.927  40.986  1.00  0.00     0.031 A 
ATOM     74  C   UNL A   1      37.440  31.737  40.225  1.00  0.00     0.131 A 
ATOM     75  C   UNL A   1      37.495  33.642  42.225  1.00  0.00     0.055 A 
ATOM     76  C   UNL A   1      36.780  31.490  41.430  1.00  0.00     0.041 A 
ATOM     77  F   UNL A   1      37.438  30.758  39.306  1.00  0.00    -0.206 F 
ATOM     78  C   UNL A   1      36.816  32.442  42.444  1.00  0.00     0.022 A 
BRANCH  75  79
ATOM     79  S   UNL A   1      37.730  34.809  43.594  1.00  0.00     0.124 S 
ATOM     80  O   UNL A   1      36.349  35.165  43.916  1.00  0.00    -0.237 OA
ATOM     81  O   UNL A   1      38.428  33.996  44.584  1.00  0.00    -0.237 OA
ATOM     82  O   UNL A   1      38.520  35.884  42.998  1.00  0.00    -0.744 OA
ENDBRANCH  75  79
ENDBRANCH  58  72
BRANCH  59  83
ATOM     83  C   UNL A   1      42.351  34.105  30.923  1.00  0.00     0.023 A 
ATOM     84  C   UNL A   1      42.634  35.379  30.401  1.00  0.00     0.031 A 
ATOM     85  C   UNL A   1      42.626  32.991  30.108  1.00  0.00     0.131 A 
ATOM     86  C   UNL A   1      43.125  35.506  29.090  1.00  0.00     0.055 A 
ATOM     87  C   UNL A   1      43.180  33.120  28.833  1.00  0.00     0.041 A 
ATOM     88  F   UNL A   1      42.356  31.748  30.540  1.00  0.00    -0.206 F 
ATOM     89  C   UNL A   1      43.417  34.384  28.310  1.00  0.00     0.022 A 
BRANCH  86  90
ATOM     90  S   UNL A   1      43.261  37.165  28.368  1.00  0.00     0.124 S 
ATOM     91  O   UNL A   1      43.670  37.958  29.522  1.00  0.00    -0.237 OA
ATOM     92  O   UNL A   1      44.272  36.964  27.337  1.00  0.00    -0.237 OA
ATOM     93  O   UNL A   1      41.912  37.433  27.874  1.00  0.00    -0.744 OA
ENDBRANCH  86  90
ENDBRANCH  59  83
BRANCH  71  94
ATOM     94  C   UNL A   1      44.859  33.305  37.382  1.00  0.00     0.023 A 
ATOM     95  C   UNL A   1      45.606  34.443  37.728  1.00  0.00     0.031 A 
ATOM     96  C   UNL A   1      45.464  32.043  37.522  1.00  0.00     0.131 A 
ATOM     97  C   UNL A   1      46.940  34.301  38.137  1.00  0.00     0.055 A 
ATOM     98  C   UNL A   1      46.771  31.906  37.991  1.00  0.00     0.041 A 
ATOM     99  F   UNL A   1      44.792  30.924  37.207  1.00  0.00    -0.206 F 
ATOM    100  C   UNL A   1      47.521  33.039  38.287  1.00  0.00     0.022 A 
BRANCH  97 101
ATOM    101  S   UNL A   1      47.936  35.797  38.380  1.00  0.00     0.124 S 
ATOM    102  O   UNL A   1      46.910  36.811  38.609  1.00  0.00    -0.237 OA
ATOM    103  O   UNL A   1      48.752  35.445  39.537  1.00  0.00    -0.237 OA
ATOM    104  O   UNL A   1      48.668  35.929  37.123  1.00  0.00    -0.744 OA
ENDBRANCH  97 101
ENDBRANCH  71  94
ENDBRANCH  45  46
ENDBRANCH  38  40
ENDBRANCH  37  38
ENDBRANCH  36  37
ENDBRANCH   1  36
TORSDOF 19
ENDMDL
