MODEL 1
REMARK VINA RESULT:     -13.3      0.000      0.000
REMARK SMILES Cc1cccc(-n2ncc(C(=O)Nc3cccc(C(=O)OCCOC(=O)c4ccc(-c5c6nc(c(-c7cc(S(=O)(=O)[O-])ccc7F)c7ccc([nH]7)c(-c7cc(S(=O)(=O)[O-])ccc7F)c7nc(c(-c8cc(S(=O)(=O)[O-])ccc8F)c8ccc5[nH]8)C=C7)C=C6)cc4)c3C)c2C)c1
REMARK SMILES IDX 22 1 21 2 19 3 20 4 18 5 14 6 15 7 90 8 16 9 91 10 17 11
REMARK SMILES IDX 13 12 11 13 12 14 10 16 7 17 8 18 92 19 9 20 93 21 6 22 1 23
REMARK SMILES IDX 2 24 3 25 94 26 4 27 5 28 23 29 24 30 25 31 26 32 27 33
REMARK SMILES IDX 28 34 89 35 29 36 88 37 30 38 31 39 32 40 82 41 33 42 87 43
REMARK SMILES IDX 81 44 83 45 34 46 86 47 80 48 79 49 35 51 67 52 47 53 66 54
REMARK SMILES IDX 48 55 51 56 65 57 84 58 49 59 50 60 64 62 85 63 52 64 36 65
REMARK SMILES IDX 37 66 45 67 38 68 44 69 46 70 43 71 39 72 40 73 41 74 42 75
REMARK SMILES IDX 68 76 69 77 77 78 70 79 76 80 78 81 75 82 71 83 72 84 73 85
REMARK SMILES IDX 74 86 53 87 54 88 62 89 55 90 61 91 63 92 60 93 56 94 57 95
REMARK SMILES IDX 58 96 59 97
REMARK H PARENT 13 15 83 50 51 61
REMARK Flexibility Score: inf
ROOT
ATOM      1  C   UNL A   1      33.473  30.032  26.497  1.00  0.00     0.275 C 
ENDROOT
BRANCH   1   2
ATOM      2  O   UNL A   1      32.887  29.691  25.231  1.00  0.00    -0.458 OA
BRANCH   2   3
ATOM      3  C   UNL A   1      31.544  29.688  25.128  1.00  0.00     0.338 C 
ATOM      4  O   UNL A   1      30.808  30.674  25.004  1.00  0.00    -0.246 OA
BRANCH   3   5
ATOM      5  C   UNL A   1      31.087  28.299  24.918  1.00  0.00     0.065 A 
ATOM      6  C   UNL A   1      30.430  26.050  25.549  1.00  0.00     0.045 A 
ATOM      7  C   UNL A   1      29.983  25.837  24.239  1.00  0.00     0.026 A 
ATOM      8  C   UNL A   1      30.893  27.330  25.932  1.00  0.00    -0.013 A 
ATOM      9  C   UNL A   1      30.167  26.800  23.254  1.00  0.00     0.003 A 
ATOM     10  C   UNL A   1      31.192  27.598  27.382  1.00  0.00     0.047 C 
ATOM     11  C   UNL A   1      30.755  28.010  23.584  1.00  0.00     0.016 A 
BRANCH   6  12
ATOM     12  N   UNL A   1      30.405  25.007  26.500  1.00  0.00    -0.322 N 
ATOM     13  C   UNL A   1      31.296  23.989  26.770  1.00  0.00     0.259 C 
ATOM     14  O   UNL A   1      30.891  23.046  27.451  1.00  0.00    -0.269 OA
ATOM     15  H   UNL A   1      29.606  25.006  27.076  1.00  0.00     0.170 HD
BRANCH  13  16
ATOM     16  C   UNL A   1      32.682  24.058  26.316  1.00  0.00     0.081 A 
ATOM     17  N   UNL A   1      34.837  23.602  25.995  1.00  0.00    -0.237 N 
ATOM     18  N   UNL A   1      34.608  24.722  25.271  1.00  0.00    -0.175 NA
ATOM     19  C   UNL A   1      33.738  23.274  26.775  1.00  0.00     0.054 A 
ATOM     20  C   UNL A   1      33.324  24.995  25.477  1.00  0.00     0.149 A 
ATOM     21  C   UNL A   1      33.789  22.385  27.968  1.00  0.00     0.068 C 
BRANCH  17  22
ATOM     22  C   UNL A   1      36.088  22.943  25.884  1.00  0.00     0.065 A 
ATOM     23  C   UNL A   1      37.340  19.527  24.781  1.00  0.00     0.044 C 
ATOM     24  C   UNL A   1      37.321  20.933  25.305  1.00  0.00    -0.049 A 
ATOM     25  C   UNL A   1      38.519  21.613  25.557  1.00  0.00     0.003 A 
ATOM     26  C   UNL A   1      36.104  21.593  25.509  1.00  0.00     0.031 A 
ATOM     27  C   UNL A   1      38.502  22.941  25.990  1.00  0.00     0.002 A 
ATOM     28  C   UNL A   1      37.289  23.612  26.145  1.00  0.00     0.028 A 
ENDBRANCH  17  22
ENDBRANCH  13  16
ENDBRANCH   6  12
ENDBRANCH   3   5
ENDBRANCH   2   3
ENDBRANCH   1   2
BRANCH   1  29
ATOM     29  C   UNL A   1      34.654  29.198  27.036  1.00  0.00     0.275 C 
BRANCH  29  30
ATOM     30  O   UNL A   1      35.908  29.856  27.341  1.00  0.00    -0.458 OA
BRANCH  30  31
ATOM     31  C   UNL A   1      36.593  29.843  28.520  1.00  0.00     0.338 C 
ATOM     32  O   UNL A   1      36.071  30.191  29.573  1.00  0.00    -0.246 OA
BRANCH  31  33
ATOM     33  C   UNL A   1      37.875  29.124  28.516  1.00  0.00     0.060 A 
ATOM     34  C   UNL A   1      38.821  29.451  27.531  1.00  0.00     0.016 A 
ATOM     35  C   UNL A   1      38.211  28.328  29.598  1.00  0.00     0.016 A 
ATOM     36  C   UNL A   1      40.145  29.098  27.693  1.00  0.00     0.010 A 
ATOM     37  C   UNL A   1      39.537  28.148  29.876  1.00  0.00     0.010 A 
ATOM     38  C   UNL A   1      40.476  28.460  28.882  1.00  0.00    -0.014 A 
BRANCH  38  39
ATOM     39  C   UNL A   1      41.691  27.686  29.006  1.00  0.00     0.031 A 
ATOM     40  C   UNL A   1      41.707  26.296  28.556  1.00  0.00     0.074 A 
ATOM     41  C   UNL A   1      42.683  28.432  29.542  1.00  0.00     0.049 A 
ATOM     42  N   UNL A   1      42.381  25.359  29.116  1.00  0.00    -0.248 NA
ATOM     43  C   UNL A   1      40.857  25.806  27.467  1.00  0.00     0.031 C 
ATOM     44  C   UNL A   1      44.106  28.233  29.699  1.00  0.00     0.029 A 
ATOM     45  N   UNL A   1      42.455  29.606  30.261  1.00  0.00    -0.354 N 
ATOM     46  C   UNL A   1      42.424  24.327  28.202  1.00  0.00     0.074 A 
ATOM     47  C   UNL A   1      41.296  24.548  27.332  1.00  0.00     0.031 C 
ATOM     48  C   UNL A   1      44.538  29.056  30.684  1.00  0.00     0.029 A 
ATOM     49  C   UNL A   1      43.375  29.713  31.283  1.00  0.00     0.049 A 
ATOM     50  H   UNL A   1      41.744  30.259  30.069  1.00  0.00     0.167 HD
ATOM     51  C   UNL A   1      43.572  23.594  28.114  1.00  0.00     0.034 A 
ATOM     52  C   UNL A   1      42.867  29.511  32.541  1.00  0.00     0.034 A 
ATOM     53  C   UNL A   1      44.542  24.089  29.100  1.00  0.00     0.049 A 
ATOM     54  C   UNL A   1      43.253  28.137  33.062  1.00  0.00     0.074 A 
ATOM     55  C   UNL A   1      45.612  24.966  29.012  1.00  0.00     0.029 A 
ATOM     56  N   UNL A   1      44.220  24.020  30.444  1.00  0.00    -0.354 N 
ATOM     57  N   UNL A   1      43.731  27.173  32.319  1.00  0.00    -0.248 NA
ATOM     58  C   UNL A   1      43.089  27.737  34.454  1.00  0.00     0.031 C 
ATOM     59  C   UNL A   1      45.878  25.469  30.324  1.00  0.00     0.029 A 
ATOM     60  C   UNL A   1      44.976  24.895  31.201  1.00  0.00     0.049 A 
ATOM     61  H   UNL A   1      43.534  23.420  30.817  1.00  0.00     0.167 HD
ATOM     62  C   UNL A   1      44.027  26.091  33.095  1.00  0.00     0.074 A 
ATOM     63  C   UNL A   1      43.523  26.466  34.411  1.00  0.00     0.031 C 
ATOM     64  C   UNL A   1      44.686  24.985  32.624  1.00  0.00     0.034 A 
BRANCH  51  65
ATOM     65  C   UNL A   1      43.965  22.720  26.944  1.00  0.00     0.023 A 
ATOM     66  C   UNL A   1      43.348  21.456  26.818  1.00  0.00     0.031 A 
ATOM     67  C   UNL A   1      44.914  23.025  25.949  1.00  0.00     0.131 A 
ATOM     68  C   UNL A   1      43.727  20.541  25.820  1.00  0.00     0.055 A 
ATOM     69  C   UNL A   1      45.318  22.100  24.971  1.00  0.00     0.041 A 
ATOM     70  F   UNL A   1      45.464  24.242  25.845  1.00  0.00    -0.206 F 
ATOM     71  C   UNL A   1      44.730  20.845  24.907  1.00  0.00     0.022 A 
BRANCH  68  72
ATOM     72  S   UNL A   1      42.874  18.943  25.739  1.00  0.00     0.124 S 
ATOM     73  O   UNL A   1      43.651  18.231  24.729  1.00  0.00    -0.237 OA
ATOM     74  O   UNL A   1      42.995  18.457  27.108  1.00  0.00    -0.237 OA
ATOM     75  O   UNL A   1      41.517  19.305  25.330  1.00  0.00    -0.744 OA
ENDBRANCH  68  72
ENDBRANCH  51  65
BRANCH  52  76
ATOM     76  C   UNL A   1      41.538  30.199  32.795  1.00  0.00     0.023 A 
ATOM     77  C   UNL A   1      41.477  31.608  32.638  1.00  0.00     0.031 A 
ATOM     78  C   UNL A   1      40.308  29.537  32.919  1.00  0.00     0.131 A 
ATOM     79  C   UNL A   1      40.252  32.275  32.450  1.00  0.00     0.055 A 
ATOM     80  C   UNL A   1      39.081  30.219  32.819  1.00  0.00     0.041 A 
ATOM     81  F   UNL A   1      40.251  28.204  33.046  1.00  0.00    -0.206 F 
ATOM     82  C   UNL A   1      39.046  31.588  32.542  1.00  0.00     0.022 A 
BRANCH  79  83
ATOM     83  S   UNL A   1      40.308  33.985  31.823  1.00  0.00     0.124 S 
ATOM     84  O   UNL A   1      39.948  33.810  30.421  1.00  0.00    -0.237 OA
ATOM     85  O   UNL A   1      39.313  34.651  32.664  1.00  0.00    -0.237 OA
ATOM     86  O   UNL A   1      41.680  34.411  32.067  1.00  0.00    -0.744 OA
ENDBRANCH  79  83
ENDBRANCH  52  76
BRANCH  64  87
ATOM     87  C   UNL A   1      45.098  23.852  33.522  1.00  0.00     0.023 A 
ATOM     88  C   UNL A   1      46.435  23.677  33.885  1.00  0.00     0.031 A 
ATOM     89  C   UNL A   1      44.188  22.891  34.019  1.00  0.00     0.131 A 
ATOM     90  C   UNL A   1      46.794  22.742  34.858  1.00  0.00     0.055 A 
ATOM     91  C   UNL A   1      44.571  21.878  34.896  1.00  0.00     0.041 A 
ATOM     92  F   UNL A   1      42.886  22.900  33.708  1.00  0.00    -0.206 F 
ATOM     93  C   UNL A   1      45.876  21.824  35.357  1.00  0.00     0.022 A 
BRANCH  90  94
ATOM     94  S   UNL A   1      48.460  22.857  35.544  1.00  0.00     0.124 S 
ATOM     95  O   UNL A   1      49.161  21.771  34.868  1.00  0.00    -0.237 OA
ATOM     96  O   UNL A   1      48.847  24.207  35.143  1.00  0.00    -0.237 OA
ATOM     97  O   UNL A   1      48.251  22.669  36.978  1.00  0.00    -0.744 OA
ENDBRANCH  90  94
ENDBRANCH  64  87
ENDBRANCH  38  39
ENDBRANCH  31  33
ENDBRANCH  30  31
ENDBRANCH  29  30
ENDBRANCH   1  29
TORSDOF 17
ENDMDL
MODEL 2
REMARK VINA RESULT:     -13.1      1.655      2.045
REMARK SMILES Cc1cccc(-n2ncc(C(=O)Nc3cccc(C(=O)OCCOC(=O)c4ccc(-c5c6nc(c(-c7cc(S(=O)(=O)[O-])ccc7F)c7ccc([nH]7)c(-c7cc(S(=O)(=O)[O-])ccc7F)c7nc(c(-c8cc(S(=O)(=O)[O-])ccc8F)c8ccc5[nH]8)C=C7)C=C6)cc4)c3C)c2C)c1
REMARK SMILES IDX 22 1 21 2 19 3 20 4 18 5 14 6 15 7 90 8 16 9 91 10 17 11
REMARK SMILES IDX 13 12 11 13 12 14 10 16 7 17 8 18 92 19 9 20 93 21 6 22 1 23
REMARK SMILES IDX 2 24 3 25 94 26 4 27 5 28 23 29 24 30 25 31 26 32 27 33
REMARK SMILES IDX 28 34 89 35 29 36 88 37 30 38 31 39 32 40 82 41 33 42 87 43
REMARK SMILES IDX 81 44 83 45 34 46 86 47 80 48 79 49 35 51 67 52 47 53 66 54
REMARK SMILES IDX 48 55 51 56 65 57 84 58 49 59 50 60 64 62 85 63 52 64 36 65
REMARK SMILES IDX 37 66 45 67 38 68 44 69 46 70 43 71 39 72 40 73 41 74 42 75
REMARK SMILES IDX 68 76 69 77 77 78 70 79 76 80 78 81 75 82 71 83 72 84 73 85
REMARK SMILES IDX 74 86 53 87 54 88 62 89 55 90 61 91 63 92 60 93 56 94 57 95
REMARK SMILES IDX 58 96 59 97
REMARK H PARENT 13 15 83 50 51 61
REMARK Flexibility Score: inf
ROOT
ATOM      1  C   UNL A   1      33.477  30.209  27.055  1.00  0.00     0.275 C 
ENDROOT
BRANCH   1   2
ATOM      2  O   UNL A   1      33.025  29.691  25.795  1.00  0.00    -0.458 OA
BRANCH   2   3
ATOM      3  C   UNL A   1      31.723  29.827  25.477  1.00  0.00     0.338 C 
ATOM      4  O   UNL A   1      31.126  30.883  25.235  1.00  0.00    -0.246 OA
BRANCH   3   5
ATOM      5  C   UNL A   1      31.160  28.490  25.197  1.00  0.00     0.065 A 
ATOM      6  C   UNL A   1      30.365  26.255  25.709  1.00  0.00     0.045 A 
ATOM      7  C   UNL A   1      29.858  26.161  24.407  1.00  0.00     0.026 A 
ATOM      8  C   UNL A   1      30.932  27.472  26.154  1.00  0.00    -0.013 A 
ATOM      9  C   UNL A   1      30.076  27.173  23.479  1.00  0.00     0.003 A 
ATOM     10  C   UNL A   1      31.301  27.621  27.605  1.00  0.00     0.047 C 
ATOM     11  C   UNL A   1      30.761  28.314  23.862  1.00  0.00     0.016 A 
BRANCH   6  12
ATOM     12  N   UNL A   1      30.298  25.156  26.592  1.00  0.00    -0.322 N 
ATOM     13  C   UNL A   1      31.094  24.036  26.725  1.00  0.00     0.259 C 
ATOM     14  O   UNL A   1      30.641  23.093  27.376  1.00  0.00    -0.269 OA
ATOM     15  H   UNL A   1      29.548  25.195  27.228  1.00  0.00     0.170 HD
BRANCH  13  16
ATOM     16  C   UNL A   1      32.442  23.997  26.168  1.00  0.00     0.081 A 
ATOM     17  N   UNL A   1      34.555  23.427  25.757  1.00  0.00    -0.237 N 
ATOM     18  N   UNL A   1      34.300  24.450  24.908  1.00  0.00    -0.175 NA
ATOM     19  C   UNL A   1      33.510  23.243  26.650  1.00  0.00     0.054 A 
ATOM     20  C   UNL A   1      33.042  24.793  25.168  1.00  0.00     0.149 A 
ATOM     21  C   UNL A   1      33.629  22.517  27.944  1.00  0.00     0.068 C 
BRANCH  17  22
ATOM     22  C   UNL A   1      35.777  22.716  25.645  1.00  0.00     0.065 A 
ATOM     23  C   UNL A   1      36.865  19.192  24.724  1.00  0.00     0.044 C 
ATOM     24  C   UNL A   1      36.915  20.628  25.155  1.00  0.00    -0.049 A 
ATOM     25  C   UNL A   1      38.145  21.278  25.320  1.00  0.00     0.003 A 
ATOM     26  C   UNL A   1      35.731  21.345  25.358  1.00  0.00     0.031 A 
ATOM     27  C   UNL A   1      38.191  22.631  25.667  1.00  0.00     0.002 A 
ATOM     28  C   UNL A   1      37.009  23.355  25.820  1.00  0.00     0.028 A 
ENDBRANCH  17  22
ENDBRANCH  13  16
ENDBRANCH   6  12
ENDBRANCH   3   5
ENDBRANCH   2   3
ENDBRANCH   1   2
BRANCH   1  29
ATOM     29  C   UNL A   1      34.733  29.607  27.718  1.00  0.00     0.275 C 
BRANCH  29  30
ATOM     30  O   UNL A   1      36.044  29.977  27.224  1.00  0.00    -0.458 OA
BRANCH  30  31
ATOM     31  C   UNL A   1      37.138  30.340  27.951  1.00  0.00     0.338 C 
ATOM     32  O   UNL A   1      37.110  31.285  28.731  1.00  0.00    -0.246 OA
BRANCH  31  33
ATOM     33  C   UNL A   1      38.250  29.378  27.973  1.00  0.00     0.060 A 
ATOM     34  C   UNL A   1      39.149  29.371  26.894  1.00  0.00     0.016 A 
ATOM     35  C   UNL A   1      38.521  28.680  29.138  1.00  0.00     0.016 A 
ATOM     36  C   UNL A   1      40.387  28.777  27.024  1.00  0.00     0.010 A 
ATOM     37  C   UNL A   1      39.806  28.269  29.356  1.00  0.00     0.010 A 
ATOM     38  C   UNL A   1      40.694  28.246  28.270  1.00  0.00    -0.014 A 
BRANCH  38  39
ATOM     39  C   UNL A   1      41.741  27.262  28.431  1.00  0.00     0.031 A 
ATOM     40  C   UNL A   1      41.409  25.841  28.351  1.00  0.00     0.074 A 
ATOM     41  C   UNL A   1      42.936  27.861  28.629  1.00  0.00     0.049 A 
ATOM     42  N   UNL A   1      41.980  24.922  29.041  1.00  0.00    -0.248 NA
ATOM     43  C   UNL A   1      40.300  25.331  27.540  1.00  0.00     0.031 C 
ATOM     44  C   UNL A   1      44.299  27.381  28.648  1.00  0.00     0.029 A 
ATOM     45  N   UNL A   1      43.070  29.185  29.048  1.00  0.00    -0.354 N 
ATOM     46  C   UNL A   1      41.660  23.732  28.421  1.00  0.00     0.074 A 
ATOM     47  C   UNL A   1      40.458  24.007  27.675  1.00  0.00     0.031 C 
ATOM     48  C   UNL A   1      45.050  28.279  29.329  1.00  0.00     0.029 A 
ATOM     49  C   UNL A   1      44.161  29.301  29.884  1.00  0.00     0.049 A 
ATOM     50  H   UNL A   1      42.474  29.924  28.789  1.00  0.00     0.167 HD
ATOM     51  C   UNL A   1      42.612  22.755  28.377  1.00  0.00     0.034 A 
ATOM     52  C   UNL A   1      43.857  29.504  31.206  1.00  0.00     0.034 A 
ATOM     53  C   UNL A   1      43.820  23.220  29.073  1.00  0.00     0.049 A 
ATOM     54  C   UNL A   1      44.060  28.228  32.006  1.00  0.00     0.074 A 
ATOM     55  C   UNL A   1      45.005  23.787  28.629  1.00  0.00     0.029 A 
ATOM     56  N   UNL A   1      43.737  23.526  30.420  1.00  0.00    -0.354 N 
ATOM     57  N   UNL A   1      44.205  27.041  31.478  1.00  0.00    -0.248 NA
ATOM     58  C   UNL A   1      44.076  28.194  33.463  1.00  0.00     0.031 C 
ATOM     59  C   UNL A   1      45.593  24.493  29.725  1.00  0.00     0.029 A 
ATOM     60  C   UNL A   1      44.769  24.349  30.827  1.00  0.00     0.049 A 
ATOM     61  H   UNL A   1      43.027  23.197  31.017  1.00  0.00     0.167 HD
ATOM     62  C   UNL A   1      44.422  26.119  32.458  1.00  0.00     0.074 A 
ATOM     63  C   UNL A   1      44.243  26.881  33.689  1.00  0.00     0.031 C 
ATOM     64  C   UNL A   1      44.762  24.815  32.205  1.00  0.00     0.034 A 
BRANCH  51  65
ATOM     65  C   UNL A   1      42.615  21.577  27.428  1.00  0.00     0.023 A 
ATOM     66  C   UNL A   1      43.730  21.403  26.581  1.00  0.00     0.031 A 
ATOM     67  C   UNL A   1      41.593  20.618  27.277  1.00  0.00     0.131 A 
ATOM     68  C   UNL A   1      43.770  20.397  25.601  1.00  0.00     0.055 A 
ATOM     69  C   UNL A   1      41.616  19.631  26.277  1.00  0.00     0.041 A 
ATOM     70  F   UNL A   1      40.549  20.559  28.114  1.00  0.00    -0.206 F 
ATOM     71  C   UNL A   1      42.705  19.522  25.424  1.00  0.00     0.022 A 
BRANCH  68  72
ATOM     72  S   UNL A   1      45.250  20.253  24.563  1.00  0.00     0.124 S 
ATOM     73  O   UNL A   1      45.490  18.813  24.568  1.00  0.00    -0.237 OA
ATOM     74  O   UNL A   1      44.800  20.829  23.301  1.00  0.00    -0.237 OA
ATOM     75  O   UNL A   1      46.246  21.047  25.283  1.00  0.00    -0.744 OA
ENDBRANCH  68  72
ENDBRANCH  51  65
BRANCH  52  76
ATOM     76  C   UNL A   1      42.752  30.517  31.443  1.00  0.00     0.023 A 
ATOM     77  C   UNL A   1      41.516  30.047  31.955  1.00  0.00     0.031 A 
ATOM     78  C   UNL A   1      42.934  31.908  31.445  1.00  0.00     0.131 A 
ATOM     79  C   UNL A   1      40.599  30.914  32.579  1.00  0.00     0.055 A 
ATOM     80  C   UNL A   1      41.975  32.784  31.990  1.00  0.00     0.041 A 
ATOM     81  F   UNL A   1      44.076  32.457  31.007  1.00  0.00    -0.206 F 
ATOM     82  C   UNL A   1      40.819  32.288  32.599  1.00  0.00     0.022 A 
BRANCH  79  83
ATOM     83  S   UNL A   1      39.274  30.166  33.580  1.00  0.00     0.124 S 
ATOM     84  O   UNL A   1      40.020  29.279  34.465  1.00  0.00    -0.237 OA
ATOM     85  O   UNL A   1      38.667  31.339  34.209  1.00  0.00    -0.237 OA
ATOM     86  O   UNL A   1      38.421  29.500  32.603  1.00  0.00    -0.744 OA
ENDBRANCH  79  83
ENDBRANCH  52  76
BRANCH  64  87
ATOM     87  C   UNL A   1      45.103  23.846  33.301  1.00  0.00     0.023 A 
ATOM     88  C   UNL A   1      46.391  23.800  33.839  1.00  0.00     0.031 A 
ATOM     89  C   UNL A   1      44.178  22.914  33.825  1.00  0.00     0.131 A 
ATOM     90  C   UNL A   1      46.664  23.033  34.975  1.00  0.00     0.055 A 
ATOM     91  C   UNL A   1      44.489  22.058  34.880  1.00  0.00     0.041 A 
ATOM     92  F   UNL A   1      42.925  22.806  33.365  1.00  0.00    -0.206 F 
ATOM     93  C   UNL A   1      45.728  22.144  35.493  1.00  0.00     0.022 A 
BRANCH  90  94
ATOM     94  S   UNL A   1      48.226  23.338  35.827  1.00  0.00     0.124 S 
ATOM     95  O   UNL A   1      48.243  22.295  36.846  1.00  0.00    -0.237 OA
ATOM     96  O   UNL A   1      49.187  23.176  34.739  1.00  0.00    -0.237 OA
ATOM     97  O   UNL A   1      48.078  24.702  36.330  1.00  0.00    -0.744 OA
ENDBRANCH  90  94
ENDBRANCH  64  87
ENDBRANCH  38  39
ENDBRANCH  31  33
ENDBRANCH  30  31
ENDBRANCH  29  30
ENDBRANCH   1  29
TORSDOF 17
ENDMDL
MODEL 3
REMARK VINA RESULT:     -13.0      4.280     10.640
REMARK SMILES Cc1cccc(-n2ncc(C(=O)Nc3cccc(C(=O)OCCOC(=O)c4ccc(-c5c6nc(c(-c7cc(S(=O)(=O)[O-])ccc7F)c7ccc([nH]7)c(-c7cc(S(=O)(=O)[O-])ccc7F)c7nc(c(-c8cc(S(=O)(=O)[O-])ccc8F)c8ccc5[nH]8)C=C7)C=C6)cc4)c3C)c2C)c1
REMARK SMILES IDX 22 1 21 2 19 3 20 4 18 5 14 6 15 7 90 8 16 9 91 10 17 11
REMARK SMILES IDX 13 12 11 13 12 14 10 16 7 17 8 18 92 19 9 20 93 21 6 22 1 23
REMARK SMILES IDX 2 24 3 25 94 26 4 27 5 28 23 29 24 30 25 31 26 32 27 33
REMARK SMILES IDX 28 34 89 35 29 36 88 37 30 38 31 39 32 40 82 41 33 42 87 43
REMARK SMILES IDX 81 44 83 45 34 46 86 47 80 48 79 49 35 51 67 52 47 53 66 54
REMARK SMILES IDX 48 55 51 56 65 57 84 58 49 59 50 60 64 62 85 63 52 64 36 65
REMARK SMILES IDX 37 66 45 67 38 68 44 69 46 70 43 71 39 72 40 73 41 74 42 75
REMARK SMILES IDX 68 76 69 77 77 78 70 79 76 80 78 81 75 82 71 83 72 84 73 85
REMARK SMILES IDX 74 86 53 87 54 88 62 89 55 90 61 91 63 92 60 93 56 94 57 95
REMARK SMILES IDX 58 96 59 97
REMARK H PARENT 13 15 83 50 51 61
REMARK Flexibility Score: inf
ROOT
ATOM      1  C   UNL A   1      37.953  22.359  25.526  1.00  0.00     0.275 C 
ENDROOT
BRANCH   1   2
ATOM      2  O   UNL A   1      36.822  21.699  24.938  1.00  0.00    -0.458 OA
BRANCH   2   3
ATOM      3  C   UNL A   1      36.171  22.317  23.933  1.00  0.00     0.338 C 
ATOM      4  O   UNL A   1      36.662  22.728  22.875  1.00  0.00    -0.246 OA
BRANCH   3   5
ATOM      5  C   UNL A   1      34.717  22.199  24.165  1.00  0.00     0.065 A 
ATOM      6  C   UNL A   1      32.356  22.582  23.753  1.00  0.00     0.045 A 
ATOM      7  C   UNL A   1      32.053  21.591  24.694  1.00  0.00     0.026 A 
ATOM      8  C   UNL A   1      33.704  22.823  23.398  1.00  0.00    -0.013 A 
ATOM      9  C   UNL A   1      33.057  20.975  25.433  1.00  0.00     0.003 A 
ATOM     10  C   UNL A   1      34.006  23.754  22.255  1.00  0.00     0.047 C 
ATOM     11  C   UNL A   1      34.380  21.308  25.198  1.00  0.00     0.016 A 
BRANCH   6  12
ATOM     12  N   UNL A   1      31.331  23.331  23.136  1.00  0.00    -0.322 N 
ATOM     13  C   UNL A   1      30.593  24.411  23.574  1.00  0.00     0.259 C 
ATOM     14  O   UNL A   1      29.563  24.683  22.954  1.00  0.00    -0.269 OA
ATOM     15  H   UNL A   1      31.101  23.027  22.228  1.00  0.00     0.170 HD
BRANCH  13  16
ATOM     16  C   UNL A   1      31.047  25.234  24.690  1.00  0.00     0.081 A 
ATOM     17  N   UNL A   1      31.976  26.866  25.886  1.00  0.00    -0.237 N 
ATOM     18  N   UNL A   1      31.434  26.031  26.802  1.00  0.00    -0.175 NA
ATOM     19  C   UNL A   1      31.909  26.325  24.611  1.00  0.00     0.054 A 
ATOM     20  C   UNL A   1      30.893  25.053  26.082  1.00  0.00     0.149 A 
ATOM     21  C   UNL A   1      32.757  26.762  23.468  1.00  0.00     0.068 C 
BRANCH  17  22
ATOM     22  C   UNL A   1      32.515  28.108  26.308  1.00  0.00     0.065 A 
ATOM     23  C   UNL A   1      31.329  31.712  26.552  1.00  0.00     0.044 C 
ATOM     24  C   UNL A   1      32.206  30.497  26.619  1.00  0.00    -0.049 A 
ATOM     25  C   UNL A   1      33.478  30.570  27.200  1.00  0.00     0.003 A 
ATOM     26  C   UNL A   1      31.745  29.266  26.137  1.00  0.00     0.031 A 
ATOM     27  C   UNL A   1      34.272  29.426  27.314  1.00  0.00     0.002 A 
ATOM     28  C   UNL A   1      33.790  28.192  26.878  1.00  0.00     0.028 A 
ENDBRANCH  17  22
ENDBRANCH  13  16
ENDBRANCH   6  12
ENDBRANCH   3   5
ENDBRANCH   2   3
ENDBRANCH   1   2
BRANCH   1  29
ATOM     29  C   UNL A   1      37.779  23.763  26.141  1.00  0.00     0.275 C 
BRANCH  29  30
ATOM     30  O   UNL A   1      38.684  24.200  27.184  1.00  0.00    -0.458 OA
BRANCH  30  31
ATOM     31  C   UNL A   1      39.766  25.020  27.061  1.00  0.00     0.338 C 
ATOM     32  O   UNL A   1      40.627  24.829  26.211  1.00  0.00    -0.246 OA
BRANCH  31  33
ATOM     33  C   UNL A   1      39.699  26.294  27.793  1.00  0.00     0.060 A 
ATOM     34  C   UNL A   1      39.441  26.258  29.173  1.00  0.00     0.016 A 
ATOM     35  C   UNL A   1      40.119  27.457  27.171  1.00  0.00     0.016 A 
ATOM     36  C   UNL A   1      39.730  27.351  29.963  1.00  0.00     0.010 A 
ATOM     37  C   UNL A   1      40.600  28.468  27.955  1.00  0.00     0.010 A 
ATOM     38  C   UNL A   1      40.322  28.436  29.330  1.00  0.00    -0.014 A 
BRANCH  38  39
ATOM     39  C   UNL A   1      40.298  29.756  29.921  1.00  0.00     0.031 A 
ATOM     40  C   UNL A   1      39.149  30.627  29.685  1.00  0.00     0.074 A 
ATOM     41  C   UNL A   1      41.413  29.975  30.653  1.00  0.00     0.049 A 
ATOM     42  N   UNL A   1      39.216  31.903  29.569  1.00  0.00    -0.248 NA
ATOM     43  C   UNL A   1      37.798  30.110  29.450  1.00  0.00     0.031 C 
ATOM     44  C   UNL A   1      41.805  31.006  31.586  1.00  0.00     0.029 A 
ATOM     45  N   UNL A   1      42.585  29.232  30.504  1.00  0.00    -0.354 N 
ATOM     46  C   UNL A   1      37.927  32.365  29.732  1.00  0.00     0.074 A 
ATOM     47  C   UNL A   1      37.082  31.242  29.415  1.00  0.00     0.031 C 
ATOM     48  C   UNL A   1      43.157  30.999  31.675  1.00  0.00     0.029 A 
ATOM     49  C   UNL A   1      43.681  30.048  30.694  1.00  0.00     0.049 A 
ATOM     50  H   UNL A   1      42.624  28.271  30.293  1.00  0.00     0.167 HD
ATOM     51  C   UNL A   1      37.746  33.542  30.399  1.00  0.00     0.034 A 
ATOM     52  C   UNL A   1      44.389  30.339  29.556  1.00  0.00     0.034 A 
ATOM     53  C   UNL A   1      39.054  34.090  30.785  1.00  0.00     0.049 A 
ATOM     54  C   UNL A   1      44.094  31.753  29.086  1.00  0.00     0.074 A 
ATOM     55  C   UNL A   1      39.789  34.040  31.959  1.00  0.00     0.029 A 
ATOM     56  N   UNL A   1      39.956  34.421  29.789  1.00  0.00    -0.354 N 
ATOM     57  N   UNL A   1      43.094  32.480  29.514  1.00  0.00    -0.248 NA
ATOM     58  C   UNL A   1      44.884  32.437  28.070  1.00  0.00     0.031 C 
ATOM     59  C   UNL A   1      41.159  34.285  31.632  1.00  0.00     0.029 A 
ATOM     60  C   UNL A   1      41.251  34.486  30.267  1.00  0.00     0.049 A 
ATOM     61  H   UNL A   1      39.706  34.591  28.852  1.00  0.00     0.167 HD
ATOM     62  C   UNL A   1      43.140  33.716  28.941  1.00  0.00     0.074 A 
ATOM     63  C   UNL A   1      44.229  33.607  27.978  1.00  0.00     0.031 C 
ATOM     64  C   UNL A   1      42.315  34.748  29.310  1.00  0.00     0.034 A 
BRANCH  51  65
ATOM     65  C   UNL A   1      36.448  34.004  31.023  1.00  0.00     0.023 A 
ATOM     66  C   UNL A   1      35.438  34.503  30.172  1.00  0.00     0.031 A 
ATOM     67  C   UNL A   1      36.130  34.008  32.396  1.00  0.00     0.131 A 
ATOM     68  C   UNL A   1      34.243  35.045  30.676  1.00  0.00     0.055 A 
ATOM     69  C   UNL A   1      34.951  34.579  32.904  1.00  0.00     0.041 A 
ATOM     70  F   UNL A   1      36.920  33.423  33.307  1.00  0.00    -0.206 F 
ATOM     71  C   UNL A   1      34.002  35.111  32.043  1.00  0.00     0.022 A 
BRANCH  68  72
ATOM     72  S   UNL A   1      33.006  35.659  29.501  1.00  0.00     0.124 S 
ATOM     73  O   UNL A   1      33.796  36.553  28.661  1.00  0.00    -0.237 OA
ATOM     74  O   UNL A   1      32.538  34.429  28.873  1.00  0.00    -0.237 OA
ATOM     75  O   UNL A   1      32.026  36.325  30.360  1.00  0.00    -0.744 OA
ENDBRANCH  68  72
ENDBRANCH  51  65
BRANCH  52  76
ATOM     76  C   UNL A   1      44.622  29.147  28.645  1.00  0.00     0.023 A 
ATOM     77  C   UNL A   1      45.351  28.045  29.162  1.00  0.00     0.031 A 
ATOM     78  C   UNL A   1      43.961  28.935  27.426  1.00  0.00     0.131 A 
ATOM     79  C   UNL A   1      45.273  26.769  28.572  1.00  0.00     0.055 A 
ATOM     80  C   UNL A   1      43.958  27.679  26.789  1.00  0.00     0.041 A 
ATOM     81  F   UNL A   1      43.224  29.901  26.862  1.00  0.00    -0.206 F 
ATOM     82  C   UNL A   1      44.580  26.576  27.382  1.00  0.00     0.022 A 
BRANCH  79  83
ATOM     83  S   UNL A   1      45.871  25.350  29.545  1.00  0.00     0.124 S 
ATOM     84  O   UNL A   1      45.225  25.567  30.835  1.00  0.00    -0.237 OA
ATOM     85  O   UNL A   1      45.381  24.215  28.763  1.00  0.00    -0.237 OA
ATOM     86  O   UNL A   1      47.321  25.499  29.541  1.00  0.00    -0.744 OA
ENDBRANCH  79  83
ENDBRANCH  52  76
BRANCH  64  87
ATOM     87  C   UNL A   1      42.456  36.132  28.742  1.00  0.00     0.023 A 
ATOM     88  C   UNL A   1      42.966  37.175  29.519  1.00  0.00     0.031 A 
ATOM     89  C   UNL A   1      42.061  36.472  27.428  1.00  0.00     0.131 A 
ATOM     90  C   UNL A   1      43.266  38.412  28.944  1.00  0.00     0.055 A 
ATOM     91  C   UNL A   1      42.248  37.745  26.893  1.00  0.00     0.041 A 
ATOM     92  F   UNL A   1      41.504  35.588  26.590  1.00  0.00    -0.206 F 
ATOM     93  C   UNL A   1      42.896  38.716  27.639  1.00  0.00     0.022 A 
BRANCH  90  94
ATOM     94  S   UNL A   1      44.277  39.553  29.913  1.00  0.00     0.124 S 
ATOM     95  O   UNL A   1      43.324  40.079  30.884  1.00  0.00    -0.237 OA
ATOM     96  O   UNL A   1      45.296  38.654  30.449  1.00  0.00    -0.237 OA
ATOM     97  O   UNL A   1      44.752  40.513  28.920  1.00  0.00    -0.744 OA
ENDBRANCH  90  94
ENDBRANCH  64  87
ENDBRANCH  38  39
ENDBRANCH  31  33
ENDBRANCH  30  31
ENDBRANCH  29  30
ENDBRANCH   1  29
TORSDOF 17
ENDMDL
