MODEL 1
REMARK VINA RESULT:     -11.1      0.000      0.000
REMARK SMILES C[C@H](c1ccc(Br)s1)[NH+]1CCC(CC(=O)OCCOC(=O)c2ccc(-c3c4nc(c(-c5cc(S(=O)(=O)[O-])ccc5F)c5ccc([nH]5)c(-c5cc(S(=O)(=O)[O-])ccc5F)c5nc(c(-c6cc(S(=O)(=O)[O-])ccc6F)c6ccc3[nH]6)C=C5)C=C4)cc2)CC1
REMARK SMILES IDX 17 1 16 2 14 3 15 4 13 5 12 6 9 7 10 8 86 9 11 11 85 12 2 13
REMARK SMILES IDX 1 14 3 15 4 16 8 17 5 18 6 19 7 20 18 21 19 22 20 23 21 24
REMARK SMILES IDX 22 25 23 26 84 27 24 28 83 29 25 30 26 31 27 32 77 33 28 34
REMARK SMILES IDX 82 35 76 36 78 37 29 38 81 39 75 40 74 41 30 43 62 44 42 45
REMARK SMILES IDX 61 46 43 47 46 48 60 49 79 50 44 51 45 52 59 54 80 55 47 56
REMARK SMILES IDX 31 57 32 58 40 59 33 60 39 61 41 62 38 63 34 64 35 65 36 66
REMARK SMILES IDX 37 67 63 68 64 69 72 70 65 71 71 72 73 73 70 74 66 75 67 76
REMARK SMILES IDX 68 77 69 78 48 79 49 80 57 81 50 82 56 83 58 84 55 85 51 86
REMARK SMILES IDX 52 87 53 88 54 89
REMARK H PARENT 9 10 78 42 46 53
REMARK Flexibility Score: inf
ROOT
ATOM      1  C   UNL A   1      31.527  29.939  24.589  1.00  0.00     0.274 C 
ENDROOT
BRANCH   1   2
ATOM      2  O   UNL A   1      30.243  30.026  23.943  1.00  0.00    -0.462 OA
BRANCH   2   3
ATOM      3  C   UNL A   1      29.979  29.107  22.983  1.00  0.00     0.306 C 
ATOM      4  O   UNL A   1      29.053  29.181  22.183  1.00  0.00    -0.252 OA
BRANCH   3   5
ATOM      5  C   UNL A   1      30.904  27.910  23.048  1.00  0.00     0.126 C 
BRANCH   5   6
ATOM      6  C   UNL A   1      30.284  26.583  23.526  1.00  0.00     0.011 C 
ATOM      7  N   UNL A   1      30.782  24.097  25.017  1.00  0.00    -0.328 N 
ATOM      8  C   UNL A   1      30.567  24.055  23.562  1.00  0.00     0.263 C 
ATOM      9  C   UNL A   1      29.936  25.134  25.609  1.00  0.00     0.263 C 
ATOM     10  H   UNL A   1      31.735  24.378  25.246  1.00  0.00     0.348 HD
ATOM     11  C   UNL A   1      30.997  25.369  22.916  1.00  0.00     0.066 C 
ATOM     12  C   UNL A   1      30.339  26.507  25.061  1.00  0.00     0.066 C 
BRANCH   7  13
ATOM     13  C   UNL A   1      30.665  22.740  25.594  1.00  0.00     0.222 C 
ATOM     14  C   UNL A   1      30.337  22.669  27.095  1.00  0.00     0.082 C 
BRANCH  13  15
ATOM     15  C   UNL A   1      31.991  22.026  25.367  1.00  0.00     0.063 A 
ATOM     16  C   UNL A   1      32.199  20.752  24.859  1.00  0.00     0.023 A 
ATOM     17  S   UNL A   1      33.483  22.784  25.756  1.00  0.00    -0.127 S 
ATOM     18  C   UNL A   1      33.578  20.401  24.796  1.00  0.00     0.028 A 
ATOM     19  C   UNL A   1      34.364  21.424  25.260  1.00  0.00     0.070 A 
ATOM     20  Br  UNL A   1      36.235  21.330  25.340  1.00  0.00    -0.039 Br
ENDBRANCH  13  15
ENDBRANCH   7  13
ENDBRANCH   5   6
ENDBRANCH   3   5
ENDBRANCH   2   3
ENDBRANCH   1   2
BRANCH   1  21
ATOM     21  C   UNL A   1      31.501  30.615  25.960  1.00  0.00     0.275 C 
BRANCH  21  22
ATOM     22  O   UNL A   1      32.757  30.453  26.640  1.00  0.00    -0.458 OA
BRANCH  22  23
ATOM     23  C   UNL A   1      33.260  31.576  27.203  1.00  0.00     0.338 C 
ATOM     24  O   UNL A   1      32.720  32.664  27.290  1.00  0.00    -0.246 OA
BRANCH  23  25
ATOM     25  C   UNL A   1      34.571  31.270  27.794  1.00  0.00     0.060 A 
ATOM     26  C   UNL A   1      34.822  29.976  28.261  1.00  0.00     0.016 A 
ATOM     27  C   UNL A   1      35.517  32.283  27.947  1.00  0.00     0.016 A 
ATOM     28  C   UNL A   1      36.031  29.690  28.896  1.00  0.00     0.010 A 
ATOM     29  C   UNL A   1      36.726  31.993  28.581  1.00  0.00     0.010 A 
ATOM     30  C   UNL A   1      36.985  30.700  29.071  1.00  0.00    -0.014 A 
BRANCH  30  31
ATOM     31  C   UNL A   1      38.229  30.453  29.841  1.00  0.00     0.031 A 
ATOM     32  C   UNL A   1      39.246  29.494  29.293  1.00  0.00     0.074 A 
ATOM     33  C   UNL A   1      38.421  31.044  31.035  1.00  0.00     0.049 A 
ATOM     34  N   UNL A   1      40.292  28.970  29.874  1.00  0.00    -0.248 NA
ATOM     35  C   UNL A   1      39.042  29.059  27.904  1.00  0.00     0.031 C 
ATOM     36  C   UNL A   1      37.532  32.034  31.639  1.00  0.00     0.029 A 
ATOM     37  N   UNL A   1      39.417  30.873  31.964  1.00  0.00    -0.354 N 
ATOM     38  C   UNL A   1      40.862  28.122  28.932  1.00  0.00     0.074 A 
ATOM     39  C   UNL A   1      40.030  28.189  27.748  1.00  0.00     0.031 C 
ATOM     40  C   UNL A   1      38.012  32.369  32.849  1.00  0.00     0.029 A 
ATOM     41  C   UNL A   1      39.204  31.573  33.130  1.00  0.00     0.049 A 
ATOM     42  H   UNL A   1      40.207  30.305  31.811  1.00  0.00     0.167 HD
ATOM     43  C   UNL A   1      41.975  27.355  29.049  1.00  0.00     0.034 A 
ATOM     44  C   UNL A   1      39.867  31.536  34.303  1.00  0.00     0.034 A 
ATOM     45  C   UNL A   1      42.787  27.302  30.240  1.00  0.00     0.049 A 
ATOM     46  C   UNL A   1      41.056  30.616  34.442  1.00  0.00     0.074 A 
ATOM     47  C   UNL A   1      43.932  26.561  30.474  1.00  0.00     0.029 A 
ATOM     48  N   UNL A   1      42.534  28.018  31.404  1.00  0.00    -0.354 N 
ATOM     49  N   UNL A   1      41.568  29.790  33.559  1.00  0.00    -0.248 NA
ATOM     50  C   UNL A   1      41.755  30.620  35.735  1.00  0.00     0.031 C 
ATOM     51  C   UNL A   1      44.336  26.783  31.796  1.00  0.00     0.029 A 
ATOM     52  C   UNL A   1      43.486  27.718  32.364  1.00  0.00     0.049 A 
ATOM     53  H   UNL A   1      41.785  28.646  31.529  1.00  0.00     0.167 HD
ATOM     54  C   UNL A   1      42.672  29.209  34.177  1.00  0.00     0.074 A 
ATOM     55  C   UNL A   1      42.747  29.772  35.508  1.00  0.00     0.031 C 
ATOM     56  C   UNL A   1      43.550  28.299  33.684  1.00  0.00     0.034 A 
BRANCH  43  57
ATOM     57  C   UNL A   1      42.335  26.474  27.878  1.00  0.00     0.023 A 
ATOM     58  C   UNL A   1      41.801  25.182  27.731  1.00  0.00     0.031 A 
ATOM     59  C   UNL A   1      43.257  26.920  26.913  1.00  0.00     0.131 A 
ATOM     60  C   UNL A   1      42.247  24.356  26.687  1.00  0.00     0.055 A 
ATOM     61  C   UNL A   1      43.637  26.122  25.834  1.00  0.00     0.041 A 
ATOM     62  F   UNL A   1      43.817  28.135  27.016  1.00  0.00    -0.206 F 
ATOM     63  C   UNL A   1      43.143  24.826  25.724  1.00  0.00     0.022 A 
BRANCH  60  64
ATOM     64  S   UNL A   1      41.749  22.612  26.688  1.00  0.00     0.124 S 
ATOM     65  O   UNL A   1      42.567  22.071  27.770  1.00  0.00    -0.237 OA
ATOM     66  O   UNL A   1      40.316  22.692  26.949  1.00  0.00    -0.237 OA
ATOM     67  O   UNL A   1      42.114  22.149  25.351  1.00  0.00    -0.744 OA
ENDBRANCH  60  64
ENDBRANCH  43  57
BRANCH  44  68
ATOM     68  C   UNL A   1      39.395  32.349  35.460  1.00  0.00     0.023 A 
ATOM     69  C   UNL A   1      39.803  33.682  35.625  1.00  0.00     0.031 A 
ATOM     70  C   UNL A   1      38.558  31.789  36.442  1.00  0.00     0.131 A 
ATOM     71  C   UNL A   1      39.408  34.397  36.766  1.00  0.00     0.055 A 
ATOM     72  C   UNL A   1      38.124  32.521  37.548  1.00  0.00     0.041 A 
ATOM     73  F   UNL A   1      38.139  30.518  36.333  1.00  0.00    -0.206 F 
ATOM     74  C   UNL A   1      38.561  33.831  37.722  1.00  0.00     0.022 A 
BRANCH  71  75
ATOM     75  S   UNL A   1      40.085  36.060  37.027  1.00  0.00     0.124 S 
ATOM     76  O   UNL A   1      41.488  35.769  37.300  1.00  0.00    -0.237 OA
ATOM     77  O   UNL A   1      39.801  36.706  35.750  1.00  0.00    -0.237 OA
ATOM     78  O   UNL A   1      39.319  36.565  38.163  1.00  0.00    -0.744 OA
ENDBRANCH  71  75
ENDBRANCH  44  68
BRANCH  56  79
ATOM     79  C   UNL A   1      44.716  27.919  34.561  1.00  0.00     0.023 A 
ATOM     80  C   UNL A   1      44.674  26.805  35.417  1.00  0.00     0.031 A 
ATOM     81  C   UNL A   1      45.899  28.678  34.513  1.00  0.00     0.131 A 
ATOM     82  C   UNL A   1      45.787  26.501  36.216  1.00  0.00     0.055 A 
ATOM     83  C   UNL A   1      47.017  28.344  35.275  1.00  0.00     0.041 A 
ATOM     84  F   UNL A   1      45.988  29.751  33.710  1.00  0.00    -0.206 F 
ATOM     85  C   UNL A   1      46.963  27.255  36.139  1.00  0.00     0.022 A 
BRANCH  82  86
ATOM     86  S   UNL A   1      45.669  25.130  37.398  1.00  0.00     0.124 S 
ATOM     87  O   UNL A   1      44.238  25.096  37.681  1.00  0.00    -0.237 OA
ATOM     88  O   UNL A   1      46.193  24.006  36.628  1.00  0.00    -0.237 OA
ATOM     89  O   UNL A   1      46.512  25.562  38.512  1.00  0.00    -0.744 OA
ENDBRANCH  82  86
ENDBRANCH  56  79
ENDBRANCH  30  31
ENDBRANCH  23  25
ENDBRANCH  22  23
ENDBRANCH  21  22
ENDBRANCH   1  21
TORSDOF 17
ENDMDL
MODEL 2
REMARK VINA RESULT:     -11.0      1.722      2.234
REMARK SMILES C[C@H](c1ccc(Br)s1)[NH+]1CCC(CC(=O)OCCOC(=O)c2ccc(-c3c4nc(c(-c5cc(S(=O)(=O)[O-])ccc5F)c5ccc([nH]5)c(-c5cc(S(=O)(=O)[O-])ccc5F)c5nc(c(-c6cc(S(=O)(=O)[O-])ccc6F)c6ccc3[nH]6)C=C5)C=C4)cc2)CC1
REMARK SMILES IDX 17 1 16 2 14 3 15 4 13 5 12 6 9 7 10 8 86 9 11 11 85 12 2 13
REMARK SMILES IDX 1 14 3 15 4 16 8 17 5 18 6 19 7 20 18 21 19 22 20 23 21 24
REMARK SMILES IDX 22 25 23 26 84 27 24 28 83 29 25 30 26 31 27 32 77 33 28 34
REMARK SMILES IDX 82 35 76 36 78 37 29 38 81 39 75 40 74 41 30 43 62 44 42 45
REMARK SMILES IDX 61 46 43 47 46 48 60 49 79 50 44 51 45 52 59 54 80 55 47 56
REMARK SMILES IDX 31 57 32 58 40 59 33 60 39 61 41 62 38 63 34 64 35 65 36 66
REMARK SMILES IDX 37 67 63 68 64 69 72 70 65 71 71 72 73 73 70 74 66 75 67 76
REMARK SMILES IDX 68 77 69 78 48 79 49 80 57 81 50 82 56 83 58 84 55 85 51 86
REMARK SMILES IDX 52 87 53 88 54 89
REMARK H PARENT 9 10 78 42 46 53
REMARK Flexibility Score: inf
ROOT
ATOM      1  C   UNL A   1      31.392  29.324  24.392  1.00  0.00     0.274 C 
ENDROOT
BRANCH   1   2
ATOM      2  O   UNL A   1      30.606  28.141  24.147  1.00  0.00    -0.462 OA
BRANCH   2   3
ATOM      3  C   UNL A   1      30.498  27.736  22.859  1.00  0.00     0.306 C 
ATOM      4  O   UNL A   1      29.958  28.382  21.968  1.00  0.00    -0.252 OA
BRANCH   3   5
ATOM      5  C   UNL A   1      31.041  26.340  22.636  1.00  0.00     0.126 C 
BRANCH   5   6
ATOM      6  C   UNL A   1      31.870  25.731  23.782  1.00  0.00     0.011 C 
ATOM      7  N   UNL A   1      33.146  23.278  24.785  1.00  0.00    -0.328 N 
ATOM      8  C   UNL A   1      31.981  23.844  25.485  1.00  0.00     0.263 C 
ATOM      9  C   UNL A   1      33.980  24.361  24.263  1.00  0.00     0.263 C 
ATOM     10  H   UNL A   1      32.865  22.747  23.961  1.00  0.00     0.348 HD
ATOM     11  C   UNL A   1      31.099  24.625  24.517  1.00  0.00     0.066 C 
ATOM     12  C   UNL A   1      33.190  25.170  23.228  1.00  0.00     0.066 C 
BRANCH   7  13
ATOM     13  C   UNL A   1      33.823  22.276  25.638  1.00  0.00     0.222 C 
ATOM     14  C   UNL A   1      35.349  22.414  25.764  1.00  0.00     0.082 C 
BRANCH  13  15
ATOM     15  C   UNL A   1      33.519  20.899  25.060  1.00  0.00     0.063 A 
ATOM     16  C   UNL A   1      32.295  20.402  24.638  1.00  0.00     0.023 A 
ATOM     17  S   UNL A   1      34.759  19.726  24.868  1.00  0.00    -0.127 S 
ATOM     18  C   UNL A   1      32.379  19.061  24.164  1.00  0.00     0.028 A 
ATOM     19  C   UNL A   1      33.664  18.593  24.246  1.00  0.00     0.070 A 
ATOM     20  Br  UNL A   1      34.165  16.864  23.721  1.00  0.00    -0.039 Br
ENDBRANCH  13  15
ENDBRANCH   7  13
ENDBRANCH   5   6
ENDBRANCH   3   5
ENDBRANCH   2   3
ENDBRANCH   1   2
BRANCH   1  21
ATOM     21  C   UNL A   1      32.099  29.246  25.744  1.00  0.00     0.275 C 
BRANCH  21  22
ATOM     22  O   UNL A   1      33.241  30.118  25.782  1.00  0.00    -0.458 OA
BRANCH  22  23
ATOM     23  C   UNL A   1      33.203  31.082  26.732  1.00  0.00     0.338 C 
ATOM     24  O   UNL A   1      32.322  31.903  26.916  1.00  0.00    -0.246 OA
BRANCH  23  25
ATOM     25  C   UNL A   1      34.381  30.945  27.600  1.00  0.00     0.060 A 
ATOM     26  C   UNL A   1      35.210  32.052  27.803  1.00  0.00     0.016 A 
ATOM     27  C   UNL A   1      34.697  29.703  28.150  1.00  0.00     0.016 A 
ATOM     28  C   UNL A   1      36.375  31.918  28.559  1.00  0.00     0.010 A 
ATOM     29  C   UNL A   1      35.861  29.572  28.909  1.00  0.00     0.010 A 
ATOM     30  C   UNL A   1      36.714  30.675  29.106  1.00  0.00    -0.014 A 
BRANCH  30  31
ATOM     31  C   UNL A   1      38.000  30.476  29.818  1.00  0.00     0.031 A 
ATOM     32  C   UNL A   1      39.040  29.581  29.207  1.00  0.00     0.074 A 
ATOM     33  C   UNL A   1      38.212  31.049  31.017  1.00  0.00     0.049 A 
ATOM     34  N   UNL A   1      40.135  29.099  29.732  1.00  0.00    -0.248 NA
ATOM     35  C   UNL A   1      38.800  29.167  27.817  1.00  0.00     0.031 C 
ATOM     36  C   UNL A   1      37.300  31.980  31.680  1.00  0.00     0.029 A 
ATOM     37  N   UNL A   1      39.253  30.910  31.901  1.00  0.00    -0.354 N 
ATOM     38  C   UNL A   1      40.707  28.302  28.747  1.00  0.00     0.074 A 
ATOM     39  C   UNL A   1      39.823  28.352  27.600  1.00  0.00     0.031 C 
ATOM     40  C   UNL A   1      37.813  32.312  32.877  1.00  0.00     0.029 A 
ATOM     41  C   UNL A   1      39.054  31.572  33.090  1.00  0.00     0.049 A 
ATOM     42  H   UNL A   1      40.063  30.386  31.702  1.00  0.00     0.167 HD
ATOM     43  C   UNL A   1      41.860  27.591  28.801  1.00  0.00     0.034 A 
ATOM     44  C   UNL A   1      39.767  31.544  34.234  1.00  0.00     0.034 A 
ATOM     45  C   UNL A   1      42.723  27.554  29.956  1.00  0.00     0.049 A 
ATOM     46  C   UNL A   1      41.006  30.683  34.303  1.00  0.00     0.074 A 
ATOM     47  C   UNL A   1      43.913  26.867  30.126  1.00  0.00     0.029 A 
ATOM     48  N   UNL A   1      42.483  28.231  31.147  1.00  0.00    -0.354 N 
ATOM     49  N   UNL A   1      41.521  29.904  33.380  1.00  0.00    -0.248 NA
ATOM     50  C   UNL A   1      41.756  30.695  35.566  1.00  0.00     0.031 C 
ATOM     51  C   UNL A   1      44.360  27.081  31.435  1.00  0.00     0.029 A 
ATOM     52  C   UNL A   1      43.489  27.959  32.060  1.00  0.00     0.049 A 
ATOM     53  H   UNL A   1      41.710  28.816  31.316  1.00  0.00     0.167 HD
ATOM     54  C   UNL A   1      42.677  29.367  33.939  1.00  0.00     0.074 A 
ATOM     55  C   UNL A   1      42.780  29.904  35.279  1.00  0.00     0.031 C 
ATOM     56  C   UNL A   1      43.578  28.514  33.390  1.00  0.00     0.034 A 
BRANCH  43  57
ATOM     57  C   UNL A   1      42.215  26.754  27.596  1.00  0.00     0.023 A 
ATOM     58  C   UNL A   1      41.786  25.423  27.466  1.00  0.00     0.031 A 
ATOM     59  C   UNL A   1      43.027  27.288  26.578  1.00  0.00     0.131 A 
ATOM     60  C   UNL A   1      42.230  24.648  26.383  1.00  0.00     0.055 A 
ATOM     61  C   UNL A   1      43.400  26.536  25.464  1.00  0.00     0.041 A 
ATOM     62  F   UNL A   1      43.486  28.546  26.661  1.00  0.00    -0.206 F 
ATOM     63  C   UNL A   1      43.014  25.202  25.368  1.00  0.00     0.022 A 
BRANCH  60  64
ATOM     64  S   UNL A   1      41.886  22.867  26.392  1.00  0.00     0.124 S 
ATOM     65  O   UNL A   1      42.560  22.429  25.172  1.00  0.00    -0.237 OA
ATOM     66  O   UNL A   1      42.489  22.434  27.647  1.00  0.00    -0.237 OA
ATOM     67  O   UNL A   1      40.426  22.799  26.345  1.00  0.00    -0.744 OA
ENDBRANCH  60  64
ENDBRANCH  43  57
BRANCH  44  68
ATOM     68  C   UNL A   1      39.303  32.306  35.429  1.00  0.00     0.023 A 
ATOM     69  C   UNL A   1      38.636  31.665  36.484  1.00  0.00     0.031 A 
ATOM     70  C   UNL A   1      39.486  33.699  35.512  1.00  0.00     0.131 A 
ATOM     71  C   UNL A   1      38.141  32.420  37.558  1.00  0.00     0.055 A 
ATOM     72  C   UNL A   1      39.037  34.438  36.607  1.00  0.00     0.041 A 
ATOM     73  F   UNL A   1      40.116  34.361  34.529  1.00  0.00    -0.206 F 
ATOM     74  C   UNL A   1      38.348  33.800  37.634  1.00  0.00     0.022 A 
BRANCH  71  75
ATOM     75  S   UNL A   1      37.145  31.583  38.822  1.00  0.00     0.124 S 
ATOM     76  O   UNL A   1      37.062  30.229  38.286  1.00  0.00    -0.237 OA
ATOM     77  O   UNL A   1      37.967  31.752  40.016  1.00  0.00    -0.237 OA
ATOM     78  O   UNL A   1      35.891  32.334  38.820  1.00  0.00    -0.744 OA
ENDBRANCH  71  75
ENDBRANCH  44  68
BRANCH  56  79
ATOM     79  C   UNL A   1      44.797  28.175  34.209  1.00  0.00     0.023 A 
ATOM     80  C   UNL A   1      44.831  27.069  35.075  1.00  0.00     0.031 A 
ATOM     81  C   UNL A   1      45.955  28.967  34.095  1.00  0.00     0.131 A 
ATOM     82  C   UNL A   1      45.992  26.804  35.819  1.00  0.00     0.055 A 
ATOM     83  C   UNL A   1      47.119  28.671  34.801  1.00  0.00     0.041 A 
ATOM     84  F   UNL A   1      45.972  30.034  33.279  1.00  0.00    -0.206 F 
ATOM     85  C   UNL A   1      47.140  27.589  35.676  1.00  0.00     0.022 A 
BRANCH  82  86
ATOM     86  S   UNL A   1      45.972  25.441  37.016  1.00  0.00     0.124 S 
ATOM     87  O   UNL A   1      46.847  25.948  38.067  1.00  0.00    -0.237 OA
ATOM     88  O   UNL A   1      44.556  25.343  37.357  1.00  0.00    -0.237 OA
ATOM     89  O   UNL A   1      46.504  24.309  36.258  1.00  0.00    -0.744 OA
ENDBRANCH  82  86
ENDBRANCH  56  79
ENDBRANCH  30  31
ENDBRANCH  23  25
ENDBRANCH  22  23
ENDBRANCH  21  22
ENDBRANCH   1  21
TORSDOF 17
ENDMDL
MODEL 3
REMARK VINA RESULT:     -10.9      2.258      2.686
REMARK SMILES C[C@H](c1ccc(Br)s1)[NH+]1CCC(CC(=O)OCCOC(=O)c2ccc(-c3c4nc(c(-c5cc(S(=O)(=O)[O-])ccc5F)c5ccc([nH]5)c(-c5cc(S(=O)(=O)[O-])ccc5F)c5nc(c(-c6cc(S(=O)(=O)[O-])ccc6F)c6ccc3[nH]6)C=C5)C=C4)cc2)CC1
REMARK SMILES IDX 17 1 16 2 14 3 15 4 13 5 12 6 9 7 10 8 86 9 11 11 85 12 2 13
REMARK SMILES IDX 1 14 3 15 4 16 8 17 5 18 6 19 7 20 18 21 19 22 20 23 21 24
REMARK SMILES IDX 22 25 23 26 84 27 24 28 83 29 25 30 26 31 27 32 77 33 28 34
REMARK SMILES IDX 82 35 76 36 78 37 29 38 81 39 75 40 74 41 30 43 62 44 42 45
REMARK SMILES IDX 61 46 43 47 46 48 60 49 79 50 44 51 45 52 59 54 80 55 47 56
REMARK SMILES IDX 31 57 32 58 40 59 33 60 39 61 41 62 38 63 34 64 35 65 36 66
REMARK SMILES IDX 37 67 63 68 64 69 72 70 65 71 71 72 73 73 70 74 66 75 67 76
REMARK SMILES IDX 68 77 69 78 48 79 49 80 57 81 50 82 56 83 58 84 55 85 51 86
REMARK SMILES IDX 52 87 53 88 54 89
REMARK H PARENT 9 10 78 42 46 53
REMARK Flexibility Score: inf
ROOT
ATOM      1  C   UNL A   1      31.358  30.282  25.180  1.00  0.00     0.274 C 
ENDROOT
BRANCH   1   2
ATOM      2  O   UNL A   1      31.143  28.921  24.761  1.00  0.00    -0.462 OA
BRANCH   2   3
ATOM      3  C   UNL A   1      31.995  28.426  23.830  1.00  0.00     0.306 C 
ATOM      4  O   UNL A   1      33.205  28.621  23.820  1.00  0.00    -0.252 OA
BRANCH   3   5
ATOM      5  C   UNL A   1      31.284  27.664  22.731  1.00  0.00     0.126 C 
BRANCH   5   6
ATOM      6  C   UNL A   1      31.401  26.129  22.769  1.00  0.00     0.011 C 
ATOM      7  N   UNL A   1      33.053  23.864  23.661  1.00  0.00    -0.328 N 
ATOM      8  C   UNL A   1      32.902  24.148  22.225  1.00  0.00     0.263 C 
ATOM      9  C   UNL A   1      31.798  24.156  24.355  1.00  0.00     0.263 C 
ATOM     10  H   UNL A   1      33.737  24.483  24.095  1.00  0.00     0.348 HD
ATOM     11  C   UNL A   1      32.629  25.631  21.995  1.00  0.00     0.066 C 
ATOM     12  C   UNL A   1      31.471  25.648  24.228  1.00  0.00     0.066 C 
BRANCH   7  13
ATOM     13  C   UNL A   1      33.620  22.513  23.863  1.00  0.00     0.222 C 
ATOM     14  C   UNL A   1      32.851  21.593  24.826  1.00  0.00     0.082 C 
BRANCH  13  15
ATOM     15  C   UNL A   1      35.035  22.682  24.400  1.00  0.00     0.063 A 
ATOM     16  C   UNL A   1      36.116  21.829  24.241  1.00  0.00     0.023 A 
ATOM     17  S   UNL A   1      35.467  24.052  25.343  1.00  0.00    -0.127 S 
ATOM     18  C   UNL A   1      37.291  22.299  24.895  1.00  0.00     0.028 A 
ATOM     19  C   UNL A   1      37.055  23.492  25.527  1.00  0.00     0.070 A 
ATOM     20  Br  UNL A   1      38.361  24.416  26.503  1.00  0.00    -0.039 Br
ENDBRANCH  13  15
ENDBRANCH   7  13
ENDBRANCH   5   6
ENDBRANCH   3   5
ENDBRANCH   2   3
ENDBRANCH   1   2
BRANCH   1  21
ATOM     21  C   UNL A   1      31.886  30.340  26.613  1.00  0.00     0.275 C 
BRANCH  21  22
ATOM     22  O   UNL A   1      33.321  30.411  26.633  1.00  0.00    -0.458 OA
BRANCH  22  23
ATOM     23  C   UNL A   1      33.842  31.431  27.354  1.00  0.00     0.338 C 
ATOM     24  O   UNL A   1      33.307  32.491  27.626  1.00  0.00    -0.246 OA
BRANCH  23  25
ATOM     25  C   UNL A   1      35.166  31.037  27.855  1.00  0.00     0.060 A 
ATOM     26  C   UNL A   1      35.377  29.713  28.252  1.00  0.00     0.016 A 
ATOM     27  C   UNL A   1      36.168  31.996  27.997  1.00  0.00     0.016 A 
ATOM     28  C   UNL A   1      36.604  29.341  28.805  1.00  0.00     0.010 A 
ATOM     29  C   UNL A   1      37.395  31.621  28.548  1.00  0.00     0.010 A 
ATOM     30  C   UNL A   1      37.615  30.296  28.967  1.00  0.00    -0.014 A 
BRANCH  30  31
ATOM     31  C   UNL A   1      38.886  29.956  29.653  1.00  0.00     0.031 A 
ATOM     32  C   UNL A   1      39.788  28.922  29.044  1.00  0.00     0.074 A 
ATOM     33  C   UNL A   1      39.202  30.531  30.829  1.00  0.00     0.049 A 
ATOM     34  N   UNL A   1      40.829  28.321  29.557  1.00  0.00    -0.248 NA
ATOM     35  C   UNL A   1      39.459  28.502  27.674  1.00  0.00     0.031 C 
ATOM     36  C   UNL A   1      38.433  31.587  31.485  1.00  0.00     0.029 A 
ATOM     37  N   UNL A   1      40.242  30.286  31.690  1.00  0.00    -0.354 N 
ATOM     38  C   UNL A   1      41.268  27.431  28.583  1.00  0.00     0.074 A 
ATOM     39  C   UNL A   1      40.366  27.561  27.457  1.00  0.00     0.031 C 
ATOM     40  C   UNL A   1      39.017  31.885  32.658  1.00  0.00     0.029 A 
ATOM     41  C   UNL A   1      40.162  31.001  32.863  1.00  0.00     0.049 A 
ATOM     42  H   UNL A   1      40.975  29.660  31.488  1.00  0.00     0.167 HD
ATOM     43  C   UNL A   1      42.325  26.582  28.630  1.00  0.00     0.034 A 
ATOM     44  C   UNL A   1      40.897  30.915  33.989  1.00  0.00     0.034 A 
ATOM     45  C   UNL A   1      43.209  26.468  29.764  1.00  0.00     0.049 A 
ATOM     46  C   UNL A   1      42.020  29.907  34.053  1.00  0.00     0.074 A 
ATOM     47  C   UNL A   1      44.308  25.643  29.926  1.00  0.00     0.029 A 
ATOM     48  N   UNL A   1      43.089  27.202  30.939  1.00  0.00    -0.354 N 
ATOM     49  N   UNL A   1      42.408  29.044  33.143  1.00  0.00    -0.248 NA
ATOM     50  C   UNL A   1      42.802  29.859  35.297  1.00  0.00     0.031 C 
ATOM     51  C   UNL A   1      44.815  25.834  31.216  1.00  0.00     0.029 A 
ATOM     52  C   UNL A   1      44.079  26.832  31.835  1.00  0.00     0.049 A 
ATOM     53  H   UNL A   1      42.400  27.885  31.109  1.00  0.00     0.167 HD
ATOM     54  C   UNL A   1      43.503  28.381  33.689  1.00  0.00     0.074 A 
ATOM     55  C   UNL A   1      43.710  28.938  35.009  1.00  0.00     0.031 C 
ATOM     56  C   UNL A   1      44.275  27.407  33.144  1.00  0.00     0.034 A 
BRANCH  43  57
ATOM     57  C   UNL A   1      42.538  25.675  27.443  1.00  0.00     0.023 A 
ATOM     58  C   UNL A   1      42.062  24.353  27.425  1.00  0.00     0.031 A 
ATOM     59  C   UNL A   1      43.262  26.130  26.326  1.00  0.00     0.131 A 
ATOM     60  C   UNL A   1      42.377  23.511  26.347  1.00  0.00     0.055 A 
ATOM     61  C   UNL A   1      43.505  25.311  25.222  1.00  0.00     0.041 A 
ATOM     62  F   UNL A   1      43.762  27.375  26.297  1.00  0.00    -0.206 F 
ATOM     63  C   UNL A   1      43.075  23.987  25.235  1.00  0.00     0.022 A 
BRANCH  60  64
ATOM     64  S   UNL A   1      41.985  21.745  26.484  1.00  0.00     0.124 S 
ATOM     65  O   UNL A   1      40.569  21.727  26.126  1.00  0.00    -0.237 OA
ATOM     66  O   UNL A   1      42.896  21.143  25.517  1.00  0.00    -0.237 OA
ATOM     67  O   UNL A   1      42.270  21.437  27.884  1.00  0.00    -0.744 OA
ENDBRANCH  60  64
ENDBRANCH  43  57
BRANCH  44  68
ATOM     68  C   UNL A   1      40.567  31.762  35.171  1.00  0.00     0.023 A 
ATOM     69  C   UNL A   1      39.502  31.433  36.024  1.00  0.00     0.031 A 
ATOM     70  C   UNL A   1      41.289  32.938  35.440  1.00  0.00     0.131 A 
ATOM     71  C   UNL A   1      39.163  32.291  37.081  1.00  0.00     0.055 A 
ATOM     72  C   UNL A   1      40.981  33.762  36.524  1.00  0.00     0.041 A 
ATOM     73  F   UNL A   1      42.316  33.300  34.654  1.00  0.00    -0.206 F 
ATOM     74  C   UNL A   1      39.903  33.446  37.346  1.00  0.00     0.022 A 
BRANCH  71  75
ATOM     75  S   UNL A   1      37.683  31.919  38.062  1.00  0.00     0.124 S 
ATOM     76  O   UNL A   1      38.159  32.159  39.420  1.00  0.00    -0.237 OA
ATOM     77  O   UNL A   1      36.723  32.884  37.538  1.00  0.00    -0.237 OA
ATOM     78  O   UNL A   1      37.401  30.523  37.737  1.00  0.00    -0.744 OA
ENDBRANCH  71  75
ENDBRANCH  44  68
BRANCH  56  79
ATOM     79  C   UNL A   1      45.464  26.940  33.943  1.00  0.00     0.023 A 
ATOM     80  C   UNL A   1      46.725  27.552  33.832  1.00  0.00     0.031 A 
ATOM     81  C   UNL A   1      45.318  25.877  34.852  1.00  0.00     0.131 A 
ATOM     82  C   UNL A   1      47.800  27.072  34.597  1.00  0.00     0.055 A 
ATOM     83  C   UNL A   1      46.378  25.435  35.642  1.00  0.00     0.041 A 
ATOM     84  F   UNL A   1      44.133  25.261  34.995  1.00  0.00    -0.206 F 
ATOM     85  C   UNL A   1      47.630  26.027  35.511  1.00  0.00     0.022 A 
BRANCH  82  86
ATOM     86  S   UNL A   1      49.444  27.800  34.351  1.00  0.00     0.124 S 
ATOM     87  O   UNL A   1      49.661  28.492  35.616  1.00  0.00    -0.237 OA
ATOM     88  O   UNL A   1      50.276  26.624  34.116  1.00  0.00    -0.237 OA
ATOM     89  O   UNL A   1      49.264  28.670  33.190  1.00  0.00    -0.744 OA
ENDBRANCH  82  86
ENDBRANCH  56  79
ENDBRANCH  30  31
ENDBRANCH  23  25
ENDBRANCH  22  23
ENDBRANCH  21  22
ENDBRANCH   1  21
TORSDOF 17
ENDMDL
