MODEL 1
REMARK VINA RESULT:     -12.3      0.000      0.000
REMARK SMILES CC1(C)[C@H](C(=O)Nc2cccc3[nH]ccc23)[C@H]1C(=O)OCCOC(=O)c1ccc(-c2c3nc(c(-c4cc(S(=O)(=O)[O-])ccc4F)c4ccc([nH]4)c(-c4cc(S(=O)(=O)[O-])ccc4F)c4nc(c(-c5cc(S(=O)(=O)[O-])ccc5F)c5ccc2[nH]5)C=C4)C=C3)cc1
REMARK SMILES IDX 22 1 21 2 20 3 18 4 19 5 17 6 1 7 2 8 3 9 4 10 5 11 6 12
REMARK SMILES IDX 7 13 8 15 9 16 16 17 10 18 12 19 15 20 11 21 13 22 14 23
REMARK SMILES IDX 23 25 24 26 25 27 26 28 27 29 88 30 28 31 87 32 29 33 30 34
REMARK SMILES IDX 31 35 81 36 32 37 86 38 80 39 82 40 33 41 85 42 79 43 78 44
REMARK SMILES IDX 34 46 66 47 46 48 65 49 47 50 50 51 64 52 83 53 48 54 49 55
REMARK SMILES IDX 63 57 84 58 51 59 35 60 36 61 44 62 37 63 43 64 45 65 42 66
REMARK SMILES IDX 38 67 39 68 40 69 41 70 67 71 68 72 76 73 69 74 75 75 77 76
REMARK SMILES IDX 74 77 70 78 71 79 72 80 73 81 52 82 53 83 61 84 54 85 60 86
REMARK SMILES IDX 62 87 59 88 55 89 56 90 57 91 58 92
REMARK H PARENT 7 14 13 24 82 45 50 56
REMARK Flexibility Score: inf
ROOT
ATOM      1  C   UNL A   1      36.683  20.892  25.106  1.00  0.00     0.275 C 
ENDROOT
BRANCH   1   2
ATOM      2  C   UNL A   1      35.647  21.907  24.623  1.00  0.00     0.274 C 
BRANCH   2   3
ATOM      3  O   UNL A   1      35.302  22.779  25.711  1.00  0.00    -0.462 OA
BRANCH   3   4
ATOM      4  C   UNL A   1      34.188  22.474  26.420  1.00  0.00     0.310 C 
ATOM      5  O   UNL A   1      34.150  21.862  27.476  1.00  0.00    -0.252 OA
BRANCH   4   6
ATOM      6  C   UNL A   1      32.966  23.069  25.834  1.00  0.00     0.118 C 
ATOM      7  C   UNL A   1      32.129  20.843  24.671  1.00  0.00     0.013 C 
ATOM      8  C   UNL A   1      31.986  22.321  24.940  1.00  0.00    -0.009 C 
ATOM      9  C   UNL A   1      31.549  23.074  23.710  1.00  0.00     0.013 C 
ATOM     10  C   UNL A   1      31.618  22.706  26.379  1.00  0.00     0.100 C 
BRANCH  10  11
ATOM     11  C   UNL A   1      30.584  23.696  26.817  1.00  0.00     0.228 C 
ATOM     12  O   UNL A   1      29.592  23.267  27.398  1.00  0.00    -0.274 OA
ATOM     13  N   UNL A   1      30.936  25.025  26.877  1.00  0.00    -0.325 N 
ATOM     14  H   UNL A   1      31.269  25.361  27.741  1.00  0.00     0.169 HD
BRANCH  13  15
ATOM     15  C   UNL A   1      30.865  25.954  25.815  1.00  0.00     0.050 A 
ATOM     16  C   UNL A   1      29.746  26.028  24.979  1.00  0.00     0.027 A 
ATOM     17  C   UNL A   1      31.917  26.878  25.598  1.00  0.00     0.023 A 
ATOM     18  C   UNL A   1      29.723  26.854  23.856  1.00  0.00     0.004 A 
ATOM     19  C   UNL A   1      31.859  27.713  24.474  1.00  0.00     0.047 A 
ATOM     20  C   UNL A   1      33.133  27.197  26.273  1.00  0.00     0.030 A 
ATOM     21  C   UNL A   1      30.798  27.689  23.564  1.00  0.00     0.027 A 
ATOM     22  N   UNL A   1      33.002  28.483  24.467  1.00  0.00    -0.361 N 
ATOM     23  C   UNL A   1      33.760  28.199  25.570  1.00  0.00     0.083 A 
ATOM     24  H   UNL A   1      33.238  29.139  23.771  1.00  0.00     0.166 HD
ENDBRANCH  13  15
ENDBRANCH  10  11
ENDBRANCH   4   6
ENDBRANCH   3   4
ENDBRANCH   2   3
ENDBRANCH   1   2
BRANCH   1  25
ATOM     25  O   UNL A   1      38.015  21.389  24.868  1.00  0.00    -0.458 OA
BRANCH  25  26
ATOM     26  C   UNL A   1      38.924  21.046  25.810  1.00  0.00     0.338 C 
ATOM     27  O   UNL A   1      39.347  19.931  26.063  1.00  0.00    -0.246 OA
BRANCH  26  28
ATOM     28  C   UNL A   1      39.440  22.259  26.457  1.00  0.00     0.060 A 
ATOM     29  C   UNL A   1      38.903  23.482  26.077  1.00  0.00     0.016 A 
ATOM     30  C   UNL A   1      40.539  22.209  27.313  1.00  0.00     0.016 A 
ATOM     31  C   UNL A   1      39.527  24.663  26.461  1.00  0.00     0.010 A 
ATOM     32  C   UNL A   1      41.113  23.406  27.767  1.00  0.00     0.010 A 
ATOM     33  C   UNL A   1      40.644  24.650  27.305  1.00  0.00    -0.014 A 
BRANCH  33  34
ATOM     34  C   UNL A   1      41.339  25.933  27.627  1.00  0.00     0.031 A 
ATOM     35  C   UNL A   1      40.658  26.976  28.480  1.00  0.00     0.074 A 
ATOM     36  C   UNL A   1      42.608  26.145  27.221  1.00  0.00     0.049 A 
ATOM     37  N   UNL A   1      41.063  28.182  28.795  1.00  0.00    -0.248 NA
ATOM     38  C   UNL A   1      39.348  26.620  29.041  1.00  0.00     0.031 C 
ATOM     39  C   UNL A   1      43.409  25.207  26.433  1.00  0.00     0.029 A 
ATOM     40  N   UNL A   1      43.459  27.205  27.432  1.00  0.00    -0.354 N 
ATOM     41  C   UNL A   1      40.031  28.749  29.540  1.00  0.00     0.074 A 
ATOM     42  C   UNL A   1      38.982  27.755  29.619  1.00  0.00     0.031 C 
ATOM     43  C   UNL A   1      44.643  25.706  26.270  1.00  0.00     0.029 A 
ATOM     44  C   UNL A   1      44.700  27.041  26.856  1.00  0.00     0.049 A 
ATOM     45  H   UNL A   1      43.206  28.006  27.945  1.00  0.00     0.167 HD
ATOM     46  C   UNL A   1      39.965  29.982  30.103  1.00  0.00     0.034 A 
ATOM     47  C   UNL A   1      45.755  27.876  26.773  1.00  0.00     0.034 A 
ATOM     48  C   UNL A   1      41.032  30.955  30.051  1.00  0.00     0.049 A 
ATOM     49  C   UNL A   1      45.647  29.252  27.378  1.00  0.00     0.074 A 
ATOM     50  C   UNL A   1      41.067  32.226  30.600  1.00  0.00     0.029 A 
ATOM     51  N   UNL A   1      42.254  30.767  29.420  1.00  0.00    -0.354 N 
ATOM     52  N   UNL A   1      44.643  29.788  28.035  1.00  0.00    -0.248 NA
ATOM     53  C   UNL A   1      46.807  30.138  27.223  1.00  0.00     0.031 C 
ATOM     54  C   UNL A   1      42.282  32.827  30.249  1.00  0.00     0.029 A 
ATOM     55  C   UNL A   1      43.040  31.903  29.549  1.00  0.00     0.049 A 
ATOM     56  H   UNL A   1      42.524  29.945  28.950  1.00  0.00     0.167 HD
ATOM     57  C   UNL A   1      45.061  31.070  28.381  1.00  0.00     0.074 A 
ATOM     58  C   UNL A   1      46.415  31.214  27.889  1.00  0.00     0.031 C 
ATOM     59  C   UNL A   1      44.385  32.043  29.044  1.00  0.00     0.034 A 
BRANCH  46  60
ATOM     60  C   UNL A   1      38.667  30.375  30.773  1.00  0.00     0.023 A 
ATOM     61  C   UNL A   1      37.625  31.009  30.076  1.00  0.00     0.031 A 
ATOM     62  C   UNL A   1      38.483  30.128  32.147  1.00  0.00     0.131 A 
ATOM     63  C   UNL A   1      36.480  31.437  30.765  1.00  0.00     0.055 A 
ATOM     64  C   UNL A   1      37.307  30.483  32.810  1.00  0.00     0.041 A 
ATOM     65  F   UNL A   1      39.450  29.544  32.872  1.00  0.00    -0.206 F 
ATOM     66  C   UNL A   1      36.302  31.156  32.122  1.00  0.00     0.022 A 
BRANCH  63  67
ATOM     67  S   UNL A   1      35.291  32.498  29.897  1.00  0.00     0.124 S 
ATOM     68  O   UNL A   1      34.849  31.620  28.817  1.00  0.00    -0.237 OA
ATOM     69  O   UNL A   1      34.306  32.780  30.935  1.00  0.00    -0.237 OA
ATOM     70  O   UNL A   1      36.097  33.640  29.472  1.00  0.00    -0.744 OA
ENDBRANCH  63  67
ENDBRANCH  46  60
BRANCH  47  71
ATOM     71  C   UNL A   1      46.991  27.465  26.046  1.00  0.00     0.023 A 
ATOM     72  C   UNL A   1      47.193  27.816  24.702  1.00  0.00     0.031 A 
ATOM     73  C   UNL A   1      47.970  26.672  26.673  1.00  0.00     0.131 A 
ATOM     74  C   UNL A   1      48.325  27.344  24.018  1.00  0.00     0.055 A 
ATOM     75  C   UNL A   1      49.125  26.258  26.007  1.00  0.00     0.041 A 
ATOM     76  F   UNL A   1      47.825  26.300  27.955  1.00  0.00    -0.206 F 
ATOM     77  C   UNL A   1      49.300  26.583  24.666  1.00  0.00     0.022 A 
BRANCH  74  78
ATOM     78  S   UNL A   1      48.459  27.663  22.238  1.00  0.00     0.124 S 
ATOM     79  O   UNL A   1      48.579  26.311  21.703  1.00  0.00    -0.237 OA
ATOM     80  O   UNL A   1      47.203  28.353  21.962  1.00  0.00    -0.237 OA
ATOM     81  O   UNL A   1      49.659  28.489  22.130  1.00  0.00    -0.744 OA
ENDBRANCH  74  78
ENDBRANCH  47  71
BRANCH  59  82
ATOM     82  C   UNL A   1      45.126  33.332  29.312  1.00  0.00     0.023 A 
ATOM     83  C   UNL A   1      45.139  34.385  28.380  1.00  0.00     0.031 A 
ATOM     84  C   UNL A   1      45.848  33.495  30.506  1.00  0.00     0.131 A 
ATOM     85  C   UNL A   1      45.912  35.530  28.633  1.00  0.00     0.055 A 
ATOM     86  C   UNL A   1      46.565  34.662  30.779  1.00  0.00     0.041 A 
ATOM     87  F   UNL A   1      45.872  32.521  31.430  1.00  0.00    -0.206 F 
ATOM     88  C   UNL A   1      46.612  35.681  29.832  1.00  0.00     0.022 A 
BRANCH  85  89
ATOM     89  S   UNL A   1      46.073  36.778  27.325  1.00  0.00     0.124 S 
ATOM     90  O   UNL A   1      46.021  35.961  26.117  1.00  0.00    -0.237 OA
ATOM     91  O   UNL A   1      44.915  37.633  27.567  1.00  0.00    -0.237 OA
ATOM     92  O   UNL A   1      47.368  37.397  27.600  1.00  0.00    -0.744 OA
ENDBRANCH  85  89
ENDBRANCH  59  82
ENDBRANCH  33  34
ENDBRANCH  26  28
ENDBRANCH  25  26
ENDBRANCH   1  25
TORSDOF 16
ENDMDL
MODEL 2
REMARK VINA RESULT:     -12.3      1.323      7.807
REMARK SMILES CC1(C)[C@H](C(=O)Nc2cccc3[nH]ccc23)[C@H]1C(=O)OCCOC(=O)c1ccc(-c2c3nc(c(-c4cc(S(=O)(=O)[O-])ccc4F)c4ccc([nH]4)c(-c4cc(S(=O)(=O)[O-])ccc4F)c4nc(c(-c5cc(S(=O)(=O)[O-])ccc5F)c5ccc2[nH]5)C=C4)C=C3)cc1
REMARK SMILES IDX 22 1 21 2 20 3 18 4 19 5 17 6 1 7 2 8 3 9 4 10 5 11 6 12
REMARK SMILES IDX 7 13 8 15 9 16 16 17 10 18 12 19 15 20 11 21 13 22 14 23
REMARK SMILES IDX 23 25 24 26 25 27 26 28 27 29 88 30 28 31 87 32 29 33 30 34
REMARK SMILES IDX 31 35 81 36 32 37 86 38 80 39 82 40 33 41 85 42 79 43 78 44
REMARK SMILES IDX 34 46 66 47 46 48 65 49 47 50 50 51 64 52 83 53 48 54 49 55
REMARK SMILES IDX 63 57 84 58 51 59 35 60 36 61 44 62 37 63 43 64 45 65 42 66
REMARK SMILES IDX 38 67 39 68 40 69 41 70 67 71 68 72 76 73 69 74 75 75 77 76
REMARK SMILES IDX 74 77 70 78 71 79 72 80 73 81 52 82 53 83 61 84 54 85 60 86
REMARK SMILES IDX 62 87 59 88 55 89 56 90 57 91 58 92
REMARK H PARENT 7 14 13 24 82 45 50 56
REMARK Flexibility Score: inf
ROOT
ATOM      1  C   UNL A   1      37.885  19.594  24.903  1.00  0.00     0.275 C 
ENDROOT
BRANCH   1   2
ATOM      2  C   UNL A   1      36.357  19.544  24.925  1.00  0.00     0.274 C 
BRANCH   2   3
ATOM      3  O   UNL A   1      35.842  20.880  24.808  1.00  0.00    -0.462 OA
BRANCH   3   4
ATOM      4  C   UNL A   1      34.499  21.019  24.697  1.00  0.00     0.310 C 
ATOM      5  O   UNL A   1      33.663  20.162  24.938  1.00  0.00    -0.252 OA
BRANCH   4   6
ATOM      6  C   UNL A   1      34.101  22.400  24.346  1.00  0.00     0.118 C 
ATOM      7  C   UNL A   1      36.568  23.308  24.033  1.00  0.00     0.013 C 
ATOM      8  C   UNL A   1      35.077  23.537  24.077  1.00  0.00    -0.009 C 
ATOM      9  C   UNL A   1      34.732  24.841  24.749  1.00  0.00     0.013 C 
ATOM     10  C   UNL A   1      34.269  22.897  22.942  1.00  0.00     0.100 C 
BRANCH  10  11
ATOM     11  C   UNL A   1      33.183  23.533  22.131  1.00  0.00     0.228 C 
ATOM     12  O   UNL A   1      33.431  23.809  20.960  1.00  0.00    -0.274 OA
ATOM     13  N   UNL A   1      31.889  23.454  22.594  1.00  0.00    -0.325 N 
ATOM     14  H   UNL A   1      31.346  22.697  22.276  1.00  0.00     0.169 HD
BRANCH  13  15
ATOM     15  C   UNL A   1      31.268  24.358  23.484  1.00  0.00     0.050 A 
ATOM     16  C   UNL A   1      31.004  25.683  23.119  1.00  0.00     0.027 A 
ATOM     17  C   UNL A   1      30.846  23.928  24.766  1.00  0.00     0.023 A 
ATOM     18  C   UNL A   1      30.507  26.610  24.033  1.00  0.00     0.004 A 
ATOM     19  C   UNL A   1      30.328  24.876  25.658  1.00  0.00     0.047 A 
ATOM     20  C   UNL A   1      30.824  22.677  25.451  1.00  0.00     0.030 A 
ATOM     21  C   UNL A   1      30.192  26.229  25.335  1.00  0.00     0.027 A 
ATOM     22  N   UNL A   1      30.029  24.222  26.835  1.00  0.00    -0.361 N 
ATOM     23  C   UNL A   1      30.295  22.886  26.704  1.00  0.00     0.083 A 
ATOM     24  H   UNL A   1      29.677  24.653  27.648  1.00  0.00     0.166 HD
ENDBRANCH  13  15
ENDBRANCH  10  11
ENDBRANCH   4   6
ENDBRANCH   3   4
ENDBRANCH   2   3
ENDBRANCH   1   2
BRANCH   1  25
ATOM     25  O   UNL A   1      38.352  20.802  25.534  1.00  0.00    -0.458 OA
BRANCH  25  26
ATOM     26  C   UNL A   1      39.535  20.683  26.181  1.00  0.00     0.338 C 
ATOM     27  O   UNL A   1      40.255  19.701  26.236  1.00  0.00    -0.246 OA
BRANCH  26  28
ATOM     28  C   UNL A   1      39.913  21.981  26.755  1.00  0.00     0.060 A 
ATOM     29  C   UNL A   1      39.282  23.119  26.269  1.00  0.00     0.016 A 
ATOM     30  C   UNL A   1      40.976  22.092  27.649  1.00  0.00     0.016 A 
ATOM     31  C   UNL A   1      39.781  24.376  26.588  1.00  0.00     0.010 A 
ATOM     32  C   UNL A   1      41.420  23.366  28.034  1.00  0.00     0.010 A 
ATOM     33  C   UNL A   1      40.859  24.526  27.468  1.00  0.00    -0.014 A 
BRANCH  33  34
ATOM     34  C   UNL A   1      41.422  25.888  27.719  1.00  0.00     0.031 A 
ATOM     35  C   UNL A   1      42.742  26.292  27.107  1.00  0.00     0.074 A 
ATOM     36  C   UNL A   1      40.725  26.796  28.433  1.00  0.00     0.049 A 
ATOM     37  N   UNL A   1      43.431  27.393  27.278  1.00  0.00    -0.248 NA
ATOM     38  C   UNL A   1      43.372  25.327  26.195  1.00  0.00     0.031 C 
ATOM     39  C   UNL A   1      39.415  26.563  29.043  1.00  0.00     0.029 A 
ATOM     40  N   UNL A   1      41.006  28.104  28.751  1.00  0.00    -0.354 N 
ATOM     41  C   UNL A   1      44.603  27.228  26.543  1.00  0.00     0.074 A 
ATOM     42  C   UNL A   1      44.530  25.916  25.935  1.00  0.00     0.031 C 
ATOM     43  C   UNL A   1      38.985  27.698  29.615  1.00  0.00     0.029 A 
ATOM     44  C   UNL A   1      40.024  28.715  29.500  1.00  0.00     0.049 A 
ATOM     45  H   UNL A   1      41.831  28.561  28.471  1.00  0.00     0.167 HD
ATOM     46  C   UNL A   1      45.642  28.088  26.391  1.00  0.00     0.034 A 
ATOM     47  C   UNL A   1      39.972  29.939  30.063  1.00  0.00     0.034 A 
ATOM     48  C   UNL A   1      45.690  29.411  26.971  1.00  0.00     0.049 A 
ATOM     49  C   UNL A   1      41.152  30.865  29.908  1.00  0.00     0.074 A 
ATOM     50  C   UNL A   1      46.691  30.362  26.866  1.00  0.00     0.029 A 
ATOM     51  N   UNL A   1      44.696  29.974  27.760  1.00  0.00    -0.354 N 
ATOM     52  N   UNL A   1      42.272  30.670  29.251  1.00  0.00    -0.248 NA
ATOM     53  C   UNL A   1      41.063  32.169  30.576  1.00  0.00     0.031 C 
ATOM     54  C   UNL A   1      46.331  31.472  27.639  1.00  0.00     0.029 A 
ATOM     55  C   UNL A   1      45.068  31.248  28.162  1.00  0.00     0.049 A 
ATOM     56  H   UNL A   1      43.849  29.533  27.997  1.00  0.00     0.167 HD
ATOM     57  C   UNL A   1      43.014  31.837  29.419  1.00  0.00     0.074 A 
ATOM     58  C   UNL A   1      42.202  32.736  30.211  1.00  0.00     0.031 C 
ATOM     59  C   UNL A   1      44.257  32.135  28.963  1.00  0.00     0.034 A 
BRANCH  46  60
ATOM     60  C   UNL A   1      46.844  27.600  25.614  1.00  0.00     0.023 A 
ATOM     61  C   UNL A   1      47.082  27.983  24.284  1.00  0.00     0.031 A 
ATOM     62  C   UNL A   1      47.756  26.712  26.215  1.00  0.00     0.131 A 
ATOM     63  C   UNL A   1      48.160  27.427  23.577  1.00  0.00     0.055 A 
ATOM     64  C   UNL A   1      48.873  26.226  25.532  1.00  0.00     0.041 A 
ATOM     65  F   UNL A   1      47.572  26.293  27.477  1.00  0.00    -0.206 F 
ATOM     66  C   UNL A   1      49.072  26.571  24.199  1.00  0.00     0.022 A 
BRANCH  63  67
ATOM     67  S   UNL A   1      48.269  27.721  21.790  1.00  0.00     0.124 S 
ATOM     68  O   UNL A   1      49.368  28.681  21.717  1.00  0.00    -0.237 OA
ATOM     69  O   UNL A   1      48.549  26.388  21.269  1.00  0.00    -0.237 OA
ATOM     70  O   UNL A   1      46.955  28.262  21.450  1.00  0.00    -0.744 OA
ENDBRANCH  63  67
ENDBRANCH  46  60
BRANCH  47  71
ATOM     71  C   UNL A   1      38.789  30.349  30.874  1.00  0.00     0.023 A 
ATOM     72  C   UNL A   1      37.704  31.017  30.287  1.00  0.00     0.031 A 
ATOM     73  C   UNL A   1      38.748  30.119  32.262  1.00  0.00     0.131 A 
ATOM     74  C   UNL A   1      36.642  31.466  31.090  1.00  0.00     0.055 A 
ATOM     75  C   UNL A   1      37.661  30.510  33.045  1.00  0.00     0.041 A 
ATOM     76  F   UNL A   1      39.763  29.490  32.876  1.00  0.00    -0.206 F 
ATOM     77  C   UNL A   1      36.605  31.201  32.461  1.00  0.00     0.022 A 
BRANCH  74  78
ATOM     78  S   UNL A   1      35.350  32.485  30.329  1.00  0.00     0.124 S 
ATOM     79  O   UNL A   1      36.081  33.709  30.021  1.00  0.00    -0.237 OA
ATOM     80  O   UNL A   1      34.957  31.668  29.186  1.00  0.00    -0.237 OA
ATOM     81  O   UNL A   1      34.345  32.603  31.383  1.00  0.00    -0.744 OA
ENDBRANCH  74  78
ENDBRANCH  47  71
BRANCH  59  82
ATOM     82  C   UNL A   1      44.789  33.513  29.275  1.00  0.00     0.023 A 
ATOM     83  C   UNL A   1      44.585  34.601  28.407  1.00  0.00     0.031 A 
ATOM     84  C   UNL A   1      45.534  33.734  30.447  1.00  0.00     0.131 A 
ATOM     85  C   UNL A   1      45.171  35.844  28.695  1.00  0.00     0.055 A 
ATOM     86  C   UNL A   1      46.063  34.987  30.758  1.00  0.00     0.041 A 
ATOM     87  F   UNL A   1      45.762  32.730  31.311  1.00  0.00    -0.206 F 
ATOM     88  C   UNL A   1      45.896  36.047  29.871  1.00  0.00     0.022 A 
BRANCH  85  89
ATOM     89  S   UNL A   1      45.061  37.165  27.457  1.00  0.00     0.124 S 
ATOM     90  O   UNL A   1      45.377  38.350  28.248  1.00  0.00    -0.237 OA
ATOM     91  O   UNL A   1      46.068  36.763  26.481  1.00  0.00    -0.237 OA
ATOM     92  O   UNL A   1      43.678  37.083  26.990  1.00  0.00    -0.744 OA
ENDBRANCH  85  89
ENDBRANCH  59  82
ENDBRANCH  33  34
ENDBRANCH  26  28
ENDBRANCH  25  26
ENDBRANCH   1  25
TORSDOF 16
ENDMDL
MODEL 3
REMARK VINA RESULT:     -12.3      0.478      7.530
REMARK SMILES CC1(C)[C@H](C(=O)Nc2cccc3[nH]ccc23)[C@H]1C(=O)OCCOC(=O)c1ccc(-c2c3nc(c(-c4cc(S(=O)(=O)[O-])ccc4F)c4ccc([nH]4)c(-c4cc(S(=O)(=O)[O-])ccc4F)c4nc(c(-c5cc(S(=O)(=O)[O-])ccc5F)c5ccc2[nH]5)C=C4)C=C3)cc1
REMARK SMILES IDX 22 1 21 2 20 3 18 4 19 5 17 6 1 7 2 8 3 9 4 10 5 11 6 12
REMARK SMILES IDX 7 13 8 15 9 16 16 17 10 18 12 19 15 20 11 21 13 22 14 23
REMARK SMILES IDX 23 25 24 26 25 27 26 28 27 29 88 30 28 31 87 32 29 33 30 34
REMARK SMILES IDX 31 35 81 36 32 37 86 38 80 39 82 40 33 41 85 42 79 43 78 44
REMARK SMILES IDX 34 46 66 47 46 48 65 49 47 50 50 51 64 52 83 53 48 54 49 55
REMARK SMILES IDX 63 57 84 58 51 59 35 60 36 61 44 62 37 63 43 64 45 65 42 66
REMARK SMILES IDX 38 67 39 68 40 69 41 70 67 71 68 72 76 73 69 74 75 75 77 76
REMARK SMILES IDX 74 77 70 78 71 79 72 80 73 81 52 82 53 83 61 84 54 85 60 86
REMARK SMILES IDX 62 87 59 88 55 89 56 90 57 91 58 92
REMARK H PARENT 7 14 13 24 82 45 50 56
REMARK Flexibility Score: inf
ROOT
ATOM      1  C   UNL A   1      36.810  20.785  25.238  1.00  0.00     0.275 C 
ENDROOT
BRANCH   1   2
ATOM      2  C   UNL A   1      35.724  21.762  24.786  1.00  0.00     0.274 C 
BRANCH   2   3
ATOM      3  O   UNL A   1      35.363  22.606  25.891  1.00  0.00    -0.462 OA
BRANCH   3   4
ATOM      4  C   UNL A   1      34.221  22.303  26.553  1.00  0.00     0.310 C 
ATOM      5  O   UNL A   1      34.136  21.661  27.589  1.00  0.00    -0.252 OA
BRANCH   4   6
ATOM      6  C   UNL A   1      33.031  22.940  25.947  1.00  0.00     0.118 C 
ATOM      7  C   UNL A   1      32.193  20.770  24.684  1.00  0.00     0.013 C 
ATOM      8  C   UNL A   1      32.068  22.242  24.997  1.00  0.00    -0.009 C 
ATOM      9  C   UNL A   1      31.687  23.042  23.778  1.00  0.00     0.013 C 
ATOM     10  C   UNL A   1      31.658  22.586  26.434  1.00  0.00     0.100 C 
BRANCH  10  11
ATOM     11  C   UNL A   1      30.628  23.581  26.870  1.00  0.00     0.228 C 
ATOM     12  O   UNL A   1      29.659  23.163  27.496  1.00  0.00    -0.274 OA
ATOM     13  N   UNL A   1      30.969  24.915  26.874  1.00  0.00    -0.325 N 
ATOM     14  H   UNL A   1      31.325  25.283  27.715  1.00  0.00     0.169 HD
BRANCH  13  15
ATOM     15  C   UNL A   1      30.856  25.806  25.784  1.00  0.00     0.050 A 
ATOM     16  C   UNL A   1      29.682  25.896  25.028  1.00  0.00     0.027 A 
ATOM     17  C   UNL A   1      31.923  26.677  25.455  1.00  0.00     0.023 A 
ATOM     18  C   UNL A   1      29.609  26.680  23.878  1.00  0.00     0.004 A 
ATOM     19  C   UNL A   1      31.815  27.472  24.307  1.00  0.00     0.047 A 
ATOM     20  C   UNL A   1      33.197  26.969  26.028  1.00  0.00     0.030 A 
ATOM     21  C   UNL A   1      30.691  27.458  23.476  1.00  0.00     0.027 A 
ATOM     22  N   UNL A   1      32.984  28.193  24.186  1.00  0.00    -0.361 N 
ATOM     23  C   UNL A   1      33.810  27.918  25.243  1.00  0.00     0.083 A 
ATOM     24  H   UNL A   1      33.193  28.812  23.450  1.00  0.00     0.166 HD
ENDBRANCH  13  15
ENDBRANCH  10  11
ENDBRANCH   4   6
ENDBRANCH   3   4
ENDBRANCH   2   3
ENDBRANCH   1   2
BRANCH   1  25
ATOM     25  O   UNL A   1      38.115  21.331  24.966  1.00  0.00    -0.458 OA
BRANCH  25  26
ATOM     26  C   UNL A   1      39.053  21.050  25.901  1.00  0.00     0.338 C 
ATOM     27  O   UNL A   1      39.529  19.961  26.171  1.00  0.00    -0.246 OA
BRANCH  26  28
ATOM     28  C   UNL A   1      39.523  22.298  26.514  1.00  0.00     0.060 A 
ATOM     29  C   UNL A   1      38.888  23.482  26.160  1.00  0.00     0.016 A 
ATOM     30  C   UNL A   1      40.668  22.325  27.309  1.00  0.00     0.016 A 
ATOM     31  C   UNL A   1      39.453  24.703  26.505  1.00  0.00     0.010 A 
ATOM     32  C   UNL A   1      41.187  23.560  27.726  1.00  0.00     0.010 A 
ATOM     33  C   UNL A   1      40.613  24.768  27.287  1.00  0.00    -0.014 A 
BRANCH  33  34
ATOM     34  C   UNL A   1      41.240  26.096  27.565  1.00  0.00     0.031 A 
ATOM     35  C   UNL A   1      42.571  26.454  26.950  1.00  0.00     0.074 A 
ATOM     36  C   UNL A   1      40.592  27.017  28.309  1.00  0.00     0.049 A 
ATOM     37  N   UNL A   1      43.312  27.518  27.140  1.00  0.00    -0.248 NA
ATOM     38  C   UNL A   1      43.148  25.485  26.009  1.00  0.00     0.031 C 
ATOM     39  C   UNL A   1      39.278  26.829  28.926  1.00  0.00     0.029 A 
ATOM     40  N   UNL A   1      40.936  28.303  28.655  1.00  0.00    -0.354 N 
ATOM     41  C   UNL A   1      44.469  27.319  26.390  1.00  0.00     0.074 A 
ATOM     42  C   UNL A   1      44.330  26.027  25.751  1.00  0.00     0.031 C 
ATOM     43  C   UNL A   1      38.906  27.968  29.530  1.00  0.00     0.029 A 
ATOM     44  C   UNL A   1      39.990  28.939  29.429  1.00  0.00     0.049 A 
ATOM     45  H   UNL A   1      41.779  28.729  28.378  1.00  0.00     0.167 HD
ATOM     46  C   UNL A   1      45.545  28.134  26.248  1.00  0.00     0.034 A 
ATOM     47  C   UNL A   1      40.000  30.150  30.022  1.00  0.00     0.034 A 
ATOM     48  C   UNL A   1      45.659  29.438  26.860  1.00  0.00     0.049 A 
ATOM     49  C   UNL A   1      41.218  31.024  29.878  1.00  0.00     0.074 A 
ATOM     50  C   UNL A   1      46.701  30.344  26.768  1.00  0.00     0.029 A 
ATOM     51  N   UNL A   1      44.698  30.026  27.672  1.00  0.00    -0.354 N 
ATOM     52  N   UNL A   1      42.323  30.795  29.204  1.00  0.00    -0.248 NA
ATOM     53  C   UNL A   1      41.196  32.314  30.579  1.00  0.00     0.031 C 
ATOM     54  C   UNL A   1      46.399  31.450  27.571  1.00  0.00     0.029 A 
ATOM     55  C   UNL A   1      45.133  31.272  28.102  1.00  0.00     0.049 A 
ATOM     56  H   UNL A   1      43.834  29.618  27.908  1.00  0.00     0.167 HD
ATOM     57  C   UNL A   1      43.119  31.922  29.393  1.00  0.00     0.074 A 
ATOM     58  C   UNL A   1      42.357  32.838  30.215  1.00  0.00     0.031 C 
ATOM     59  C   UNL A   1      44.370  32.175  28.932  1.00  0.00     0.034 A 
BRANCH  46  60
ATOM     60  C   UNL A   1      46.716  27.611  25.447  1.00  0.00     0.023 A 
ATOM     61  C   UNL A   1      46.978  28.040  24.136  1.00  0.00     0.031 A 
ATOM     62  C   UNL A   1      47.572  26.642  26.005  1.00  0.00     0.131 A 
ATOM     63  C   UNL A   1      48.020  27.453  23.402  1.00  0.00     0.055 A 
ATOM     64  C   UNL A   1      48.658  26.122  25.298  1.00  0.00     0.041 A 
ATOM     65  F   UNL A   1      47.361  26.177  27.246  1.00  0.00    -0.206 F 
ATOM     66  C   UNL A   1      48.879  26.516  23.982  1.00  0.00     0.022 A 
BRANCH  63  67
ATOM     67  S   UNL A   1      48.149  27.823  21.630  1.00  0.00     0.124 S 
ATOM     68  O   UNL A   1      48.606  26.543  21.095  1.00  0.00    -0.237 OA
ATOM     69  O   UNL A   1      46.784  28.208  21.290  1.00  0.00    -0.237 OA
ATOM     70  O   UNL A   1      49.134  28.901  21.576  1.00  0.00    -0.744 OA
ENDBRANCH  63  67
ENDBRANCH  46  60
BRANCH  47  71
ATOM     71  C   UNL A   1      38.844  30.593  30.856  1.00  0.00     0.023 A 
ATOM     72  C   UNL A   1      37.722  31.203  30.274  1.00  0.00     0.031 A 
ATOM     73  C   UNL A   1      38.865  30.454  32.256  1.00  0.00     0.131 A 
ATOM     74  C   UNL A   1      36.687  31.687  31.091  1.00  0.00     0.055 A 
ATOM     75  C   UNL A   1      37.805  30.879  33.058  1.00  0.00     0.041 A 
ATOM     76  F   UNL A   1      39.917  29.884  32.865  1.00  0.00    -0.206 F 
ATOM     77  C   UNL A   1      36.713  31.512  32.476  1.00  0.00     0.022 A 
BRANCH  74  78
ATOM     78  S   UNL A   1      35.344  32.632  30.321  1.00  0.00     0.124 S 
ATOM     79  O   UNL A   1      36.001  33.904  30.040  1.00  0.00    -0.237 OA
ATOM     80  O   UNL A   1      35.022  31.807  29.162  1.00  0.00    -0.237 OA
ATOM     81  O   UNL A   1      34.318  32.673  31.360  1.00  0.00    -0.744 OA
ENDBRANCH  74  78
ENDBRANCH  47  71
BRANCH  59  82
ATOM     82  C   UNL A   1      44.968  33.519  29.273  1.00  0.00     0.023 A 
ATOM     83  C   UNL A   1      44.807  34.635  28.433  1.00  0.00     0.031 A 
ATOM     84  C   UNL A   1      45.732  33.676  30.443  1.00  0.00     0.131 A 
ATOM     85  C   UNL A   1      45.452  35.842  28.744  1.00  0.00     0.055 A 
ATOM     86  C   UNL A   1      46.321  34.896  30.778  1.00  0.00     0.041 A 
ATOM     87  F   UNL A   1      45.921  32.643  31.279  1.00  0.00    -0.206 F 
ATOM     88  C   UNL A   1      46.195  35.984  29.919  1.00  0.00     0.022 A 
BRANCH  85  89
ATOM     89  S   UNL A   1      45.393  37.198  27.540  1.00  0.00     0.124 S 
ATOM     90  O   UNL A   1      46.104  38.261  28.243  1.00  0.00    -0.237 OA
ATOM     91  O   UNL A   1      46.083  36.622  26.389  1.00  0.00    -0.237 OA
ATOM     92  O   UNL A   1      43.962  37.428  27.353  1.00  0.00    -0.744 OA
ENDBRANCH  85  89
ENDBRANCH  59  82
ENDBRANCH  33  34
ENDBRANCH  26  28
ENDBRANCH  25  26
ENDBRANCH   1  25
TORSDOF 16
ENDMDL
