MODEL 1
REMARK VINA RESULT:     -12.3      0.000      0.000
REMARK SMILES C[C@@H](NC(=O)CN1C(=O)/C(=C/c2ccccc2F)SC1=S)C(=O)OCCOC(=O)c1ccc(-c2c3nc(c(-c4cc(S(=O)(=O)[O-])ccc4F)c4ccc([nH]4)c(-c4cc(S(=O)(=O)[O-])ccc4F)c4nc(c(-c5cc(S(=O)(=O)[O-])ccc5F)c5ccc2[nH]5)C=C4)C=C3)cc1
REMARK SMILES IDX 25 1 24 2 22 3 23 4 2 5 1 6 3 7 4 8 5 10 6 11 7 12 8 13
REMARK SMILES IDX 20 14 9 15 10 16 19 17 21 18 11 19 12 20 13 21 17 22 14 23
REMARK SMILES IDX 16 24 18 25 15 26 26 27 27 28 28 29 29 30 30 31 31 32 92 33
REMARK SMILES IDX 32 34 91 35 33 36 34 37 35 38 85 39 36 40 90 41 84 42 86 43
REMARK SMILES IDX 37 44 89 45 83 46 82 47 38 49 70 50 50 51 69 52 51 53 54 54
REMARK SMILES IDX 68 55 87 56 52 57 53 58 67 60 88 61 55 62 39 63 40 64 48 65
REMARK SMILES IDX 41 66 47 67 49 68 46 69 42 70 43 71 44 72 45 73 71 74 72 75
REMARK SMILES IDX 80 76 73 77 79 78 81 79 78 80 74 81 75 82 76 83 77 84 56 85
REMARK SMILES IDX 57 86 65 87 58 88 64 89 66 90 63 91 59 92 60 93 61 94 62 95
REMARK H PARENT 3 9 86 48 54 59
REMARK Flexibility Score: inf
ROOT
ATOM      1  C   UNL A   1      31.819  28.869  24.963  1.00  0.00     0.274 C 
ENDROOT
BRANCH   1   2
ATOM      2  O   UNL A   1      30.904  29.083  23.867  1.00  0.00    -0.461 OA
BRANCH   2   3
ATOM      3  C   UNL A   1      30.682  28.101  22.970  1.00  0.00     0.328 C 
ATOM      4  O   UNL A   1      30.203  28.308  21.860  1.00  0.00    -0.250 OA
BRANCH   3   5
ATOM      5  C   UNL A   1      30.887  26.667  23.546  1.00  0.00     0.189 C 
ATOM      6  C   UNL A   1      29.730  25.750  23.966  1.00  0.00     0.043 C 
BRANCH   5   7
ATOM      7  N   UNL A   1      31.921  25.878  22.843  1.00  0.00    -0.341 N 
ATOM      8  C   UNL A   1      33.053  25.274  23.320  1.00  0.00     0.240 C 
ATOM      9  H   UNL A   1      31.770  25.768  21.877  1.00  0.00     0.164 HD
ATOM     10  O   UNL A   1      34.009  25.165  22.546  1.00  0.00    -0.273 OA
BRANCH   8  11
ATOM     11  C   UNL A   1      33.130  24.684  24.734  1.00  0.00     0.227 C 
BRANCH  11  12
ATOM     12  N   UNL A   1      33.702  23.340  24.894  1.00  0.00    -0.283 N 
ATOM     13  C   UNL A   1      32.864  22.271  24.749  1.00  0.00     0.266 C 
ATOM     14  C   UNL A   1      35.015  23.004  25.118  1.00  0.00     0.148 C 
ATOM     15  O   UNL A   1      31.655  22.312  24.771  1.00  0.00    -0.268 OA
ATOM     16  C   UNL A   1      33.576  20.996  24.634  1.00  0.00     0.081 C 
ATOM     17  S   UNL A   1      35.216  21.231  25.024  1.00  0.00    -0.054 SA
ATOM     18  S   UNL A   1      36.307  24.024  25.378  1.00  0.00    -0.052 S 
ATOM     19  C   UNL A   1      32.847  19.921  24.310  1.00  0.00     0.032 C 
BRANCH  19  20
ATOM     20  C   UNL A   1      33.204  18.514  24.405  1.00  0.00     0.012 A 
ATOM     21  C   UNL A   1      33.609  17.790  23.280  1.00  0.00     0.011 A 
ATOM     22  C   UNL A   1      32.932  17.834  25.596  1.00  0.00     0.130 A 
ATOM     23  C   UNL A   1      33.772  16.406  23.368  1.00  0.00     0.001 A 
ATOM     24  C   UNL A   1      33.083  16.459  25.685  1.00  0.00     0.040 A 
ATOM     25  F   UNL A   1      32.455  18.500  26.660  1.00  0.00    -0.206 F 
ATOM     26  C   UNL A   1      33.510  15.741  24.570  1.00  0.00     0.003 A 
ENDBRANCH  19  20
ENDBRANCH  11  12
ENDBRANCH   8  11
ENDBRANCH   5   7
ENDBRANCH   3   5
ENDBRANCH   2   3
ENDBRANCH   1   2
BRANCH   1  27
ATOM     27  C   UNL A   1      31.863  30.139  25.816  1.00  0.00     0.275 C 
BRANCH  27  28
ATOM     28  O   UNL A   1      33.232  30.441  26.103  1.00  0.00    -0.458 OA
BRANCH  28  29
ATOM     29  C   UNL A   1      33.416  31.464  26.975  1.00  0.00     0.338 C 
ATOM     30  O   UNL A   1      32.637  32.348  27.271  1.00  0.00    -0.246 OA
BRANCH  29  31
ATOM     31  C   UNL A   1      34.665  31.166  27.684  1.00  0.00     0.060 A 
ATOM     32  C   UNL A   1      35.568  32.206  27.926  1.00  0.00     0.016 A 
ATOM     33  C   UNL A   1      34.892  29.886  28.180  1.00  0.00     0.016 A 
ATOM     34  C   UNL A   1      36.705  31.982  28.684  1.00  0.00     0.010 A 
ATOM     35  C   UNL A   1      36.031  29.656  28.938  1.00  0.00     0.010 A 
ATOM     36  C   UNL A   1      36.935  30.703  29.191  1.00  0.00    -0.014 A 
BRANCH  36  37
ATOM     37  C   UNL A   1      38.172  30.411  29.929  1.00  0.00     0.031 A 
ATOM     38  C   UNL A   1      39.160  29.482  29.301  1.00  0.00     0.074 A 
ATOM     39  C   UNL A   1      38.359  30.948  31.145  1.00  0.00     0.049 A 
ATOM     40  N   UNL A   1      40.211  28.922  29.830  1.00  0.00    -0.248 NA
ATOM     41  C   UNL A   1      38.919  29.123  27.893  1.00  0.00     0.031 C 
ATOM     42  C   UNL A   1      37.470  31.917  31.788  1.00  0.00     0.029 A 
ATOM     43  N   UNL A   1      39.352  30.741  32.064  1.00  0.00    -0.354 N 
ATOM     44  C   UNL A   1      40.750  28.128  28.827  1.00  0.00     0.074 A 
ATOM     45  C   UNL A   1      39.897  28.259  27.666  1.00  0.00     0.031 C 
ATOM     46  C   UNL A   1      37.954  32.214  33.005  1.00  0.00     0.029 A 
ATOM     47  C   UNL A   1      39.150  31.413  33.246  1.00  0.00     0.049 A 
ATOM     48  H   UNL A   1      40.134  30.168  31.895  1.00  0.00     0.167 HD
ATOM     49  C   UNL A   1      41.862  27.362  28.886  1.00  0.00     0.034 A 
ATOM     50  C   UNL A   1      39.839  31.349  34.402  1.00  0.00     0.034 A 
ATOM     51  C   UNL A   1      42.678  27.259  30.067  1.00  0.00     0.049 A 
ATOM     52  C   UNL A   1      41.022  30.420  34.472  1.00  0.00     0.074 A 
ATOM     53  C   UNL A   1      43.826  26.514  30.257  1.00  0.00     0.029 A 
ATOM     54  N   UNL A   1      42.427  27.924  31.262  1.00  0.00    -0.354 N 
ATOM     55  N   UNL A   1      41.504  29.632  33.538  1.00  0.00    -0.248 NA
ATOM     56  C   UNL A   1      41.751  30.364  35.745  1.00  0.00     0.031 C 
ATOM     57  C   UNL A   1      44.230  26.675  31.584  1.00  0.00     0.029 A 
ATOM     58  C   UNL A   1      43.383  27.585  32.201  1.00  0.00     0.049 A 
ATOM     59  H   UNL A   1      41.679  28.545  31.416  1.00  0.00     0.167 HD
ATOM     60  C   UNL A   1      42.609  29.004  34.101  1.00  0.00     0.074 A 
ATOM     61  C   UNL A   1      42.721  29.507  35.457  1.00  0.00     0.031 C 
ATOM     62  C   UNL A   1      43.459  28.102  33.548  1.00  0.00     0.034 A 
BRANCH  49  63
ATOM     63  C   UNL A   1      42.222  26.554  27.670  1.00  0.00     0.023 A 
ATOM     64  C   UNL A   1      41.860  25.201  27.551  1.00  0.00     0.031 A 
ATOM     65  C   UNL A   1      42.933  27.145  26.613  1.00  0.00     0.131 A 
ATOM     66  C   UNL A   1      42.243  24.475  26.413  1.00  0.00     0.055 A 
ATOM     67  C   UNL A   1      43.257  26.435  25.457  1.00  0.00     0.041 A 
ATOM     68  F   UNL A   1      43.329  28.426  26.690  1.00  0.00    -0.206 F 
ATOM     69  C   UNL A   1      42.916  25.090  25.354  1.00  0.00     0.022 A 
BRANCH  66  70
ATOM     70  S   UNL A   1      41.916  22.692  26.367  1.00  0.00     0.124 S 
ATOM     71  O   UNL A   1      42.518  22.315  25.092  1.00  0.00    -0.237 OA
ATOM     72  O   UNL A   1      42.599  22.213  27.563  1.00  0.00    -0.237 OA
ATOM     73  O   UNL A   1      40.457  22.611  26.409  1.00  0.00    -0.744 OA
ENDBRANCH  66  70
ENDBRANCH  49  63
BRANCH  50  74
ATOM     74  C   UNL A   1      39.406  32.160  35.572  1.00  0.00     0.023 A 
ATOM     75  C   UNL A   1      39.856  33.477  35.738  1.00  0.00     0.031 A 
ATOM     76  C   UNL A   1      38.510  31.641  36.525  1.00  0.00     0.131 A 
ATOM     77  C   UNL A   1      39.421  34.230  36.841  1.00  0.00     0.055 A 
ATOM     78  C   UNL A   1      38.050  32.406  37.599  1.00  0.00     0.041 A 
ATOM     79  F   UNL A   1      38.042  30.388  36.406  1.00  0.00    -0.206 F 
ATOM     80  C   UNL A   1      38.510  33.709  37.763  1.00  0.00     0.022 A 
BRANCH  77  81
ATOM     81  S   UNL A   1      40.083  35.903  37.067  1.00  0.00     0.124 S 
ATOM     82  O   UNL A   1      41.506  35.637  37.246  1.00  0.00    -0.237 OA
ATOM     83  O   UNL A   1      39.703  36.552  35.816  1.00  0.00    -0.237 OA
ATOM     84  O   UNL A   1      39.383  36.389  38.254  1.00  0.00    -0.744 OA
ENDBRANCH  77  81
ENDBRANCH  50  74
BRANCH  62  85
ATOM     85  C   UNL A   1      44.610  27.631  34.393  1.00  0.00     0.023 A 
ATOM     86  C   UNL A   1      44.539  26.439  35.130  1.00  0.00     0.031 A 
ATOM     87  C   UNL A   1      45.818  28.351  34.397  1.00  0.00     0.131 A 
ATOM     88  C   UNL A   1      45.655  26.010  35.862  1.00  0.00     0.055 A 
ATOM     89  C   UNL A   1      46.940  27.893  35.085  1.00  0.00     0.041 A 
ATOM     90  F   UNL A   1      45.933  29.495  33.702  1.00  0.00    -0.206 F 
ATOM     91  C   UNL A   1      46.861  26.717  35.826  1.00  0.00     0.022 A 
BRANCH  88  92
ATOM     92  S   UNL A   1      45.502  24.524  36.888  1.00  0.00     0.124 S 
ATOM     93  O   UNL A   1      46.900  24.177  37.126  1.00  0.00    -0.237 OA
ATOM     94  O   UNL A   1      44.762  25.015  38.046  1.00  0.00    -0.237 OA
ATOM     95  O   UNL A   1      44.768  23.592  36.034  1.00  0.00    -0.744 OA
ENDBRANCH  88  92
ENDBRANCH  62  85
ENDBRANCH  36  37
ENDBRANCH  29  31
ENDBRANCH  28  29
ENDBRANCH  27  28
ENDBRANCH   1  27
TORSDOF 18
ENDMDL
MODEL 2
REMARK VINA RESULT:     -12.2      4.910     10.539
REMARK SMILES C[C@@H](NC(=O)CN1C(=O)/C(=C/c2ccccc2F)SC1=S)C(=O)OCCOC(=O)c1ccc(-c2c3nc(c(-c4cc(S(=O)(=O)[O-])ccc4F)c4ccc([nH]4)c(-c4cc(S(=O)(=O)[O-])ccc4F)c4nc(c(-c5cc(S(=O)(=O)[O-])ccc5F)c5ccc2[nH]5)C=C4)C=C3)cc1
REMARK SMILES IDX 25 1 24 2 22 3 23 4 2 5 1 6 3 7 4 8 5 10 6 11 7 12 8 13
REMARK SMILES IDX 20 14 9 15 10 16 19 17 21 18 11 19 12 20 13 21 17 22 14 23
REMARK SMILES IDX 16 24 18 25 15 26 26 27 27 28 28 29 29 30 30 31 31 32 92 33
REMARK SMILES IDX 32 34 91 35 33 36 34 37 35 38 85 39 36 40 90 41 84 42 86 43
REMARK SMILES IDX 37 44 89 45 83 46 82 47 38 49 70 50 50 51 69 52 51 53 54 54
REMARK SMILES IDX 68 55 87 56 52 57 53 58 67 60 88 61 55 62 39 63 40 64 48 65
REMARK SMILES IDX 41 66 47 67 49 68 46 69 42 70 43 71 44 72 45 73 71 74 72 75
REMARK SMILES IDX 80 76 73 77 79 78 81 79 78 80 74 81 75 82 76 83 77 84 56 85
REMARK SMILES IDX 57 86 65 87 58 88 64 89 66 90 63 91 59 92 60 93 61 94 62 95
REMARK H PARENT 3 9 86 48 54 59
REMARK Flexibility Score: inf
ROOT
ATOM      1  C   UNL A   1      34.983  20.771  25.414  1.00  0.00     0.274 C 
ENDROOT
BRANCH   1   2
ATOM      2  O   UNL A   1      33.929  21.399  24.652  1.00  0.00    -0.461 OA
BRANCH   2   3
ATOM      3  C   UNL A   1      32.922  22.033  25.286  1.00  0.00     0.328 C 
ATOM      4  O   UNL A   1      31.747  21.701  25.168  1.00  0.00    -0.250 OA
BRANCH   3   5
ATOM      5  C   UNL A   1      33.360  23.344  26.005  1.00  0.00     0.189 C 
ATOM      6  C   UNL A   1      34.433  24.294  25.455  1.00  0.00     0.043 C 
BRANCH   5   7
ATOM      7  N   UNL A   1      32.238  24.129  26.565  1.00  0.00    -0.341 N 
ATOM      8  C   UNL A   1      31.445  25.082  25.985  1.00  0.00     0.240 C 
ATOM      9  H   UNL A   1      32.028  23.932  27.506  1.00  0.00     0.164 HD
ATOM     10  O   UNL A   1      30.984  25.961  26.718  1.00  0.00    -0.273 OA
BRANCH   8  11
ATOM     11  C   UNL A   1      31.074  25.040  24.497  1.00  0.00     0.227 C 
BRANCH  11  12
ATOM     12  N   UNL A   1      30.990  26.313  23.768  1.00  0.00    -0.283 N 
ATOM     13  C   UNL A   1      29.769  26.918  23.683  1.00  0.00     0.266 C 
ATOM     14  C   UNL A   1      32.016  27.026  23.196  1.00  0.00     0.148 C 
ATOM     15  O   UNL A   1      28.702  26.393  23.907  1.00  0.00    -0.268 OA
ATOM     16  C   UNL A   1      29.846  28.301  23.204  1.00  0.00     0.081 C 
ATOM     17  S   UNL A   1      31.414  28.605  22.618  1.00  0.00    -0.054 SA
ATOM     18  S   UNL A   1      33.622  26.596  23.072  1.00  0.00    -0.052 S 
ATOM     19  C   UNL A   1      28.722  29.026  23.259  1.00  0.00     0.032 C 
BRANCH  19  20
ATOM     20  C   UNL A   1      28.419  30.291  22.609  1.00  0.00     0.012 A 
ATOM     21  C   UNL A   1      27.979  30.338  21.282  1.00  0.00     0.011 A 
ATOM     22  C   UNL A   1      28.775  31.477  23.255  1.00  0.00     0.130 A 
ATOM     23  C   UNL A   1      27.868  31.569  20.632  1.00  0.00     0.001 A 
ATOM     24  C   UNL A   1      28.676  32.702  22.610  1.00  0.00     0.040 A 
ATOM     25  F   UNL A   1      29.284  31.443  24.497  1.00  0.00    -0.206 F 
ATOM     26  C   UNL A   1      28.215  32.749  21.296  1.00  0.00     0.003 A 
ENDBRANCH  19  20
ENDBRANCH  11  12
ENDBRANCH   8  11
ENDBRANCH   5   7
ENDBRANCH   3   5
ENDBRANCH   2   3
ENDBRANCH   1   2
BRANCH   1  27
ATOM     27  C   UNL A   1      36.328  21.156  24.793  1.00  0.00     0.275 C 
BRANCH  27  28
ATOM     28  O   UNL A   1      37.082  21.881  25.770  1.00  0.00    -0.458 OA
BRANCH  28  29
ATOM     29  C   UNL A   1      38.359  21.450  25.935  1.00  0.00     0.338 C 
ATOM     30  O   UNL A   1      38.850  20.402  25.568  1.00  0.00    -0.246 OA
BRANCH  29  31
ATOM     31  C   UNL A   1      39.109  22.604  26.442  1.00  0.00     0.060 A 
ATOM     32  C   UNL A   1      40.253  22.379  27.214  1.00  0.00     0.016 A 
ATOM     33  C   UNL A   1      38.729  23.892  26.077  1.00  0.00     0.016 A 
ATOM     34  C   UNL A   1      41.043  23.441  27.618  1.00  0.00     0.010 A 
ATOM     35  C   UNL A   1      39.516  24.960  26.481  1.00  0.00     0.010 A 
ATOM     36  C   UNL A   1      40.672  24.735  27.250  1.00  0.00    -0.014 A 
BRANCH  36  37
ATOM     37  C   UNL A   1      41.442  25.890  27.731  1.00  0.00     0.031 A 
ATOM     38  C   UNL A   1      40.729  26.915  28.552  1.00  0.00     0.074 A 
ATOM     39  C   UNL A   1      42.736  26.011  27.392  1.00  0.00     0.049 A 
ATOM     40  N   UNL A   1      41.131  28.100  28.916  1.00  0.00    -0.248 NA
ATOM     41  C   UNL A   1      39.374  26.563  29.008  1.00  0.00     0.031 C 
ATOM     42  C   UNL A   1      43.513  25.015  26.652  1.00  0.00     0.029 A 
ATOM     43  N   UNL A   1      43.620  27.032  27.611  1.00  0.00    -0.354 N 
ATOM     44  C   UNL A   1      40.072  28.646  29.629  1.00  0.00     0.074 A 
ATOM     45  C   UNL A   1      39.001  27.673  29.626  1.00  0.00     0.031 C 
ATOM     46  C   UNL A   1      44.760  25.481  26.470  1.00  0.00     0.029 A 
ATOM     47  C   UNL A   1      44.847  26.826  27.028  1.00  0.00     0.049 A 
ATOM     48  H   UNL A   1      43.399  27.835  28.135  1.00  0.00     0.167 HD
ATOM     49  C   UNL A   1      40.015  29.855  30.229  1.00  0.00     0.034 A 
ATOM     50  C   UNL A   1      45.903  27.657  26.925  1.00  0.00     0.034 A 
ATOM     51  C   UNL A   1      41.105  30.794  30.201  1.00  0.00     0.049 A 
ATOM     52  C   UNL A   1      45.783  29.033  27.524  1.00  0.00     0.074 A 
ATOM     53  C   UNL A   1      41.171  32.053  30.765  1.00  0.00     0.029 A 
ATOM     54  N   UNL A   1      42.325  30.571  29.571  1.00  0.00    -0.354 N 
ATOM     55  N   UNL A   1      44.763  29.567  28.158  1.00  0.00    -0.248 NA
ATOM     56  C   UNL A   1      46.945  29.920  27.394  1.00  0.00     0.031 C 
ATOM     57  C   UNL A   1      42.402  32.617  30.419  1.00  0.00     0.029 A 
ATOM     58  C   UNL A   1      43.138  31.680  29.708  1.00  0.00     0.049 A 
ATOM     59  H   UNL A   1      42.571  29.745  29.095  1.00  0.00     0.167 HD
ATOM     60  C   UNL A   1      45.169  30.845  28.524  1.00  0.00     0.074 A 
ATOM     61  C   UNL A   1      46.528  31.001  28.041  1.00  0.00     0.031 C 
ATOM     62  C   UNL A   1      44.487  31.801  29.206  1.00  0.00     0.034 A 
BRANCH  49  63
ATOM     63  C   UNL A   1      38.731  30.239  30.911  1.00  0.00     0.023 A 
ATOM     64  C   UNL A   1      37.734  30.974  30.247  1.00  0.00     0.031 A 
ATOM     65  C   UNL A   1      38.500  29.863  32.245  1.00  0.00     0.131 A 
ATOM     66  C   UNL A   1      36.564  31.338  30.930  1.00  0.00     0.055 A 
ATOM     67  C   UNL A   1      37.308  30.174  32.900  1.00  0.00     0.041 A 
ATOM     68  F   UNL A   1      39.432  29.187  32.934  1.00  0.00    -0.206 F 
ATOM     69  C   UNL A   1      36.334  30.920  32.244  1.00  0.00     0.022 A 
BRANCH  66  70
ATOM     70  S   UNL A   1      35.378  32.431  30.104  1.00  0.00     0.124 S 
ATOM     71  O   UNL A   1      34.367  32.608  31.143  1.00  0.00    -0.237 OA
ATOM     72  O   UNL A   1      36.188  33.604  29.795  1.00  0.00    -0.237 OA
ATOM     73  O   UNL A   1      34.943  31.652  28.946  1.00  0.00    -0.744 OA
ENDBRANCH  66  70
ENDBRANCH  49  63
BRANCH  50  74
ATOM     74  C   UNL A   1      47.131  27.215  26.211  1.00  0.00     0.023 A 
ATOM     75  C   UNL A   1      48.156  26.544  26.893  1.00  0.00     0.031 A 
ATOM     76  C   UNL A   1      47.285  27.429  24.829  1.00  0.00     0.131 A 
ATOM     77  C   UNL A   1      49.299  26.120  26.195  1.00  0.00     0.055 A 
ATOM     78  C   UNL A   1      48.406  26.972  24.132  1.00  0.00     0.041 A 
ATOM     79  F   UNL A   1      46.329  28.059  24.128  1.00  0.00    -0.206 F 
ATOM     80  C   UNL A   1      49.423  26.317  24.817  1.00  0.00     0.022 A 
BRANCH  77  81
ATOM     81  S   UNL A   1      50.638  25.324  27.122  1.00  0.00     0.124 S 
ATOM     82  O   UNL A   1      51.560  24.956  26.054  1.00  0.00    -0.237 OA
ATOM     83  O   UNL A   1      51.076  26.397  28.009  1.00  0.00    -0.237 OA
ATOM     84  O   UNL A   1      49.973  24.205  27.787  1.00  0.00    -0.744 OA
ENDBRANCH  77  81
ENDBRANCH  50  74
BRANCH  62  85
ATOM     85  C   UNL A   1      45.212  33.084  29.505  1.00  0.00     0.023 A 
ATOM     86  C   UNL A   1      45.180  34.169  28.617  1.00  0.00     0.031 A 
ATOM     87  C   UNL A   1      45.878  33.242  30.734  1.00  0.00     0.131 A 
ATOM     88  C   UNL A   1      45.825  35.365  28.961  1.00  0.00     0.055 A 
ATOM     89  C   UNL A   1      46.473  34.450  31.093  1.00  0.00     0.041 A 
ATOM     90  F   UNL A   1      45.929  32.232  31.618  1.00  0.00    -0.206 F 
ATOM     91  C   UNL A   1      46.452  35.519  30.201  1.00  0.00     0.022 A 
BRANCH  88  92
ATOM     92  S   UNL A   1      45.859  36.714  27.751  1.00  0.00     0.124 S 
ATOM     93  O   UNL A   1      46.156  35.999  26.513  1.00  0.00    -0.237 OA
ATOM     94  O   UNL A   1      44.515  37.270  27.858  1.00  0.00    -0.237 OA
ATOM     95  O   UNL A   1      46.930  37.583  28.237  1.00  0.00    -0.744 OA
ENDBRANCH  88  92
ENDBRANCH  62  85
ENDBRANCH  36  37
ENDBRANCH  29  31
ENDBRANCH  28  29
ENDBRANCH  27  28
ENDBRANCH   1  27
TORSDOF 18
ENDMDL
MODEL 3
REMARK VINA RESULT:     -12.1      5.147     10.443
REMARK SMILES C[C@@H](NC(=O)CN1C(=O)/C(=C/c2ccccc2F)SC1=S)C(=O)OCCOC(=O)c1ccc(-c2c3nc(c(-c4cc(S(=O)(=O)[O-])ccc4F)c4ccc([nH]4)c(-c4cc(S(=O)(=O)[O-])ccc4F)c4nc(c(-c5cc(S(=O)(=O)[O-])ccc5F)c5ccc2[nH]5)C=C4)C=C3)cc1
REMARK SMILES IDX 25 1 24 2 22 3 23 4 2 5 1 6 3 7 4 8 5 10 6 11 7 12 8 13
REMARK SMILES IDX 20 14 9 15 10 16 19 17 21 18 11 19 12 20 13 21 17 22 14 23
REMARK SMILES IDX 16 24 18 25 15 26 26 27 27 28 28 29 29 30 30 31 31 32 92 33
REMARK SMILES IDX 32 34 91 35 33 36 34 37 35 38 85 39 36 40 90 41 84 42 86 43
REMARK SMILES IDX 37 44 89 45 83 46 82 47 38 49 70 50 50 51 69 52 51 53 54 54
REMARK SMILES IDX 68 55 87 56 52 57 53 58 67 60 88 61 55 62 39 63 40 64 48 65
REMARK SMILES IDX 41 66 47 67 49 68 46 69 42 70 43 71 44 72 45 73 71 74 72 75
REMARK SMILES IDX 80 76 73 77 79 78 81 79 78 80 74 81 75 82 76 83 77 84 56 85
REMARK SMILES IDX 57 86 65 87 58 88 64 89 66 90 63 91 59 92 60 93 61 94 62 95
REMARK H PARENT 3 9 86 48 54 59
REMARK Flexibility Score: inf
ROOT
ATOM      1  C   UNL A   1      35.998  20.565  25.068  1.00  0.00     0.274 C 
ENDROOT
BRANCH   1   2
ATOM      2  O   UNL A   1      35.173  21.654  25.535  1.00  0.00    -0.461 OA
BRANCH   2   3
ATOM      3  C   UNL A   1      34.118  21.408  26.338  1.00  0.00     0.328 C 
ATOM      4  O   UNL A   1      34.218  21.304  27.557  1.00  0.00    -0.250 OA
BRANCH   3   5
ATOM      5  C   UNL A   1      32.810  21.060  25.567  1.00  0.00     0.189 C 
ATOM      6  C   UNL A   1      32.464  19.646  25.082  1.00  0.00     0.043 C 
BRANCH   5   7
ATOM      7  N   UNL A   1      31.599  21.713  26.108  1.00  0.00    -0.341 N 
ATOM      8  C   UNL A   1      31.433  22.949  26.672  1.00  0.00     0.240 C 
ATOM      9  H   UNL A   1      30.779  21.170  26.053  1.00  0.00     0.164 HD
ATOM     10  O   UNL A   1      30.543  23.074  27.518  1.00  0.00    -0.273 OA
BRANCH   8  11
ATOM     11  C   UNL A   1      32.262  24.163  26.234  1.00  0.00     0.227 C 
BRANCH  11  12
ATOM     12  N   UNL A   1      31.838  24.894  25.032  1.00  0.00    -0.283 N 
ATOM     13  C   UNL A   1      30.870  25.846  25.174  1.00  0.00     0.266 C 
ATOM     14  C   UNL A   1      32.342  24.784  23.758  1.00  0.00     0.148 C 
ATOM     15  O   UNL A   1      30.133  25.969  26.126  1.00  0.00    -0.268 OA
ATOM     16  C   UNL A   1      30.734  26.707  23.996  1.00  0.00     0.081 C 
ATOM     17  S   UNL A   1      31.627  26.041  22.709  1.00  0.00    -0.054 SA
ATOM     18  S   UNL A   1      33.496  23.720  23.198  1.00  0.00    -0.052 S 
ATOM     19  C   UNL A   1      29.938  27.776  24.114  1.00  0.00     0.032 C 
BRANCH  19  20
ATOM     20  C   UNL A   1      29.390  28.625  23.068  1.00  0.00     0.012 A 
ATOM     21  C   UNL A   1      30.210  29.472  22.316  1.00  0.00     0.011 A 
ATOM     22  C   UNL A   1      28.001  28.746  22.965  1.00  0.00     0.130 A 
ATOM     23  C   UNL A   1      29.634  30.401  21.446  1.00  0.00     0.001 A 
ATOM     24  C   UNL A   1      27.425  29.674  22.109  1.00  0.00     0.040 A 
ATOM     25  F   UNL A   1      27.199  28.005  23.745  1.00  0.00    -0.206 F 
ATOM     26  C   UNL A   1      28.244  30.501  21.343  1.00  0.00     0.003 A 
ENDBRANCH  19  20
ENDBRANCH  11  12
ENDBRANCH   8  11
ENDBRANCH   5   7
ENDBRANCH   3   5
ENDBRANCH   2   3
ENDBRANCH   1   2
BRANCH   1  27
ATOM     27  C   UNL A   1      37.362  21.126  24.661  1.00  0.00     0.275 C 
BRANCH  27  28
ATOM     28  O   UNL A   1      37.857  21.928  25.738  1.00  0.00    -0.458 OA
BRANCH  28  29
ATOM     29  C   UNL A   1      39.053  21.529  26.239  1.00  0.00     0.338 C 
ATOM     30  O   UNL A   1      39.554  20.423  26.195  1.00  0.00    -0.246 OA
BRANCH  29  31
ATOM     31  C   UNL A   1      39.747  22.755  26.645  1.00  0.00     0.060 A 
ATOM     32  C   UNL A   1      39.340  23.974  26.094  1.00  0.00     0.016 A 
ATOM     33  C   UNL A   1      40.729  22.702  27.630  1.00  0.00     0.016 A 
ATOM     34  C   UNL A   1      39.901  25.161  26.535  1.00  0.00     0.010 A 
ATOM     35  C   UNL A   1      41.294  23.889  28.073  1.00  0.00     0.010 A 
ATOM     36  C   UNL A   1      40.880  25.117  27.527  1.00  0.00    -0.014 A 
BRANCH  36  37
ATOM     37  C   UNL A   1      41.553  26.350  27.957  1.00  0.00     0.031 A 
ATOM     38  C   UNL A   1      40.745  27.370  28.692  1.00  0.00     0.074 A 
ATOM     39  C   UNL A   1      42.846  26.541  27.649  1.00  0.00     0.049 A 
ATOM     40  N   UNL A   1      41.052  28.599  28.993  1.00  0.00    -0.248 NA
ATOM     41  C   UNL A   1      39.402  26.951  29.129  1.00  0.00     0.031 C 
ATOM     42  C   UNL A   1      43.714  25.559  26.995  1.00  0.00     0.029 A 
ATOM     43  N   UNL A   1      43.650  27.633  27.830  1.00  0.00    -0.354 N 
ATOM     44  C   UNL A   1      39.935  29.112  29.640  1.00  0.00     0.074 A 
ATOM     45  C   UNL A   1      38.934  28.068  29.666  1.00  0.00     0.031 C 
ATOM     46  C   UNL A   1      44.931  26.100  26.822  1.00  0.00     0.029 A 
ATOM     47  C   UNL A   1      44.908  27.479  27.296  1.00  0.00     0.049 A 
ATOM     48  H   UNL A   1      43.358  28.449  28.296  1.00  0.00     0.167 HD
ATOM     49  C   UNL A   1      39.776  30.348  30.161  1.00  0.00     0.034 A 
ATOM     50  C   UNL A   1      45.907  28.374  27.173  1.00  0.00     0.034 A 
ATOM     51  C   UNL A   1      40.800  31.357  30.107  1.00  0.00     0.049 A 
ATOM     52  C   UNL A   1      45.673  29.772  27.681  1.00  0.00     0.074 A 
ATOM     53  C   UNL A   1      40.761  32.650  30.592  1.00  0.00     0.029 A 
ATOM     54  N   UNL A   1      42.052  31.183  29.527  1.00  0.00    -0.354 N 
ATOM     55  N   UNL A   1      44.599  30.270  28.250  1.00  0.00    -0.248 NA
ATOM     56  C   UNL A   1      46.776  30.729  27.529  1.00  0.00     0.031 C 
ATOM     57  C   UNL A   1      41.961  33.277  30.248  1.00  0.00     0.029 A 
ATOM     58  C   UNL A   1      42.783  32.353  29.618  1.00  0.00     0.049 A 
ATOM     59  H   UNL A   1      42.370  30.349  29.111  1.00  0.00     0.167 HD
ATOM     60  C   UNL A   1      44.904  31.593  28.548  1.00  0.00     0.074 A 
ATOM     61  C   UNL A   1      46.264  31.814  28.095  1.00  0.00     0.031 C 
ATOM     62  C   UNL A   1      44.136  32.538  29.149  1.00  0.00     0.034 A 
BRANCH  49  63
ATOM     63  C   UNL A   1      38.447  30.681  30.781  1.00  0.00     0.023 A 
ATOM     64  C   UNL A   1      37.454  31.376  30.068  1.00  0.00     0.031 A 
ATOM     65  C   UNL A   1      38.167  30.296  32.102  1.00  0.00     0.131 A 
ATOM     66  C   UNL A   1      36.240  31.694  30.694  1.00  0.00     0.055 A 
ATOM     67  C   UNL A   1      36.934  30.560  32.699  1.00  0.00     0.041 A 
ATOM     68  F   UNL A   1      39.092  29.658  32.837  1.00  0.00    -0.206 F 
ATOM     69  C   UNL A   1      35.964  31.267  31.996  1.00  0.00     0.022 A 
BRANCH  66  70
ATOM     70  S   UNL A   1      35.052  32.739  29.810  1.00  0.00     0.124 S 
ATOM     71  O   UNL A   1      35.939  33.662  29.107  1.00  0.00    -0.237 OA
ATOM     72  O   UNL A   1      34.341  31.777  28.977  1.00  0.00    -0.237 OA
ATOM     73  O   UNL A   1      34.261  33.340  30.882  1.00  0.00    -0.744 OA
ENDBRANCH  66  70
ENDBRANCH  49  63
BRANCH  50  74
ATOM     74  C   UNL A   1      47.186  27.977  26.524  1.00  0.00     0.023 A 
ATOM     75  C   UNL A   1      47.301  27.941  25.127  1.00  0.00     0.031 A 
ATOM     76  C   UNL A   1      48.321  27.658  27.291  1.00  0.00     0.131 A 
ATOM     77  C   UNL A   1      48.523  27.579  24.536  1.00  0.00     0.055 A 
ATOM     78  C   UNL A   1      49.545  27.337  26.699  1.00  0.00     0.041 A 
ATOM     79  F   UNL A   1      48.266  27.686  28.632  1.00  0.00    -0.206 F 
ATOM     80  C   UNL A   1      49.649  27.293  25.313  1.00  0.00     0.022 A 
BRANCH  77  81
ATOM     81  S   UNL A   1      48.616  27.469  22.729  1.00  0.00     0.124 S 
ATOM     82  O   UNL A   1      49.898  28.109  22.458  1.00  0.00    -0.237 OA
ATOM     83  O   UNL A   1      48.557  26.028  22.508  1.00  0.00    -0.237 OA
ATOM     84  O   UNL A   1      47.440  28.212  22.282  1.00  0.00    -0.744 OA
ENDBRANCH  77  81
ENDBRANCH  50  74
BRANCH  62  85
ATOM     85  C   UNL A   1      44.761  33.884  29.389  1.00  0.00     0.023 A 
ATOM     86  C   UNL A   1      44.608  34.937  28.475  1.00  0.00     0.031 A 
ATOM     87  C   UNL A   1      45.454  34.131  30.588  1.00  0.00     0.131 A 
ATOM     88  C   UNL A   1      45.163  36.192  28.764  1.00  0.00     0.055 A 
ATOM     89  C   UNL A   1      45.958  35.394  30.893  1.00  0.00     0.041 A 
ATOM     90  F   UNL A   1      45.619  33.155  31.494  1.00  0.00    -0.206 F 
ATOM     91  C   UNL A   1      45.817  36.433  29.976  1.00  0.00     0.022 A 
BRANCH  88  92
ATOM     92  S   UNL A   1      45.043  37.504  27.519  1.00  0.00     0.124 S 
ATOM     93  O   UNL A   1      45.268  38.702  28.322  1.00  0.00    -0.237 OA
ATOM     94  O   UNL A   1      46.108  37.153  26.586  1.00  0.00    -0.237 OA
ATOM     95  O   UNL A   1      43.686  37.354  26.994  1.00  0.00    -0.744 OA
ENDBRANCH  88  92
ENDBRANCH  62  85
ENDBRANCH  36  37
ENDBRANCH  29  31
ENDBRANCH  28  29
ENDBRANCH  27  28
ENDBRANCH   1  27
TORSDOF 18
ENDMDL
