MODEL 1
REMARK VINA RESULT:     -13.6      0.000      0.000
REMARK SMILES N#C/C(=C/c1cccc(OCC(=O)OCCOC(=O)c2ccc(-c3c4nc(c(-c5cc(S(=O)(=O)[O-])ccc5F)c5ccc([nH]5)c(-c5cc(S(=O)(=O)[O-])ccc5F)c5nc(c(-c6cc(S(=O)(=O)[O-])ccc6F)c6ccc3[nH]6)C=C5)C=C4)cc2)c1)c1nc2ccccc2[nH]1
REMARK SMILES IDX 15 1 14 2 12 3 13 4 11 5 10 6 9 7 5 8 6 9 83 10 7 11 8 12
REMARK SMILES IDX 4 13 3 14 2 15 1 16 84 17 85 18 92 19 86 20 91 21 87 23
REMARK SMILES IDX 90 24 88 25 89 26 16 27 17 28 18 29 19 30 20 31 21 32 82 33
REMARK SMILES IDX 22 34 81 35 23 36 24 37 25 38 75 39 26 40 80 41 74 42 76 43
REMARK SMILES IDX 27 44 79 45 73 46 72 47 28 49 60 50 40 51 59 52 41 53 44 54
REMARK SMILES IDX 58 55 77 56 42 57 43 58 57 60 78 61 45 62 29 63 30 64 38 65
REMARK SMILES IDX 31 66 37 67 39 68 36 69 32 70 33 71 34 72 35 73 61 74 62 75
REMARK SMILES IDX 70 76 63 77 69 78 71 79 68 80 64 81 65 82 66 83 67 84 46 85
REMARK SMILES IDX 47 86 55 87 48 88 54 89 56 90 53 91 49 92 50 93 51 94 52 95
REMARK H PARENT 92 22 76 48 44 59
REMARK Flexibility Score: inf
ROOT
ATOM      1  C   UNL A   1      35.079  33.637  28.384  1.00  0.00     0.274 C 
ENDROOT
BRANCH   1   2
ATOM      2  O   UNL A   1      34.136  31.993  27.699  1.00  0.00    -0.460 OA
BRANCH   2   3
ATOM      3  C   UNL A   1      33.553  30.782  27.261  1.00  0.00     0.344 C 
ATOM      4  O   UNL A   1      34.144  29.699  27.316  1.00  0.00    -0.248 OA
BRANCH   3   5
ATOM      5  C   UNL A   1      31.971  30.855  26.587  1.00  0.00     0.351 C 
BRANCH   5   6
ATOM      6  O   UNL A   1      31.339  30.589  25.315  1.00  0.00    -0.482 OA
BRANCH   6   7
ATOM      7  C   UNL A   1      31.029  29.380  24.714  1.00  0.00     0.120 A 
ATOM      8  C   UNL A   1      30.338  26.976  24.798  1.00  0.00    -0.021 A 
ATOM      9  C   UNL A   1      29.676  27.148  23.584  1.00  0.00     0.008 A 
ATOM     10  C   UNL A   1      31.180  28.064  25.188  1.00  0.00     0.054 A 
ATOM     11  C   UNL A   1      29.764  28.373  22.899  1.00  0.00     0.004 A 
ATOM     12  C   UNL A   1      30.384  29.490  23.488  1.00  0.00     0.046 A 
BRANCH   8  13
ATOM     13  C   UNL A   1      29.994  25.749  25.675  1.00  0.00     0.031 C 
ATOM     14  C   UNL A   1      30.645  24.544  25.877  1.00  0.00     0.095 C 
BRANCH  14  15
ATOM     15  C   UNL A   1      30.140  23.492  26.850  1.00  0.00     0.103 C 
ATOM     16  N   UNL A   1      29.721  22.618  27.657  1.00  0.00    -0.192 NA
ENDBRANCH  14  15
BRANCH  14  17
ATOM     17  C   UNL A   1      31.914  24.283  25.222  1.00  0.00     0.149 A 
ATOM     18  N   UNL A   1      32.241  22.650  25.050  1.00  0.00    -0.228 NA
ATOM     19  N   UNL A   1      33.571  25.213  25.524  1.00  0.00    -0.337 N 
ATOM     20  C   UNL A   1      33.998  22.207  25.279  1.00  0.00     0.089 A 
ATOM     21  C   UNL A   1      34.927  23.876  25.670  1.00  0.00     0.066 A 
ATOM     22  H   UNL A   1      33.696  26.186  25.591  1.00  0.00     0.168 HD
ATOM     23  C   UNL A   1      34.932  20.715  24.922  1.00  0.00     0.030 A 
ATOM     24  C   UNL A   1      36.693  23.811  25.783  1.00  0.00     0.028 A 
ATOM     25  C   UNL A   1      36.718  20.763  25.035  1.00  0.00     0.002 A 
ATOM     26  C   UNL A   1      37.561  22.272  25.447  1.00  0.00     0.002 A 
ENDBRANCH  14  17
ENDBRANCH   8  13
ENDBRANCH   6   7
ENDBRANCH   5   6
ENDBRANCH   3   5
ENDBRANCH   2   3
ENDBRANCH   1   2
BRANCH   1  27
ATOM     27  C   UNL A   1      34.502  35.081  27.997  1.00  0.00     0.275 C 
BRANCH  27  28
ATOM     28  O   UNL A   1      33.421  35.511  29.085  1.00  0.00    -0.458 OA
BRANCH  28  29
ATOM     29  C   UNL A   1      33.128  35.444  31.063  1.00  0.00     0.338 C 
ATOM     30  O   UNL A   1      32.056  35.522  31.678  1.00  0.00    -0.246 OA
BRANCH  29  31
ATOM     31  C   UNL A   1      34.131  34.880  32.368  1.00  0.00     0.060 A 
ATOM     32  C   UNL A   1      35.408  35.478  32.398  1.00  0.00     0.016 A 
ATOM     33  C   UNL A   1      33.985  33.791  33.244  1.00  0.00     0.016 A 
ATOM     34  C   UNL A   1      36.546  34.760  32.751  1.00  0.00     0.010 A 
ATOM     35  C   UNL A   1      35.119  33.068  33.641  1.00  0.00     0.010 A 
ATOM     36  C   UNL A   1      36.406  33.490  33.288  1.00  0.00    -0.014 A 
BRANCH  36  37
ATOM     37  C   UNL A   1      37.566  32.805  33.874  1.00  0.00     0.031 A 
ATOM     38  C   UNL A   1      38.290  33.250  35.109  1.00  0.00     0.074 A 
ATOM     39  C   UNL A   1      37.993  31.782  33.119  1.00  0.00     0.049 A 
ATOM     40  N   UNL A   1      39.356  32.733  35.664  1.00  0.00    -0.248 NA
ATOM     41  C   UNL A   1      37.770  34.427  35.812  1.00  0.00     0.031 C 
ATOM     42  C   UNL A   1      37.329  31.325  31.888  1.00  0.00     0.029 A 
ATOM     43  N   UNL A   1      39.089  30.991  33.226  1.00  0.00    -0.354 N 
ATOM     44  C   UNL A   1      39.636  33.515  36.784  1.00  0.00     0.074 A 
ATOM     45  C   UNL A   1      38.640  34.568  36.807  1.00  0.00     0.031 C 
ATOM     46  C   UNL A   1      38.068  30.370  31.323  1.00  0.00     0.029 A 
ATOM     47  C   UNL A   1      39.241  30.155  32.151  1.00  0.00     0.049 A 
ATOM     48  H   UNL A   1      39.709  31.013  33.991  1.00  0.00     0.167 HD
ATOM     49  C   UNL A   1      40.634  33.350  37.691  1.00  0.00     0.034 A 
ATOM     50  C   UNL A   1      40.231  29.306  31.860  1.00  0.00     0.034 A 
ATOM     51  C   UNL A   1      41.620  32.292  37.579  1.00  0.00     0.049 A 
ATOM     52  C   UNL A   1      41.318  29.146  32.870  1.00  0.00     0.074 A 
ATOM     53  C   UNL A   1      42.630  31.948  38.462  1.00  0.00     0.029 A 
ATOM     54  N   UNL A   1      41.737  31.425  36.495  1.00  0.00    -0.354 N 
ATOM     55  N   UNL A   1      41.509  29.810  33.988  1.00  0.00    -0.248 NA
ATOM     56  C   UNL A   1      42.285  28.085  32.607  1.00  0.00     0.031 C 
ATOM     57  C   UNL A   1      43.411  30.947  37.868  1.00  0.00     0.029 A 
ATOM     58  C   UNL A   1      42.831  30.588  36.662  1.00  0.00     0.049 A 
ATOM     59  H   UNL A   1      41.130  31.410  35.720  1.00  0.00     0.167 HD
ATOM     60  C   UNL A   1      42.613  29.221  34.586  1.00  0.00     0.074 A 
ATOM     61  C   UNL A   1      43.012  28.130  33.713  1.00  0.00     0.031 C 
ATOM     62  C   UNL A   1      43.239  29.544  35.747  1.00  0.00     0.034 A 
BRANCH  49  63
ATOM     63  C   UNL A   1      40.747  34.329  38.846  1.00  0.00     0.023 A 
ATOM     64  C   UNL A   1      40.026  34.165  40.044  1.00  0.00     0.031 A 
ATOM     65  C   UNL A   1      41.624  35.429  38.768  1.00  0.00     0.131 A 
ATOM     66  C   UNL A   1      40.151  35.107  41.083  1.00  0.00     0.055 A 
ATOM     67  C   UNL A   1      41.802  36.319  39.833  1.00  0.00     0.041 A 
ATOM     68  F   UNL A   1      42.331  35.662  37.651  1.00  0.00    -0.206 F 
ATOM     69  C   UNL A   1      41.055  36.167  40.995  1.00  0.00     0.022 A 
BRANCH  66  70
ATOM     70  S   UNL A   1      39.021  35.001  42.501  1.00  0.00     0.124 S 
ATOM     71  O   UNL A   1      39.045  33.569  42.791  1.00  0.00    -0.237 OA
ATOM     72  O   UNL A   1      39.667  35.864  43.483  1.00  0.00    -0.237 OA
ATOM     73  O   UNL A   1      37.754  35.499  41.970  1.00  0.00    -0.744 OA
ENDBRANCH  66  70
ENDBRANCH  49  63
BRANCH  50  74
ATOM     74  C   UNL A   1      40.147  28.507  30.619  1.00  0.00     0.023 A 
ATOM     75  C   UNL A   1      40.987  28.804  29.543  1.00  0.00     0.031 A 
ATOM     76  C   UNL A   1      39.291  27.395  30.517  1.00  0.00     0.131 A 
ATOM     77  C   UNL A   1      40.917  28.035  28.377  1.00  0.00     0.055 A 
ATOM     78  C   UNL A   1      39.270  26.592  29.377  1.00  0.00     0.041 A 
ATOM     79  F   UNL A   1      38.503  27.046  31.546  1.00  0.00    -0.206 F 
ATOM     80  C   UNL A   1      40.076  26.922  28.291  1.00  0.00     0.022 A 
BRANCH  77  81
ATOM     81  S   UNL A   1      41.882  28.575  26.946  1.00  0.00     0.124 S 
ATOM     82  O   UNL A   1      42.662  29.671  27.512  1.00  0.00    -0.237 OA
ATOM     83  O   UNL A   1      42.627  27.367  26.609  1.00  0.00    -0.237 OA
ATOM     84  O   UNL A   1      40.860  28.969  25.980  1.00  0.00    -0.744 OA
ENDBRANCH  77  81
ENDBRANCH  50  74
BRANCH  62  85
ATOM     85  C   UNL A   1      44.421  28.682  36.111  1.00  0.00     0.023 A 
ATOM     86  C   UNL A   1      44.274  27.562  36.949  1.00  0.00     0.031 A 
ATOM     87  C   UNL A   1      45.716  29.032  35.693  1.00  0.00     0.131 A 
ATOM     88  C   UNL A   1      45.410  26.904  37.436  1.00  0.00     0.055 A 
ATOM     89  C   UNL A   1      46.837  28.310  36.104  1.00  0.00     0.041 A 
ATOM     90  F   UNL A   1      45.917  30.095  34.900  1.00  0.00    -0.206 F 
ATOM     91  C   UNL A   1      46.689  27.255  37.001  1.00  0.00     0.022 A 
BRANCH  88  92
ATOM     92  S   UNL A   1      45.197  25.708  38.782  1.00  0.00     0.124 S 
ATOM     93  O   UNL A   1      46.563  25.568  39.277  1.00  0.00    -0.237 OA
ATOM     94  O   UNL A   1      44.266  26.397  39.667  1.00  0.00    -0.237 OA
ATOM     95  O   UNL A   1      44.658  24.528  38.108  1.00  0.00    -0.744 OA
ENDBRANCH  88  92
ENDBRANCH  62  85
ENDBRANCH  36  37
ENDBRANCH  29  31
ENDBRANCH  28  29
ENDBRANCH  27  28
ENDBRANCH   1  27
TORSDOF 19
ENDMDL
MODEL 2
REMARK VINA RESULT:     -13.1      5.304     10.594
REMARK SMILES N#C/C(=C/c1cccc(OCC(=O)OCCOC(=O)c2ccc(-c3c4nc(c(-c5cc(S(=O)(=O)[O-])ccc5F)c5ccc([nH]5)c(-c5cc(S(=O)(=O)[O-])ccc5F)c5nc(c(-c6cc(S(=O)(=O)[O-])ccc6F)c6ccc3[nH]6)C=C5)C=C4)cc2)c1)c1nc2ccccc2[nH]1
REMARK SMILES IDX 15 1 14 2 12 3 13 4 11 5 10 6 9 7 5 8 6 9 83 10 7 11 8 12
REMARK SMILES IDX 4 13 3 14 2 15 1 16 84 17 85 18 92 19 86 20 91 21 87 23
REMARK SMILES IDX 90 24 88 25 89 26 16 27 17 28 18 29 19 30 20 31 21 32 82 33
REMARK SMILES IDX 22 34 81 35 23 36 24 37 25 38 75 39 26 40 80 41 74 42 76 43
REMARK SMILES IDX 27 44 79 45 73 46 72 47 28 49 60 50 40 51 59 52 41 53 44 54
REMARK SMILES IDX 58 55 77 56 42 57 43 58 57 60 78 61 45 62 29 63 30 64 38 65
REMARK SMILES IDX 31 66 37 67 39 68 36 69 32 70 33 71 34 72 35 73 61 74 62 75
REMARK SMILES IDX 70 76 63 77 69 78 71 79 68 80 64 81 65 82 66 83 67 84 46 85
REMARK SMILES IDX 47 86 55 87 48 88 54 89 56 90 53 91 49 92 50 93 51 94 52 95
REMARK H PARENT 92 22 76 48 44 59
REMARK Flexibility Score: inf
ROOT
ATOM      1  C   UNL A   1      40.038  32.773  39.168  1.00  0.00     0.274 C 
ENDROOT
BRANCH   1   2
ATOM      2  O   UNL A   1      39.069  32.029  37.565  1.00  0.00    -0.460 OA
BRANCH   2   3
ATOM      3  C   UNL A   1      38.469  31.437  36.431  1.00  0.00     0.344 C 
ATOM      4  O   UNL A   1      38.316  30.216  36.317  1.00  0.00    -0.248 OA
BRANCH   3   5
ATOM      5  C   UNL A   1      37.981  32.478  35.149  1.00  0.00     0.351 C 
BRANCH   5   6
ATOM      6  O   UNL A   1      38.612  33.316  34.156  1.00  0.00    -0.482 OA
BRANCH   6   7
ATOM      7  C   UNL A   1      39.359  32.965  33.044  1.00  0.00     0.120 A 
ATOM      8  C   UNL A   1      40.116  31.326  31.310  1.00  0.00    -0.021 A 
ATOM      9  C   UNL A   1      40.230  32.375  30.401  1.00  0.00     0.008 A 
ATOM     10  C   UNL A   1      39.898  31.721  32.667  1.00  0.00     0.054 A 
ATOM     11  C   UNL A   1      40.009  33.700  30.820  1.00  0.00     0.004 A 
ATOM     12  C   UNL A   1      39.522  33.980  32.109  1.00  0.00     0.046 A 
BRANCH   8  13
ATOM     13  C   UNL A   1      40.065  29.873  30.780  1.00  0.00     0.031 C 
ATOM     14  C   UNL A   1      39.026  29.108  30.277  1.00  0.00     0.095 C 
BRANCH  14  15
ATOM     15  C   UNL A   1      39.228  27.697  29.751  1.00  0.00     0.103 C 
ATOM     16  N   UNL A   1      39.395  26.525  29.314  1.00  0.00    -0.192 NA
ENDBRANCH  14  15
BRANCH  14  17
ATOM     17  C   UNL A   1      37.699  29.679  30.145  1.00  0.00     0.149 A 
ATOM     18  N   UNL A   1      37.539  30.670  28.805  1.00  0.00    -0.228 NA
ATOM     19  N   UNL A   1      36.609  30.386  31.564  1.00  0.00    -0.337 N 
ATOM     20  C   UNL A   1      36.492  32.142  29.078  1.00  0.00     0.089 A 
ATOM     21  C   UNL A   1      35.898  32.042  30.933  1.00  0.00     0.066 A 
ATOM     22  H   UNL A   1      36.451  29.976  32.444  1.00  0.00     0.168 HD
ATOM     23  C   UNL A   1      35.755  33.335  27.956  1.00  0.00     0.030 A 
ATOM     24  C   UNL A   1      34.719  33.249  31.470  1.00  0.00     0.028 A 
ATOM     25  C   UNL A   1      34.548  34.493  28.594  1.00  0.00     0.002 A 
ATOM     26  C   UNL A   1      34.049  34.437  30.298  1.00  0.00     0.002 A 
ENDBRANCH  14  17
ENDBRANCH   8  13
ENDBRANCH   6   7
ENDBRANCH   5   6
ENDBRANCH   3   5
ENDBRANCH   2   3
ENDBRANCH   1   2
BRANCH   1  27
ATOM     27  C   UNL A   1      39.388  34.001  39.967  1.00  0.00     0.275 C 
BRANCH  27  28
ATOM     28  O   UNL A   1      40.502  35.118  40.189  1.00  0.00    -0.458 OA
BRANCH  28  29
ATOM     29  C   UNL A   1      42.059  35.939  39.238  1.00  0.00     0.338 C 
ATOM     30  O   UNL A   1      43.048  36.495  39.734  1.00  0.00    -0.246 OA
BRANCH  29  31
ATOM     31  C   UNL A   1      42.655  35.758  37.612  1.00  0.00     0.060 A 
ATOM     32  C   UNL A   1      41.634  35.608  36.651  1.00  0.00     0.016 A 
ATOM     33  C   UNL A   1      43.947  35.511  37.123  1.00  0.00     0.016 A 
ATOM     34  C   UNL A   1      41.773  34.755  35.561  1.00  0.00     0.010 A 
ATOM     35  C   UNL A   1      44.116  34.679  36.006  1.00  0.00     0.010 A 
ATOM     36  C   UNL A   1      43.013  34.198  35.291  1.00  0.00    -0.014 A 
BRANCH  36  37
ATOM     37  C   UNL A   1      43.240  33.480  34.030  1.00  0.00     0.031 A 
ATOM     38  C   UNL A   1      43.295  34.123  32.677  1.00  0.00     0.074 A 
ATOM     39  C   UNL A   1      43.286  32.150  34.197  1.00  0.00     0.049 A 
ATOM     40  N   UNL A   1      43.438  33.556  31.506  1.00  0.00    -0.248 NA
ATOM     41  C   UNL A   1      43.162  35.582  32.613  1.00  0.00     0.031 C 
ATOM     42  C   UNL A   1      43.212  31.475  35.502  1.00  0.00     0.029 A 
ATOM     43  N   UNL A   1      43.343  31.139  33.295  1.00  0.00    -0.354 N 
ATOM     44  C   UNL A   1      43.418  34.584  30.565  1.00  0.00     0.074 A 
ATOM     45  C   UNL A   1      43.213  35.813  31.306  1.00  0.00     0.031 C 
ATOM     46  C   UNL A   1      43.170  30.157  35.308  1.00  0.00     0.029 A 
ATOM     47  C   UNL A   1      43.216  29.907  33.879  1.00  0.00     0.049 A 
ATOM     48  H   UNL A   1      43.463  31.274  32.327  1.00  0.00     0.167 HD
ATOM     49  C   UNL A   1      43.561  34.488  29.217  1.00  0.00     0.034 A 
ATOM     50  C   UNL A   1      43.136  28.697  33.316  1.00  0.00     0.034 A 
ATOM     51  C   UNL A   1      43.724  33.214  28.541  1.00  0.00     0.049 A 
ATOM     52  C   UNL A   1      43.291  28.617  31.834  1.00  0.00     0.074 A 
ATOM     53  C   UNL A   1      43.966  32.966  27.201  1.00  0.00     0.029 A 
ATOM     54  N   UNL A   1      43.629  31.969  29.158  1.00  0.00    -0.354 N 
ATOM     55  N   UNL A   1      43.391  29.596  30.962  1.00  0.00    -0.248 NA
ATOM     56  C   UNL A   1      43.380  27.274  31.271  1.00  0.00     0.031 C 
ATOM     57  C   UNL A   1      43.917  31.582  26.994  1.00  0.00     0.029 A 
ATOM     58  C   UNL A   1      43.752  30.954  28.219  1.00  0.00     0.049 A 
ATOM     59  H   UNL A   1      43.493  31.829  30.123  1.00  0.00     0.167 HD
ATOM     60  C   UNL A   1      43.589  28.980  29.735  1.00  0.00     0.074 A 
ATOM     61  C   UNL A   1      43.626  27.551  30.000  1.00  0.00     0.031 C 
ATOM     62  C   UNL A   1      43.730  29.536  28.504  1.00  0.00     0.034 A 
BRANCH  49  63
ATOM     63  C   UNL A   1      43.510  35.753  28.379  1.00  0.00     0.023 A 
ATOM     64  C   UNL A   1      44.674  36.443  27.987  1.00  0.00     0.031 A 
ATOM     65  C   UNL A   1      42.277  36.263  27.927  1.00  0.00     0.131 A 
ATOM     66  C   UNL A   1      44.577  37.620  27.223  1.00  0.00     0.055 A 
ATOM     67  C   UNL A   1      42.192  37.391  27.104  1.00  0.00     0.041 A 
ATOM     68  F   UNL A   1      41.123  35.671  28.276  1.00  0.00    -0.206 F 
ATOM     69  C   UNL A   1      43.346  38.084  26.756  1.00  0.00     0.022 A 
BRANCH  66  70
ATOM     70  S   UNL A   1      46.074  38.614  26.954  1.00  0.00     0.124 S 
ATOM     71  O   UNL A   1      47.037  37.593  26.546  1.00  0.00    -0.237 OA
ATOM     72  O   UNL A   1      45.651  39.546  25.915  1.00  0.00    -0.237 OA
ATOM     73  O   UNL A   1      46.330  39.212  28.263  1.00  0.00    -0.744 OA
ENDBRANCH  66  70
ENDBRANCH  49  63
BRANCH  50  74
ATOM     74  C   UNL A   1      43.005  27.510  34.187  1.00  0.00     0.023 A 
ATOM     75  C   UNL A   1      44.144  26.943  34.766  1.00  0.00     0.031 A 
ATOM     76  C   UNL A   1      41.746  26.975  34.518  1.00  0.00     0.131 A 
ATOM     77  C   UNL A   1      44.014  25.831  35.603  1.00  0.00     0.055 A 
ATOM     78  C   UNL A   1      41.616  25.907  35.404  1.00  0.00     0.041 A 
ATOM     79  F   UNL A   1      40.623  27.520  34.022  1.00  0.00    -0.206 F 
ATOM     80  C   UNL A   1      42.758  25.318  35.940  1.00  0.00     0.022 A 
BRANCH  77  81
ATOM     81  S   UNL A   1      45.526  25.018  36.172  1.00  0.00     0.124 S 
ATOM     82  O   UNL A   1      46.405  25.189  35.020  1.00  0.00    -0.237 OA
ATOM     83  O   UNL A   1      45.864  25.799  37.356  1.00  0.00    -0.237 OA
ATOM     84  O   UNL A   1      45.093  23.647  36.430  1.00  0.00    -0.744 OA
ENDBRANCH  77  81
ENDBRANCH  50  74
BRANCH  62  85
ATOM     85  C   UNL A   1      43.939  28.565  27.370  1.00  0.00     0.023 A 
ATOM     86  C   UNL A   1      45.219  28.337  26.834  1.00  0.00     0.031 A 
ATOM     87  C   UNL A   1      42.842  27.932  26.761  1.00  0.00     0.131 A 
ATOM     88  C   UNL A   1      45.356  27.593  25.656  1.00  0.00     0.055 A 
ATOM     89  C   UNL A   1      42.999  27.112  25.644  1.00  0.00     0.041 A 
ATOM     90  F   UNL A   1      41.597  28.120  27.225  1.00  0.00    -0.206 F 
ATOM     91  C   UNL A   1      44.259  26.959  25.070  1.00  0.00     0.022 A 
BRANCH  88  92
ATOM     92  S   UNL A   1      46.958  27.622  24.806  1.00  0.00     0.124 S 
ATOM     93  O   UNL A   1      46.766  28.701  23.841  1.00  0.00    -0.237 OA
ATOM     94  O   UNL A   1      47.885  27.899  25.897  1.00  0.00    -0.237 OA
ATOM     95  O   UNL A   1      47.062  26.283  24.227  1.00  0.00    -0.744 OA
ENDBRANCH  88  92
ENDBRANCH  62  85
ENDBRANCH  36  37
ENDBRANCH  29  31
ENDBRANCH  28  29
ENDBRANCH  27  28
ENDBRANCH   1  27
TORSDOF 19
ENDMDL
MODEL 3
REMARK VINA RESULT:     -12.7      5.822     11.966
REMARK SMILES N#C/C(=C/c1cccc(OCC(=O)OCCOC(=O)c2ccc(-c3c4nc(c(-c5cc(S(=O)(=O)[O-])ccc5F)c5ccc([nH]5)c(-c5cc(S(=O)(=O)[O-])ccc5F)c5nc(c(-c6cc(S(=O)(=O)[O-])ccc6F)c6ccc3[nH]6)C=C5)C=C4)cc2)c1)c1nc2ccccc2[nH]1
REMARK SMILES IDX 15 1 14 2 12 3 13 4 11 5 10 6 9 7 5 8 6 9 83 10 7 11 8 12
REMARK SMILES IDX 4 13 3 14 2 15 1 16 84 17 85 18 92 19 86 20 91 21 87 23
REMARK SMILES IDX 90 24 88 25 89 26 16 27 17 28 18 29 19 30 20 31 21 32 82 33
REMARK SMILES IDX 22 34 81 35 23 36 24 37 25 38 75 39 26 40 80 41 74 42 76 43
REMARK SMILES IDX 27 44 79 45 73 46 72 47 28 49 60 50 40 51 59 52 41 53 44 54
REMARK SMILES IDX 58 55 77 56 42 57 43 58 57 60 78 61 45 62 29 63 30 64 38 65
REMARK SMILES IDX 31 66 37 67 39 68 36 69 32 70 33 71 34 72 35 73 61 74 62 75
REMARK SMILES IDX 70 76 63 77 69 78 71 79 68 80 64 81 65 82 66 83 67 84 46 85
REMARK SMILES IDX 47 86 55 87 48 88 54 89 56 90 53 91 49 92 50 93 51 94 52 95
REMARK H PARENT 92 22 76 48 44 59
REMARK Flexibility Score: inf
ROOT
ATOM      1  C   UNL A   1      43.663  18.682  25.030  1.00  0.00     0.274 C 
ENDROOT
BRANCH   1   2
ATOM      2  O   UNL A   1      42.451  19.855  26.132  1.00  0.00    -0.460 OA
BRANCH   2   3
ATOM      3  C   UNL A   1      41.668  20.664  26.987  1.00  0.00     0.344 C 
ATOM      4  O   UNL A   1      40.496  20.396  27.272  1.00  0.00    -0.248 OA
BRANCH   3   5
ATOM      5  C   UNL A   1      42.386  22.100  27.608  1.00  0.00     0.351 C 
BRANCH   5   6
ATOM      6  O   UNL A   1      41.993  23.220  28.431  1.00  0.00    -0.482 OA
BRANCH   6   7
ATOM      7  C   UNL A   1      41.372  24.407  28.077  1.00  0.00     0.120 A 
ATOM      8  C   UNL A   1      41.232  26.905  28.028  1.00  0.00    -0.021 A 
ATOM      9  C   UNL A   1      40.612  26.823  26.783  1.00  0.00     0.008 A 
ATOM     10  C   UNL A   1      41.376  25.660  28.716  1.00  0.00     0.054 A 
ATOM     11  C   UNL A   1      40.289  25.568  26.236  1.00  0.00     0.004 A 
ATOM     12  C   UNL A   1      40.719  24.378  26.850  1.00  0.00     0.046 A 
BRANCH   8  13
ATOM     13  C   UNL A   1      41.844  28.254  28.476  1.00  0.00     0.031 C 
ATOM     14  C   UNL A   1      41.288  29.363  29.091  1.00  0.00     0.095 C 
BRANCH  14  15
ATOM     15  C   UNL A   1      42.112  30.573  29.498  1.00  0.00     0.103 C 
ATOM     16  N   UNL A   1      42.795  31.578  29.835  1.00  0.00    -0.192 NA
ENDBRANCH  14  15
BRANCH  14  17
ATOM     17  C   UNL A   1      39.885  29.363  29.463  1.00  0.00     0.149 A 
ATOM     18  N   UNL A   1      38.883  29.930  28.248  1.00  0.00    -0.228 NA
ATOM     19  N   UNL A   1      39.151  29.893  31.161  1.00  0.00    -0.337 N 
ATOM     20  C   UNL A   1      37.476  30.934  28.840  1.00  0.00     0.089 A 
ATOM     21  C   UNL A   1      37.645  31.003  30.781  1.00  0.00     0.066 A 
ATOM     22  H   UNL A   1      39.487  29.642  32.051  1.00  0.00     0.168 HD
ATOM     23  C   UNL A   1      35.976  31.515  28.041  1.00  0.00     0.030 A 
ATOM     24  C   UNL A   1      36.327  31.773  31.680  1.00  0.00     0.028 A 
ATOM     25  C   UNL A   1      34.689  32.250  29.046  1.00  0.00     0.002 A 
ATOM     26  C   UNL A   1      34.869  32.364  30.810  1.00  0.00     0.002 A 
ENDBRANCH  14  17
ENDBRANCH   8  13
ENDBRANCH   6   7
ENDBRANCH   5   6
ENDBRANCH   3   5
ENDBRANCH   2   3
ENDBRANCH   1   2
BRANCH   1  27
ATOM     27  C   UNL A   1      45.245  18.929  25.090  1.00  0.00     0.275 C 
BRANCH  27  28
ATOM     28  O   UNL A   1      45.516  20.491  25.254  1.00  0.00    -0.458 OA
BRANCH  28  29
ATOM     29  C   UNL A   1      45.065  22.225  24.365  1.00  0.00     0.338 C 
ATOM     30  O   UNL A   1      44.396  22.405  23.339  1.00  0.00    -0.246 OA
BRANCH  29  31
ATOM     31  C   UNL A   1      45.101  23.869  24.939  1.00  0.00     0.060 A 
ATOM     32  C   UNL A   1      46.299  24.209  25.601  1.00  0.00     0.016 A 
ATOM     33  C   UNL A   1      44.084  24.829  25.060  1.00  0.00     0.016 A 
ATOM     34  C   UNL A   1      46.310  25.042  26.715  1.00  0.00     0.010 A 
ATOM     35  C   UNL A   1      44.086  25.703  26.157  1.00  0.00     0.010 A 
ATOM     36  C   UNL A   1      45.154  25.724  27.061  1.00  0.00    -0.014 A 
BRANCH  36  37
ATOM     37  C   UNL A   1      45.196  26.774  28.088  1.00  0.00     0.031 A 
ATOM     38  C   UNL A   1      45.534  28.212  27.829  1.00  0.00     0.074 A 
ATOM     39  C   UNL A   1      45.007  26.291  29.325  1.00  0.00     0.049 A 
ATOM     40  N   UNL A   1      45.646  29.194  28.686  1.00  0.00    -0.248 NA
ATOM     41  C   UNL A   1      45.790  28.608  26.441  1.00  0.00     0.031 C 
ATOM     42  C   UNL A   1      44.698  24.885  29.628  1.00  0.00     0.029 A 
ATOM     43  N   UNL A   1      45.101  26.887  30.540  1.00  0.00    -0.354 N 
ATOM     44  C   UNL A   1      45.982  30.327  27.947  1.00  0.00     0.074 A 
ATOM     45  C   UNL A   1      46.089  29.898  26.567  1.00  0.00     0.031 C 
ATOM     46  C   UNL A   1      44.686  24.717  30.950  1.00  0.00     0.029 A 
ATOM     47  C   UNL A   1      44.982  25.995  31.572  1.00  0.00     0.049 A 
ATOM     48  H   UNL A   1      45.240  27.854  30.666  1.00  0.00     0.167 HD
ATOM     49  C   UNL A   1      46.176  31.593  28.399  1.00  0.00     0.034 A 
ATOM     50  C   UNL A   1      45.107  26.189  32.889  1.00  0.00     0.034 A 
ATOM     51  C   UNL A   1      46.090  31.940  29.805  1.00  0.00     0.049 A 
ATOM     52  C   UNL A   1      45.324  27.588  33.360  1.00  0.00     0.074 A 
ATOM     53  C   UNL A   1      46.175  33.187  30.400  1.00  0.00     0.029 A 
ATOM     54  N   UNL A   1      45.930  31.023  30.841  1.00  0.00    -0.354 N 
ATOM     55  N   UNL A   1      45.523  28.676  32.649  1.00  0.00    -0.248 NA
ATOM     56  C   UNL A   1      45.277  27.792  34.804  1.00  0.00     0.031 C 
ATOM     57  C   UNL A   1      46.167  33.013  31.790  1.00  0.00     0.029 A 
ATOM     58  C   UNL A   1      45.970  31.669  32.069  1.00  0.00     0.049 A 
ATOM     59  H   UNL A   1      45.808  30.054  30.720  1.00  0.00     0.167 HD
ATOM     60  C   UNL A   1      45.593  29.712  33.569  1.00  0.00     0.074 A 
ATOM     61  C   UNL A   1      45.380  29.110  34.874  1.00  0.00     0.031 C 
ATOM     62  C   UNL A   1      45.809  31.036  33.359  1.00  0.00     0.034 A 
BRANCH  49  63
ATOM     63  C   UNL A   1      46.533  32.683  27.403  1.00  0.00     0.023 A 
ATOM     64  C   UNL A   1      47.852  32.891  26.956  1.00  0.00     0.031 A 
ATOM     65  C   UNL A   1      45.531  33.509  26.856  1.00  0.00     0.131 A 
ATOM     66  C   UNL A   1      48.138  33.924  26.045  1.00  0.00     0.055 A 
ATOM     67  C   UNL A   1      45.810  34.484  25.892  1.00  0.00     0.041 A 
ATOM     68  F   UNL A   1      44.253  33.384  27.248  1.00  0.00    -0.206 F 
ATOM     69  C   UNL A   1      47.122  34.703  25.489  1.00  0.00     0.022 A 
BRANCH  66  70
ATOM     70  S   UNL A   1      49.874  34.321  25.689  1.00  0.00     0.124 S 
ATOM     71  O   UNL A   1      50.406  33.012  25.315  1.00  0.00    -0.237 OA
ATOM     72  O   UNL A   1      49.760  35.297  24.612  1.00  0.00    -0.237 OA
ATOM     73  O   UNL A   1      50.374  34.848  26.958  1.00  0.00    -0.744 OA
ENDBRANCH  66  70
ENDBRANCH  49  63
BRANCH  50  74
ATOM     74  C   UNL A   1      44.923  25.040  33.801  1.00  0.00     0.023 A 
ATOM     75  C   UNL A   1      45.997  24.186  34.069  1.00  0.00     0.031 A 
ATOM     76  C   UNL A   1      43.708  24.824  34.476  1.00  0.00     0.131 A 
ATOM     77  C   UNL A   1      45.824  23.112  34.946  1.00  0.00     0.055 A 
ATOM     78  C   UNL A   1      43.559  23.789  35.399  1.00  0.00     0.041 A 
ATOM     79  F   UNL A   1      42.666  25.650  34.285  1.00  0.00    -0.206 F 
ATOM     80  C   UNL A   1      44.618  22.915  35.625  1.00  0.00     0.022 A 
BRANCH  77  81
ATOM     81  S   UNL A   1      47.180  21.926  35.111  1.00  0.00     0.124 S 
ATOM     82  O   UNL A   1      47.287  21.798  36.560  1.00  0.00    -0.237 OA
ATOM     83  O   UNL A   1      46.655  20.764  34.403  1.00  0.00    -0.237 OA
ATOM     84  O   UNL A   1      48.299  22.602  34.458  1.00  0.00    -0.744 OA
ENDBRANCH  77  81
ENDBRANCH  50  74
BRANCH  62  85
ATOM     85  C   UNL A   1      45.818  31.897  34.597  1.00  0.00     0.023 A 
ATOM     86  C   UNL A   1      44.631  32.456  35.103  1.00  0.00     0.031 A 
ATOM     87  C   UNL A   1      47.030  32.238  35.221  1.00  0.00     0.131 A 
ATOM     88  C   UNL A   1      44.692  33.413  36.123  1.00  0.00     0.055 A 
ATOM     89  C   UNL A   1      47.073  33.118  36.303  1.00  0.00     0.041 A 
ATOM     90  F   UNL A   1      48.194  31.742  34.776  1.00  0.00    -0.206 F 
ATOM     91  C   UNL A   1      45.902  33.730  36.743  1.00  0.00     0.022 A 
BRANCH  88  92
ATOM     92  S   UNL A   1      43.194  34.364  36.497  1.00  0.00     0.124 S 
ATOM     93  O   UNL A   1      43.746  35.545  37.154  1.00  0.00    -0.237 OA
ATOM     94  O   UNL A   1      42.623  34.580  35.173  1.00  0.00    -0.237 OA
ATOM     95  O   UNL A   1      42.431  33.471  37.367  1.00  0.00    -0.744 OA
ENDBRANCH  88  92
ENDBRANCH  62  85
ENDBRANCH  36  37
ENDBRANCH  29  31
ENDBRANCH  28  29
ENDBRANCH  27  28
ENDBRANCH   1  27
TORSDOF 19
ENDMDL
