MODEL 1
REMARK VINA RESULT:     -12.4      0.000      0.000
REMARK SMILES C[C@H]1[C@H](C(=O)OCCOC(=O)c2ccc(-c3c4nc(c(-c5cc(S(=O)(=O)[O-])ccc5F)c5ccc([nH]5)c(-c5cc(S(=O)(=O)[O-])ccc5F)c5nc(c(-c6cc(S(=O)(=O)[O-])ccc6F)c6ccc3[nH]6)C=C5)C=C4)cc2)CC[N@@H+]1Cc1cnn(-c2ccccc2)c1
REMARK SMILES IDX 7 1 6 2 4 3 5 4 3 5 1 6 2 7 77 8 75 9 76 10 78 12 79 13
REMARK SMILES IDX 80 14 89 15 81 16 82 17 83 18 84 19 88 20 85 21 87 22 86 23
REMARK SMILES IDX 8 24 9 25 10 26 11 27 12 28 13 29 74 30 14 31 73 32 15 33
REMARK SMILES IDX 16 34 17 35 67 36 18 37 72 38 66 39 68 40 19 41 71 42 65 43
REMARK SMILES IDX 64 44 20 46 52 47 32 48 51 49 33 50 36 51 50 52 69 53 34 54
REMARK SMILES IDX 35 55 49 57 70 58 37 59 21 60 22 61 30 62 23 63 29 64 31 65
REMARK SMILES IDX 28 66 24 67 25 68 26 69 27 70 53 71 54 72 62 73 55 74 61 75
REMARK SMILES IDX 63 76 60 77 56 78 57 79 58 80 59 81 38 82 39 83 47 84 40 85
REMARK SMILES IDX 46 86 48 87 45 88 41 89 42 90 43 91 44 92
REMARK H PARENT 77 11 68 45 36 56
REMARK Flexibility Score: inf
ROOT
ATOM      1  C   UNL A   1      31.061  29.774  24.659  1.00  0.00     0.274 C 
ENDROOT
BRANCH   1   2
ATOM      2  O   UNL A   1      30.469  28.547  24.188  1.00  0.00    -0.462 OA
BRANCH   2   3
ATOM      3  C   UNL A   1      30.813  28.138  22.944  1.00  0.00     0.315 C 
ATOM      4  O   UNL A   1      30.224  28.474  21.921  1.00  0.00    -0.252 OA
BRANCH   3   5
ATOM      5  C   UNL A   1      32.002  27.198  22.898  1.00  0.00     0.162 C 
ATOM      6  C   UNL A   1      33.325  26.267  24.854  1.00  0.00     0.076 C 
ATOM      7  C   UNL A   1      32.087  26.092  23.961  1.00  0.00     0.195 C 
ATOM      8  N   UNL A   1      32.260  24.832  23.220  1.00  0.00    -0.328 N 
ATOM      9  C   UNL A   1      32.049  26.502  21.548  1.00  0.00     0.083 C 
ATOM     10  C   UNL A   1      32.640  25.143  21.849  1.00  0.00     0.263 C 
ATOM     11  H   UNL A   1      33.032  24.317  23.643  1.00  0.00     0.348 HD
BRANCH   8  12
ATOM     12  C   UNL A   1      31.210  23.835  23.397  1.00  0.00     0.302 C 
BRANCH  12  13
ATOM     13  C   UNL A   1      31.658  22.536  23.975  1.00  0.00     0.045 A 
ATOM     14  C   UNL A   1      31.473  22.042  25.281  1.00  0.00     0.145 A 
ATOM     15  C   UNL A   1      32.290  21.493  23.325  1.00  0.00     0.124 A 
ATOM     16  N   UNL A   1      31.911  20.793  25.434  1.00  0.00    -0.176 NA
ATOM     17  N   UNL A   1      32.457  20.472  24.233  1.00  0.00    -0.240 N 
BRANCH  17  18
ATOM     18  C   UNL A   1      33.099  19.219  24.033  1.00  0.00     0.065 A 
ATOM     19  C   UNL A   1      34.321  18.962  24.672  1.00  0.00     0.028 A 
ATOM     20  C   UNL A   1      32.547  18.247  23.185  1.00  0.00     0.028 A 
ATOM     21  C   UNL A   1      34.977  17.747  24.473  1.00  0.00     0.002 A 
ATOM     22  C   UNL A   1      33.227  17.046  22.964  1.00  0.00     0.002 A 
ATOM     23  C   UNL A   1      34.437  16.794  23.611  1.00  0.00     0.000 A 
ENDBRANCH  17  18
ENDBRANCH  12  13
ENDBRANCH   8  12
ENDBRANCH   3   5
ENDBRANCH   2   3
ENDBRANCH   1   2
BRANCH   1  24
ATOM     24  C   UNL A   1      31.767  29.537  25.994  1.00  0.00     0.275 C 
BRANCH  24  25
ATOM     25  O   UNL A   1      33.071  30.141  25.984  1.00  0.00    -0.458 OA
BRANCH  25  26
ATOM     26  C   UNL A   1      33.248  31.132  26.888  1.00  0.00     0.338 C 
ATOM     27  O   UNL A   1      32.440  31.975  27.231  1.00  0.00    -0.246 OA
BRANCH  26  28
ATOM     28  C   UNL A   1      34.557  30.947  27.526  1.00  0.00     0.060 A 
ATOM     29  C   UNL A   1      34.917  29.668  27.954  1.00  0.00     0.016 A 
ATOM     30  C   UNL A   1      35.401  32.032  27.739  1.00  0.00     0.016 A 
ATOM     31  C   UNL A   1      36.116  29.457  28.619  1.00  0.00     0.010 A 
ATOM     32  C   UNL A   1      36.620  31.817  28.379  1.00  0.00     0.010 A 
ATOM     33  C   UNL A   1      36.980  30.532  28.830  1.00  0.00    -0.014 A 
BRANCH  33  34
ATOM     34  C   UNL A   1      38.248  30.345  29.566  1.00  0.00     0.031 A 
ATOM     35  C   UNL A   1      39.297  29.452  28.978  1.00  0.00     0.074 A 
ATOM     36  C   UNL A   1      38.427  30.936  30.761  1.00  0.00     0.049 A 
ATOM     37  N   UNL A   1      40.350  28.929  29.542  1.00  0.00    -0.248 NA
ATOM     38  C   UNL A   1      39.117  29.085  27.564  1.00  0.00     0.031 C 
ATOM     39  C   UNL A   1      37.506  31.891  31.380  1.00  0.00     0.029 A 
ATOM     40  N   UNL A   1      39.433  30.796  31.684  1.00  0.00    -0.354 N 
ATOM     41  C   UNL A   1      40.940  28.134  28.567  1.00  0.00     0.074 A 
ATOM     42  C   UNL A   1      40.115  28.234  27.381  1.00  0.00     0.031 C 
ATOM     43  C   UNL A   1      37.979  32.235  32.588  1.00  0.00     0.029 A 
ATOM     44  C   UNL A   1      39.186  31.464  32.862  1.00  0.00     0.049 A 
ATOM     45  H   UNL A   1      40.249  30.271  31.519  1.00  0.00     0.167 HD
ATOM     46  C   UNL A   1      42.065  27.386  28.668  1.00  0.00     0.034 A 
ATOM     47  C   UNL A   1      39.826  31.403  34.046  1.00  0.00     0.034 A 
ATOM     48  C   UNL A   1      42.859  27.317  29.870  1.00  0.00     0.049 A 
ATOM     49  C   UNL A   1      41.019  30.486  34.170  1.00  0.00     0.074 A 
ATOM     50  C   UNL A   1      44.018  26.598  30.100  1.00  0.00     0.029 A 
ATOM     51  N   UNL A   1      42.568  27.990  31.051  1.00  0.00    -0.354 N 
ATOM     52  N   UNL A   1      41.549  29.697  33.263  1.00  0.00    -0.248 NA
ATOM     53  C   UNL A   1      41.696  30.447  35.471  1.00  0.00     0.031 C 
ATOM     54  C   UNL A   1      44.382  26.775  31.437  1.00  0.00     0.029 A 
ATOM     55  C   UNL A   1      43.507  27.679  32.020  1.00  0.00     0.049 A 
ATOM     56  H   UNL A   1      41.805  28.599  31.181  1.00  0.00     0.167 HD
ATOM     57  C   UNL A   1      42.648  29.102  33.873  1.00  0.00     0.074 A 
ATOM     58  C   UNL A   1      42.702  29.618  35.226  1.00  0.00     0.031 C 
ATOM     59  C   UNL A   1      43.543  28.219  33.360  1.00  0.00     0.034 A 
BRANCH  46  60
ATOM     60  C   UNL A   1      42.450  26.539  27.480  1.00  0.00     0.023 A 
ATOM     61  C   UNL A   1      42.006  25.214  27.332  1.00  0.00     0.031 A 
ATOM     62  C   UNL A   1      43.311  27.056  26.494  1.00  0.00     0.131 A 
ATOM     63  C   UNL A   1      42.481  24.430  26.270  1.00  0.00     0.055 A 
ATOM     64  C   UNL A   1      43.711  26.299  25.392  1.00  0.00     0.041 A 
ATOM     65  F   UNL A   1      43.792  28.305  26.594  1.00  0.00    -0.206 F 
ATOM     66  C   UNL A   1      43.309  24.971  25.284  1.00  0.00     0.022 A 
BRANCH  63  67
ATOM     67  S   UNL A   1      42.126  22.651  26.281  1.00  0.00     0.124 S 
ATOM     68  O   UNL A   1      40.666  22.641  26.281  1.00  0.00    -0.237 OA
ATOM     69  O   UNL A   1      42.769  22.194  25.054  1.00  0.00    -0.237 OA
ATOM     70  O   UNL A   1      42.745  22.185  27.521  1.00  0.00    -0.744 OA
ENDBRANCH  63  67
ENDBRANCH  46  60
BRANCH  47  71
ATOM     71  C   UNL A   1      39.323  32.177  35.217  1.00  0.00     0.023 A 
ATOM     72  C   UNL A   1      39.752  33.491  35.451  1.00  0.00     0.031 A 
ATOM     73  C   UNL A   1      38.431  31.601  36.141  1.00  0.00     0.131 A 
ATOM     74  C   UNL A   1      39.328  34.171  36.604  1.00  0.00     0.055 A 
ATOM     75  C   UNL A   1      37.962  32.304  37.253  1.00  0.00     0.041 A 
ATOM     76  F   UNL A   1      37.988  30.345  35.970  1.00  0.00    -0.206 F 
ATOM     77  C   UNL A   1      38.422  33.594  37.497  1.00  0.00     0.022 A 
BRANCH  74  78
ATOM     78  S   UNL A   1      40.054  35.791  36.969  1.00  0.00     0.124 S 
ATOM     79  O   UNL A   1      39.671  36.559  35.789  1.00  0.00    -0.237 OA
ATOM     80  O   UNL A   1      39.385  36.151  38.214  1.00  0.00    -0.237 OA
ATOM     81  O   UNL A   1      41.482  35.504  37.089  1.00  0.00    -0.744 OA
ENDBRANCH  74  78
ENDBRANCH  47  71
BRANCH  59  82
ATOM     82  C   UNL A   1      44.705  27.822  34.234  1.00  0.00     0.023 A 
ATOM     83  C   UNL A   1      44.675  26.678  35.048  1.00  0.00     0.031 A 
ATOM     84  C   UNL A   1      45.883  28.590  34.208  1.00  0.00     0.131 A 
ATOM     85  C   UNL A   1      45.795  26.350  35.827  1.00  0.00     0.055 A 
ATOM     86  C   UNL A   1      47.013  28.227  34.940  1.00  0.00     0.041 A 
ATOM     87  F   UNL A   1      45.962  29.696  33.448  1.00  0.00    -0.206 F 
ATOM     88  C   UNL A   1      46.970  27.105  35.760  1.00  0.00     0.022 A 
BRANCH  85  89
ATOM     89  S   UNL A   1      45.684  24.949  36.971  1.00  0.00     0.124 S 
ATOM     90  O   UNL A   1      46.019  25.573  38.247  1.00  0.00    -0.237 OA
ATOM     91  O   UNL A   1      44.297  24.523  36.815  1.00  0.00    -0.237 OA
ATOM     92  O   UNL A   1      46.680  24.009  36.461  1.00  0.00    -0.744 OA
ENDBRANCH  85  89
ENDBRANCH  59  82
ENDBRANCH  33  34
ENDBRANCH  26  28
ENDBRANCH  25  26
ENDBRANCH  24  25
ENDBRANCH   1  24
TORSDOF 17
ENDMDL
MODEL 2
REMARK VINA RESULT:     -12.0      5.044      9.482
REMARK SMILES C[C@H]1[C@H](C(=O)OCCOC(=O)c2ccc(-c3c4nc(c(-c5cc(S(=O)(=O)[O-])ccc5F)c5ccc([nH]5)c(-c5cc(S(=O)(=O)[O-])ccc5F)c5nc(c(-c6cc(S(=O)(=O)[O-])ccc6F)c6ccc3[nH]6)C=C5)C=C4)cc2)CC[N@@H+]1Cc1cnn(-c2ccccc2)c1
REMARK SMILES IDX 7 1 6 2 4 3 5 4 3 5 1 6 2 7 77 8 75 9 76 10 78 12 79 13
REMARK SMILES IDX 80 14 89 15 81 16 82 17 83 18 84 19 88 20 85 21 87 22 86 23
REMARK SMILES IDX 8 24 9 25 10 26 11 27 12 28 13 29 74 30 14 31 73 32 15 33
REMARK SMILES IDX 16 34 17 35 67 36 18 37 72 38 66 39 68 40 19 41 71 42 65 43
REMARK SMILES IDX 64 44 20 46 52 47 32 48 51 49 33 50 36 51 50 52 69 53 34 54
REMARK SMILES IDX 35 55 49 57 70 58 37 59 21 60 22 61 30 62 23 63 29 64 31 65
REMARK SMILES IDX 28 66 24 67 25 68 26 69 27 70 53 71 54 72 62 73 55 74 61 75
REMARK SMILES IDX 63 76 60 77 56 78 57 79 58 80 59 81 38 82 39 83 47 84 40 85
REMARK SMILES IDX 46 86 48 87 45 88 41 89 42 90 43 91 44 92
REMARK H PARENT 77 11 68 45 36 56
REMARK Flexibility Score: inf
ROOT
ATOM      1  C   UNL A   1      36.636  23.068  23.792  1.00  0.00     0.274 C 
ENDROOT
BRANCH   1   2
ATOM      2  O   UNL A   1      35.615  23.955  24.293  1.00  0.00    -0.462 OA
BRANCH   2   3
ATOM      3  C   UNL A   1      34.548  24.176  23.490  1.00  0.00     0.315 C 
ATOM      4  O   UNL A   1      34.372  23.619  22.410  1.00  0.00    -0.252 OA
BRANCH   3   5
ATOM      5  C   UNL A   1      33.563  25.200  24.020  1.00  0.00     0.162 C 
ATOM      6  C   UNL A   1      31.186  25.622  23.239  1.00  0.00     0.076 C 
ATOM      7  C   UNL A   1      32.091  24.781  24.153  1.00  0.00     0.195 C 
ATOM      8  N   UNL A   1      31.708  25.085  25.542  1.00  0.00    -0.328 N 
ATOM      9  C   UNL A   1      34.005  25.664  25.399  1.00  0.00     0.083 C 
ATOM     10  C   UNL A   1      32.712  25.966  26.123  1.00  0.00     0.263 C 
ATOM     11  H   UNL A   1      30.825  25.595  25.525  1.00  0.00     0.348 HD
BRANCH   8  12
ATOM     12  C   UNL A   1      31.288  23.949  26.354  1.00  0.00     0.302 C 
BRANCH  12  13
ATOM     13  C   UNL A   1      32.066  22.695  26.144  1.00  0.00     0.045 A 
ATOM     14  C   UNL A   1      33.257  22.281  26.772  1.00  0.00     0.145 A 
ATOM     15  C   UNL A   1      31.741  21.622  25.336  1.00  0.00     0.124 A 
ATOM     16  N   UNL A   1      33.630  21.050  26.425  1.00  0.00    -0.176 NA
ATOM     17  N   UNL A   1      32.714  20.662  25.501  1.00  0.00    -0.240 N 
BRANCH  17  18
ATOM     18  C   UNL A   1      32.826  19.407  24.841  1.00  0.00     0.065 A 
ATOM     19  C   UNL A   1      32.517  19.319  23.475  1.00  0.00     0.028 A 
ATOM     20  C   UNL A   1      33.212  18.252  25.536  1.00  0.00     0.028 A 
ATOM     21  C   UNL A   1      32.601  18.094  22.813  1.00  0.00     0.002 A 
ATOM     22  C   UNL A   1      33.261  17.023  24.874  1.00  0.00     0.002 A 
ATOM     23  C   UNL A   1      32.962  16.945  23.513  1.00  0.00     0.000 A 
ENDBRANCH  17  18
ENDBRANCH  12  13
ENDBRANCH   8  12
ENDBRANCH   3   5
ENDBRANCH   2   3
ENDBRANCH   1   2
BRANCH   1  24
ATOM     24  C   UNL A   1      36.673  21.787  24.626  1.00  0.00     0.275 C 
BRANCH  24  25
ATOM     25  O   UNL A   1      37.243  22.050  25.919  1.00  0.00    -0.458 OA
BRANCH  25  26
ATOM     26  C   UNL A   1      38.541  21.688  26.056  1.00  0.00     0.338 C 
ATOM     27  O   UNL A   1      39.047  20.624  25.756  1.00  0.00    -0.246 OA
BRANCH  26  28
ATOM     28  C   UNL A   1      39.303  22.861  26.501  1.00  0.00     0.060 A 
ATOM     29  C   UNL A   1      40.333  22.678  27.426  1.00  0.00     0.016 A 
ATOM     30  C   UNL A   1      38.976  24.133  26.043  1.00  0.00     0.016 A 
ATOM     31  C   UNL A   1      41.037  23.765  27.922  1.00  0.00     0.010 A 
ATOM     32  C   UNL A   1      39.703  25.224  26.517  1.00  0.00     0.010 A 
ATOM     33  C   UNL A   1      40.730  25.047  27.464  1.00  0.00    -0.014 A 
BRANCH  33  34
ATOM     34  C   UNL A   1      41.439  26.227  28.002  1.00  0.00     0.031 A 
ATOM     35  C   UNL A   1      40.657  27.251  28.764  1.00  0.00     0.074 A 
ATOM     36  C   UNL A   1      42.755  26.387  27.768  1.00  0.00     0.049 A 
ATOM     37  N   UNL A   1      40.987  28.469  29.093  1.00  0.00    -0.248 NA
ATOM     38  C   UNL A   1      39.308  26.849  29.194  1.00  0.00     0.031 C 
ATOM     39  C   UNL A   1      43.624  25.408  27.114  1.00  0.00     0.029 A 
ATOM     40  N   UNL A   1      43.584  27.449  28.028  1.00  0.00    -0.354 N 
ATOM     41  C   UNL A   1      39.873  28.999  29.733  1.00  0.00     0.074 A 
ATOM     42  C   UNL A   1      38.853  27.971  29.729  1.00  0.00     0.031 C 
ATOM     43  C   UNL A   1      44.859  25.923  27.004  1.00  0.00     0.029 A 
ATOM     44  C   UNL A   1      44.846  27.293  27.503  1.00  0.00     0.049 A 
ATOM     45  H   UNL A   1      43.303  28.242  28.539  1.00  0.00     0.167 HD
ATOM     46  C   UNL A   1      39.725  30.237  30.264  1.00  0.00     0.034 A 
ATOM     47  C   UNL A   1      45.852  28.182  27.379  1.00  0.00     0.034 A 
ATOM     48  C   UNL A   1      40.771  31.231  30.247  1.00  0.00     0.049 A 
ATOM     49  C   UNL A   1      45.633  29.587  27.885  1.00  0.00     0.074 A 
ATOM     50  C   UNL A   1      40.747  32.518  30.750  1.00  0.00     0.029 A 
ATOM     51  N   UNL A   1      42.030  31.046  29.687  1.00  0.00    -0.354 N 
ATOM     52  N   UNL A   1      44.563  30.103  28.446  1.00  0.00    -0.248 NA
ATOM     53  C   UNL A   1      46.749  30.528  27.739  1.00  0.00     0.031 C 
ATOM     54  C   UNL A   1      41.958  33.135  30.427  1.00  0.00     0.029 A 
ATOM     55  C   UNL A   1      42.779  32.204  29.806  1.00  0.00     0.049 A 
ATOM     56  H   UNL A   1      42.345  30.212  29.267  1.00  0.00     0.167 HD
ATOM     57  C   UNL A   1      44.895  31.417  28.760  1.00  0.00     0.074 A 
ATOM     58  C   UNL A   1      46.262  31.616  28.320  1.00  0.00     0.031 C 
ATOM     59  C   UNL A   1      44.145  32.371  29.369  1.00  0.00     0.034 A 
BRANCH  46  60
ATOM     60  C   UNL A   1      38.374  30.597  30.831  1.00  0.00     0.023 A 
ATOM     61  C   UNL A   1      37.377  31.210  30.054  1.00  0.00     0.031 A 
ATOM     62  C   UNL A   1      38.093  30.355  32.189  1.00  0.00     0.131 A 
ATOM     63  C   UNL A   1      36.180  31.628  30.654  1.00  0.00     0.055 A 
ATOM     64  C   UNL A   1      36.866  30.695  32.760  1.00  0.00     0.041 A 
ATOM     65  F   UNL A   1      39.016  29.799  32.989  1.00  0.00    -0.206 F 
ATOM     66  C   UNL A   1      35.906  31.351  31.995  1.00  0.00     0.022 A 
BRANCH  63  67
ATOM     67  S   UNL A   1      35.051  32.676  29.696  1.00  0.00     0.124 S 
ATOM     68  O   UNL A   1      34.117  33.122  30.726  1.00  0.00    -0.237 OA
ATOM     69  O   UNL A   1      35.946  33.695  29.159  1.00  0.00    -0.237 OA
ATOM     70  O   UNL A   1      34.485  31.758  28.708  1.00  0.00    -0.744 OA
ENDBRANCH  63  67
ENDBRANCH  46  60
BRANCH  47  71
ATOM     71  C   UNL A   1      47.121  27.795  26.700  1.00  0.00     0.023 A 
ATOM     72  C   UNL A   1      47.254  27.894  25.307  1.00  0.00     0.031 A 
ATOM     73  C   UNL A   1      48.212  27.286  27.430  1.00  0.00     0.131 A 
ATOM     74  C   UNL A   1      48.429  27.448  24.681  1.00  0.00     0.055 A 
ATOM     75  C   UNL A   1      49.403  26.901  26.810  1.00  0.00     0.041 A 
ATOM     76  F   UNL A   1      48.141  27.165  28.765  1.00  0.00    -0.206 F 
ATOM     77  C   UNL A   1      49.511  26.969  25.424  1.00  0.00     0.022 A 
BRANCH  74  78
ATOM     78  S   UNL A   1      48.486  27.414  22.870  1.00  0.00     0.124 S 
ATOM     79  O   UNL A   1      49.778  28.038  22.604  1.00  0.00    -0.237 OA
ATOM     80  O   UNL A   1      48.393  25.986  22.590  1.00  0.00    -0.237 OA
ATOM     81  O   UNL A   1      47.321  28.204  22.479  1.00  0.00    -0.744 OA
ENDBRANCH  74  78
ENDBRANCH  47  71
BRANCH  59  82
ATOM     82  C   UNL A   1      44.813  33.687  29.675  1.00  0.00     0.023 A 
ATOM     83  C   UNL A   1      44.795  34.765  28.774  1.00  0.00     0.031 A 
ATOM     84  C   UNL A   1      45.441  33.871  30.920  1.00  0.00     0.131 A 
ATOM     85  C   UNL A   1      45.420  35.972  29.123  1.00  0.00     0.055 A 
ATOM     86  C   UNL A   1      46.009  35.091  31.284  1.00  0.00     0.041 A 
ATOM     87  F   UNL A   1      45.488  32.871  31.816  1.00  0.00    -0.206 F 
ATOM     88  C   UNL A   1      46.007  36.148  30.380  1.00  0.00     0.022 A 
BRANCH  85  89
ATOM     89  S   UNL A   1      45.503  37.300  27.892  1.00  0.00     0.124 S 
ATOM     90  O   UNL A   1      45.703  36.554  26.654  1.00  0.00    -0.237 OA
ATOM     91  O   UNL A   1      44.205  37.951  28.042  1.00  0.00    -0.237 OA
ATOM     92  O   UNL A   1      46.648  38.099  28.326  1.00  0.00    -0.744 OA
ENDBRANCH  85  89
ENDBRANCH  59  82
ENDBRANCH  33  34
ENDBRANCH  26  28
ENDBRANCH  25  26
ENDBRANCH  24  25
ENDBRANCH   1  24
TORSDOF 17
ENDMDL
MODEL 3
REMARK VINA RESULT:     -12.0      2.382      4.511
REMARK SMILES C[C@H]1[C@H](C(=O)OCCOC(=O)c2ccc(-c3c4nc(c(-c5cc(S(=O)(=O)[O-])ccc5F)c5ccc([nH]5)c(-c5cc(S(=O)(=O)[O-])ccc5F)c5nc(c(-c6cc(S(=O)(=O)[O-])ccc6F)c6ccc3[nH]6)C=C5)C=C4)cc2)CC[N@@H+]1Cc1cnn(-c2ccccc2)c1
REMARK SMILES IDX 7 1 6 2 4 3 5 4 3 5 1 6 2 7 77 8 75 9 76 10 78 12 79 13
REMARK SMILES IDX 80 14 89 15 81 16 82 17 83 18 84 19 88 20 85 21 87 22 86 23
REMARK SMILES IDX 8 24 9 25 10 26 11 27 12 28 13 29 74 30 14 31 73 32 15 33
REMARK SMILES IDX 16 34 17 35 67 36 18 37 72 38 66 39 68 40 19 41 71 42 65 43
REMARK SMILES IDX 64 44 20 46 52 47 32 48 51 49 33 50 36 51 50 52 69 53 34 54
REMARK SMILES IDX 35 55 49 57 70 58 37 59 21 60 22 61 30 62 23 63 29 64 31 65
REMARK SMILES IDX 28 66 24 67 25 68 26 69 27 70 53 71 54 72 62 73 55 74 61 75
REMARK SMILES IDX 63 76 60 77 56 78 57 79 58 80 59 81 38 82 39 83 47 84 40 85
REMARK SMILES IDX 46 86 48 87 45 88 41 89 42 90 43 91 44 92
REMARK H PARENT 77 11 68 45 36 56
REMARK Flexibility Score: inf
ROOT
ATOM      1  C   UNL A   1      31.650  28.889  26.806  1.00  0.00     0.274 C 
ENDROOT
BRANCH   1   2
ATOM      2  O   UNL A   1      32.289  28.136  25.756  1.00  0.00    -0.462 OA
BRANCH   2   3
ATOM      3  C   UNL A   1      33.270  27.280  26.126  1.00  0.00     0.315 C 
ATOM      4  O   UNL A   1      34.326  27.627  26.649  1.00  0.00    -0.252 OA
BRANCH   3   5
ATOM      5  C   UNL A   1      32.977  25.822  25.829  1.00  0.00     0.162 C 
ATOM      6  C   UNL A   1      30.766  24.599  26.069  1.00  0.00     0.076 C 
ATOM      7  C   UNL A   1      31.638  25.479  25.160  1.00  0.00     0.195 C 
ATOM      8  N   UNL A   1      31.974  24.676  23.972  1.00  0.00    -0.328 N 
ATOM      9  C   UNL A   1      34.065  25.257  24.930  1.00  0.00     0.083 C 
ATOM     10  C   UNL A   1      33.353  24.223  24.088  1.00  0.00     0.263 C 
ATOM     11  H   UNL A   1      31.378  23.848  23.969  1.00  0.00     0.348 HD
BRANCH   8  12
ATOM     12  C   UNL A   1      31.576  25.236  22.686  1.00  0.00     0.302 C 
BRANCH  12  13
ATOM     13  C   UNL A   1      31.441  26.721  22.654  1.00  0.00     0.045 A 
ATOM     14  C   UNL A   1      32.452  27.695  22.549  1.00  0.00     0.145 A 
ATOM     15  C   UNL A   1      30.276  27.464  22.641  1.00  0.00     0.124 A 
ATOM     16  N   UNL A   1      31.974  28.935  22.442  1.00  0.00    -0.176 NA
ATOM     17  N   UNL A   1      30.627  28.792  22.545  1.00  0.00    -0.240 N 
BRANCH  17  18
ATOM     18  C   UNL A   1      29.769  29.927  22.544  1.00  0.00     0.065 A 
ATOM     19  C   UNL A   1      29.233  30.381  21.330  1.00  0.00     0.028 A 
ATOM     20  C   UNL A   1      29.474  30.616  23.729  1.00  0.00     0.028 A 
ATOM     21  C   UNL A   1      28.405  31.505  21.303  1.00  0.00     0.002 A 
ATOM     22  C   UNL A   1      28.672  31.759  23.690  1.00  0.00     0.002 A 
ATOM     23  C   UNL A   1      28.133  32.199  22.480  1.00  0.00     0.000 A 
ENDBRANCH  17  18
ENDBRANCH  12  13
ENDBRANCH   8  12
ENDBRANCH   3   5
ENDBRANCH   2   3
ENDBRANCH   1   2
BRANCH   1  24
ATOM     24  C   UNL A   1      31.870  30.387  26.585  1.00  0.00     0.275 C 
BRANCH  24  25
ATOM     25  O   UNL A   1      33.276  30.685  26.558  1.00  0.00    -0.458 OA
BRANCH  25  26
ATOM     26  C   UNL A   1      33.657  31.715  27.350  1.00  0.00     0.338 C 
ATOM     27  O   UNL A   1      33.005  32.695  27.653  1.00  0.00    -0.246 OA
BRANCH  26  28
ATOM     28  C   UNL A   1      34.966  31.392  27.929  1.00  0.00     0.060 A 
ATOM     29  C   UNL A   1      35.168  30.116  28.458  1.00  0.00     0.016 A 
ATOM     30  C   UNL A   1      35.970  32.353  27.988  1.00  0.00     0.016 A 
ATOM     31  C   UNL A   1      36.367  29.788  29.073  1.00  0.00     0.010 A 
ATOM     32  C   UNL A   1      37.188  32.016  28.577  1.00  0.00     0.010 A 
ATOM     33  C   UNL A   1      37.389  30.735  29.130  1.00  0.00    -0.014 A 
BRANCH  33  34
ATOM     34  C   UNL A   1      38.665  30.426  29.809  1.00  0.00     0.031 A 
ATOM     35  C   UNL A   1      39.599  29.443  29.173  1.00  0.00     0.074 A 
ATOM     36  C   UNL A   1      38.950  30.990  30.997  1.00  0.00     0.049 A 
ATOM     37  N   UNL A   1      40.622  28.821  29.688  1.00  0.00    -0.248 NA
ATOM     38  C   UNL A   1      39.324  29.104  27.768  1.00  0.00     0.031 C 
ATOM     39  C   UNL A   1      38.150  32.022  31.658  1.00  0.00     0.029 A 
ATOM     40  N   UNL A   1      39.978  30.751  31.874  1.00  0.00    -0.354 N 
ATOM     41  C   UNL A   1      41.093  27.980  28.686  1.00  0.00     0.074 A 
ATOM     42  C   UNL A   1      40.230  28.165  27.538  1.00  0.00     0.031 C 
ATOM     43  C   UNL A   1      38.705  32.312  32.845  1.00  0.00     0.029 A 
ATOM     44  C   UNL A   1      39.846  31.430  33.063  1.00  0.00     0.049 A 
ATOM     45  H   UNL A   1      40.733  30.153  31.672  1.00  0.00     0.167 HD
ATOM     46  C   UNL A   1      42.147  27.131  28.735  1.00  0.00     0.034 A 
ATOM     47  C   UNL A   1      40.529  31.302  34.218  1.00  0.00     0.034 A 
ATOM     48  C   UNL A   1      42.982  26.980  29.901  1.00  0.00     0.049 A 
ATOM     49  C   UNL A   1      41.635  30.278  34.287  1.00  0.00     0.074 A 
ATOM     50  C   UNL A   1      44.078  26.155  30.078  1.00  0.00     0.029 A 
ATOM     51  N   UNL A   1      42.806  27.669  31.096  1.00  0.00    -0.354 N 
ATOM     52  N   UNL A   1      42.049  29.448  33.355  1.00  0.00    -0.248 NA
ATOM     53  C   UNL A   1      42.362  30.166  35.557  1.00  0.00     0.031 C 
ATOM     54  C   UNL A   1      44.515  26.287  31.399  1.00  0.00     0.029 A 
ATOM     55  C   UNL A   1      43.754  27.266  32.022  1.00  0.00     0.049 A 
ATOM     56  H   UNL A   1      42.110  28.346  31.261  1.00  0.00     0.167 HD
ATOM     57  C   UNL A   1      43.113  28.749  33.915  1.00  0.00     0.074 A 
ATOM     58  C   UNL A   1      43.274  29.249  35.266  1.00  0.00     0.031 C 
ATOM     59  C   UNL A   1      43.899  27.791  33.360  1.00  0.00     0.034 A 
BRANCH  46  60
ATOM     60  C   UNL A   1      42.398  26.259  27.530  1.00  0.00     0.023 A 
ATOM     61  C   UNL A   1      41.903  24.948  27.439  1.00  0.00     0.031 A 
ATOM     62  C   UNL A   1      43.184  26.739  26.465  1.00  0.00     0.131 A 
ATOM     63  C   UNL A   1      42.257  24.138  26.350  1.00  0.00     0.055 A 
ATOM     64  C   UNL A   1      43.462  25.958  25.342  1.00  0.00     0.041 A 
ATOM     65  F   UNL A   1      43.710  27.973  26.506  1.00  0.00    -0.206 F 
ATOM     66  C   UNL A   1      43.011  24.642  25.288  1.00  0.00     0.022 A 
BRANCH  63  67
ATOM     67  S   UNL A   1      41.851  22.371  26.415  1.00  0.00     0.124 S 
ATOM     68  O   UNL A   1      42.429  21.983  27.700  1.00  0.00    -0.237 OA
ATOM     69  O   UNL A   1      40.395  22.380  26.345  1.00  0.00    -0.237 OA
ATOM     70  O   UNL A   1      42.530  21.819  25.244  1.00  0.00    -0.744 OA
ENDBRANCH  63  67
ENDBRANCH  46  60
BRANCH  47  71
ATOM     71  C   UNL A   1      40.151  32.111  35.412  1.00  0.00     0.023 A 
ATOM     72  C   UNL A   1      39.208  31.638  36.336  1.00  0.00     0.031 A 
ATOM     73  C   UNL A   1      40.701  33.389  35.629  1.00  0.00     0.131 A 
ATOM     74  C   UNL A   1      38.808  32.452  37.408  1.00  0.00     0.055 A 
ATOM     75  C   UNL A   1      40.347  34.169  36.732  1.00  0.00     0.041 A 
ATOM     76  F   UNL A   1      41.605  33.895  34.776  1.00  0.00    -0.206 F 
ATOM     77  C   UNL A   1      39.383  33.706  37.622  1.00  0.00     0.022 A 
BRANCH  74  78
ATOM     78  S   UNL A   1      37.451  31.883  38.466  1.00  0.00     0.124 S 
ATOM     79  O   UNL A   1      38.066  31.937  39.789  1.00  0.00    -0.237 OA
ATOM     80  O   UNL A   1      36.419  32.877  38.197  1.00  0.00    -0.237 OA
ATOM     81  O   UNL A   1      37.170  30.539  37.965  1.00  0.00    -0.744 OA
ENDBRANCH  74  78
ENDBRANCH  47  71
BRANCH  59  82
ATOM     82  C   UNL A   1      45.055  27.281  34.181  1.00  0.00     0.023 A 
ATOM     83  C   UNL A   1      44.947  26.154  35.011  1.00  0.00     0.031 A 
ATOM     84  C   UNL A   1      46.305  27.921  34.087  1.00  0.00     0.131 A 
ATOM     85  C   UNL A   1      46.065  25.717  35.738  1.00  0.00     0.055 A 
ATOM     86  C   UNL A   1      47.426  27.448  34.767  1.00  0.00     0.041 A 
ATOM     87  F   UNL A   1      46.460  29.005  33.309  1.00  0.00    -0.206 F 
ATOM     88  C   UNL A   1      47.308  26.343  35.604  1.00  0.00     0.022 A 
BRANCH  85  89
ATOM     89  S   UNL A   1      45.866  24.345  36.906  1.00  0.00     0.124 S 
ATOM     90  O   UNL A   1      45.101  24.970  37.980  1.00  0.00    -0.237 OA
ATOM     91  O   UNL A   1      45.151  23.353  36.110  1.00  0.00    -0.237 OA
ATOM     92  O   UNL A   1      47.240  23.986  37.252  1.00  0.00    -0.744 OA
ENDBRANCH  85  89
ENDBRANCH  59  82
ENDBRANCH  33  34
ENDBRANCH  26  28
ENDBRANCH  25  26
ENDBRANCH  24  25
ENDBRANCH   1  24
TORSDOF 17
ENDMDL
