MODEL 1
REMARK VINA RESULT:      -9.8      0.000      0.000
REMARK SMILES O=C(CSc1nc(-c2ccccc2)c(-c2ccccc2)n1-c1ccccc1)OCCOC(=O)c1ccc(-c2c3nc(c(-c4cc(S(=O)(=O)[O-])ccc4F)c4ccc([nH]4)c(-c4cc(S(=O)(=O)[O-])ccc4F)c4nc(c(-c5cc(S(=O)(=O)[O-])ccc5F)c5ccc2[nH]5)C=C4)C=C3)cc1
REMARK SMILES IDX 29 1 28 2 2 3 1 4 3 5 4 6 5 7 6 8 21 9 7 10 14 11 22 12
REMARK SMILES IDX 23 13 27 14 24 15 26 16 25 17 8 18 9 19 13 20 10 21 12 22
REMARK SMILES IDX 11 23 15 24 16 25 20 26 17 27 19 28 18 29 30 30 31 31 32 32
REMARK SMILES IDX 33 33 34 34 35 35 96 36 36 37 95 38 37 39 38 40 39 41 89 42
REMARK SMILES IDX 40 43 94 44 88 45 90 46 41 47 93 48 87 49 86 50 42 52 74 53
REMARK SMILES IDX 54 54 73 55 55 56 58 57 72 58 91 59 56 60 57 61 71 63 92 64
REMARK SMILES IDX 59 65 43 66 44 67 52 68 45 69 51 70 53 71 50 72 46 73 47 74
REMARK SMILES IDX 48 75 49 76 75 77 76 78 84 79 77 80 83 81 85 82 82 83 78 84
REMARK SMILES IDX 79 85 80 86 81 87 60 88 61 89 69 90 62 91 68 92 70 93 67 94
REMARK SMILES IDX 63 95 64 96 65 97 66 98
REMARK H PARENT 90 51 58 62
REMARK Flexibility Score: inf
ROOT
ATOM      1  C   UNL A   1      34.076  34.202  29.859  1.00  0.00     0.274 C 
ENDROOT
BRANCH   1   2
ATOM      2  O   UNL A   1      34.702  34.298  31.155  1.00  0.00    -0.461 OA
BRANCH   2   3
ATOM      3  C   UNL A   1      34.743  33.333  32.110  1.00  0.00     0.316 C 
ATOM      4  O   UNL A   1      33.700  32.792  32.477  1.00  0.00    -0.251 OA
BRANCH   3   5
ATOM      5  C   UNL A   1      36.065  32.950  32.728  1.00  0.00     0.200 C 
BRANCH   5   6
ATOM      6  S   UNL A   1      36.730  34.223  33.815  1.00  0.00    -0.076 SA
BRANCH   6   7
ATOM      7  C   UNL A   1      38.404  33.822  33.721  1.00  0.00     0.174 A 
ATOM      8  N   UNL A   1      39.170  34.093  32.694  1.00  0.00    -0.221 NA
ATOM      9  N   UNL A   1      39.104  33.322  34.796  1.00  0.00    -0.287 N 
ATOM     10  C   UNL A   1      40.434  33.769  33.111  1.00  0.00     0.098 A 
ATOM     11  C   UNL A   1      40.445  33.375  34.444  1.00  0.00     0.082 A 
BRANCH   9  12
ATOM     12  C   UNL A   1      38.570  32.890  36.030  1.00  0.00     0.048 A 
ATOM     13  C   UNL A   1      38.177  31.557  36.180  1.00  0.00     0.027 A 
ATOM     14  C   UNL A   1      38.411  33.812  37.072  1.00  0.00     0.027 A 
ATOM     15  C   UNL A   1      37.623  31.143  37.389  1.00  0.00     0.002 A 
ATOM     16  C   UNL A   1      37.831  33.392  38.267  1.00  0.00     0.002 A 
ATOM     17  C   UNL A   1      37.441  32.060  38.426  1.00  0.00     0.000 A 
ENDBRANCH   9  12
BRANCH  10  18
ATOM     18  C   UNL A   1      41.608  33.907  32.270  1.00  0.00     0.002 A 
ATOM     19  C   UNL A   1      41.907  32.924  31.321  1.00  0.00     0.010 A 
ATOM     20  C   UNL A   1      42.427  35.041  32.365  1.00  0.00     0.010 A 
ATOM     21  C   UNL A   1      42.976  33.104  30.439  1.00  0.00     0.001 A 
ATOM     22  C   UNL A   1      43.496  35.217  31.486  1.00  0.00     0.001 A 
ATOM     23  C   UNL A   1      43.761  34.254  30.514  1.00  0.00     0.000 A 
ENDBRANCH  10  18
BRANCH  11  24
ATOM     24  C   UNL A   1      41.552  33.072  35.341  1.00  0.00     0.001 A 
ATOM     25  C   UNL A   1      42.274  34.126  35.913  1.00  0.00     0.010 A 
ATOM     26  C   UNL A   1      41.895  31.751  35.649  1.00  0.00     0.010 A 
ATOM     27  C   UNL A   1      43.317  33.863  36.798  1.00  0.00     0.001 A 
ATOM     28  C   UNL A   1      42.938  31.490  36.537  1.00  0.00     0.001 A 
ATOM     29  C   UNL A   1      43.645  32.545  37.113  1.00  0.00     0.000 A 
ENDBRANCH  11  24
ENDBRANCH   6   7
ENDBRANCH   5   6
ENDBRANCH   3   5
ENDBRANCH   2   3
ENDBRANCH   1   2
BRANCH   1  30
ATOM     30  C   UNL A   1      35.070  34.332  28.718  1.00  0.00     0.275 C 
BRANCH  30  31
ATOM     31  O   UNL A   1      36.179  33.462  28.914  1.00  0.00    -0.458 OA
BRANCH  31  32
ATOM     32  C   UNL A   1      36.065  32.219  28.396  1.00  0.00     0.338 C 
ATOM     33  O   UNL A   1      35.257  31.847  27.562  1.00  0.00    -0.246 OA
BRANCH  32  34
ATOM     34  C   UNL A   1      37.044  31.354  29.066  1.00  0.00     0.060 A 
ATOM     35  C   UNL A   1      38.106  31.956  29.746  1.00  0.00     0.016 A 
ATOM     36  C   UNL A   1      37.003  29.969  28.844  1.00  0.00     0.016 A 
ATOM     37  C   UNL A   1      39.216  31.189  30.047  1.00  0.00     0.010 A 
ATOM     38  C   UNL A   1      38.115  29.216  29.118  1.00  0.00     0.010 A 
ATOM     39  C   UNL A   1      39.236  29.849  29.649  1.00  0.00    -0.014 A 
BRANCH  39  40
ATOM     40  C   UNL A   1      40.424  29.052  29.873  1.00  0.00     0.031 A 
ATOM     41  C   UNL A   1      40.753  28.893  31.309  1.00  0.00     0.074 A 
ATOM     42  C   UNL A   1      41.030  28.386  28.869  1.00  0.00     0.049 A 
ATOM     43  N   UNL A   1      41.791  29.335  31.934  1.00  0.00    -0.248 NA
ATOM     44  C   UNL A   1      39.722  28.327  32.197  1.00  0.00     0.031 C 
ATOM     45  C   UNL A   1      40.593  28.267  27.475  1.00  0.00     0.029 A 
ATOM     46  N   UNL A   1      42.118  27.573  28.911  1.00  0.00    -0.354 N 
ATOM     47  C   UNL A   1      41.662  28.878  33.240  1.00  0.00     0.074 A 
ATOM     48  C   UNL A   1      40.291  28.480  33.393  1.00  0.00     0.031 C 
ATOM     49  C   UNL A   1      41.271  27.259  26.877  1.00  0.00     0.029 A 
ATOM     50  C   UNL A   1      42.271  26.746  27.799  1.00  0.00     0.049 A 
ATOM     51  H   UNL A   1      42.749  27.567  29.667  1.00  0.00     0.167 HD
ATOM     52  C   UNL A   1      42.759  28.604  33.997  1.00  0.00     0.034 A 
ATOM     53  C   UNL A   1      43.114  25.681  27.678  1.00  0.00     0.034 A 
ATOM     54  C   UNL A   1      43.931  29.262  33.463  1.00  0.00     0.049 A 
ATOM     55  C   UNL A   1      44.171  25.857  28.708  1.00  0.00     0.074 A 
ATOM     56  C   UNL A   1      44.246  30.581  33.189  1.00  0.00     0.029 A 
ATOM     57  N   UNL A   1      44.825  28.512  32.732  1.00  0.00    -0.354 N 
ATOM     58  N   UNL A   1      45.032  26.839  28.686  1.00  0.00    -0.248 NA
ATOM     59  C   UNL A   1      43.948  25.264  30.018  1.00  0.00     0.031 C 
ATOM     60  C   UNL A   1      44.938  30.541  31.943  1.00  0.00     0.029 A 
ATOM     61  C   UNL A   1      45.097  29.203  31.574  1.00  0.00     0.049 A 
ATOM     62  H   UNL A   1      45.201  27.640  32.991  1.00  0.00     0.167 HD
ATOM     63  C   UNL A   1      45.115  27.275  29.999  1.00  0.00     0.074 A 
ATOM     64  C   UNL A   1      44.495  26.210  30.789  1.00  0.00     0.031 C 
ATOM     65  C   UNL A   1      45.407  28.576  30.301  1.00  0.00     0.034 A 
BRANCH  52  66
ATOM     66  C   UNL A   1      42.839  27.462  34.984  1.00  0.00     0.023 A 
ATOM     67  C   UNL A   1      43.570  26.324  34.599  1.00  0.00     0.031 A 
ATOM     68  C   UNL A   1      42.030  27.311  36.136  1.00  0.00     0.131 A 
ATOM     69  C   UNL A   1      43.419  25.105  35.282  1.00  0.00     0.055 A 
ATOM     70  C   UNL A   1      41.939  26.116  36.854  1.00  0.00     0.041 A 
ATOM     71  F   UNL A   1      41.209  28.268  36.583  1.00  0.00    -0.206 F 
ATOM     72  C   UNL A   1      42.611  24.994  36.411  1.00  0.00     0.022 A 
BRANCH  69  73
ATOM     73  S   UNL A   1      44.162  23.619  34.564  1.00  0.00     0.124 S 
ATOM     74  O   UNL A   1      43.005  22.985  33.940  1.00  0.00    -0.237 OA
ATOM     75  O   UNL A   1      45.153  24.188  33.658  1.00  0.00    -0.237 OA
ATOM     76  O   UNL A   1      44.706  22.918  35.725  1.00  0.00    -0.744 OA
ENDBRANCH  69  73
ENDBRANCH  52  66
BRANCH  53  77
ATOM     77  C   UNL A   1      42.842  24.379  26.995  1.00  0.00     0.023 A 
ATOM     78  C   UNL A   1      43.749  23.761  26.102  1.00  0.00     0.031 A 
ATOM     79  C   UNL A   1      41.748  23.590  27.420  1.00  0.00     0.131 A 
ATOM     80  C   UNL A   1      43.539  22.424  25.675  1.00  0.00     0.055 A 
ATOM     81  C   UNL A   1      41.547  22.273  26.997  1.00  0.00     0.041 A 
ATOM     82  F   UNL A   1      40.879  24.042  28.337  1.00  0.00    -0.206 F 
ATOM     83  C   UNL A   1      42.447  21.681  26.128  1.00  0.00     0.022 A 
BRANCH  80  84
ATOM     84  S   UNL A   1      44.736  21.588  24.580  1.00  0.00     0.124 S 
ATOM     85  O   UNL A   1      44.588  22.329  23.333  1.00  0.00    -0.237 OA
ATOM     86  O   UNL A   1      45.995  21.763  25.295  1.00  0.00    -0.237 OA
ATOM     87  O   UNL A   1      44.251  20.207  24.532  1.00  0.00    -0.744 OA
ENDBRANCH  80  84
ENDBRANCH  53  77
BRANCH  65  88
ATOM     88  C   UNL A   1      45.903  29.485  29.187  1.00  0.00     0.023 A 
ATOM     89  C   UNL A   1      45.085  30.301  28.370  1.00  0.00     0.031 A 
ATOM     90  C   UNL A   1      47.296  29.610  29.037  1.00  0.00     0.131 A 
ATOM     91  C   UNL A   1      45.671  31.188  27.442  1.00  0.00     0.055 A 
ATOM     92  C   UNL A   1      47.871  30.505  28.137  1.00  0.00     0.041 A 
ATOM     93  F   UNL A   1      48.129  28.881  29.798  1.00  0.00    -0.206 F 
ATOM     94  C   UNL A   1      47.061  31.294  27.331  1.00  0.00     0.022 A 
BRANCH  91  95
ATOM     95  S   UNL A   1      44.639  32.211  26.339  1.00  0.00     0.124 S 
ATOM     96  O   UNL A   1      44.279  33.354  27.171  1.00  0.00    -0.237 OA
ATOM     97  O   UNL A   1      45.542  32.487  25.227  1.00  0.00    -0.237 OA
ATOM     98  O   UNL A   1      43.519  31.326  26.006  1.00  0.00    -0.744 OA
ENDBRANCH  91  95
ENDBRANCH  65  88
ENDBRANCH  39  40
ENDBRANCH  32  34
ENDBRANCH  31  32
ENDBRANCH  30  31
ENDBRANCH   1  30
TORSDOF 19
ENDMDL
MODEL 2
REMARK VINA RESULT:      -9.7      2.902     11.416
REMARK SMILES O=C(CSc1nc(-c2ccccc2)c(-c2ccccc2)n1-c1ccccc1)OCCOC(=O)c1ccc(-c2c3nc(c(-c4cc(S(=O)(=O)[O-])ccc4F)c4ccc([nH]4)c(-c4cc(S(=O)(=O)[O-])ccc4F)c4nc(c(-c5cc(S(=O)(=O)[O-])ccc5F)c5ccc2[nH]5)C=C4)C=C3)cc1
REMARK SMILES IDX 29 1 28 2 2 3 1 4 3 5 4 6 5 7 6 8 21 9 7 10 14 11 22 12
REMARK SMILES IDX 23 13 27 14 24 15 26 16 25 17 8 18 9 19 13 20 10 21 12 22
REMARK SMILES IDX 11 23 15 24 16 25 20 26 17 27 19 28 18 29 30 30 31 31 32 32
REMARK SMILES IDX 33 33 34 34 35 35 96 36 36 37 95 38 37 39 38 40 39 41 89 42
REMARK SMILES IDX 40 43 94 44 88 45 90 46 41 47 93 48 87 49 86 50 42 52 74 53
REMARK SMILES IDX 54 54 73 55 55 56 58 57 72 58 91 59 56 60 57 61 71 63 92 64
REMARK SMILES IDX 59 65 43 66 44 67 52 68 45 69 51 70 53 71 50 72 46 73 47 74
REMARK SMILES IDX 48 75 49 76 75 77 76 78 84 79 77 80 83 81 85 82 82 83 78 84
REMARK SMILES IDX 79 85 80 86 81 87 60 88 61 89 69 90 62 91 68 92 70 93 67 94
REMARK SMILES IDX 63 95 64 96 65 97 66 98
REMARK H PARENT 90 51 58 62
REMARK Flexibility Score: inf
ROOT
ATOM      1  C   UNL A   1      42.621  20.755  26.147  1.00  0.00     0.274 C 
ENDROOT
BRANCH   1   2
ATOM      2  O   UNL A   1      43.061  22.083  25.795  1.00  0.00    -0.461 OA
BRANCH   2   3
ATOM      3  C   UNL A   1      43.974  22.410  24.845  1.00  0.00     0.316 C 
ATOM      4  O   UNL A   1      44.355  21.556  24.044  1.00  0.00    -0.251 OA
BRANCH   3   5
ATOM      5  C   UNL A   1      44.529  23.812  24.795  1.00  0.00     0.200 C 
BRANCH   5   6
ATOM      6  S   UNL A   1      46.326  23.863  24.908  1.00  0.00    -0.076 SA
BRANCH   6   7
ATOM      7  C   UNL A   1      46.493  25.038  26.158  1.00  0.00     0.174 A 
ATOM      8  N   UNL A   1      46.175  24.830  27.411  1.00  0.00    -0.221 NA
ATOM      9  N   UNL A   1      47.128  26.243  25.958  1.00  0.00    -0.287 N 
ATOM     10  C   UNL A   1      46.629  25.941  28.072  1.00  0.00     0.098 A 
ATOM     11  C   UNL A   1      47.311  26.799  27.215  1.00  0.00     0.082 A 
BRANCH   9  12
ATOM     12  C   UNL A   1      47.555  26.783  24.724  1.00  0.00     0.048 A 
ATOM     13  C   UNL A   1      46.767  27.744  24.085  1.00  0.00     0.027 A 
ATOM     14  C   UNL A   1      48.743  26.321  24.145  1.00  0.00     0.027 A 
ATOM     15  C   UNL A   1      47.176  28.251  22.854  1.00  0.00     0.002 A 
ATOM     16  C   UNL A   1      49.129  26.816  22.901  1.00  0.00     0.002 A 
ATOM     17  C   UNL A   1      48.349  27.781  22.259  1.00  0.00     0.000 A 
ENDBRANCH   9  12
BRANCH  10  18
ATOM     18  C   UNL A   1      46.475  26.134  29.501  1.00  0.00     0.002 A 
ATOM     19  C   UNL A   1      45.237  26.519  30.024  1.00  0.00     0.010 A 
ATOM     20  C   UNL A   1      47.546  25.896  30.375  1.00  0.00     0.010 A 
ATOM     21  C   UNL A   1      45.057  26.605  31.408  1.00  0.00     0.001 A 
ATOM     22  C   UNL A   1      47.365  25.985  31.755  1.00  0.00     0.001 A 
ATOM     23  C   UNL A   1      46.116  26.326  32.271  1.00  0.00     0.000 A 
ENDBRANCH  10  18
BRANCH  11  24
ATOM     24  C   UNL A   1      48.068  28.013  27.485  1.00  0.00     0.001 A 
ATOM     25  C   UNL A   1      49.466  27.948  27.537  1.00  0.00     0.010 A 
ATOM     26  C   UNL A   1      47.426  29.241  27.678  1.00  0.00     0.010 A 
ATOM     27  C   UNL A   1      50.214  29.100  27.763  1.00  0.00     0.001 A 
ATOM     28  C   UNL A   1      48.177  30.394  27.901  1.00  0.00     0.001 A 
ATOM     29  C   UNL A   1      49.570  30.324  27.940  1.00  0.00     0.000 A 
ENDBRANCH  11  24
ENDBRANCH   6   7
ENDBRANCH   5   6
ENDBRANCH   3   5
ENDBRANCH   2   3
ENDBRANCH   1   2
BRANCH   1  30
ATOM     30  C   UNL A   1      41.577  20.758  27.250  1.00  0.00     0.275 C 
BRANCH  30  31
ATOM     31  O   UNL A   1      41.449  22.056  27.820  1.00  0.00    -0.458 OA
BRANCH  31  32
ATOM     32  C   UNL A   1      40.406  22.800  27.390  1.00  0.00     0.338 C 
ATOM     33  O   UNL A   1      39.373  22.388  26.889  1.00  0.00    -0.246 OA
BRANCH  32  34
ATOM     34  C   UNL A   1      40.754  24.216  27.560  1.00  0.00     0.060 A 
ATOM     35  C   UNL A   1      41.858  24.537  28.355  1.00  0.00     0.016 A 
ATOM     36  C   UNL A   1      39.870  25.202  27.096  1.00  0.00     0.016 A 
ATOM     37  C   UNL A   1      41.974  25.829  28.832  1.00  0.00     0.010 A 
ATOM     38  C   UNL A   1      39.971  26.476  27.591  1.00  0.00     0.010 A 
ATOM     39  C   UNL A   1      40.979  26.757  28.511  1.00  0.00    -0.014 A 
BRANCH  39  40
ATOM     40  C   UNL A   1      41.033  28.090  29.074  1.00  0.00     0.031 A 
ATOM     41  C   UNL A   1      42.111  28.922  28.492  1.00  0.00     0.074 A 
ATOM     42  C   UNL A   1      40.071  28.550  29.900  1.00  0.00     0.049 A 
ATOM     43  N   UNL A   1      43.152  29.395  29.087  1.00  0.00    -0.248 NA
ATOM     44  C   UNL A   1      42.129  29.108  27.029  1.00  0.00     0.031 C 
ATOM     45  C   UNL A   1      38.826  27.881  30.293  1.00  0.00     0.029 A 
ATOM     46  N   UNL A   1      39.949  29.773  30.481  1.00  0.00    -0.354 N 
ATOM     47  C   UNL A   1      43.819  30.150  28.130  1.00  0.00     0.074 A 
ATOM     48  C   UNL A   1      43.284  29.750  26.859  1.00  0.00     0.031 C 
ATOM     49  C   UNL A   1      37.987  28.787  30.849  1.00  0.00     0.029 A 
ATOM     50  C   UNL A   1      38.674  30.063  30.965  1.00  0.00     0.049 A 
ATOM     51  H   UNL A   1      40.700  30.403  30.553  1.00  0.00     0.167 HD
ATOM     52  C   UNL A   1      44.553  31.238  28.485  1.00  0.00     0.034 A 
ATOM     53  C   UNL A   1      38.207  31.278  31.370  1.00  0.00     0.034 A 
ATOM     54  C   UNL A   1      44.897  31.193  29.889  1.00  0.00     0.049 A 
ATOM     55  C   UNL A   1      39.400  32.110  31.678  1.00  0.00     0.074 A 
ATOM     56  C   UNL A   1      45.568  30.278  30.680  1.00  0.00     0.029 A 
ATOM     57  N   UNL A   1      44.176  31.975  30.763  1.00  0.00    -0.354 N 
ATOM     58  N   UNL A   1      40.224  31.841  32.654  1.00  0.00    -0.248 NA
ATOM     59  C   UNL A   1      39.961  32.917  30.604  1.00  0.00     0.031 C 
ATOM     60  C   UNL A   1      44.822  30.227  31.894  1.00  0.00     0.029 A 
ATOM     61  C   UNL A   1      43.802  31.179  31.820  1.00  0.00     0.049 A 
ATOM     62  H   UNL A   1      43.967  32.931  30.652  1.00  0.00     0.167 HD
ATOM     63  C   UNL A   1      41.489  32.047  32.126  1.00  0.00     0.074 A 
ATOM     64  C   UNL A   1      41.262  32.796  30.889  1.00  0.00     0.031 C 
ATOM     65  C   UNL A   1      42.573  31.346  32.576  1.00  0.00     0.034 A 
BRANCH  52  66
ATOM     66  C   UNL A   1      44.639  32.503  27.661  1.00  0.00     0.023 A 
ATOM     67  C   UNL A   1      43.896  33.613  28.100  1.00  0.00     0.031 A 
ATOM     68  C   UNL A   1      45.170  32.599  26.352  1.00  0.00     0.131 A 
ATOM     69  C   UNL A   1      43.640  34.695  27.240  1.00  0.00     0.055 A 
ATOM     70  C   UNL A   1      44.971  33.708  25.527  1.00  0.00     0.041 A 
ATOM     71  F   UNL A   1      45.826  31.597  25.755  1.00  0.00    -0.206 F 
ATOM     72  C   UNL A   1      44.176  34.752  25.956  1.00  0.00     0.022 A 
BRANCH  69  73
ATOM     73  S   UNL A   1      42.444  35.948  27.766  1.00  0.00     0.124 S 
ATOM     74  O   UNL A   1      42.349  36.782  26.572  1.00  0.00    -0.237 OA
ATOM     75  O   UNL A   1      41.275  35.133  28.079  1.00  0.00    -0.237 OA
ATOM     76  O   UNL A   1      43.094  36.574  28.915  1.00  0.00    -0.744 OA
ENDBRANCH  69  73
ENDBRANCH  52  66
BRANCH  53  77
ATOM     77  C   UNL A   1      36.844  31.850  31.144  1.00  0.00     0.023 A 
ATOM     78  C   UNL A   1      36.080  32.471  32.160  1.00  0.00     0.031 A 
ATOM     79  C   UNL A   1      36.369  32.006  29.821  1.00  0.00     0.131 A 
ATOM     80  C   UNL A   1      34.906  33.199  31.833  1.00  0.00     0.055 A 
ATOM     81  C   UNL A   1      35.212  32.725  29.505  1.00  0.00     0.041 A 
ATOM     82  F   UNL A   1      37.064  31.539  28.773  1.00  0.00    -0.206 F 
ATOM     83  C   UNL A   1      34.480  33.332  30.510  1.00  0.00     0.022 A 
BRANCH  80  84
ATOM     84  S   UNL A   1      33.947  34.066  33.123  1.00  0.00     0.124 S 
ATOM     85  O   UNL A   1      34.929  34.223  34.189  1.00  0.00    -0.237 OA
ATOM     86  O   UNL A   1      33.529  35.284  32.439  1.00  0.00    -0.237 OA
ATOM     87  O   UNL A   1      32.859  33.134  33.426  1.00  0.00    -0.744 OA
ENDBRANCH  80  84
ENDBRANCH  53  77
BRANCH  65  88
ATOM     88  C   UNL A   1      42.428  30.527  33.849  1.00  0.00     0.023 A 
ATOM     89  C   UNL A   1      42.268  29.121  33.904  1.00  0.00     0.031 A 
ATOM     90  C   UNL A   1      42.582  31.208  35.069  1.00  0.00     0.131 A 
ATOM     91  C   UNL A   1      42.257  28.459  35.150  1.00  0.00     0.055 A 
ATOM     92  C   UNL A   1      42.595  30.547  36.296  1.00  0.00     0.041 A 
ATOM     93  F   UNL A   1      42.761  32.540  35.086  1.00  0.00    -0.206 F 
ATOM     94  C   UNL A   1      42.427  29.169  36.342  1.00  0.00     0.022 A 
BRANCH  91  95
ATOM     95  S   UNL A   1      41.997  26.656  35.252  1.00  0.00     0.124 S 
ATOM     96  O   UNL A   1      40.684  26.464  34.645  1.00  0.00    -0.237 OA
ATOM     97  O   UNL A   1      43.133  26.130  34.500  1.00  0.00    -0.237 OA
ATOM     98  O   UNL A   1      42.046  26.386  36.691  1.00  0.00    -0.744 OA
ENDBRANCH  91  95
ENDBRANCH  65  88
ENDBRANCH  39  40
ENDBRANCH  32  34
ENDBRANCH  31  32
ENDBRANCH  30  31
ENDBRANCH   1  30
TORSDOF 19
ENDMDL
MODEL 3
REMARK VINA RESULT:      -9.5      3.333     11.320
REMARK SMILES O=C(CSc1nc(-c2ccccc2)c(-c2ccccc2)n1-c1ccccc1)OCCOC(=O)c1ccc(-c2c3nc(c(-c4cc(S(=O)(=O)[O-])ccc4F)c4ccc([nH]4)c(-c4cc(S(=O)(=O)[O-])ccc4F)c4nc(c(-c5cc(S(=O)(=O)[O-])ccc5F)c5ccc2[nH]5)C=C4)C=C3)cc1
REMARK SMILES IDX 29 1 28 2 2 3 1 4 3 5 4 6 5 7 6 8 21 9 7 10 14 11 22 12
REMARK SMILES IDX 23 13 27 14 24 15 26 16 25 17 8 18 9 19 13 20 10 21 12 22
REMARK SMILES IDX 11 23 15 24 16 25 20 26 17 27 19 28 18 29 30 30 31 31 32 32
REMARK SMILES IDX 33 33 34 34 35 35 96 36 36 37 95 38 37 39 38 40 39 41 89 42
REMARK SMILES IDX 40 43 94 44 88 45 90 46 41 47 93 48 87 49 86 50 42 52 74 53
REMARK SMILES IDX 54 54 73 55 55 56 58 57 72 58 91 59 56 60 57 61 71 63 92 64
REMARK SMILES IDX 59 65 43 66 44 67 52 68 45 69 51 70 53 71 50 72 46 73 47 74
REMARK SMILES IDX 48 75 49 76 75 77 76 78 84 79 77 80 83 81 85 82 82 83 78 84
REMARK SMILES IDX 79 85 80 86 81 87 60 88 61 89 69 90 62 91 68 92 70 93 67 94
REMARK SMILES IDX 63 95 64 96 65 97 66 98
REMARK H PARENT 90 51 58 62
REMARK Flexibility Score: inf
ROOT
ATOM      1  C   UNL A   1      42.023  20.482  27.179  1.00  0.00     0.274 C 
ENDROOT
BRANCH   1   2
ATOM      2  O   UNL A   1      43.055  21.421  26.811  1.00  0.00    -0.461 OA
BRANCH   2   3
ATOM      3  C   UNL A   1      43.370  21.831  25.556  1.00  0.00     0.316 C 
ATOM      4  O   UNL A   1      43.638  20.998  24.690  1.00  0.00    -0.251 OA
BRANCH   3   5
ATOM      5  C   UNL A   1      43.412  23.306  25.241  1.00  0.00     0.200 C 
BRANCH   5   6
ATOM      6  S   UNL A   1      45.071  23.902  24.871  1.00  0.00    -0.076 SA
BRANCH   6   7
ATOM      7  C   UNL A   1      45.319  24.909  26.248  1.00  0.00     0.174 A 
ATOM      8  N   UNL A   1      44.783  24.694  27.423  1.00  0.00    -0.221 NA
ATOM      9  N   UNL A   1      46.234  25.937  26.254  1.00  0.00    -0.287 N 
ATOM     10  C   UNL A   1      45.378  25.612  28.247  1.00  0.00     0.098 A 
ATOM     11  C   UNL A   1      46.354  26.341  27.576  1.00  0.00     0.082 A 
BRANCH   9  12
ATOM     12  C   UNL A   1      46.947  26.446  25.146  1.00  0.00     0.048 A 
ATOM     13  C   UNL A   1      48.196  25.908  24.826  1.00  0.00     0.027 A 
ATOM     14  C   UNL A   1      46.405  27.505  24.407  1.00  0.00     0.027 A 
ATOM     15  C   UNL A   1      48.909  26.434  23.752  1.00  0.00     0.002 A 
ATOM     16  C   UNL A   1      47.140  28.040  23.350  1.00  0.00     0.002 A 
ATOM     17  C   UNL A   1      48.387  27.504  23.022  1.00  0.00     0.000 A 
ENDBRANCH   9  12
BRANCH  10  18
ATOM     18  C   UNL A   1      45.066  25.734  29.658  1.00  0.00     0.002 A 
ATOM     19  C   UNL A   1      44.830  26.994  30.216  1.00  0.00     0.010 A 
ATOM     20  C   UNL A   1      44.955  24.593  30.467  1.00  0.00     0.010 A 
ATOM     21  C   UNL A   1      44.428  27.106  31.550  1.00  0.00     0.001 A 
ATOM     22  C   UNL A   1      44.556  24.707  31.799  1.00  0.00     0.001 A 
ATOM     23  C   UNL A   1      44.280  25.963  32.335  1.00  0.00     0.000 A 
ENDBRANCH  10  18
BRANCH  11  24
ATOM     24  C   UNL A   1      47.322  27.315  28.063  1.00  0.00     0.001 A 
ATOM     25  C   UNL A   1      47.230  28.642  27.629  1.00  0.00     0.010 A 
ATOM     26  C   UNL A   1      48.328  26.949  28.964  1.00  0.00     0.010 A 
ATOM     27  C   UNL A   1      48.124  29.599  28.104  1.00  0.00     0.001 A 
ATOM     28  C   UNL A   1      49.220  27.909  29.441  1.00  0.00     0.001 A 
ATOM     29  C   UNL A   1      49.115  29.233  29.013  1.00  0.00     0.000 A 
ENDBRANCH  11  24
ENDBRANCH   6   7
ENDBRANCH   5   6
ENDBRANCH   3   5
ENDBRANCH   2   3
ENDBRANCH   1   2
BRANCH   1  30
ATOM     30  C   UNL A   1      40.709  21.162  27.521  1.00  0.00     0.275 C 
BRANCH  30  31
ATOM     31  O   UNL A   1      40.920  22.529  27.855  1.00  0.00    -0.458 OA
BRANCH  31  32
ATOM     32  C   UNL A   1      40.080  23.422  27.286  1.00  0.00     0.338 C 
ATOM     33  O   UNL A   1      39.076  23.172  26.642  1.00  0.00    -0.246 OA
BRANCH  32  34
ATOM     34  C   UNL A   1      40.623  24.768  27.513  1.00  0.00     0.060 A 
ATOM     35  C   UNL A   1      41.463  24.967  28.611  1.00  0.00     0.016 A 
ATOM     36  C   UNL A   1      40.134  25.842  26.755  1.00  0.00     0.016 A 
ATOM     37  C   UNL A   1      41.671  26.259  29.057  1.00  0.00     0.010 A 
ATOM     38  C   UNL A   1      40.318  27.121  27.214  1.00  0.00     0.010 A 
ATOM     39  C   UNL A   1      41.022  27.310  28.400  1.00  0.00    -0.014 A 
BRANCH  39  40
ATOM     40  C   UNL A   1      41.152  28.660  28.906  1.00  0.00     0.031 A 
ATOM     41  C   UNL A   1      42.302  29.390  28.323  1.00  0.00     0.074 A 
ATOM     42  C   UNL A   1      40.200  29.222  29.679  1.00  0.00     0.049 A 
ATOM     43  N   UNL A   1      43.356  29.817  28.931  1.00  0.00    -0.248 NA
ATOM     44  C   UNL A   1      42.376  29.506  26.855  1.00  0.00     0.031 C 
ATOM     45  C   UNL A   1      38.901  28.659  30.060  1.00  0.00     0.029 A 
ATOM     46  N   UNL A   1      40.147  30.476  30.201  1.00  0.00    -0.354 N 
ATOM     47  C   UNL A   1      44.102  30.479  27.964  1.00  0.00     0.074 A 
ATOM     48  C   UNL A   1      43.579  30.059  26.695  1.00  0.00     0.031 C 
ATOM     49  C   UNL A   1      38.111  29.644  30.548  1.00  0.00     0.029 A 
ATOM     50  C   UNL A   1      38.882  30.874  30.631  1.00  0.00     0.049 A 
ATOM     51  H   UNL A   1      40.939  31.057  30.271  1.00  0.00     0.167 HD
ATOM     52  C   UNL A   1      44.900  31.530  28.295  1.00  0.00     0.034 A 
ATOM     53  C   UNL A   1      38.489  32.136  30.966  1.00  0.00     0.034 A 
ATOM     54  C   UNL A   1      45.198  31.526  29.710  1.00  0.00     0.049 A 
ATOM     55  C   UNL A   1      39.727  32.898  31.277  1.00  0.00     0.074 A 
ATOM     56  C   UNL A   1      45.780  30.605  30.562  1.00  0.00     0.029 A 
ATOM     57  N   UNL A   1      44.508  32.395  30.525  1.00  0.00    -0.354 N 
ATOM     58  N   UNL A   1      40.502  32.618  32.290  1.00  0.00    -0.248 NA
ATOM     59  C   UNL A   1      40.375  33.615  30.187  1.00  0.00     0.031 C 
ATOM     60  C   UNL A   1      44.996  30.661  31.752  1.00  0.00     0.029 A 
ATOM     61  C   UNL A   1      44.048  31.675  31.603  1.00  0.00     0.049 A 
ATOM     62  H   UNL A   1      44.369  33.357  30.366  1.00  0.00     0.167 HD
ATOM     63  C   UNL A   1      41.793  32.713  31.795  1.00  0.00     0.074 A 
ATOM     64  C   UNL A   1      41.655  33.418  30.519  1.00  0.00     0.031 C 
ATOM     65  C   UNL A   1      42.812  31.961  32.310  1.00  0.00     0.034 A 
BRANCH  52  66
ATOM     66  C   UNL A   1      45.098  32.747  27.419  1.00  0.00     0.023 A 
ATOM     67  C   UNL A   1      46.397  32.994  26.940  1.00  0.00     0.031 A 
ATOM     68  C   UNL A   1      44.173  33.807  27.259  1.00  0.00     0.131 A 
ATOM     69  C   UNL A   1      46.746  34.253  26.421  1.00  0.00     0.055 A 
ATOM     70  C   UNL A   1      44.508  35.031  26.677  1.00  0.00     0.041 A 
ATOM     71  F   UNL A   1      42.924  33.764  27.737  1.00  0.00    -0.206 F 
ATOM     72  C   UNL A   1      45.809  35.273  26.282  1.00  0.00     0.022 A 
BRANCH  69  73
ATOM     73  S   UNL A   1      48.493  34.593  26.092  1.00  0.00     0.124 S 
ATOM     74  O   UNL A   1      48.481  34.828  24.652  1.00  0.00    -0.237 OA
ATOM     75  O   UNL A   1      48.734  35.760  26.934  1.00  0.00    -0.237 OA
ATOM     76  O   UNL A   1      49.163  33.367  26.519  1.00  0.00    -0.744 OA
ENDBRANCH  69  73
ENDBRANCH  52  66
BRANCH  53  77
ATOM     77  C   UNL A   1      37.176  32.789  30.672  1.00  0.00     0.023 A 
ATOM     78  C   UNL A   1      36.268  33.203  31.674  1.00  0.00     0.031 A 
ATOM     79  C   UNL A   1      36.907  33.241  29.359  1.00  0.00     0.131 A 
ATOM     80  C   UNL A   1      35.158  34.023  31.344  1.00  0.00     0.055 A 
ATOM     81  C   UNL A   1      35.813  34.050  29.040  1.00  0.00     0.041 A 
ATOM     82  F   UNL A   1      37.753  32.987  28.349  1.00  0.00    -0.206 F 
ATOM     83  C   UNL A   1      34.938  34.452  30.033  1.00  0.00     0.022 A 
BRANCH  80  84
ATOM     84  S   UNL A   1      34.016  34.625  32.635  1.00  0.00     0.124 S 
ATOM     85  O   UNL A   1      33.653  33.395  33.328  1.00  0.00    -0.237 OA
ATOM     86  O   UNL A   1      34.846  35.568  33.375  1.00  0.00    -0.237 OA
ATOM     87  O   UNL A   1      32.929  35.242  31.871  1.00  0.00    -0.744 OA
ENDBRANCH  80  84
ENDBRANCH  53  77
BRANCH  65  88
ATOM     88  C   UNL A   1      42.572  31.213  33.612  1.00  0.00     0.023 A 
ATOM     89  C   UNL A   1      42.777  31.740  34.910  1.00  0.00     0.031 A 
ATOM     90  C   UNL A   1      41.990  29.936  33.518  1.00  0.00     0.131 A 
ATOM     91  C   UNL A   1      42.411  30.987  36.046  1.00  0.00     0.055 A 
ATOM     92  C   UNL A   1      41.608  29.206  34.642  1.00  0.00     0.041 A 
ATOM     93  F   UNL A   1      41.748  29.386  32.316  1.00  0.00    -0.206 F 
ATOM     94  C   UNL A   1      41.823  29.726  35.912  1.00  0.00     0.022 A 
BRANCH  91  95
ATOM     95  S   UNL A   1      42.715  31.621  37.729  1.00  0.00     0.124 S 
ATOM     96  O   UNL A   1      43.573  30.605  38.328  1.00  0.00    -0.237 OA
ATOM     97  O   UNL A   1      43.338  32.916  37.472  1.00  0.00    -0.237 OA
ATOM     98  O   UNL A   1      41.372  31.700  38.310  1.00  0.00    -0.744 OA
ENDBRANCH  91  95
ENDBRANCH  65  88
ENDBRANCH  39  40
ENDBRANCH  32  34
ENDBRANCH  31  32
ENDBRANCH  30  31
ENDBRANCH   1  30
TORSDOF 19
ENDMDL
