MODEL 1
REMARK VINA RESULT:     -11.1      0.000      0.000
REMARK SMILES CC1(C)CCCC[C@H]1[C@H](O)C(=O)OCCOC(=O)c1ccc(-c2c3nc(c(-c4cc(S(=O)(=O)[O-])ccc4F)c4ccc([nH]4)c(-c4cc(S(=O)(=O)[O-])ccc4F)c4nc(c(-c5cc(S(=O)(=O)[O-])ccc5F)c5ccc2[nH]5)C=C4)C=C3)cc1
REMARK SMILES IDX 15 1 14 2 13 3 11 4 12 5 9 6 8 7 1 8 2 9 3 10 4 11 5 12 7 13
REMARK SMILES IDX 6 14 10 15 16 17 17 18 18 19 19 20 20 21 81 22 21 23 80 24
REMARK SMILES IDX 22 25 23 26 24 27 74 28 25 29 79 30 73 31 75 32 26 33 78 34
REMARK SMILES IDX 72 35 71 36 27 38 59 39 39 40 58 41 40 42 43 43 57 44 76 45
REMARK SMILES IDX 41 46 42 47 56 49 77 50 44 51 28 52 29 53 37 54 30 55 36 56
REMARK SMILES IDX 38 57 35 58 31 59 32 60 33 61 34 62 60 63 61 64 69 65 62 66
REMARK SMILES IDX 68 67 70 68 67 69 63 70 64 71 65 72 66 73 45 74 46 75 54 76
REMARK SMILES IDX 47 77 53 78 55 79 52 80 48 81 49 82 50 83 51 84
REMARK H PARENT 10 16 75 37 43 48
REMARK Flexibility Score: inf
ROOT
ATOM      1  C   UNL A   1      36.229  20.761  25.188  1.00  0.00     0.275 C 
ENDROOT
BRANCH   1   2
ATOM      2  C   UNL A   1      34.956  21.307  24.543  1.00  0.00     0.274 C 
BRANCH   2   3
ATOM      3  O   UNL A   1      33.951  21.595  25.528  1.00  0.00    -0.460 OA
BRANCH   3   4
ATOM      4  C   UNL A   1      32.670  21.718  25.076  1.00  0.00     0.335 C 
ATOM      5  O   UNL A   1      31.776  20.906  25.278  1.00  0.00    -0.249 OA
BRANCH   4   6
ATOM      6  C   UNL A   1      32.487  22.998  24.249  1.00  0.00     0.227 C 
BRANCH   6   7
ATOM      7  C   UNL A   1      32.253  24.250  25.128  1.00  0.00     0.035 C 
ATOM      8  C   UNL A   1      33.385  26.136  23.685  1.00  0.00     0.011 C 
ATOM      9  C   UNL A   1      33.316  25.409  25.049  1.00  0.00    -0.030 C 
ATOM     10  C   UNL A   1      34.728  24.884  25.378  1.00  0.00     0.011 C 
ATOM     11  C   UNL A   1      32.934  26.461  26.123  1.00  0.00     0.007 C 
ATOM     12  C   UNL A   1      31.519  27.009  25.934  1.00  0.00     0.001 C 
ATOM     13  C   UNL A   1      30.813  24.781  24.944  1.00  0.00     0.007 C 
ATOM     14  C   UNL A   1      30.481  25.894  25.936  1.00  0.00     0.000 C 
ENDBRANCH   6   7
BRANCH   6  15
ATOM     15  O   UNL A   1      31.477  22.930  23.244  1.00  0.00    -0.381 OA
ATOM     16  H   UNL A   1      31.826  22.468  22.466  1.00  0.00     0.211 HD
ENDBRANCH   6  15
ENDBRANCH   4   6
ENDBRANCH   3   4
ENDBRANCH   2   3
ENDBRANCH   1   2
BRANCH   1  17
ATOM     17  O   UNL A   1      37.267  21.751  25.236  1.00  0.00    -0.458 OA
BRANCH  17  18
ATOM     18  C   UNL A   1      38.453  21.322  25.732  1.00  0.00     0.338 C 
ATOM     19  O   UNL A   1      38.986  20.239  25.559  1.00  0.00    -0.246 OA
BRANCH  18  20
ATOM     20  C   UNL A   1      39.120  22.452  26.389  1.00  0.00     0.060 A 
ATOM     21  C   UNL A   1      38.675  23.744  26.092  1.00  0.00     0.016 A 
ATOM     22  C   UNL A   1      40.198  22.242  27.246  1.00  0.00     0.016 A 
ATOM     23  C   UNL A   1      39.317  24.847  26.639  1.00  0.00     0.010 A 
ATOM     24  C   UNL A   1      40.846  23.347  27.790  1.00  0.00     0.010 A 
ATOM     25  C   UNL A   1      40.419  24.651  27.472  1.00  0.00    -0.014 A 
BRANCH  25  26
ATOM     26  C   UNL A   1      41.231  25.796  27.921  1.00  0.00     0.031 A 
ATOM     27  C   UNL A   1      40.552  26.878  28.703  1.00  0.00     0.074 A 
ATOM     28  C   UNL A   1      42.531  25.878  27.590  1.00  0.00     0.049 A 
ATOM     29  N   UNL A   1      40.959  28.085  28.977  1.00  0.00    -0.248 NA
ATOM     30  C   UNL A   1      39.215  26.552  29.228  1.00  0.00     0.031 C 
ATOM     31  C   UNL A   1      43.297  24.836  26.907  1.00  0.00     0.029 A 
ATOM     32  N   UNL A   1      43.425  26.902  27.756  1.00  0.00    -0.354 N 
ATOM     33  C   UNL A   1      39.916  28.682  29.674  1.00  0.00     0.074 A 
ATOM     34  C   UNL A   1      38.850  27.706  29.763  1.00  0.00     0.031 C 
ATOM     35  C   UNL A   1      44.542  25.287  26.685  1.00  0.00     0.029 A 
ATOM     36  C   UNL A   1      44.634  26.670  27.143  1.00  0.00     0.049 A 
ATOM     37  H   UNL A   1      43.223  27.721  28.263  1.00  0.00     0.167 HD
ATOM     38  C   UNL A   1      39.863  29.937  30.183  1.00  0.00     0.034 A 
ATOM     39  C   UNL A   1      45.668  27.507  26.925  1.00  0.00     0.034 A 
ATOM     40  C   UNL A   1      40.948  30.877  30.064  1.00  0.00     0.049 A 
ATOM     41  C   UNL A   1      45.549  28.933  27.410  1.00  0.00     0.074 A 
ATOM     42  C   UNL A   1      41.021  32.176  30.531  1.00  0.00     0.029 A 
ATOM     43  N   UNL A   1      42.155  30.614  29.424  1.00  0.00    -0.354 N 
ATOM     44  N   UNL A   1      44.547  29.513  28.032  1.00  0.00    -0.248 NA
ATOM     45  C   UNL A   1      46.695  29.817  27.161  1.00  0.00     0.031 C 
ATOM     46  C   UNL A   1      42.238  32.722  30.109  1.00  0.00     0.029 A 
ATOM     47  C   UNL A   1      42.965  31.736  29.459  1.00  0.00     0.049 A 
ATOM     48  H   UNL A   1      42.396  29.757  29.006  1.00  0.00     0.167 HD
ATOM     49  C   UNL A   1      44.962  30.817  28.289  1.00  0.00     0.074 A 
ATOM     50  C   UNL A   1      46.301  30.938  27.750  1.00  0.00     0.031 C 
ATOM     51  C   UNL A   1      44.304  31.821  28.922  1.00  0.00     0.034 A 
BRANCH  38  52
ATOM     52  C   UNL A   1      38.575  30.368  30.839  1.00  0.00     0.023 A 
ATOM     53  C   UNL A   1      37.543  30.989  30.114  1.00  0.00     0.031 A 
ATOM     54  C   UNL A   1      38.393  30.193  32.222  1.00  0.00     0.131 A 
ATOM     55  C   UNL A   1      36.412  31.479  30.786  1.00  0.00     0.055 A 
ATOM     56  C   UNL A   1      37.227  30.605  32.870  1.00  0.00     0.041 A 
ATOM     57  F   UNL A   1      39.354  29.633  32.973  1.00  0.00    -0.206 F 
ATOM     58  C   UNL A   1      36.234  31.267  32.155  1.00  0.00     0.022 A 
BRANCH  55  59
ATOM     59  S   UNL A   1      35.249  32.529  29.872  1.00  0.00     0.124 S 
ATOM     60  O   UNL A   1      36.124  33.606  29.413  1.00  0.00    -0.237 OA
ATOM     61  O   UNL A   1      34.752  31.626  28.840  1.00  0.00    -0.237 OA
ATOM     62  O   UNL A   1      34.272  32.920  30.885  1.00  0.00    -0.744 OA
ENDBRANCH  55  59
ENDBRANCH  38  52
BRANCH  39  63
ATOM     63  C   UNL A   1      46.868  27.047  26.171  1.00  0.00     0.023 A 
ATOM     64  C   UNL A   1      47.934  26.417  26.832  1.00  0.00     0.031 A 
ATOM     65  C   UNL A   1      46.989  27.264  24.787  1.00  0.00     0.131 A 
ATOM     66  C   UNL A   1      49.093  26.072  26.120  1.00  0.00     0.055 A 
ATOM     67  C   UNL A   1      48.119  26.862  24.071  1.00  0.00     0.041 A 
ATOM     68  F   UNL A   1      46.002  27.865  24.103  1.00  0.00    -0.206 F 
ATOM     69  C   UNL A   1      49.186  26.274  24.742  1.00  0.00     0.022 A 
BRANCH  66  70
ATOM     70  S   UNL A   1      50.517  25.439  27.045  1.00  0.00     0.124 S 
ATOM     71  O   UNL A   1      49.946  24.268  27.702  1.00  0.00    -0.237 OA
ATOM     72  O   UNL A   1      51.477  25.173  25.980  1.00  0.00    -0.237 OA
ATOM     73  O   UNL A   1      50.864  26.546  27.933  1.00  0.00    -0.744 OA
ENDBRANCH  66  70
ENDBRANCH  39  63
BRANCH  51  74
ATOM     74  C   UNL A   1      45.054  33.110  29.141  1.00  0.00     0.023 A 
ATOM     75  C   UNL A   1      44.969  34.187  28.244  1.00  0.00     0.031 A 
ATOM     76  C   UNL A   1      45.837  33.268  30.299  1.00  0.00     0.131 A 
ATOM     77  C   UNL A   1      45.682  35.366  28.505  1.00  0.00     0.055 A 
ATOM     78  C   UNL A   1      46.497  34.462  30.581  1.00  0.00     0.041 A 
ATOM     79  F   UNL A   1      45.952  32.266  31.187  1.00  0.00    -0.206 F 
ATOM     80  C   UNL A   1      46.428  35.517  29.678  1.00  0.00     0.022 A 
BRANCH  77  81
ATOM     81  S   UNL A   1      45.670  36.687  27.263  1.00  0.00     0.124 S 
ATOM     82  O   UNL A   1      46.275  37.796  27.996  1.00  0.00    -0.237 OA
ATOM     83  O   UNL A   1      46.477  36.118  26.189  1.00  0.00    -0.237 OA
ATOM     84  O   UNL A   1      44.251  36.851  26.951  1.00  0.00    -0.744 OA
ENDBRANCH  77  81
ENDBRANCH  51  74
ENDBRANCH  25  26
ENDBRANCH  18  20
ENDBRANCH  17  18
ENDBRANCH   1  17
TORSDOF 16
ENDMDL
MODEL 2
REMARK VINA RESULT:     -11.1      1.412      1.727
REMARK SMILES CC1(C)CCCC[C@H]1[C@H](O)C(=O)OCCOC(=O)c1ccc(-c2c3nc(c(-c4cc(S(=O)(=O)[O-])ccc4F)c4ccc([nH]4)c(-c4cc(S(=O)(=O)[O-])ccc4F)c4nc(c(-c5cc(S(=O)(=O)[O-])ccc5F)c5ccc2[nH]5)C=C4)C=C3)cc1
REMARK SMILES IDX 15 1 14 2 13 3 11 4 12 5 9 6 8 7 1 8 2 9 3 10 4 11 5 12 7 13
REMARK SMILES IDX 6 14 10 15 16 17 17 18 18 19 19 20 20 21 81 22 21 23 80 24
REMARK SMILES IDX 22 25 23 26 24 27 74 28 25 29 79 30 73 31 75 32 26 33 78 34
REMARK SMILES IDX 72 35 71 36 27 38 59 39 39 40 58 41 40 42 43 43 57 44 76 45
REMARK SMILES IDX 41 46 42 47 56 49 77 50 44 51 28 52 29 53 37 54 30 55 36 56
REMARK SMILES IDX 38 57 35 58 31 59 32 60 33 61 34 62 60 63 61 64 69 65 62 66
REMARK SMILES IDX 68 67 70 68 67 69 63 70 64 71 65 72 66 73 45 74 46 75 54 76
REMARK SMILES IDX 47 77 53 78 55 79 52 80 48 81 49 82 50 83 51 84
REMARK H PARENT 10 16 75 37 43 48
REMARK Flexibility Score: inf
ROOT
ATOM      1  C   UNL A   1      36.384  20.739  25.124  1.00  0.00     0.275 C 
ENDROOT
BRANCH   1   2
ATOM      2  C   UNL A   1      34.986  21.239  25.486  1.00  0.00     0.274 C 
BRANCH   2   3
ATOM      3  O   UNL A   1      34.062  21.040  24.405  1.00  0.00    -0.460 OA
BRANCH   3   4
ATOM      4  C   UNL A   1      32.798  21.521  24.583  1.00  0.00     0.335 C 
ATOM      5  O   UNL A   1      31.903  20.934  25.178  1.00  0.00    -0.249 OA
BRANCH   4   6
ATOM      6  C   UNL A   1      32.620  22.892  23.916  1.00  0.00     0.227 C 
BRANCH   6   7
ATOM      7  C   UNL A   1      32.259  24.007  24.927  1.00  0.00     0.035 C 
ATOM      8  C   UNL A   1      33.288  26.133  23.769  1.00  0.00     0.011 C 
ATOM      9  C   UNL A   1      33.230  25.241  25.033  1.00  0.00    -0.030 C 
ATOM     10  C   UNL A   1      34.667  24.787  25.358  1.00  0.00     0.011 C 
ATOM     11  C   UNL A   1      32.729  26.124  26.207  1.00  0.00     0.007 C 
ATOM     12  C   UNL A   1      31.283  26.584  26.024  1.00  0.00     0.001 C 
ATOM     13  C   UNL A   1      30.789  24.448  24.745  1.00  0.00     0.007 C 
ATOM     14  C   UNL A   1      30.337  25.404  25.847  1.00  0.00     0.000 C 
ENDBRANCH   6   7
BRANCH   6  15
ATOM     15  O   UNL A   1      31.697  22.922  22.829  1.00  0.00    -0.381 OA
ATOM     16  H   UNL A   1      31.299  22.044  22.719  1.00  0.00     0.211 HD
ENDBRANCH   6  15
ENDBRANCH   4   6
ENDBRANCH   3   4
ENDBRANCH   2   3
ENDBRANCH   1   2
BRANCH   1  17
ATOM     17  O   UNL A   1      37.372  21.770  25.276  1.00  0.00    -0.458 OA
BRANCH  17  18
ATOM     18  C   UNL A   1      38.572  21.355  25.750  1.00  0.00     0.338 C 
ATOM     19  O   UNL A   1      39.120  20.283  25.558  1.00  0.00    -0.246 OA
BRANCH  18  20
ATOM     20  C   UNL A   1      39.230  22.490  26.408  1.00  0.00     0.060 A 
ATOM     21  C   UNL A   1      38.772  23.778  26.116  1.00  0.00     0.016 A 
ATOM     22  C   UNL A   1      40.312  22.287  27.262  1.00  0.00     0.016 A 
ATOM     23  C   UNL A   1      39.405  24.885  26.664  1.00  0.00     0.010 A 
ATOM     24  C   UNL A   1      40.951  23.397  27.807  1.00  0.00     0.010 A 
ATOM     25  C   UNL A   1      40.512  24.697  27.494  1.00  0.00    -0.014 A 
BRANCH  25  26
ATOM     26  C   UNL A   1      41.315  25.849  27.944  1.00  0.00     0.031 A 
ATOM     27  C   UNL A   1      40.627  26.922  28.731  1.00  0.00     0.074 A 
ATOM     28  C   UNL A   1      42.613  25.944  27.609  1.00  0.00     0.049 A 
ATOM     29  N   UNL A   1      41.024  28.132  29.006  1.00  0.00    -0.248 NA
ATOM     30  C   UNL A   1      39.295  26.583  29.258  1.00  0.00     0.031 C 
ATOM     31  C   UNL A   1      43.386  24.911  26.921  1.00  0.00     0.029 A 
ATOM     32  N   UNL A   1      43.498  26.976  27.776  1.00  0.00    -0.354 N 
ATOM     33  C   UNL A   1      39.978  28.717  29.709  1.00  0.00     0.074 A 
ATOM     34  C   UNL A   1      38.921  27.732  29.798  1.00  0.00     0.031 C 
ATOM     35  C   UNL A   1      44.626  25.374  26.697  1.00  0.00     0.029 A 
ATOM     36  C   UNL A   1      44.707  26.756  27.158  1.00  0.00     0.049 A 
ATOM     37  H   UNL A   1      43.290  27.792  28.285  1.00  0.00     0.167 HD
ATOM     38  C   UNL A   1      39.914  29.970  30.221  1.00  0.00     0.034 A 
ATOM     39  C   UNL A   1      45.732  27.604  26.940  1.00  0.00     0.034 A 
ATOM     40  C   UNL A   1      40.991  30.921  30.102  1.00  0.00     0.049 A 
ATOM     41  C   UNL A   1      45.601  29.027  27.429  1.00  0.00     0.074 A 
ATOM     42  C   UNL A   1      41.053  32.219  30.572  1.00  0.00     0.029 A 
ATOM     43  N   UNL A   1      42.198  30.671  29.458  1.00  0.00    -0.354 N 
ATOM     44  N   UNL A   1      44.596  29.596  28.056  1.00  0.00    -0.248 NA
ATOM     45  C   UNL A   1      46.738  29.923  27.180  1.00  0.00     0.031 C 
ATOM     46  C   UNL A   1      42.263  32.778  30.149  1.00  0.00     0.029 A 
ATOM     47  C   UNL A   1      42.998  31.801  29.494  1.00  0.00     0.049 A 
ATOM     48  H   UNL A   1      42.446  29.817  29.036  1.00  0.00     0.167 HD
ATOM     49  C   UNL A   1      44.999  30.903  28.315  1.00  0.00     0.074 A 
ATOM     50  C   UNL A   1      46.336  31.038  27.773  1.00  0.00     0.031 C 
ATOM     51  C   UNL A   1      44.334  31.899  28.953  1.00  0.00     0.034 A 
BRANCH  38  52
ATOM     52  C   UNL A   1      38.624  30.388  30.882  1.00  0.00     0.023 A 
ATOM     53  C   UNL A   1      37.588  31.009  30.164  1.00  0.00     0.031 A 
ATOM     54  C   UNL A   1      38.445  30.200  32.264  1.00  0.00     0.131 A 
ATOM     55  C   UNL A   1      36.455  31.485  30.840  1.00  0.00     0.055 A 
ATOM     56  C   UNL A   1      37.277  30.599  32.917  1.00  0.00     0.041 A 
ATOM     57  F   UNL A   1      39.410  29.641  33.009  1.00  0.00    -0.206 F 
ATOM     58  C   UNL A   1      36.279  31.261  32.207  1.00  0.00     0.022 A 
BRANCH  55  59
ATOM     59  S   UNL A   1      35.284  32.535  29.936  1.00  0.00     0.124 S 
ATOM     60  O   UNL A   1      34.899  31.662  28.830  1.00  0.00    -0.237 OA
ATOM     61  O   UNL A   1      34.253  32.791  30.936  1.00  0.00    -0.237 OA
ATOM     62  O   UNL A   1      36.087  33.695  29.556  1.00  0.00    -0.744 OA
ENDBRANCH  55  59
ENDBRANCH  38  52
BRANCH  39  63
ATOM     63  C   UNL A   1      46.935  27.157  26.182  1.00  0.00     0.023 A 
ATOM     64  C   UNL A   1      47.167  27.607  24.873  1.00  0.00     0.031 A 
ATOM     65  C   UNL A   1      47.850  26.244  26.736  1.00  0.00     0.131 A 
ATOM     66  C   UNL A   1      48.257  27.106  24.144  1.00  0.00     0.055 A 
ATOM     67  C   UNL A   1      48.968  25.796  26.028  1.00  0.00     0.041 A 
ATOM     68  F   UNL A   1      47.676  25.777  27.982  1.00  0.00    -0.206 F 
ATOM     69  C   UNL A   1      49.167  26.217  24.718  1.00  0.00     0.022 A 
BRANCH  66  70
ATOM     70  S   UNL A   1      48.410  27.565  22.397  1.00  0.00     0.124 S 
ATOM     71  O   UNL A   1      49.641  28.347  22.403  1.00  0.00    -0.237 OA
ATOM     72  O   UNL A   1      48.481  26.261  21.746  1.00  0.00    -0.237 OA
ATOM     73  O   UNL A   1      47.189  28.324  22.137  1.00  0.00    -0.744 OA
ENDBRANCH  66  70
ENDBRANCH  39  63
BRANCH  51  74
ATOM     74  C   UNL A   1      45.073  33.194  29.174  1.00  0.00     0.023 A 
ATOM     75  C   UNL A   1      45.008  34.258  28.259  1.00  0.00     0.031 A 
ATOM     76  C   UNL A   1      45.824  33.372  30.350  1.00  0.00     0.131 A 
ATOM     77  C   UNL A   1      45.709  35.444  28.522  1.00  0.00     0.055 A 
ATOM     78  C   UNL A   1      46.471  34.573  30.633  1.00  0.00     0.041 A 
ATOM     79  F   UNL A   1      45.919  32.384  31.255  1.00  0.00    -0.206 F 
ATOM     80  C   UNL A   1      46.423  35.615  29.713  1.00  0.00     0.022 A 
BRANCH  77  81
ATOM     81  S   UNL A   1      45.726  36.747  27.262  1.00  0.00     0.124 S 
ATOM     82  O   UNL A   1      46.177  36.019  26.080  1.00  0.00    -0.237 OA
ATOM     83  O   UNL A   1      44.335  37.188  27.247  1.00  0.00    -0.237 OA
ATOM     84  O   UNL A   1      46.677  37.723  27.790  1.00  0.00    -0.744 OA
ENDBRANCH  77  81
ENDBRANCH  51  74
ENDBRANCH  25  26
ENDBRANCH  18  20
ENDBRANCH  17  18
ENDBRANCH   1  17
TORSDOF 16
ENDMDL
MODEL 3
REMARK VINA RESULT:     -11.0      4.802     10.055
REMARK SMILES CC1(C)CCCC[C@H]1[C@H](O)C(=O)OCCOC(=O)c1ccc(-c2c3nc(c(-c4cc(S(=O)(=O)[O-])ccc4F)c4ccc([nH]4)c(-c4cc(S(=O)(=O)[O-])ccc4F)c4nc(c(-c5cc(S(=O)(=O)[O-])ccc5F)c5ccc2[nH]5)C=C4)C=C3)cc1
REMARK SMILES IDX 15 1 14 2 13 3 11 4 12 5 9 6 8 7 1 8 2 9 3 10 4 11 5 12 7 13
REMARK SMILES IDX 6 14 10 15 16 17 17 18 18 19 19 20 20 21 81 22 21 23 80 24
REMARK SMILES IDX 22 25 23 26 24 27 74 28 25 29 79 30 73 31 75 32 26 33 78 34
REMARK SMILES IDX 72 35 71 36 27 38 59 39 39 40 58 41 40 42 43 43 57 44 76 45
REMARK SMILES IDX 41 46 42 47 56 49 77 50 44 51 28 52 29 53 37 54 30 55 36 56
REMARK SMILES IDX 38 57 35 58 31 59 32 60 33 61 34 62 60 63 61 64 69 65 62 66
REMARK SMILES IDX 68 67 70 68 67 69 63 70 64 71 65 72 66 73 45 74 46 75 54 76
REMARK SMILES IDX 47 77 53 78 55 79 52 80 48 81 49 82 50 83 51 84
REMARK H PARENT 10 16 75 37 43 48
REMARK Flexibility Score: inf
ROOT
ATOM      1  C   UNL A   1      31.964  30.076  25.258  1.00  0.00     0.275 C 
ENDROOT
BRANCH   1   2
ATOM      2  C   UNL A   1      31.999  28.844  24.355  1.00  0.00     0.274 C 
BRANCH   2   3
ATOM      3  O   UNL A   1      32.959  28.996  23.298  1.00  0.00    -0.460 OA
BRANCH   3   4
ATOM      4  C   UNL A   1      33.311  27.865  22.623  1.00  0.00     0.335 C 
ATOM      5  O   UNL A   1      34.026  27.836  21.630  1.00  0.00    -0.249 OA
BRANCH   4   6
ATOM      6  C   UNL A   1      32.670  26.617  23.248  1.00  0.00     0.227 C 
BRANCH   6   7
ATOM      7  C   UNL A   1      33.716  25.572  23.704  1.00  0.00     0.035 C 
ATOM      8  C   UNL A   1      32.534  24.514  25.803  1.00  0.00     0.011 C 
ATOM      9  C   UNL A   1      33.786  25.229  25.239  1.00  0.00    -0.030 C 
ATOM     10  C   UNL A   1      34.024  26.501  26.078  1.00  0.00     0.011 C 
ATOM     11  C   UNL A   1      35.000  24.284  25.446  1.00  0.00     0.007 C 
ATOM     12  C   UNL A   1      34.904  23.009  24.609  1.00  0.00     0.001 C 
ATOM     13  C   UNL A   1      33.623  24.297  22.836  1.00  0.00     0.007 C 
ATOM     14  C   UNL A   1      34.763  23.322  23.125  1.00  0.00     0.000 C 
ENDBRANCH   6   7
BRANCH   6  15
ATOM     15  O   UNL A   1      31.681  25.977  22.443  1.00  0.00    -0.381 OA
ATOM     16  H   UNL A   1      31.224  25.302  22.968  1.00  0.00     0.211 HD
ENDBRANCH   6  15
ENDBRANCH   4   6
ENDBRANCH   3   4
ENDBRANCH   2   3
ENDBRANCH   1   2
BRANCH   1  17
ATOM     17  O   UNL A   1      32.780  29.902  26.427  1.00  0.00    -0.458 OA
BRANCH  17  18
ATOM     18  C   UNL A   1      33.173  31.048  27.034  1.00  0.00     0.338 C 
ATOM     19  O   UNL A   1      32.505  32.044  27.251  1.00  0.00    -0.246 OA
BRANCH  18  20
ATOM     20  C   UNL A   1      34.523  30.849  27.575  1.00  0.00     0.060 A 
ATOM     21  C   UNL A   1      34.898  29.556  27.953  1.00  0.00     0.016 A 
ATOM     22  C   UNL A   1      35.386  31.929  27.751  1.00  0.00     0.016 A 
ATOM     23  C   UNL A   1      36.140  29.330  28.530  1.00  0.00     0.010 A 
ATOM     24  C   UNL A   1      36.628  31.704  28.335  1.00  0.00     0.010 A 
ATOM     25  C   UNL A   1      37.000  30.409  28.743  1.00  0.00    -0.014 A 
BRANCH  25  26
ATOM     26  C   UNL A   1      38.244  30.234  29.515  1.00  0.00     0.031 A 
ATOM     27  C   UNL A   1      39.299  29.331  28.954  1.00  0.00     0.074 A 
ATOM     28  C   UNL A   1      38.394  30.835  30.707  1.00  0.00     0.049 A 
ATOM     29  N   UNL A   1      40.339  28.806  29.539  1.00  0.00    -0.248 NA
ATOM     30  C   UNL A   1      39.139  28.951  27.540  1.00  0.00     0.031 C 
ATOM     31  C   UNL A   1      37.461  31.797  31.292  1.00  0.00     0.029 A 
ATOM     32  N   UNL A   1      39.374  30.695  31.653  1.00  0.00    -0.354 N 
ATOM     33  C   UNL A   1      40.942  28.003  28.578  1.00  0.00     0.074 A 
ATOM     34  C   UNL A   1      40.136  28.096  27.379  1.00  0.00     0.031 C 
ATOM     35  C   UNL A   1      37.899  32.140  32.514  1.00  0.00     0.029 A 
ATOM     36  C   UNL A   1      39.098  31.366  32.822  1.00  0.00     0.049 A 
ATOM     37  H   UNL A   1      40.193  30.167  31.512  1.00  0.00     0.167 HD
ATOM     38  C   UNL A   1      42.063  27.253  28.703  1.00  0.00     0.034 A 
ATOM     39  C   UNL A   1      39.715  31.307  34.019  1.00  0.00     0.034 A 
ATOM     40  C   UNL A   1      42.830  27.186  29.921  1.00  0.00     0.049 A 
ATOM     41  C   UNL A   1      40.903  30.386  34.167  1.00  0.00     0.074 A 
ATOM     42  C   UNL A   1      43.981  26.464  30.179  1.00  0.00     0.029 A 
ATOM     43  N   UNL A   1      42.515  27.868  31.091  1.00  0.00    -0.354 N 
ATOM     44  N   UNL A   1      41.450  29.593  33.274  1.00  0.00    -0.248 NA
ATOM     45  C   UNL A   1      41.555  30.349  35.483  1.00  0.00     0.031 C 
ATOM     46  C   UNL A   1      44.318  26.650  31.524  1.00  0.00     0.029 A 
ATOM     47  C   UNL A   1      43.433  27.560  32.081  1.00  0.00     0.049 A 
ATOM     48  H   UNL A   1      41.751  28.478  31.200  1.00  0.00     0.167 HD
ATOM     49  C   UNL A   1      42.537  28.997  33.908  1.00  0.00     0.074 A 
ATOM     50  C   UNL A   1      42.564  29.520  35.259  1.00  0.00     0.031 C 
ATOM     51  C   UNL A   1      43.439  28.109  33.418  1.00  0.00     0.034 A 
BRANCH  38  52
ATOM     52  C   UNL A   1      42.469  26.407  27.522  1.00  0.00     0.023 A 
ATOM     53  C   UNL A   1      41.987  25.098  27.344  1.00  0.00     0.031 A 
ATOM     54  C   UNL A   1      43.389  26.902  26.580  1.00  0.00     0.131 A 
ATOM     55  C   UNL A   1      42.481  24.307  26.295  1.00  0.00     0.055 A 
ATOM     56  C   UNL A   1      43.811  26.139  25.490  1.00  0.00     0.041 A 
ATOM     57  F   UNL A   1      43.908  28.132  26.713  1.00  0.00    -0.206 F 
ATOM     58  C   UNL A   1      43.369  24.826  25.351  1.00  0.00     0.022 A 
BRANCH  55  59
ATOM     59  S   UNL A   1      42.063  22.541  26.272  1.00  0.00     0.124 S 
ATOM     60  O   UNL A   1      42.655  22.116  25.005  1.00  0.00    -0.237 OA
ATOM     61  O   UNL A   1      42.715  22.047  27.480  1.00  0.00    -0.237 OA
ATOM     62  O   UNL A   1      40.603  22.535  26.302  1.00  0.00    -0.744 OA
ENDBRANCH  55  59
ENDBRANCH  38  52
BRANCH  39  63
ATOM     63  C   UNL A   1      39.194  32.086  35.178  1.00  0.00     0.023 A 
ATOM     64  C   UNL A   1      39.654  33.386  35.434  1.00  0.00     0.031 A 
ATOM     65  C   UNL A   1      38.259  31.531  36.070  1.00  0.00     0.131 A 
ATOM     66  C   UNL A   1      39.218  34.070  36.579  1.00  0.00     0.055 A 
ATOM     67  C   UNL A   1      37.781  32.240  37.175  1.00  0.00     0.041 A 
ATOM     68  F   UNL A   1      37.786  30.290  35.876  1.00  0.00    -0.206 F 
ATOM     69  C   UNL A   1      38.273  33.513  37.442  1.00  0.00     0.022 A 
BRANCH  66  70
ATOM     70  S   UNL A   1      39.983  35.666  36.975  1.00  0.00     0.124 S 
ATOM     71  O   UNL A   1      39.653  36.453  35.791  1.00  0.00    -0.237 OA
ATOM     72  O   UNL A   1      39.293  36.036  38.205  1.00  0.00    -0.237 OA
ATOM     73  O   UNL A   1      41.398  35.335  37.130  1.00  0.00    -0.744 OA
ENDBRANCH  66  70
ENDBRANCH  39  63
BRANCH  51  74
ATOM     74  C   UNL A   1      44.580  27.713  34.320  1.00  0.00     0.023 A 
ATOM     75  C   UNL A   1      44.515  26.585  35.155  1.00  0.00     0.031 A 
ATOM     76  C   UNL A   1      45.769  28.464  34.307  1.00  0.00     0.131 A 
ATOM     77  C   UNL A   1      45.611  26.259  35.967  1.00  0.00     0.055 A 
ATOM     78  C   UNL A   1      46.875  28.101  35.072  1.00  0.00     0.041 A 
ATOM     79  F   UNL A   1      45.879  29.552  33.526  1.00  0.00    -0.206 F 
ATOM     80  C   UNL A   1      46.798  26.997  35.914  1.00  0.00     0.022 A 
BRANCH  77  81
ATOM     81  S   UNL A   1      45.452  24.884  37.139  1.00  0.00     0.124 S 
ATOM     82  O   UNL A   1      46.448  23.942  36.637  1.00  0.00    -0.237 OA
ATOM     83  O   UNL A   1      45.763  25.521  38.415  1.00  0.00    -0.237 OA
ATOM     84  O   UNL A   1      44.062  24.460  36.983  1.00  0.00    -0.744 OA
ENDBRANCH  77  81
ENDBRANCH  51  74
ENDBRANCH  25  26
ENDBRANCH  18  20
ENDBRANCH  17  18
ENDBRANCH   1  17
TORSDOF 16
ENDMDL
