MODEL 1
REMARK VINA RESULT:     -12.4      0.000      0.000
REMARK SMILES CC(=O)NS(=O)(=O)c1ccc(-c2ccn(C(F)F)c(=O)c2)cc1C(=O)OCCOC(=O)c1ccc(-c2c3nc(c(-c4cc(S(=O)(=O)[O-])ccc4F)c4ccc([nH]4)c(-c4cc(S(=O)(=O)[O-])ccc4F)c4nc(c(-c5cc(S(=O)(=O)[O-])ccc5F)c5ccc2[nH]5)C=C4)C=C3)cc1
REMARK SMILES IDX 28 1 27 2 26 3 24 4 25 5 23 6 8 7 9 8 10 9 22 10 11 11 5 12
REMARK SMILES IDX 6 13 7 14 4 15 1 16 2 17 3 18 12 20 13 21 21 22 14 23 19 24
REMARK SMILES IDX 15 25 20 26 16 27 17 28 18 29 29 30 30 31 31 32 32 33 33 34
REMARK SMILES IDX 94 35 34 36 93 37 35 38 36 39 37 40 87 41 38 42 92 43 86 44
REMARK SMILES IDX 88 45 39 46 91 47 85 48 84 49 40 51 72 52 52 53 71 54 53 55
REMARK SMILES IDX 56 56 70 57 89 58 54 59 55 60 69 62 90 63 57 64 41 65 42 66
REMARK SMILES IDX 50 67 43 68 49 69 51 70 48 71 44 72 45 73 46 74 47 75 73 76
REMARK SMILES IDX 74 77 82 78 75 79 81 80 83 81 80 82 76 83 77 84 78 85 79 86
REMARK SMILES IDX 58 87 59 88 67 89 60 90 66 91 68 92 65 93 61 94 62 95 63 96
REMARK SMILES IDX 64 97
REMARK H PARENT 4 19 88 50 56 61
REMARK Flexibility Score: inf
ROOT
ATOM      1  C   UNL A   1      31.543  29.350  26.803  1.00  0.00     0.275 C 
ENDROOT
BRANCH   1   2
ATOM      2  C   UNL A   1      31.923  28.036  27.477  1.00  0.00     0.275 C 
BRANCH   2   3
ATOM      3  O   UNL A   1      31.604  26.930  26.605  1.00  0.00    -0.458 OA
BRANCH   3   4
ATOM      4  C   UNL A   1      32.621  26.438  25.866  1.00  0.00     0.339 C 
ATOM      5  O   UNL A   1      33.799  26.741  25.927  1.00  0.00    -0.246 OA
BRANCH   4   6
ATOM      6  C   UNL A   1      32.127  25.379  24.967  1.00  0.00     0.081 A 
ATOM      7  C   UNL A   1      31.255  25.595  23.903  1.00  0.00     0.102 A 
ATOM      8  C   UNL A   1      30.830  24.509  23.116  1.00  0.00     0.024 A 
ATOM      9  C   UNL A   1      31.314  23.220  23.361  1.00  0.00     0.010 A 
ATOM     10  C   UNL A   1      32.659  24.095  25.159  1.00  0.00     0.025 A 
ATOM     11  C   UNL A   1      32.256  23.012  24.369  1.00  0.00    -0.017 A 
BRANCH   7  12
ATOM     12  S   UNL A   1      30.862  27.222  23.327  1.00  0.00     0.264 S 
ATOM     13  O   UNL A   1      29.790  27.732  24.152  1.00  0.00    -0.201 OA
ATOM     14  O   UNL A   1      30.725  27.155  21.889  1.00  0.00    -0.201 OA
BRANCH  12  15
ATOM     15  N   UNL A   1      32.196  28.159  23.633  1.00  0.00    -0.249 N 
ATOM     16  C   UNL A   1      33.896  27.118  22.126  1.00  0.00     0.115 C 
ATOM     17  C   UNL A   1      33.342  28.317  22.841  1.00  0.00     0.230 C 
ATOM     18  O   UNL A   1      33.939  29.386  22.882  1.00  0.00    -0.274 OA
ATOM     19  H   UNL A   1      32.180  28.668  24.475  1.00  0.00     0.183 HD
ENDBRANCH  12  15
ENDBRANCH   7  12
BRANCH  11  20
ATOM     20  C   UNL A   1      32.906  21.709  24.585  1.00  0.00    -0.011 A 
ATOM     21  C   UNL A   1      34.317  21.554  24.880  1.00  0.00     0.027 A 
ATOM     22  C   UNL A   1      32.156  20.614  24.375  1.00  0.00     0.080 A 
ATOM     23  C   UNL A   1      34.880  20.338  24.865  1.00  0.00     0.095 A 
ATOM     24  C   UNL A   1      32.757  19.253  24.414  1.00  0.00     0.255 A 
ATOM     25  N   UNL A   1      34.127  19.207  24.607  1.00  0.00    -0.258 N 
ATOM     26  O   UNL A   1      32.008  18.296  24.256  1.00  0.00    -0.269 OA
BRANCH  25  27
ATOM     27  C   UNL A   1      34.750  17.905  24.550  1.00  0.00     0.451 C 
ATOM     28  F   UNL A   1      34.530  17.332  23.341  1.00  0.00    -0.185 F 
ATOM     29  F   UNL A   1      36.089  18.011  24.722  1.00  0.00    -0.185 F 
ENDBRANCH  25  27
ENDBRANCH  11  20
ENDBRANCH   4   6
ENDBRANCH   3   4
ENDBRANCH   2   3
ENDBRANCH   1   2
BRANCH   1  30
ATOM     30  O   UNL A   1      32.749  29.978  26.344  1.00  0.00    -0.458 OA
BRANCH  30  31
ATOM     31  C   UNL A   1      33.105  31.126  26.966  1.00  0.00     0.338 C 
ATOM     32  O   UNL A   1      32.471  32.165  27.015  1.00  0.00    -0.246 OA
BRANCH  31  33
ATOM     33  C   UNL A   1      34.418  30.922  27.611  1.00  0.00     0.060 A 
ATOM     34  C   UNL A   1      34.831  29.636  27.960  1.00  0.00     0.016 A 
ATOM     35  C   UNL A   1      35.221  32.016  27.926  1.00  0.00     0.016 A 
ATOM     36  C   UNL A   1      36.005  29.441  28.681  1.00  0.00     0.010 A 
ATOM     37  C   UNL A   1      36.455  31.807  28.553  1.00  0.00     0.010 A 
ATOM     38  C   UNL A   1      36.855  30.519  28.959  1.00  0.00    -0.014 A 
BRANCH  38  39
ATOM     39  C   UNL A   1      38.145  30.315  29.683  1.00  0.00     0.031 A 
ATOM     40  C   UNL A   1      39.234  29.482  29.060  1.00  0.00     0.074 A 
ATOM     41  C   UNL A   1      38.350  30.858  30.901  1.00  0.00     0.049 A 
ATOM     42  N   UNL A   1      40.317  28.990  29.604  1.00  0.00    -0.248 NA
ATOM     43  C   UNL A   1      39.072  29.150  27.637  1.00  0.00     0.031 C 
ATOM     44  C   UNL A   1      37.415  31.734  31.611  1.00  0.00     0.029 A 
ATOM     45  N   UNL A   1      39.415  30.749  31.763  1.00  0.00    -0.354 N 
ATOM     46  C   UNL A   1      40.927  28.225  28.614  1.00  0.00     0.074 A 
ATOM     47  C   UNL A   1      40.092  28.330  27.435  1.00  0.00     0.031 C 
ATOM     48  C   UNL A   1      37.963  32.114  32.775  1.00  0.00     0.029 A 
ATOM     49  C   UNL A   1      39.233  31.421  32.950  1.00  0.00     0.049 A 
ATOM     50  H   UNL A   1      40.231  30.240  31.552  1.00  0.00     0.167 HD
ATOM     51  C   UNL A   1      42.070  27.496  28.688  1.00  0.00     0.034 A 
ATOM     52  C   UNL A   1      39.960  31.429  34.085  1.00  0.00     0.034 A 
ATOM     53  C   UNL A   1      42.910  27.430  29.860  1.00  0.00     0.049 A 
ATOM     54  C   UNL A   1      41.179  30.553  34.174  1.00  0.00     0.074 A 
ATOM     55  C   UNL A   1      44.114  26.765  30.025  1.00  0.00     0.029 A 
ATOM     56  N   UNL A   1      42.632  28.047  31.073  1.00  0.00    -0.354 N 
ATOM     57  N   UNL A   1      41.703  29.773  33.257  1.00  0.00    -0.248 NA
ATOM     58  C   UNL A   1      41.879  30.528  35.465  1.00  0.00     0.031 C 
ATOM     59  C   UNL A   1      44.535  26.937  31.350  1.00  0.00     0.029 A 
ATOM     60  C   UNL A   1      43.624  27.756  31.997  1.00  0.00     0.049 A 
ATOM     61  H   UNL A   1      41.845  28.611  31.250  1.00  0.00     0.167 HD
ATOM     62  C   UNL A   1      42.789  29.154  33.868  1.00  0.00     0.074 A 
ATOM     63  C   UNL A   1      42.861  29.672  35.219  1.00  0.00     0.031 C 
ATOM     64  C   UNL A   1      43.650  28.238  33.357  1.00  0.00     0.034 A 
BRANCH  51  65
ATOM     65  C   UNL A   1      42.436  26.665  27.482  1.00  0.00     0.023 A 
ATOM     66  C   UNL A   1      42.027  25.329  27.350  1.00  0.00     0.031 A 
ATOM     67  C   UNL A   1      43.255  27.207  26.475  1.00  0.00     0.131 A 
ATOM     68  C   UNL A   1      42.511  24.552  26.286  1.00  0.00     0.055 A 
ATOM     69  C   UNL A   1      43.666  26.451  25.375  1.00  0.00     0.041 A 
ATOM     70  F   UNL A   1      43.691  28.473  26.557  1.00  0.00    -0.206 F 
ATOM     71  C   UNL A   1      43.310  25.108  25.285  1.00  0.00     0.022 A 
BRANCH  68  72
ATOM     72  S   UNL A   1      42.222  22.761  26.331  1.00  0.00     0.124 S 
ATOM     73  O   UNL A   1      42.829  22.396  27.609  1.00  0.00    -0.237 OA
ATOM     74  O   UNL A   1      40.767  22.678  26.269  1.00  0.00    -0.237 OA
ATOM     75  O   UNL A   1      42.929  22.271  25.150  1.00  0.00    -0.744 OA
ENDBRANCH  68  72
ENDBRANCH  51  65
BRANCH  52  76
ATOM     76  C   UNL A   1      39.492  32.205  35.268  1.00  0.00     0.023 A 
ATOM     77  C   UNL A   1      39.930  33.519  35.494  1.00  0.00     0.031 A 
ATOM     78  C   UNL A   1      38.605  31.631  36.197  1.00  0.00     0.131 A 
ATOM     79  C   UNL A   1      39.488  34.212  36.632  1.00  0.00     0.055 A 
ATOM     80  C   UNL A   1      38.134  32.341  37.301  1.00  0.00     0.041 A 
ATOM     81  F   UNL A   1      38.161  30.376  36.027  1.00  0.00    -0.206 F 
ATOM     82  C   UNL A   1      38.580  33.639  37.526  1.00  0.00     0.022 A 
BRANCH  79  83
ATOM     83  S   UNL A   1      40.153  35.868  36.959  1.00  0.00     0.124 S 
ATOM     84  O   UNL A   1      41.578  35.592  37.105  1.00  0.00    -0.237 OA
ATOM     85  O   UNL A   1      39.760  36.598  35.757  1.00  0.00    -0.237 OA
ATOM     86  O   UNL A   1      39.467  36.275  38.183  1.00  0.00    -0.744 OA
ENDBRANCH  79  83
ENDBRANCH  52  76
BRANCH  64  87
ATOM     87  C   UNL A   1      44.734  27.746  34.279  1.00  0.00     0.023 A 
ATOM     88  C   UNL A   1      44.565  26.582  35.047  1.00  0.00     0.031 A 
ATOM     89  C   UNL A   1      45.932  28.467  34.417  1.00  0.00     0.131 A 
ATOM     90  C   UNL A   1      45.562  26.195  35.956  1.00  0.00     0.055 A 
ATOM     91  C   UNL A   1      46.940  28.053  35.289  1.00  0.00     0.041 A 
ATOM     92  F   UNL A   1      46.139  29.589  33.707  1.00  0.00    -0.206 F 
ATOM     93  C   UNL A   1      46.754  26.917  36.072  1.00  0.00     0.022 A 
BRANCH  90  94
ATOM     94  S   UNL A   1      45.254  24.771  37.036  1.00  0.00     0.124 S 
ATOM     95  O   UNL A   1      46.596  24.458  37.515  1.00  0.00    -0.237 OA
ATOM     96  O   UNL A   1      44.335  25.322  38.027  1.00  0.00    -0.237 OA
ATOM     97  O   UNL A   1      44.668  23.779  36.136  1.00  0.00    -0.744 OA
ENDBRANCH  90  94
ENDBRANCH  64  87
ENDBRANCH  38  39
ENDBRANCH  31  33
ENDBRANCH  30  31
ENDBRANCH   1  30
TORSDOF 18
ENDMDL
MODEL 2
REMARK VINA RESULT:     -12.1      1.497      1.928
REMARK SMILES CC(=O)NS(=O)(=O)c1ccc(-c2ccn(C(F)F)c(=O)c2)cc1C(=O)OCCOC(=O)c1ccc(-c2c3nc(c(-c4cc(S(=O)(=O)[O-])ccc4F)c4ccc([nH]4)c(-c4cc(S(=O)(=O)[O-])ccc4F)c4nc(c(-c5cc(S(=O)(=O)[O-])ccc5F)c5ccc2[nH]5)C=C4)C=C3)cc1
REMARK SMILES IDX 28 1 27 2 26 3 24 4 25 5 23 6 8 7 9 8 10 9 22 10 11 11 5 12
REMARK SMILES IDX 6 13 7 14 4 15 1 16 2 17 3 18 12 20 13 21 21 22 14 23 19 24
REMARK SMILES IDX 15 25 20 26 16 27 17 28 18 29 29 30 30 31 31 32 32 33 33 34
REMARK SMILES IDX 94 35 34 36 93 37 35 38 36 39 37 40 87 41 38 42 92 43 86 44
REMARK SMILES IDX 88 45 39 46 91 47 85 48 84 49 40 51 72 52 52 53 71 54 53 55
REMARK SMILES IDX 56 56 70 57 89 58 54 59 55 60 69 62 90 63 57 64 41 65 42 66
REMARK SMILES IDX 50 67 43 68 49 69 51 70 48 71 44 72 45 73 46 74 47 75 73 76
REMARK SMILES IDX 74 77 82 78 75 79 81 80 83 81 80 82 76 83 77 84 78 85 79 86
REMARK SMILES IDX 58 87 59 88 67 89 60 90 66 91 68 92 65 93 61 94 62 95 63 96
REMARK SMILES IDX 64 97
REMARK H PARENT 4 19 88 50 56 61
REMARK Flexibility Score: inf
ROOT
ATOM      1  C   UNL A   1      31.812  29.642  26.801  1.00  0.00     0.275 C 
ENDROOT
BRANCH   1   2
ATOM      2  C   UNL A   1      31.969  28.187  27.232  1.00  0.00     0.275 C 
BRANCH   2   3
ATOM      3  O   UNL A   1      31.714  27.316  26.109  1.00  0.00    -0.458 OA
BRANCH   3   4
ATOM      4  C   UNL A   1      32.786  26.686  25.583  1.00  0.00     0.339 C 
ATOM      5  O   UNL A   1      33.961  26.896  25.823  1.00  0.00    -0.246 OA
BRANCH   4   6
ATOM      6  C   UNL A   1      32.347  25.605  24.683  1.00  0.00     0.081 A 
ATOM      7  C   UNL A   1      31.555  25.795  23.553  1.00  0.00     0.102 A 
ATOM      8  C   UNL A   1      31.176  24.690  22.770  1.00  0.00     0.024 A 
ATOM      9  C   UNL A   1      31.629  23.404  23.088  1.00  0.00     0.010 A 
ATOM     10  C   UNL A   1      32.851  24.323  24.951  1.00  0.00     0.025 A 
ATOM     11  C   UNL A   1      32.495  23.220  24.166  1.00  0.00    -0.017 A 
BRANCH   7  12
ATOM     12  S   UNL A   1      31.220  27.407  22.903  1.00  0.00     0.264 S 
ATOM     13  O   UNL A   1      31.005  27.271  21.481  1.00  0.00    -0.201 OA
ATOM     14  O   UNL A   1      32.232  28.304  23.419  1.00  0.00    -0.201 OA
BRANCH  12  15
ATOM     15  N   UNL A   1      29.779  27.887  23.568  1.00  0.00    -0.249 N 
ATOM     16  C   UNL A   1      29.316  29.989  22.297  1.00  0.00     0.115 C 
ATOM     17  C   UNL A   1      28.832  28.773  23.034  1.00  0.00     0.230 C 
ATOM     18  O   UNL A   1      27.651  28.607  23.315  1.00  0.00    -0.274 OA
ATOM     19  H   UNL A   1      29.561  27.501  24.447  1.00  0.00     0.183 HD
ENDBRANCH  12  15
ENDBRANCH   7  12
BRANCH  11  20
ATOM     20  C   UNL A   1      33.114  21.919  24.466  1.00  0.00    -0.011 A 
ATOM     21  C   UNL A   1      34.541  21.731  24.643  1.00  0.00     0.027 A 
ATOM     22  C   UNL A   1      32.308  20.845  24.455  1.00  0.00     0.080 A 
ATOM     23  C   UNL A   1      35.055  20.495  24.713  1.00  0.00     0.095 A 
ATOM     24  C   UNL A   1      32.859  19.469  24.591  1.00  0.00     0.255 A 
ATOM     25  N   UNL A   1      34.239  19.379  24.658  1.00  0.00    -0.258 N 
ATOM     26  O   UNL A   1      32.063  18.537  24.615  1.00  0.00    -0.269 OA
BRANCH  25  27
ATOM     27  C   UNL A   1      34.806  18.050  24.691  1.00  0.00     0.451 C 
ATOM     28  F   UNL A   1      34.631  17.437  23.494  1.00  0.00    -0.185 F 
ATOM     29  F   UNL A   1      36.135  18.107  24.940  1.00  0.00    -0.185 F 
ENDBRANCH  25  27
ENDBRANCH  11  20
ENDBRANCH   4   6
ENDBRANCH   3   4
ENDBRANCH   2   3
ENDBRANCH   1   2
BRANCH   1  30
ATOM     30  O   UNL A   1      33.114  30.150  26.474  1.00  0.00    -0.458 OA
BRANCH  30  31
ATOM     31  C   UNL A   1      33.519  31.250  27.151  1.00  0.00     0.338 C 
ATOM     32  O   UNL A   1      32.921  32.304  27.271  1.00  0.00    -0.246 OA
BRANCH  31  33
ATOM     33  C   UNL A   1      34.838  30.969  27.755  1.00  0.00     0.060 A 
ATOM     34  C   UNL A   1      35.155  29.673  28.162  1.00  0.00     0.016 A 
ATOM     35  C   UNL A   1      35.743  32.005  27.974  1.00  0.00     0.016 A 
ATOM     36  C   UNL A   1      36.340  29.417  28.847  1.00  0.00     0.010 A 
ATOM     37  C   UNL A   1      36.981  31.724  28.563  1.00  0.00     0.010 A 
ATOM     38  C   UNL A   1      37.289  30.431  29.028  1.00  0.00    -0.014 A 
BRANCH  38  39
ATOM     39  C   UNL A   1      38.588  30.156  29.712  1.00  0.00     0.031 A 
ATOM     40  C   UNL A   1      39.599  29.246  29.068  1.00  0.00     0.074 A 
ATOM     41  C   UNL A   1      38.869  30.704  30.913  1.00  0.00     0.049 A 
ATOM     42  N   UNL A   1      40.668  28.694  29.583  1.00  0.00    -0.248 NA
ATOM     43  C   UNL A   1      39.368  28.904  27.657  1.00  0.00     0.031 C 
ATOM     44  C   UNL A   1      38.016  31.649  31.638  1.00  0.00     0.029 A 
ATOM     45  N   UNL A   1      39.953  30.540  31.740  1.00  0.00    -0.354 N 
ATOM     46  C   UNL A   1      41.193  27.876  28.588  1.00  0.00     0.074 A 
ATOM     47  C   UNL A   1      40.327  28.017  27.435  1.00  0.00     0.031 C 
ATOM     48  C   UNL A   1      38.626  32.010  32.776  1.00  0.00     0.029 A 
ATOM     49  C   UNL A   1      39.855  31.241  32.921  1.00  0.00     0.049 A 
ATOM     50  H   UNL A   1      40.728  29.977  31.511  1.00  0.00     0.167 HD
ATOM     51  C   UNL A   1      42.290  27.078  28.636  1.00  0.00     0.034 A 
ATOM     52  C   UNL A   1      40.620  31.219  34.030  1.00  0.00     0.034 A 
ATOM     53  C   UNL A   1      43.164  26.976  29.780  1.00  0.00     0.049 A 
ATOM     54  C   UNL A   1      41.784  30.270  34.095  1.00  0.00     0.074 A 
ATOM     55  C   UNL A   1      44.328  26.238  29.917  1.00  0.00     0.029 A 
ATOM     56  N   UNL A   1      42.968  27.628  30.991  1.00  0.00    -0.354 N 
ATOM     57  N   UNL A   1      42.225  29.443  33.174  1.00  0.00    -0.248 NA
ATOM     58  C   UNL A   1      42.525  30.220  35.361  1.00  0.00     0.031 C 
ATOM     59  C   UNL A   1      44.804  26.403  31.223  1.00  0.00     0.029 A 
ATOM     60  C   UNL A   1      43.971  27.289  31.887  1.00  0.00     0.049 A 
ATOM     61  H   UNL A   1      42.225  28.244  31.184  1.00  0.00     0.167 HD
ATOM     62  C   UNL A   1      43.291  28.766  33.759  1.00  0.00     0.074 A 
ATOM     63  C   UNL A   1      43.442  29.299  35.098  1.00  0.00     0.031 C 
ATOM     64  C   UNL A   1      44.073  27.789  33.236  1.00  0.00     0.034 A 
BRANCH  51  65
ATOM     65  C   UNL A   1      42.560  26.207  27.433  1.00  0.00     0.023 A 
ATOM     66  C   UNL A   1      42.052  24.902  27.332  1.00  0.00     0.031 A 
ATOM     67  C   UNL A   1      43.388  26.674  26.396  1.00  0.00     0.131 A 
ATOM     68  C   UNL A   1      42.449  24.078  26.268  1.00  0.00     0.055 A 
ATOM     69  C   UNL A   1      43.713  25.876  25.297  1.00  0.00     0.041 A 
ATOM     70  F   UNL A   1      43.917  27.906  26.447  1.00  0.00    -0.206 F 
ATOM     71  C   UNL A   1      43.258  24.562  25.237  1.00  0.00     0.022 A 
BRANCH  68  72
ATOM     72  S   UNL A   1      42.033  22.314  26.347  1.00  0.00     0.124 S 
ATOM     73  O   UNL A   1      40.575  22.349  26.244  1.00  0.00    -0.237 OA
ATOM     74  O   UNL A   1      42.740  21.774  25.192  1.00  0.00    -0.237 OA
ATOM     75  O   UNL A   1      42.549  21.898  27.650  1.00  0.00    -0.744 OA
ENDBRANCH  68  72
ENDBRANCH  51  65
BRANCH  52  76
ATOM     76  C   UNL A   1      40.244  32.043  35.215  1.00  0.00     0.023 A 
ATOM     77  C   UNL A   1      39.250  31.618  36.109  1.00  0.00     0.031 A 
ATOM     78  C   UNL A   1      40.873  33.278  35.458  1.00  0.00     0.131 A 
ATOM     79  C   UNL A   1      38.903  32.430  37.200  1.00  0.00     0.055 A 
ATOM     80  C   UNL A   1      40.557  34.058  36.570  1.00  0.00     0.041 A 
ATOM     81  F   UNL A   1      41.827  33.729  34.629  1.00  0.00    -0.206 F 
ATOM     82  C   UNL A   1      39.562  33.638  37.446  1.00  0.00     0.022 A 
BRANCH  79  83
ATOM     83  S   UNL A   1      37.540  31.910  38.278  1.00  0.00     0.124 S 
ATOM     84  O   UNL A   1      38.130  32.075  39.602  1.00  0.00    -0.237 OA
ATOM     85  O   UNL A   1      36.489  32.857  37.920  1.00  0.00    -0.237 OA
ATOM     86  O   UNL A   1      37.293  30.528  37.873  1.00  0.00    -0.744 OA
ENDBRANCH  79  83
ENDBRANCH  52  76
BRANCH  64  87
ATOM     87  C   UNL A   1      45.156  27.243  34.130  1.00  0.00     0.023 A 
ATOM     88  C   UNL A   1      44.896  26.200  35.034  1.00  0.00     0.031 A 
ATOM     89  C   UNL A   1      46.447  27.795  34.101  1.00  0.00     0.131 A 
ATOM     90  C   UNL A   1      45.906  25.769  35.909  1.00  0.00     0.055 A 
ATOM     91  C   UNL A   1      47.461  27.331  34.942  1.00  0.00     0.041 A 
ATOM     92  F   UNL A   1      46.743  28.796  33.255  1.00  0.00    -0.206 F 
ATOM     93  C   UNL A   1      47.189  26.320  35.860  1.00  0.00     0.022 A 
BRANCH  90  94
ATOM     94  S   UNL A   1      45.500  24.523  37.163  1.00  0.00     0.124 S 
ATOM     95  O   UNL A   1      44.184  24.964  37.614  1.00  0.00    -0.237 OA
ATOM     96  O   UNL A   1      45.528  23.283  36.394  1.00  0.00    -0.237 OA
ATOM     97  O   UNL A   1      46.573  24.664  38.146  1.00  0.00    -0.744 OA
ENDBRANCH  90  94
ENDBRANCH  64  87
ENDBRANCH  38  39
ENDBRANCH  31  33
ENDBRANCH  30  31
ENDBRANCH   1  30
TORSDOF 18
ENDMDL
MODEL 3
REMARK VINA RESULT:     -12.1      4.870      9.286
REMARK SMILES CC(=O)NS(=O)(=O)c1ccc(-c2ccn(C(F)F)c(=O)c2)cc1C(=O)OCCOC(=O)c1ccc(-c2c3nc(c(-c4cc(S(=O)(=O)[O-])ccc4F)c4ccc([nH]4)c(-c4cc(S(=O)(=O)[O-])ccc4F)c4nc(c(-c5cc(S(=O)(=O)[O-])ccc5F)c5ccc2[nH]5)C=C4)C=C3)cc1
REMARK SMILES IDX 28 1 27 2 26 3 24 4 25 5 23 6 8 7 9 8 10 9 22 10 11 11 5 12
REMARK SMILES IDX 6 13 7 14 4 15 1 16 2 17 3 18 12 20 13 21 21 22 14 23 19 24
REMARK SMILES IDX 15 25 20 26 16 27 17 28 18 29 29 30 30 31 31 32 32 33 33 34
REMARK SMILES IDX 94 35 34 36 93 37 35 38 36 39 37 40 87 41 38 42 92 43 86 44
REMARK SMILES IDX 88 45 39 46 91 47 85 48 84 49 40 51 72 52 52 53 71 54 53 55
REMARK SMILES IDX 56 56 70 57 89 58 54 59 55 60 69 62 90 63 57 64 41 65 42 66
REMARK SMILES IDX 50 67 43 68 49 69 51 70 48 71 44 72 45 73 46 74 47 75 73 76
REMARK SMILES IDX 74 77 82 78 75 79 81 80 83 81 80 82 76 83 77 84 78 85 79 86
REMARK SMILES IDX 58 87 59 88 67 89 60 90 66 91 68 92 65 93 61 94 62 95 63 96
REMARK SMILES IDX 64 97
REMARK H PARENT 4 19 88 50 56 61
REMARK Flexibility Score: inf
ROOT
ATOM      1  C   UNL A   1      36.697  21.820  24.259  1.00  0.00     0.275 C 
ENDROOT
BRANCH   1   2
ATOM      2  C   UNL A   1      36.534  23.139  23.512  1.00  0.00     0.275 C 
BRANCH   2   3
ATOM      3  O   UNL A   1      35.468  23.909  24.109  1.00  0.00    -0.458 OA
BRANCH   3   4
ATOM      4  C   UNL A   1      34.298  23.936  23.435  1.00  0.00     0.339 C 
ATOM      5  O   UNL A   1      34.084  24.415  22.337  1.00  0.00    -0.246 OA
BRANCH   4   6
ATOM      6  C   UNL A   1      33.260  23.217  24.196  1.00  0.00     0.081 A 
ATOM      7  C   UNL A   1      32.148  23.823  24.776  1.00  0.00     0.102 A 
ATOM      8  C   UNL A   1      31.225  23.046  25.498  1.00  0.00     0.024 A 
ATOM      9  C   UNL A   1      31.386  21.659  25.598  1.00  0.00     0.010 A 
ATOM     10  C   UNL A   1      33.374  21.819  24.244  1.00  0.00     0.025 A 
ATOM     11  C   UNL A   1      32.450  21.035  24.944  1.00  0.00    -0.017 A 
BRANCH   7  12
ATOM     12  S   UNL A   1      31.701  25.498  24.419  1.00  0.00     0.264 S 
ATOM     13  O   UNL A   1      32.894  26.305  24.534  1.00  0.00    -0.201 OA
ATOM     14  O   UNL A   1      30.518  25.807  25.192  1.00  0.00    -0.201 OA
BRANCH  12  15
ATOM     15  N   UNL A   1      31.247  25.529  22.825  1.00  0.00    -0.249 N 
ATOM     16  C   UNL A   1      31.155  27.987  22.377  1.00  0.00     0.115 C 
ATOM     17  C   UNL A   1      31.386  26.579  21.905  1.00  0.00     0.230 C 
ATOM     18  O   UNL A   1      31.540  26.305  20.722  1.00  0.00    -0.274 OA
ATOM     19  H   UNL A   1      30.829  24.707  22.480  1.00  0.00     0.183 HD
ENDBRANCH  12  15
ENDBRANCH   7  12
BRANCH  11  20
ATOM     20  C   UNL A   1      32.595  19.571  24.895  1.00  0.00    -0.011 A 
ATOM     21  C   UNL A   1      32.619  18.727  26.072  1.00  0.00     0.027 A 
ATOM     22  C   UNL A   1      32.834  19.025  23.691  1.00  0.00     0.080 A 
ATOM     23  C   UNL A   1      32.955  17.433  25.969  1.00  0.00     0.095 A 
ATOM     24  C   UNL A   1      33.150  17.577  23.554  1.00  0.00     0.255 A 
ATOM     25  N   UNL A   1      33.246  16.868  24.740  1.00  0.00    -0.258 N 
ATOM     26  O   UNL A   1      33.316  17.135  22.423  1.00  0.00    -0.269 OA
BRANCH  25  27
ATOM     27  C   UNL A   1      33.649  15.484  24.643  1.00  0.00     0.451 C 
ATOM     28  F   UNL A   1      34.967  15.358  24.938  1.00  0.00    -0.185 F 
ATOM     29  F   UNL A   1      32.952  14.724  25.519  1.00  0.00    -0.185 F 
ENDBRANCH  25  27
ENDBRANCH  11  20
ENDBRANCH   4   6
ENDBRANCH   3   4
ENDBRANCH   2   3
ENDBRANCH   1   2
BRANCH   1  30
ATOM     30  O   UNL A   1      37.140  22.117  25.591  1.00  0.00    -0.458 OA
BRANCH  30  31
ATOM     31  C   UNL A   1      38.399  21.731  25.908  1.00  0.00     0.338 C 
ATOM     32  O   UNL A   1      38.892  20.628  25.756  1.00  0.00    -0.246 OA
BRANCH  31  33
ATOM     33  C   UNL A   1      39.115  22.892  26.475  1.00  0.00     0.060 A 
ATOM     34  C   UNL A   1      38.744  24.186  26.112  1.00  0.00     0.016 A 
ATOM     35  C   UNL A   1      40.200  22.696  27.327  1.00  0.00     0.016 A 
ATOM     36  C   UNL A   1      39.489  25.283  26.538  1.00  0.00     0.010 A 
ATOM     37  C   UNL A   1      40.880  23.806  27.843  1.00  0.00     0.010 A 
ATOM     38  C   UNL A   1      40.548  25.114  27.438  1.00  0.00    -0.014 A 
BRANCH  38  39
ATOM     39  C   UNL A   1      41.320  26.287  27.946  1.00  0.00     0.031 A 
ATOM     40  C   UNL A   1      40.639  27.323  28.801  1.00  0.00     0.074 A 
ATOM     41  C   UNL A   1      42.625  26.444  27.640  1.00  0.00     0.049 A 
ATOM     42  N   UNL A   1      41.049  28.517  29.145  1.00  0.00    -0.248 NA
ATOM     43  C   UNL A   1      39.314  26.968  29.329  1.00  0.00     0.031 C 
ATOM     44  C   UNL A   1      43.437  25.500  26.870  1.00  0.00     0.029 A 
ATOM     45  N   UNL A   1      43.498  27.462  27.937  1.00  0.00    -0.354 N 
ATOM     46  C   UNL A   1      40.002  29.088  29.862  1.00  0.00     0.074 A 
ATOM     47  C   UNL A   1      38.944  28.100  29.910  1.00  0.00     0.031 C 
ATOM     48  C   UNL A   1      44.694  25.961  26.792  1.00  0.00     0.029 A 
ATOM     49  C   UNL A   1      44.754  27.283  27.402  1.00  0.00     0.049 A 
ATOM     50  H   UNL A   1      43.252  28.244  28.482  1.00  0.00     0.167 HD
ATOM     51  C   UNL A   1      39.930  30.324  30.418  1.00  0.00     0.034 A 
ATOM     52  C   UNL A   1      45.817  28.109  27.339  1.00  0.00     0.034 A 
ATOM     53  C   UNL A   1      41.007  31.284  30.394  1.00  0.00     0.049 A 
ATOM     54  C   UNL A   1      45.690  29.502  27.891  1.00  0.00     0.074 A 
ATOM     55  C   UNL A   1      41.058  32.543  30.970  1.00  0.00     0.029 A 
ATOM     56  N   UNL A   1      42.225  31.097  29.753  1.00  0.00    -0.354 N 
ATOM     57  N   UNL A   1      44.667  30.058  28.498  1.00  0.00    -0.248 NA
ATOM     58  C   UNL A   1      46.845  30.390  27.711  1.00  0.00     0.031 C 
ATOM     59  C   UNL A   1      42.282  33.134  30.633  1.00  0.00     0.029 A 
ATOM     60  C   UNL A   1      43.021  32.223  29.894  1.00  0.00     0.049 A 
ATOM     61  H   UNL A   1      42.486  30.280  29.268  1.00  0.00     0.167 HD
ATOM     62  C   UNL A   1      45.054  31.369  28.761  1.00  0.00     0.074 A 
ATOM     63  C   UNL A   1      46.411  31.510  28.273  1.00  0.00     0.031 C 
ATOM     64  C   UNL A   1      44.350  32.367  29.353  1.00  0.00     0.034 A 
BRANCH  51  65
ATOM     65  C   UNL A   1      38.615  30.721  31.044  1.00  0.00     0.023 A 
ATOM     66  C   UNL A   1      37.615  31.382  30.314  1.00  0.00     0.031 A 
ATOM     67  C   UNL A   1      38.384  30.482  32.411  1.00  0.00     0.131 A 
ATOM     68  C   UNL A   1      36.471  31.862  30.970  1.00  0.00     0.055 A 
ATOM     69  C   UNL A   1      37.205  30.889  33.041  1.00  0.00     0.041 A 
ATOM     70  F   UNL A   1      39.311  29.870  33.164  1.00  0.00    -0.206 F 
ATOM     71  C   UNL A   1      36.248  31.601  32.324  1.00  0.00     0.022 A 
BRANCH  68  72
ATOM     72  S   UNL A   1      35.368  32.981  30.064  1.00  0.00     0.124 S 
ATOM     73  O   UNL A   1      34.569  32.039  29.282  1.00  0.00    -0.237 OA
ATOM     74  O   UNL A   1      34.667  33.669  31.142  1.00  0.00    -0.237 OA
ATOM     75  O   UNL A   1      36.285  33.808  29.283  1.00  0.00    -0.744 OA
ENDBRANCH  68  72
ENDBRANCH  51  65
BRANCH  52  76
ATOM     76  C   UNL A   1      47.056  27.682  26.629  1.00  0.00     0.023 A 
ATOM     77  C   UNL A   1      47.187  27.836  25.241  1.00  0.00     0.031 A 
ATOM     78  C   UNL A   1      48.124  27.101  27.337  1.00  0.00     0.131 A 
ATOM     79  C   UNL A   1      48.358  27.400  24.602  1.00  0.00     0.055 A 
ATOM     80  C   UNL A   1      49.303  26.712  26.703  1.00  0.00     0.041 A 
ATOM     81  F   UNL A   1      48.044  26.929  28.666  1.00  0.00    -0.206 F 
ATOM     82  C   UNL A   1      49.423  26.856  25.326  1.00  0.00     0.022 A 
BRANCH  79  83
ATOM     83  S   UNL A   1      48.459  27.510  22.793  1.00  0.00     0.124 S 
ATOM     84  O   UNL A   1      49.716  28.227  22.610  1.00  0.00    -0.237 OA
ATOM     85  O   UNL A   1      48.458  26.104  22.402  1.00  0.00    -0.237 OA
ATOM     86  O   UNL A   1      47.256  28.256  22.430  1.00  0.00    -0.744 OA
ENDBRANCH  79  83
ENDBRANCH  52  76
BRANCH  64  87
ATOM     87  C   UNL A   1      45.050  33.692  29.492  1.00  0.00     0.023 A 
ATOM     88  C   UNL A   1      45.027  34.641  28.456  1.00  0.00     0.031 A 
ATOM     89  C   UNL A   1      45.775  33.995  30.656  1.00  0.00     0.131 A 
ATOM     90  C   UNL A   1      45.756  35.833  28.586  1.00  0.00     0.055 A 
ATOM     91  C   UNL A   1      46.461  35.203  30.799  1.00  0.00     0.041 A 
ATOM     92  F   UNL A   1      45.830  33.119  31.674  1.00  0.00    -0.206 F 
ATOM     93  C   UNL A   1      46.463  36.125  29.756  1.00  0.00     0.022 A 
BRANCH  90  94
ATOM     94  S   UNL A   1      45.825  36.972  27.175  1.00  0.00     0.124 S 
ATOM     95  O   UNL A   1      44.430  37.380  27.047  1.00  0.00    -0.237 OA
ATOM     96  O   UNL A   1      46.750  37.997  27.645  1.00  0.00    -0.237 OA
ATOM     97  O   UNL A   1      46.329  36.138  26.086  1.00  0.00    -0.744 OA
ENDBRANCH  90  94
ENDBRANCH  64  87
ENDBRANCH  38  39
ENDBRANCH  31  33
ENDBRANCH  30  31
ENDBRANCH   1  30
TORSDOF 18
ENDMDL
