MODEL 1
REMARK VINA RESULT:     -12.2      0.000      0.000
REMARK SMILES C[C@]12C[C@@H](O)[C@H]3[C@@H](CCC4=CC(=O)C=C[C@]43C)[C@H]1CC[C@]2(O)C(=O)COC(=O)CCC(=O)OCCOC(=O)c1ccc(-c2c3nc(c(-c4cc(S(=O)(=O)[O-])ccc4F)c4ccc([nH]4)c(-c4cc(S(=O)(=O)[O-])ccc4F)c4nc(c(-c5cc(S(=O)(=O)[O-])ccc5F)c5ccc2[nH]5)C=C4)C=C3)cc1
REMARK SMILES IDX 31 1 32 2 30 3 29 4 27 5 28 6 26 7 25 8 23 9 24 10 21 11
REMARK SMILES IDX 17 12 16 13 15 14 10 15 6 16 14 17 11 18 9 19 7 20 4 21
REMARK SMILES IDX 12 22 8 23 18 24 3 25 13 26 2 27 19 28 1 29 20 30 5 31 22 33
REMARK SMILES IDX 33 35 34 36 35 37 36 38 37 39 38 40 39 41 40 42 101 43 41 44
REMARK SMILES IDX 100 45 42 46 43 47 44 48 94 49 45 50 99 51 93 52 95 53 46 54
REMARK SMILES IDX 98 55 92 56 91 57 47 59 79 60 59 61 78 62 60 63 63 64 77 65
REMARK SMILES IDX 96 66 61 67 62 68 76 70 97 71 64 72 48 73 49 74 57 75 50 76
REMARK SMILES IDX 56 77 58 78 55 79 51 80 52 81 53 82 54 83 80 84 81 85 89 86
REMARK SMILES IDX 82 87 88 88 90 89 87 90 83 91 84 92 85 93 86 94 65 95 66 96
REMARK SMILES IDX 74 97 67 98 73 99 75 100 72 101 68 102 69 103 70 104 71 105
REMARK H PARENT 5 32 22 34 95 58 63 69
REMARK Flexibility Score: inf
ROOT
ATOM      1  C   UNL A   1      33.164  30.278  26.920  1.00  0.00     0.306 C 
ATOM      2  O   UNL A   1      34.279  30.693  27.215  1.00  0.00    -0.252 OA
ENDROOT
BRANCH   1   3
ATOM      3  C   UNL A   1      32.686  28.884  27.307  1.00  0.00     0.134 C 
BRANCH   3   4
ATOM      4  C   UNL A   1      31.793  28.177  26.293  1.00  0.00     0.134 C 
BRANCH   4   5
ATOM      5  C   UNL A   1      31.904  26.684  26.460  1.00  0.00     0.306 C 
ATOM      6  O   UNL A   1      30.941  25.953  26.654  1.00  0.00    -0.252 OA
BRANCH   5   7
ATOM      7  O   UNL A   1      33.197  26.294  26.554  1.00  0.00    -0.458 OA
BRANCH   7   8
ATOM      8  C   UNL A   1      33.870  25.944  25.351  1.00  0.00     0.311 C 
BRANCH   8   9
ATOM      9  C   UNL A   1      33.210  25.229  24.146  1.00  0.00     0.202 C 
ATOM     10  O   UNL A   1      32.261  25.766  23.562  1.00  0.00    -0.293 OA
BRANCH   9  11
ATOM     11  C   UNL A   1      33.850  23.928  23.600  1.00  0.00     0.132 C 
ATOM     12  C   UNL A   1      33.702  17.293  22.580  1.00  0.00     0.021 C 
ATOM     13  C   UNL A   1      33.717  17.983  23.980  1.00  0.00     0.013 C 
ATOM     14  C   UNL A   1      32.450  17.487  24.688  1.00  0.00    -0.012 C 
ATOM     15  C   UNL A   1      34.923  17.416  24.762  1.00  0.00    -0.056 C 
ATOM     16  C   UNL A   1      33.780  19.555  23.726  1.00  0.00     0.035 C 
ATOM     17  C   UNL A   1      32.376  16.276  25.265  1.00  0.00     0.048 C 
ATOM     18  C   UNL A   1      34.872  16.180  25.305  1.00  0.00     0.052 C 
ATOM     19  C   UNL A   1      36.120  18.253  25.109  1.00  0.00     0.032 C 
ATOM     20  C   UNL A   1      34.632  20.292  24.776  1.00  0.00    -0.000 C 
ATOM     21  C   UNL A   1      32.414  20.245  23.540  1.00  0.00     0.119 C 
ATOM     22  C   UNL A   1      33.593  15.437  25.349  1.00  0.00     0.178 C 
ATOM     23  C   UNL A   1      36.053  19.717  24.722  1.00  0.00     0.009 C 
ATOM     24  C   UNL A   1      34.670  21.834  24.647  1.00  0.00     0.002 C 
ATOM     25  C   UNL A   1      32.565  21.722  23.198  1.00  0.00     0.042 C 
ATOM     26  O   UNL A   1      33.543  14.235  25.566  1.00  0.00    -0.290 OA
ATOM     27  C   UNL A   1      33.350  22.558  24.233  1.00  0.00     0.009 C 
ATOM     28  C   UNL A   1      35.717  22.437  23.710  1.00  0.00     0.008 C 
ATOM     29  C   UNL A   1      32.483  22.745  25.492  1.00  0.00     0.015 C 
ATOM     30  C   UNL A   1      35.375  23.919  23.818  1.00  0.00     0.044 C 
BRANCH  21  31
ATOM     31  O   UNL A   1      31.674  19.642  22.479  1.00  0.00    -0.393 OA
ATOM     32  H   UNL A   1      31.986  19.990  21.629  1.00  0.00     0.210 HD
ENDBRANCH  21  31
BRANCH  11  33
ATOM     33  O   UNL A   1      33.707  23.873  22.189  1.00  0.00    -0.381 OA
ATOM     34  H   UNL A   1      33.632  22.948  21.907  1.00  0.00     0.212 HD
ENDBRANCH  11  33
ENDBRANCH   9  11
ENDBRANCH   8   9
ENDBRANCH   7   8
ENDBRANCH   5   7
ENDBRANCH   4   5
ENDBRANCH   3   4
ENDBRANCH   1   3
BRANCH   1  35
ATOM     35  O   UNL A   1      32.232  30.983  26.234  1.00  0.00    -0.462 OA
BRANCH  35  36
ATOM     36  C   UNL A   1      31.471  31.977  26.944  1.00  0.00     0.274 C 
BRANCH  36  37
ATOM     37  C   UNL A   1      32.195  33.322  26.914  1.00  0.00     0.275 C 
BRANCH  37  38
ATOM     38  O   UNL A   1      32.528  33.743  28.243  1.00  0.00    -0.458 OA
BRANCH  38  39
ATOM     39  C   UNL A   1      33.658  34.477  28.342  1.00  0.00     0.338 C 
ATOM     40  O   UNL A   1      33.792  35.681  28.153  1.00  0.00    -0.246 OA
BRANCH  39  41
ATOM     41  C   UNL A   1      34.704  33.627  28.901  1.00  0.00     0.060 A 
ATOM     42  C   UNL A   1      34.353  32.717  29.900  1.00  0.00     0.016 A 
ATOM     43  C   UNL A   1      36.021  33.743  28.468  1.00  0.00     0.016 A 
ATOM     44  C   UNL A   1      35.315  31.918  30.492  1.00  0.00     0.010 A 
ATOM     45  C   UNL A   1      36.989  32.928  29.050  1.00  0.00     0.010 A 
ATOM     46  C   UNL A   1      36.640  32.021  30.067  1.00  0.00    -0.014 A 
BRANCH  46  47
ATOM     47  C   UNL A   1      37.684  31.218  30.727  1.00  0.00     0.031 A 
ATOM     48  C   UNL A   1      38.044  31.531  32.144  1.00  0.00     0.074 A 
ATOM     49  C   UNL A   1      38.299  30.238  30.041  1.00  0.00     0.049 A 
ATOM     50  N   UNL A   1      39.054  31.109  32.852  1.00  0.00    -0.248 NA
ATOM     51  C   UNL A   1      37.147  32.459  32.851  1.00  0.00     0.031 C 
ATOM     52  C   UNL A   1      37.952  29.811  28.684  1.00  0.00     0.029 A 
ATOM     53  N   UNL A   1      39.354  29.440  30.387  1.00  0.00    -0.354 N 
ATOM     54  C   UNL A   1      38.937  31.742  34.084  1.00  0.00     0.074 A 
ATOM     55  C   UNL A   1      37.768  32.593  34.013  1.00  0.00     0.031 C 
ATOM     56  C   UNL A   1      38.796  28.837  28.305  1.00  0.00     0.029 A 
ATOM     57  C   UNL A   1      39.779  28.629  29.362  1.00  0.00     0.049 A 
ATOM     58  H   UNL A   1      39.769  29.447  31.279  1.00  0.00     0.167 HD
ATOM     59  C   UNL A   1      39.741  31.616  35.167  1.00  0.00     0.034 A 
ATOM     60  C   UNL A   1      40.873  27.849  29.274  1.00  0.00     0.034 A 
ATOM     61  C   UNL A   1      40.903  30.762  35.187  1.00  0.00     0.049 A 
ATOM     62  C   UNL A   1      41.817  27.811  30.448  1.00  0.00     0.074 A 
ATOM     63  C   UNL A   1      41.801  30.548  36.217  1.00  0.00     0.029 A 
ATOM     64  N   UNL A   1      41.334  29.985  34.117  1.00  0.00    -0.354 N 
ATOM     65  N   UNL A   1      41.727  28.438  31.600  1.00  0.00    -0.248 NA
ATOM     66  C   UNL A   1      43.009  26.968  30.311  1.00  0.00     0.031 C 
ATOM     67  C   UNL A   1      42.809  29.698  35.747  1.00  0.00     0.029 A 
ATOM     68  C   UNL A   1      42.501  29.316  34.449  1.00  0.00     0.049 A 
ATOM     69  H   UNL A   1      40.874  29.918  33.249  1.00  0.00     0.167 HD
ATOM     70  C   UNL A   1      42.841  28.045  32.334  1.00  0.00     0.074 A 
ATOM     71  C   UNL A   1      43.578  27.117  31.498  1.00  0.00     0.031 C 
ATOM     72  C   UNL A   1      43.221  28.409  33.586  1.00  0.00     0.034 A 
BRANCH  59  73
ATOM     73  C   UNL A   1      39.421  32.473  36.367  1.00  0.00     0.023 A 
ATOM     74  C   UNL A   1      38.617  32.004  37.420  1.00  0.00     0.031 A 
ATOM     75  C   UNL A   1      39.878  33.801  36.430  1.00  0.00     0.131 A 
ATOM     76  C   UNL A   1      38.229  32.879  38.448  1.00  0.00     0.055 A 
ATOM     77  C   UNL A   1      39.558  34.642  37.498  1.00  0.00     0.041 A 
ATOM     78  F   UNL A   1      40.626  34.315  35.440  1.00  0.00    -0.206 F 
ATOM     79  C   UNL A   1      38.715  34.187  38.507  1.00  0.00     0.022 A 
BRANCH  76  80
ATOM     80  S   UNL A   1      36.954  32.330  39.617  1.00  0.00     0.124 S 
ATOM     81  O   UNL A   1      35.729  32.697  38.910  1.00  0.00    -0.237 OA
ATOM     82  O   UNL A   1      37.224  30.901  39.729  1.00  0.00    -0.237 OA
ATOM     83  O   UNL A   1      37.230  33.115  40.819  1.00  0.00    -0.744 OA
ENDBRANCH  76  80
ENDBRANCH  59  73
BRANCH  60  84
ATOM     84  C   UNL A   1      41.166  27.100  28.021  1.00  0.00     0.023 A 
ATOM     85  C   UNL A   1      41.003  25.709  27.960  1.00  0.00     0.031 A 
ATOM     86  C   UNL A   1      41.635  27.762  26.870  1.00  0.00     0.131 A 
ATOM     87  C   UNL A   1      41.341  25.017  26.787  1.00  0.00     0.055 A 
ATOM     88  C   UNL A   1      41.920  27.075  25.689  1.00  0.00     0.041 A 
ATOM     89  F   UNL A   1      41.809  29.093  26.874  1.00  0.00    -0.206 F 
ATOM     90  C   UNL A   1      41.784  25.691  25.647  1.00  0.00     0.022 A 
BRANCH  87  91
ATOM     91  S   UNL A   1      41.261  23.205  26.798  1.00  0.00     0.124 S 
ATOM     92  O   UNL A   1      41.990  22.868  25.581  1.00  0.00    -0.237 OA
ATOM     93  O   UNL A   1      41.927  22.881  28.056  1.00  0.00    -0.237 OA
ATOM     94  O   UNL A   1      39.827  22.928  26.765  1.00  0.00    -0.744 OA
ENDBRANCH  87  91
ENDBRANCH  60  84
BRANCH  72  95
ATOM     95  C   UNL A   1      44.470  27.762  34.129  1.00  0.00     0.023 A 
ATOM     96  C   UNL A   1      44.424  26.551  34.840  1.00  0.00     0.031 A 
ATOM     97  C   UNL A   1      45.721  28.373  33.935  1.00  0.00     0.131 A 
ATOM     98  C   UNL A   1      45.605  26.013  35.374  1.00  0.00     0.055 A 
ATOM     99  C   UNL A   1      46.899  27.803  34.416  1.00  0.00     0.041 A 
ATOM    100  F   UNL A   1      45.818  29.533  33.265  1.00  0.00    -0.206 F 
ATOM    101  C   UNL A   1      46.843  26.622  35.151  1.00  0.00     0.022 A 
BRANCH  98 102
ATOM    102  S   UNL A   1      45.492  24.547  36.434  1.00  0.00     0.124 S 
ATOM    103  O   UNL A   1      44.600  23.685  35.665  1.00  0.00    -0.237 OA
ATOM    104  O   UNL A   1      46.883  24.113  36.518  1.00  0.00    -0.237 OA
ATOM    105  O   UNL A   1      44.930  25.066  37.680  1.00  0.00    -0.744 OA
ENDBRANCH  98 102
ENDBRANCH  72  95
ENDBRANCH  46  47
ENDBRANCH  39  41
ENDBRANCH  38  39
ENDBRANCH  37  38
ENDBRANCH  36  37
ENDBRANCH  35  36
ENDBRANCH   1  35
TORSDOF 22
ENDMDL
MODEL 2
REMARK VINA RESULT:     -11.9      2.357      3.927
REMARK SMILES C[C@]12C[C@@H](O)[C@H]3[C@@H](CCC4=CC(=O)C=C[C@]43C)[C@H]1CC[C@]2(O)C(=O)COC(=O)CCC(=O)OCCOC(=O)c1ccc(-c2c3nc(c(-c4cc(S(=O)(=O)[O-])ccc4F)c4ccc([nH]4)c(-c4cc(S(=O)(=O)[O-])ccc4F)c4nc(c(-c5cc(S(=O)(=O)[O-])ccc5F)c5ccc2[nH]5)C=C4)C=C3)cc1
REMARK SMILES IDX 31 1 32 2 30 3 29 4 27 5 28 6 26 7 25 8 23 9 24 10 21 11
REMARK SMILES IDX 17 12 16 13 15 14 10 15 6 16 14 17 11 18 9 19 7 20 4 21
REMARK SMILES IDX 12 22 8 23 18 24 3 25 13 26 2 27 19 28 1 29 20 30 5 31 22 33
REMARK SMILES IDX 33 35 34 36 35 37 36 38 37 39 38 40 39 41 40 42 101 43 41 44
REMARK SMILES IDX 100 45 42 46 43 47 44 48 94 49 45 50 99 51 93 52 95 53 46 54
REMARK SMILES IDX 98 55 92 56 91 57 47 59 79 60 59 61 78 62 60 63 63 64 77 65
REMARK SMILES IDX 96 66 61 67 62 68 76 70 97 71 64 72 48 73 49 74 57 75 50 76
REMARK SMILES IDX 56 77 58 78 55 79 51 80 52 81 53 82 54 83 80 84 81 85 89 86
REMARK SMILES IDX 82 87 88 88 90 89 87 90 83 91 84 92 85 93 86 94 65 95 66 96
REMARK SMILES IDX 74 97 67 98 73 99 75 100 72 101 68 102 69 103 70 104 71 105
REMARK H PARENT 5 32 22 34 95 58 63 69
REMARK Flexibility Score: inf
ROOT
ATOM      1  C   UNL A   1      34.944  33.619  28.738  1.00  0.00     0.306 C 
ATOM      2  O   UNL A   1      36.012  33.999  29.204  1.00  0.00    -0.252 OA
ENDROOT
BRANCH   1   3
ATOM      3  C   UNL A   1      34.503  32.161  28.800  1.00  0.00     0.134 C 
BRANCH   3   4
ATOM      4  C   UNL A   1      35.144  31.224  27.782  1.00  0.00     0.134 C 
BRANCH   4   5
ATOM      5  C   UNL A   1      34.150  30.178  27.346  1.00  0.00     0.306 C 
ATOM      6  O   UNL A   1      34.336  28.975  27.476  1.00  0.00    -0.252 OA
BRANCH   5   7
ATOM      7  O   UNL A   1      33.137  30.728  26.637  1.00  0.00    -0.458 OA
BRANCH   7   8
ATOM      8  C   UNL A   1      31.964  29.948  26.449  1.00  0.00     0.311 C 
BRANCH   8   9
ATOM      9  C   UNL A   1      31.346  29.600  25.071  1.00  0.00     0.202 C 
ATOM     10  O   UNL A   1      30.432  30.299  24.618  1.00  0.00    -0.293 OA
BRANCH   9  11
ATOM     11  C   UNL A   1      31.988  28.476  24.220  1.00  0.00     0.132 C 
ATOM     12  C   UNL A   1      32.504  22.019  22.451  1.00  0.00     0.021 C 
ATOM     13  C   UNL A   1      32.805  22.584  23.874  1.00  0.00     0.013 C 
ATOM     14  C   UNL A   1      31.865  21.823  24.818  1.00  0.00    -0.012 C 
ATOM     15  C   UNL A   1      34.247  22.168  24.241  1.00  0.00    -0.056 C 
ATOM     16  C   UNL A   1      32.574  24.159  23.811  1.00  0.00     0.035 C 
ATOM     17  C   UNL A   1      32.125  20.574  25.237  1.00  0.00     0.048 C 
ATOM     18  C   UNL A   1      34.522  20.900  24.619  1.00  0.00     0.052 C 
ATOM     19  C   UNL A   1      35.364  23.164  24.369  1.00  0.00     0.032 C 
ATOM     20  C   UNL A   1      33.568  24.941  24.689  1.00  0.00    -0.000 C 
ATOM     21  C   UNL A   1      31.125  24.621  24.072  1.00  0.00     0.119 C 
ATOM     22  C   UNL A   1      33.423  19.949  24.898  1.00  0.00     0.178 C 
ATOM     23  C   UNL A   1      34.986  24.623  24.198  1.00  0.00     0.009 C 
ATOM     24  C   UNL A   1      33.351  26.472  24.749  1.00  0.00     0.002 C 
ATOM     25  C   UNL A   1      30.967  26.125  23.891  1.00  0.00     0.042 C 
ATOM     26  O   UNL A   1      33.605  18.743  24.968  1.00  0.00    -0.290 OA
ATOM     27  C   UNL A   1      31.880  26.993  24.784  1.00  0.00     0.009 C 
ATOM     28  C   UNL A   1      34.004  27.320  23.657  1.00  0.00     0.008 C 
ATOM     29  C   UNL A   1      31.375  26.926  26.238  1.00  0.00     0.015 C 
ATOM     30  C   UNL A   1      33.500  28.708  24.034  1.00  0.00     0.044 C 
BRANCH  21  31
ATOM     31  O   UNL A   1      30.216  23.990  23.172  1.00  0.00    -0.393 OA
ATOM     32  H   UNL A   1      30.667  23.809  22.332  1.00  0.00     0.210 HD
ENDBRANCH  21  31
BRANCH  11  33
ATOM     33  O   UNL A   1      31.472  28.515  22.899  1.00  0.00    -0.381 OA
ATOM     34  H   UNL A   1      31.621  29.395  22.518  1.00  0.00     0.212 HD
ENDBRANCH  11  33
ENDBRANCH   9  11
ENDBRANCH   8   9
ENDBRANCH   7   8
ENDBRANCH   5   7
ENDBRANCH   4   5
ENDBRANCH   3   4
ENDBRANCH   1   3
BRANCH   1  35
ATOM     35  O   UNL A   1      34.038  34.418  28.126  1.00  0.00    -0.462 OA
BRANCH  35  36
ATOM     36  C   UNL A   1      33.972  35.801  28.522  1.00  0.00     0.274 C 
BRANCH  36  37
ATOM     37  C   UNL A   1      32.841  36.013  29.526  1.00  0.00     0.275 C 
BRANCH  37  38
ATOM     38  O   UNL A   1      33.367  36.425  30.795  1.00  0.00    -0.458 OA
BRANCH  38  39
ATOM     39  C   UNL A   1      32.896  35.736  31.856  1.00  0.00     0.338 C 
ATOM     40  O   UNL A   1      31.736  35.653  32.245  1.00  0.00    -0.246 OA
BRANCH  39  41
ATOM     41  C   UNL A   1      33.987  34.928  32.393  1.00  0.00     0.060 A 
ATOM     42  C   UNL A   1      35.287  35.428  32.302  1.00  0.00     0.016 A 
ATOM     43  C   UNL A   1      33.736  33.681  32.955  1.00  0.00     0.016 A 
ATOM     44  C   UNL A   1      36.360  34.682  32.757  1.00  0.00     0.010 A 
ATOM     45  C   UNL A   1      34.812  32.935  33.430  1.00  0.00     0.010 A 
ATOM     46  C   UNL A   1      36.125  33.430  33.324  1.00  0.00    -0.014 A 
BRANCH  46  47
ATOM     47  C   UNL A   1      37.261  32.601  33.762  1.00  0.00     0.031 A 
ATOM     48  C   UNL A   1      37.961  32.955  35.035  1.00  0.00     0.074 A 
ATOM     49  C   UNL A   1      37.653  31.560  33.006  1.00  0.00     0.049 A 
ATOM     50  N   UNL A   1      39.092  32.509  35.508  1.00  0.00    -0.248 NA
ATOM     51  C   UNL A   1      37.299  33.959  35.882  1.00  0.00     0.031 C 
ATOM     52  C   UNL A   1      36.975  31.094  31.794  1.00  0.00     0.029 A 
ATOM     53  N   UNL A   1      38.726  30.722  33.136  1.00  0.00    -0.354 N 
ATOM     54  C   UNL A   1      39.298  33.200  36.696  1.00  0.00     0.074 A 
ATOM     55  C   UNL A   1      38.183  34.110  36.855  1.00  0.00     0.031 C 
ATOM     56  C   UNL A   1      37.663  30.061  31.281  1.00  0.00     0.029 A 
ATOM     57  C   UNL A   1      38.860  29.845  32.086  1.00  0.00     0.049 A 
ATOM     58  H   UNL A   1      39.341  30.744  33.904  1.00  0.00     0.167 HD
ATOM     59  C   UNL A   1      40.331  33.078  37.564  1.00  0.00     0.034 A 
ATOM     60  C   UNL A   1      39.868  29.005  31.785  1.00  0.00     0.034 A 
ATOM     61  C   UNL A   1      41.427  32.164  37.357  1.00  0.00     0.049 A 
ATOM     62  C   UNL A   1      41.061  28.966  32.704  1.00  0.00     0.074 A 
ATOM     63  C   UNL A   1      42.535  31.946  38.156  1.00  0.00     0.029 A 
ATOM     64  N   UNL A   1      41.557  31.319  36.259  1.00  0.00    -0.354 N 
ATOM     65  N   UNL A   1      41.274  29.646  33.809  1.00  0.00    -0.248 NA
ATOM     66  C   UNL A   1      42.149  28.055  32.336  1.00  0.00     0.031 C 
ATOM     67  C   UNL A   1      43.365  31.023  37.509  1.00  0.00     0.029 A 
ATOM     68  C   UNL A   1      42.741  30.603  36.343  1.00  0.00     0.049 A 
ATOM     69  H   UNL A   1      40.902  31.239  35.529  1.00  0.00     0.167 HD
ATOM     70  C   UNL A   1      42.513  29.225  34.280  1.00  0.00     0.074 A 
ATOM     71  C   UNL A   1      42.990  28.223  33.346  1.00  0.00     0.031 C 
ATOM     72  C   UNL A   1      43.196  29.622  35.386  1.00  0.00     0.034 A 
BRANCH  59  73
ATOM     73  C   UNL A   1      40.343  34.002  38.757  1.00  0.00     0.023 A 
ATOM     74  C   UNL A   1      39.683  33.675  39.955  1.00  0.00     0.031 A 
ATOM     75  C   UNL A   1      40.972  35.256  38.674  1.00  0.00     0.131 A 
ATOM     76  C   UNL A   1      39.601  34.621  40.989  1.00  0.00     0.055 A 
ATOM     77  C   UNL A   1      40.958  36.161  39.738  1.00  0.00     0.041 A 
ATOM     78  F   UNL A   1      41.592  35.637  37.546  1.00  0.00    -0.206 F 
ATOM     79  C   UNL A   1      40.254  35.852  40.898  1.00  0.00     0.022 A 
BRANCH  76  80
ATOM     80  S   UNL A   1      38.492  34.283  42.385  1.00  0.00     0.124 S 
ATOM     81  O   UNL A   1      37.230  34.838  41.902  1.00  0.00    -0.237 OA
ATOM     82  O   UNL A   1      38.553  32.830  42.490  1.00  0.00    -0.237 OA
ATOM     83  O   UNL A   1      39.102  35.016  43.493  1.00  0.00    -0.744 OA
ENDBRANCH  76  80
ENDBRANCH  59  73
BRANCH  60  84
ATOM     84  C   UNL A   1      39.821  28.188  30.541  1.00  0.00     0.023 A 
ATOM     85  C   UNL A   1      40.514  28.590  29.390  1.00  0.00     0.031 A 
ATOM     86  C   UNL A   1      39.065  27.003  30.477  1.00  0.00     0.131 A 
ATOM     87  C   UNL A   1      40.408  27.835  28.212  1.00  0.00     0.055 A 
ATOM     88  C   UNL A   1      39.006  26.228  29.318  1.00  0.00     0.041 A 
ATOM     89  F   UNL A   1      38.383  26.571  31.550  1.00  0.00    -0.206 F 
ATOM     90  C   UNL A   1      39.672  26.649  28.172  1.00  0.00     0.022 A 
BRANCH  87  91
ATOM     91  S   UNL A   1      41.194  28.470  26.706  1.00  0.00     0.124 S 
ATOM     92  O   UNL A   1      41.466  27.239  25.972  1.00  0.00    -0.237 OA
ATOM     93  O   UNL A   1      40.148  29.326  26.156  1.00  0.00    -0.237 OA
ATOM     94  O   UNL A   1      42.373  29.172  27.208  1.00  0.00    -0.744 OA
ENDBRANCH  87  91
ENDBRANCH  60  84
BRANCH  72  95
ATOM     95  C   UNL A   1      44.509  28.932  35.654  1.00  0.00     0.023 A 
ATOM     96  C   UNL A   1      44.580  27.744  36.400  1.00  0.00     0.031 A 
ATOM     97  C   UNL A   1      45.705  29.480  35.158  1.00  0.00     0.131 A 
ATOM     98  C   UNL A   1      45.829  27.166  36.671  1.00  0.00     0.055 A 
ATOM     99  C   UNL A   1      46.939  28.868  35.379  1.00  0.00     0.041 A 
ATOM    100  F   UNL A   1      45.692  30.616  34.443  1.00  0.00    -0.206 F 
ATOM    101  C   UNL A   1      47.007  27.711  36.150  1.00  0.00     0.022 A 
BRANCH  98 102
ATOM    102  S   UNL A   1      45.904  25.735  37.782  1.00  0.00     0.124 S 
ATOM    103  O   UNL A   1      47.314  25.719  38.160  1.00  0.00    -0.237 OA
ATOM    104  O   UNL A   1      44.965  26.107  38.835  1.00  0.00    -0.237 OA
ATOM    105  O   UNL A   1      45.477  24.622  36.937  1.00  0.00    -0.744 OA
ENDBRANCH  98 102
ENDBRANCH  72  95
ENDBRANCH  46  47
ENDBRANCH  39  41
ENDBRANCH  38  39
ENDBRANCH  37  38
ENDBRANCH  36  37
ENDBRANCH  35  36
ENDBRANCH   1  35
TORSDOF 22
ENDMDL
MODEL 3
REMARK VINA RESULT:     -11.9      1.878      2.199
REMARK SMILES C[C@]12C[C@@H](O)[C@H]3[C@@H](CCC4=CC(=O)C=C[C@]43C)[C@H]1CC[C@]2(O)C(=O)COC(=O)CCC(=O)OCCOC(=O)c1ccc(-c2c3nc(c(-c4cc(S(=O)(=O)[O-])ccc4F)c4ccc([nH]4)c(-c4cc(S(=O)(=O)[O-])ccc4F)c4nc(c(-c5cc(S(=O)(=O)[O-])ccc5F)c5ccc2[nH]5)C=C4)C=C3)cc1
REMARK SMILES IDX 31 1 32 2 30 3 29 4 27 5 28 6 26 7 25 8 23 9 24 10 21 11
REMARK SMILES IDX 17 12 16 13 15 14 10 15 6 16 14 17 11 18 9 19 7 20 4 21
REMARK SMILES IDX 12 22 8 23 18 24 3 25 13 26 2 27 19 28 1 29 20 30 5 31 22 33
REMARK SMILES IDX 33 35 34 36 35 37 36 38 37 39 38 40 39 41 40 42 101 43 41 44
REMARK SMILES IDX 100 45 42 46 43 47 44 48 94 49 45 50 99 51 93 52 95 53 46 54
REMARK SMILES IDX 98 55 92 56 91 57 47 59 79 60 59 61 78 62 60 63 63 64 77 65
REMARK SMILES IDX 96 66 61 67 62 68 76 70 97 71 64 72 48 73 49 74 57 75 50 76
REMARK SMILES IDX 56 77 58 78 55 79 51 80 52 81 53 82 54 83 80 84 81 85 89 86
REMARK SMILES IDX 82 87 88 88 90 89 87 90 83 91 84 92 85 93 86 94 65 95 66 96
REMARK SMILES IDX 74 97 67 98 73 99 75 100 72 101 68 102 69 103 70 104 71 105
REMARK H PARENT 5 32 22 34 95 58 63 69
REMARK Flexibility Score: inf
ROOT
ATOM      1  C   UNL A   1      33.535  30.427  27.255  1.00  0.00     0.306 C 
ATOM      2  O   UNL A   1      34.329  30.946  28.030  1.00  0.00    -0.252 OA
ENDROOT
BRANCH   1   3
ATOM      3  C   UNL A   1      33.518  28.926  26.991  1.00  0.00     0.134 C 
BRANCH   3   4
ATOM      4  C   UNL A   1      32.141  28.281  26.884  1.00  0.00     0.134 C 
BRANCH   4   5
ATOM      5  C   UNL A   1      32.282  26.804  26.616  1.00  0.00     0.306 C 
ATOM      6  O   UNL A   1      31.421  25.981  26.901  1.00  0.00    -0.252 OA
BRANCH   5   7
ATOM      7  O   UNL A   1      33.534  26.497  26.202  1.00  0.00    -0.458 OA
BRANCH   7   8
ATOM      8  C   UNL A   1      33.731  26.266  24.813  1.00  0.00     0.311 C 
BRANCH   8   9
ATOM      9  C   UNL A   1      32.920  25.257  23.961  1.00  0.00     0.202 C 
ATOM     10  O   UNL A   1      31.774  25.547  23.598  1.00  0.00    -0.293 OA
BRANCH   9  11
ATOM     11  C   UNL A   1      33.617  23.970  23.452  1.00  0.00     0.132 C 
ATOM     12  C   UNL A   1      33.721  17.319  22.543  1.00  0.00     0.021 C 
ATOM     13  C   UNL A   1      33.681  18.032  23.930  1.00  0.00     0.013 C 
ATOM     14  C   UNL A   1      32.416  17.503  24.619  1.00  0.00    -0.012 C 
ATOM     15  C   UNL A   1      34.888  17.520  24.748  1.00  0.00    -0.056 C 
ATOM     16  C   UNL A   1      33.695  19.600  23.651  1.00  0.00     0.035 C 
ATOM     17  C   UNL A   1      32.372  16.300  25.214  1.00  0.00     0.048 C 
ATOM     18  C   UNL A   1      34.867  16.292  25.311  1.00  0.00     0.052 C 
ATOM     19  C   UNL A   1      36.048  18.404  25.107  1.00  0.00     0.032 C 
ATOM     20  C   UNL A   1      34.497  20.384  24.707  1.00  0.00    -0.000 C 
ATOM     21  C   UNL A   1      32.310  20.240  23.423  1.00  0.00     0.119 C 
ATOM     22  C   UNL A   1      33.614  15.505  25.339  1.00  0.00     0.178 C 
ATOM     23  C   UNL A   1      35.939  19.859  24.694  1.00  0.00     0.009 C 
ATOM     24  C   UNL A   1      34.485  21.924  24.552  1.00  0.00     0.002 C 
ATOM     25  C   UNL A   1      32.418  21.714  23.059  1.00  0.00     0.042 C 
ATOM     26  O   UNL A   1      33.601  14.306  25.575  1.00  0.00    -0.290 OA
ATOM     27  C   UNL A   1      33.151  22.594  24.097  1.00  0.00     0.009 C 
ATOM     28  C   UNL A   1      35.531  22.548  23.629  1.00  0.00     0.008 C 
ATOM     29  C   UNL A   1      32.249  22.772  25.333  1.00  0.00     0.015 C 
ATOM     30  C   UNL A   1      35.136  24.019  23.704  1.00  0.00     0.044 C 
BRANCH  21  31
ATOM     31  O   UNL A   1      31.617  19.593  22.357  1.00  0.00    -0.393 OA
ATOM     32  H   UNL A   1      32.085  19.753  21.523  1.00  0.00     0.210 HD
ENDBRANCH  21  31
BRANCH  11  33
ATOM     33  O   UNL A   1      33.507  23.888  22.039  1.00  0.00    -0.381 OA
ATOM     34  H   UNL A   1      32.686  24.318  21.753  1.00  0.00     0.212 HD
ENDBRANCH  11  33
ENDBRANCH   9  11
ENDBRANCH   8   9
ENDBRANCH   7   8
ENDBRANCH   5   7
ENDBRANCH   4   5
ENDBRANCH   3   4
ENDBRANCH   1   3
BRANCH   1  35
ATOM     35  O   UNL A   1      32.589  31.096  26.552  1.00  0.00    -0.462 OA
BRANCH  35  36
ATOM     36  C   UNL A   1      31.837  32.121  27.227  1.00  0.00     0.274 C 
BRANCH  36  37
ATOM     37  C   UNL A   1      32.605  33.441  27.209  1.00  0.00     0.275 C 
BRANCH  37  38
ATOM     38  O   UNL A   1      32.522  34.088  28.487  1.00  0.00    -0.458 OA
BRANCH  38  39
ATOM     39  C   UNL A   1      33.550  34.914  28.775  1.00  0.00     0.338 C 
ATOM     40  O   UNL A   1      33.613  36.127  28.600  1.00  0.00    -0.246 OA
BRANCH  39  41
ATOM     41  C   UNL A   1      34.550  34.153  29.517  1.00  0.00     0.060 A 
ATOM     42  C   UNL A   1      35.886  34.258  29.126  1.00  0.00     0.016 A 
ATOM     43  C   UNL A   1      34.175  33.324  30.568  1.00  0.00     0.016 A 
ATOM     44  C   UNL A   1      36.867  33.525  29.770  1.00  0.00     0.010 A 
ATOM     45  C   UNL A   1      35.162  32.597  31.230  1.00  0.00     0.010 A 
ATOM     46  C   UNL A   1      36.507  32.690  30.827  1.00  0.00    -0.014 A 
BRANCH  46  47
ATOM     47  C   UNL A   1      37.531  31.861  31.485  1.00  0.00     0.031 A 
ATOM     48  C   UNL A   1      37.974  32.227  32.866  1.00  0.00     0.074 A 
ATOM     49  C   UNL A   1      38.055  30.810  30.831  1.00  0.00     0.049 A 
ATOM     50  N   UNL A   1      38.988  31.782  33.554  1.00  0.00    -0.248 NA
ATOM     51  C   UNL A   1      37.166  33.243  33.558  1.00  0.00     0.031 C 
ATOM     52  C   UNL A   1      37.622  30.333  29.515  1.00  0.00     0.029 A 
ATOM     53  N   UNL A   1      39.077  29.968  31.175  1.00  0.00    -0.354 N 
ATOM     54  C   UNL A   1      38.965  32.485  34.752  1.00  0.00     0.074 A 
ATOM     55  C   UNL A   1      37.846  33.401  34.683  1.00  0.00     0.031 C 
ATOM     56  C   UNL A   1      38.389  29.291  29.156  1.00  0.00     0.029 A 
ATOM     57  C   UNL A   1      39.406  29.079  30.181  1.00  0.00     0.049 A 
ATOM     58  H   UNL A   1      39.531  29.997  32.047  1.00  0.00     0.167 HD
ATOM     59  C   UNL A   1      39.809  32.368  35.805  1.00  0.00     0.034 A 
ATOM     60  C   UNL A   1      40.447  28.230  30.090  1.00  0.00     0.034 A 
ATOM     61  C   UNL A   1      40.918  31.447  35.824  1.00  0.00     0.049 A 
ATOM     62  C   UNL A   1      41.439  28.197  31.223  1.00  0.00     0.074 A 
ATOM     63  C   UNL A   1      41.848  31.234  36.825  1.00  0.00     0.029 A 
ATOM     64  N   UNL A   1      41.253  30.588  34.782  1.00  0.00    -0.354 N 
ATOM     65  N   UNL A   1      41.439  28.889  32.340  1.00  0.00    -0.248 NA
ATOM     66  C   UNL A   1      42.572  27.276  31.082  1.00  0.00     0.031 C 
ATOM     67  C   UNL A   1      42.782  30.299  36.361  1.00  0.00     0.029 A 
ATOM     68  C   UNL A   1      42.393  29.868  35.101  1.00  0.00     0.049 A 
ATOM     69  H   UNL A   1      40.751  30.504  33.939  1.00  0.00     0.167 HD
ATOM     70  C   UNL A   1      42.560  28.468  33.048  1.00  0.00     0.074 A 
ATOM     71  C   UNL A   1      43.203  27.453  32.234  1.00  0.00     0.031 C 
ATOM     72  C   UNL A   1      43.018  28.874  34.260  1.00  0.00     0.034 A 
BRANCH  59  73
ATOM     73  C   UNL A   1      39.595  33.306  36.968  1.00  0.00     0.023 A 
ATOM     74  C   UNL A   1      40.363  34.472  37.131  1.00  0.00     0.031 A 
ATOM     75  C   UNL A   1      38.651  32.996  37.962  1.00  0.00     0.131 A 
ATOM     76  C   UNL A   1      40.229  35.241  38.298  1.00  0.00     0.055 A 
ATOM     77  C   UNL A   1      38.462  33.811  39.081  1.00  0.00     0.041 A 
ATOM     78  F   UNL A   1      37.909  31.881  37.877  1.00  0.00    -0.206 F 
ATOM     79  C   UNL A   1      39.266  34.932  39.262  1.00  0.00     0.022 A 
BRANCH  76  80
ATOM     80  S   UNL A   1      41.439  36.556  38.613  1.00  0.00     0.124 S 
ATOM     81  O   UNL A   1      40.576  37.658  39.030  1.00  0.00    -0.237 OA
ATOM     82  O   UNL A   1      42.276  35.970  39.654  1.00  0.00    -0.237 OA
ATOM     83  O   UNL A   1      42.091  36.740  37.317  1.00  0.00    -0.744 OA
ENDBRANCH  76  80
ENDBRANCH  59  73
BRANCH  60  84
ATOM     84  C   UNL A   1      40.637  27.399  28.869  1.00  0.00     0.023 A 
ATOM     85  C   UNL A   1      41.598  27.744  27.907  1.00  0.00     0.031 A 
ATOM     86  C   UNL A   1      39.845  26.260  28.634  1.00  0.00     0.131 A 
ATOM     87  C   UNL A   1      41.719  26.979  26.736  1.00  0.00     0.055 A 
ATOM     88  C   UNL A   1      40.006  25.472  27.493  1.00  0.00     0.041 A 
ATOM     89  F   UNL A   1      38.912  25.884  29.522  1.00  0.00    -0.206 F 
ATOM     90  C   UNL A   1      40.941  25.838  26.529  1.00  0.00     0.022 A 
BRANCH  87  91
ATOM     91  S   UNL A   1      42.865  27.544  25.449  1.00  0.00     0.124 S 
ATOM     92  O   UNL A   1      43.098  26.316  24.699  1.00  0.00    -0.237 OA
ATOM     93  O   UNL A   1      42.077  28.569  24.772  1.00  0.00    -0.237 OA
ATOM     94  O   UNL A   1      44.010  28.041  26.209  1.00  0.00    -0.744 OA
ENDBRANCH  87  91
ENDBRANCH  60  84
BRANCH  72  95
ATOM     95  C   UNL A   1      44.250  28.181  34.786  1.00  0.00     0.023 A 
ATOM     96  C   UNL A   1      44.167  26.996  35.535  1.00  0.00     0.031 A 
ATOM     97  C   UNL A   1      45.522  28.723  34.533  1.00  0.00     0.131 A 
ATOM     98  C   UNL A   1      45.336  26.416  36.050  1.00  0.00     0.055 A 
ATOM     99  C   UNL A   1      46.686  28.108  34.996  1.00  0.00     0.041 A 
ATOM    100  F   UNL A   1      45.655  29.856  33.825  1.00  0.00    -0.206 F 
ATOM    101  C   UNL A   1      46.595  26.954  35.769  1.00  0.00     0.022 A 
BRANCH  98 102
ATOM    102  S   UNL A   1      45.185  24.990  37.159  1.00  0.00     0.124 S 
ATOM    103  O   UNL A   1      43.789  25.078  37.577  1.00  0.00    -0.237 OA
ATOM    104  O   UNL A   1      45.518  23.873  36.281  1.00  0.00    -0.237 OA
ATOM    105  O   UNL A   1      46.164  25.266  38.209  1.00  0.00    -0.744 OA
ENDBRANCH  98 102
ENDBRANCH  72  95
ENDBRANCH  46  47
ENDBRANCH  39  41
ENDBRANCH  38  39
ENDBRANCH  37  38
ENDBRANCH  36  37
ENDBRANCH  35  36
ENDBRANCH   1  35
TORSDOF 22
ENDMDL
