MODEL 1
REMARK VINA RESULT:     -13.7      0.000      0.000
REMARK SMILES Cc1ccc2c(c1)c(-c1ccnc3c(C)cccc13)c(C)n2CC(=O)OCCOC(=O)c1ccc(-c2c3nc(c(-c4cc(S(=O)(=O)[O-])ccc4F)c4ccc([nH]4)c(-c4cc(S(=O)(=O)[O-])ccc4F)c4nc(c(-c5cc(S(=O)(=O)[O-])ccc5F)c5ccc2[nH]5)C=C4)C=C3)cc1
REMARK SMILES IDX 28 1 27 2 26 3 24 4 25 5 23 6 22 7 1 8 2 9 3 10 7 11 4 12
REMARK SMILES IDX 6 13 5 14 8 15 20 16 21 17 9 18 10 19 19 20 11 21 13 22
REMARK SMILES IDX 18 23 12 24 14 25 17 26 15 27 16 28 29 29 30 30 31 31 32 32
REMARK SMILES IDX 33 33 94 34 34 35 93 36 35 37 36 38 37 39 87 40 38 41 92 42
REMARK SMILES IDX 86 43 88 44 39 45 91 46 85 47 84 48 40 50 72 51 52 52 71 53
REMARK SMILES IDX 53 54 56 55 70 56 89 57 54 58 55 59 69 61 90 62 57 63 41 64
REMARK SMILES IDX 42 65 50 66 43 67 49 68 51 69 48 70 44 71 45 72 46 73 47 74
REMARK SMILES IDX 73 75 74 76 82 77 75 78 81 79 83 80 80 81 76 82 77 83 78 84
REMARK SMILES IDX 79 85 58 86 59 87 67 88 60 89 66 90 68 91 65 92 61 93 62 94
REMARK SMILES IDX 63 95 64 96
REMARK H PARENT 88 49 56 60
REMARK Flexibility Score: inf
ROOT
ATOM      1  C   UNL A   1      35.051  21.489  24.636  1.00  0.00     0.275 C 
ENDROOT
BRANCH   1   2
ATOM      2  C   UNL A   1      34.505  21.539  26.067  1.00  0.00     0.274 C 
BRANCH   2   3
ATOM      3  O   UNL A   1      34.061  22.879  26.416  1.00  0.00    -0.461 OA
BRANCH   3   4
ATOM      4  C   UNL A   1      32.733  23.012  26.668  1.00  0.00     0.326 C 
ATOM      5  O   UNL A   1      32.274  23.065  27.808  1.00  0.00    -0.250 OA
BRANCH   4   6
ATOM      6  C   UNL A   1      31.816  23.095  25.471  1.00  0.00     0.244 C 
BRANCH   6   7
ATOM      7  N   UNL A   1      31.729  24.339  24.713  1.00  0.00    -0.333 N 
ATOM      8  C   UNL A   1      32.895  25.436  19.310  1.00  0.00     0.044 C 
ATOM      9  C   UNL A   1      32.654  25.081  20.744  1.00  0.00    -0.050 A 
ATOM     10  C   UNL A   1      32.766  23.756  21.167  1.00  0.00     0.005 A 
ATOM     11  C   UNL A   1      32.260  26.078  21.649  1.00  0.00     0.014 A 
ATOM     12  C   UNL A   1      32.511  23.399  22.487  1.00  0.00     0.027 A 
ATOM     13  C   UNL A   1      31.942  25.729  22.974  1.00  0.00     0.008 A 
ATOM     14  C   UNL A   1      32.095  24.402  23.375  1.00  0.00     0.049 A 
ATOM     15  C   UNL A   1      31.414  26.439  24.082  1.00  0.00     0.011 A 
ATOM     16  C   UNL A   1      31.029  25.495  25.017  1.00  0.00     0.024 A 
ATOM     17  C   UNL A   1      30.031  25.697  26.099  1.00  0.00     0.065 C 
BRANCH  15  18
ATOM     18  C   UNL A   1      31.058  27.840  24.236  1.00  0.00    -0.005 A 
ATOM     19  C   UNL A   1      30.053  28.371  23.435  1.00  0.00     0.029 A 
ATOM     20  C   UNL A   1      31.660  28.625  25.252  1.00  0.00     0.008 A 
ATOM     21  C   UNL A   1      29.693  29.681  23.652  1.00  0.00     0.112 A 
ATOM     22  C   UNL A   1      31.244  29.969  25.367  1.00  0.00     0.074 A 
ATOM     23  C   UNL A   1      32.633  28.118  26.151  1.00  0.00     0.011 A 
ATOM     24  N   UNL A   1      30.279  30.480  24.570  1.00  0.00    -0.256 NA
ATOM     25  C   UNL A   1      31.857  30.773  26.341  1.00  0.00    -0.025 A 
ATOM     26  C   UNL A   1      33.212  28.921  27.123  1.00  0.00     0.001 A 
ATOM     27  C   UNL A   1      31.512  32.232  26.483  1.00  0.00     0.047 C 
ATOM     28  C   UNL A   1      32.836  30.251  27.207  1.00  0.00     0.005 A 
ENDBRANCH  15  18
ENDBRANCH   6   7
ENDBRANCH   4   6
ENDBRANCH   3   4
ENDBRANCH   2   3
ENDBRANCH   1   2
BRANCH   1  29
ATOM     29  O   UNL A   1      36.421  21.918  24.638  1.00  0.00    -0.458 OA
BRANCH  29  30
ATOM     30  C   UNL A   1      37.309  21.049  25.189  1.00  0.00     0.338 C 
ATOM     31  O   UNL A   1      37.346  19.850  25.036  1.00  0.00    -0.246 OA
BRANCH  30  32
ATOM     32  C   UNL A   1      38.445  21.883  25.640  1.00  0.00     0.060 A 
ATOM     33  C   UNL A   1      39.625  21.366  26.156  1.00  0.00     0.016 A 
ATOM     34  C   UNL A   1      38.167  23.238  25.774  1.00  0.00     0.016 A 
ATOM     35  C   UNL A   1      40.410  22.187  26.965  1.00  0.00     0.010 A 
ATOM     36  C   UNL A   1      38.922  24.049  26.599  1.00  0.00     0.010 A 
ATOM     37  C   UNL A   1      39.991  23.492  27.274  1.00  0.00    -0.014 A 
BRANCH  37  38
ATOM     38  C   UNL A   1      40.825  24.357  28.093  1.00  0.00     0.031 A 
ATOM     39  C   UNL A   1      40.171  25.654  28.343  1.00  0.00     0.074 A 
ATOM     40  C   UNL A   1      42.015  24.100  28.669  1.00  0.00     0.049 A 
ATOM     41  N   UNL A   1      40.347  26.720  27.643  1.00  0.00    -0.248 NA
ATOM     42  C   UNL A   1      39.071  25.728  29.310  1.00  0.00     0.031 C 
ATOM     43  C   UNL A   1      42.727  22.838  28.864  1.00  0.00     0.029 A 
ATOM     44  N   UNL A   1      42.844  25.012  29.254  1.00  0.00    -0.354 N 
ATOM     45  C   UNL A   1      39.504  27.674  28.185  1.00  0.00     0.074 A 
ATOM     46  C   UNL A   1      38.618  26.962  29.075  1.00  0.00     0.031 C 
ATOM     47  C   UNL A   1      43.797  23.048  29.676  1.00  0.00     0.029 A 
ATOM     48  C   UNL A   1      43.938  24.477  29.915  1.00  0.00     0.049 A 
ATOM     49  H   UNL A   1      42.677  25.982  29.210  1.00  0.00     0.167 HD
ATOM     50  C   UNL A   1      39.736  29.001  27.986  1.00  0.00     0.034 A 
ATOM     51  C   UNL A   1      44.881  25.172  30.604  1.00  0.00     0.034 A 
ATOM     52  C   UNL A   1      40.761  29.201  26.988  1.00  0.00     0.049 A 
ATOM     53  C   UNL A   1      44.870  26.574  30.119  1.00  0.00     0.074 A 
ATOM     54  C   UNL A   1      40.872  28.896  25.646  1.00  0.00     0.029 A 
ATOM     55  N   UNL A   1      42.045  29.418  27.433  1.00  0.00    -0.354 N 
ATOM     56  N   UNL A   1      45.315  26.943  28.953  1.00  0.00    -0.248 NA
ATOM     57  C   UNL A   1      43.974  27.516  30.771  1.00  0.00     0.031 C 
ATOM     58  C   UNL A   1      42.228  28.493  25.465  1.00  0.00     0.029 A 
ATOM     59  C   UNL A   1      42.889  28.630  26.687  1.00  0.00     0.049 A 
ATOM     60  H   UNL A   1      42.312  30.028  28.157  1.00  0.00     0.167 HD
ATOM     61  C   UNL A   1      44.395  27.884  28.519  1.00  0.00     0.074 A 
ATOM     62  C   UNL A   1      43.669  28.285  29.723  1.00  0.00     0.031 C 
ATOM     63  C   UNL A   1      44.114  28.037  27.191  1.00  0.00     0.034 A 
BRANCH  50  64
ATOM     64  C   UNL A   1      39.263  30.089  28.907  1.00  0.00     0.023 A 
ATOM     65  C   UNL A   1      38.120  30.867  28.651  1.00  0.00     0.031 A 
ATOM     66  C   UNL A   1      39.845  30.245  30.178  1.00  0.00     0.131 A 
ATOM     67  C   UNL A   1      37.610  31.758  29.601  1.00  0.00     0.055 A 
ATOM     68  C   UNL A   1      39.296  31.084  31.155  1.00  0.00     0.041 A 
ATOM     69  F   UNL A   1      40.937  29.546  30.530  1.00  0.00    -0.206 F 
ATOM     70  C   UNL A   1      38.173  31.849  30.869  1.00  0.00     0.022 A 
BRANCH  67  71
ATOM     71  S   UNL A   1      36.190  32.811  29.196  1.00  0.00     0.124 S 
ATOM     72  O   UNL A   1      35.302  32.566  30.327  1.00  0.00    -0.237 OA
ATOM     73  O   UNL A   1      36.807  34.134  29.147  1.00  0.00    -0.237 OA
ATOM     74  O   UNL A   1      35.737  32.293  27.908  1.00  0.00    -0.744 OA
ENDBRANCH  67  71
ENDBRANCH  50  64
BRANCH  51  75
ATOM     75  C   UNL A   1      45.479  24.841  31.918  1.00  0.00     0.023 A 
ATOM     76  C   UNL A   1      44.705  24.160  32.871  1.00  0.00     0.031 A 
ATOM     77  C   UNL A   1      46.635  25.504  32.376  1.00  0.00     0.131 A 
ATOM     78  C   UNL A   1      45.032  24.235  34.232  1.00  0.00     0.055 A 
ATOM     79  C   UNL A   1      46.975  25.554  33.733  1.00  0.00     0.041 A 
ATOM     80  F   UNL A   1      47.408  26.196  31.524  1.00  0.00    -0.206 F 
ATOM     81  C   UNL A   1      46.156  24.934  34.673  1.00  0.00     0.022 A 
BRANCH  78  82
ATOM     82  S   UNL A   1      43.918  23.514  35.467  1.00  0.00     0.124 S 
ATOM     83  O   UNL A   1      42.614  23.626  34.815  1.00  0.00    -0.237 OA
ATOM     84  O   UNL A   1      44.448  22.160  35.586  1.00  0.00    -0.237 OA
ATOM     85  O   UNL A   1      44.101  24.376  36.631  1.00  0.00    -0.744 OA
ENDBRANCH  78  82
ENDBRANCH  51  75
BRANCH  63  86
ATOM     86  C   UNL A   1      45.000  27.336  26.176  1.00  0.00     0.023 A 
ATOM     87  C   UNL A   1      44.744  25.977  25.922  1.00  0.00     0.031 A 
ATOM     88  C   UNL A   1      46.166  27.886  25.606  1.00  0.00     0.131 A 
ATOM     89  C   UNL A   1      45.636  25.213  25.158  1.00  0.00     0.055 A 
ATOM     90  C   UNL A   1      47.016  27.140  24.782  1.00  0.00     0.041 A 
ATOM     91  F   UNL A   1      46.567  29.132  25.888  1.00  0.00    -0.206 F 
ATOM     92  C   UNL A   1      46.762  25.792  24.567  1.00  0.00     0.022 A 
BRANCH  89  93
ATOM     93  S   UNL A   1      45.440  23.416  25.048  1.00  0.00     0.124 S 
ATOM     94  O   UNL A   1      45.453  23.193  23.605  1.00  0.00    -0.237 OA
ATOM     95  O   UNL A   1      46.618  22.930  25.766  1.00  0.00    -0.237 OA
ATOM     96  O   UNL A   1      44.167  23.159  25.711  1.00  0.00    -0.744 OA
ENDBRANCH  89  93
ENDBRANCH  63  86
ENDBRANCH  37  38
ENDBRANCH  30  32
ENDBRANCH  29  30
ENDBRANCH   1  29
TORSDOF 16
ENDMDL
MODEL 2
REMARK VINA RESULT:     -13.2      1.385      2.045
REMARK SMILES Cc1ccc2c(c1)c(-c1ccnc3c(C)cccc13)c(C)n2CC(=O)OCCOC(=O)c1ccc(-c2c3nc(c(-c4cc(S(=O)(=O)[O-])ccc4F)c4ccc([nH]4)c(-c4cc(S(=O)(=O)[O-])ccc4F)c4nc(c(-c5cc(S(=O)(=O)[O-])ccc5F)c5ccc2[nH]5)C=C4)C=C3)cc1
REMARK SMILES IDX 28 1 27 2 26 3 24 4 25 5 23 6 22 7 1 8 2 9 3 10 7 11 4 12
REMARK SMILES IDX 6 13 5 14 8 15 20 16 21 17 9 18 10 19 19 20 11 21 13 22
REMARK SMILES IDX 18 23 12 24 14 25 17 26 15 27 16 28 29 29 30 30 31 31 32 32
REMARK SMILES IDX 33 33 94 34 34 35 93 36 35 37 36 38 37 39 87 40 38 41 92 42
REMARK SMILES IDX 86 43 88 44 39 45 91 46 85 47 84 48 40 50 72 51 52 52 71 53
REMARK SMILES IDX 53 54 56 55 70 56 89 57 54 58 55 59 69 61 90 62 57 63 41 64
REMARK SMILES IDX 42 65 50 66 43 67 49 68 51 69 48 70 44 71 45 72 46 73 47 74
REMARK SMILES IDX 73 75 74 76 82 77 75 78 81 79 83 80 80 81 76 82 77 83 78 84
REMARK SMILES IDX 79 85 58 86 59 87 67 88 60 89 66 90 68 91 65 92 61 93 62 94
REMARK SMILES IDX 63 95 64 96
REMARK H PARENT 88 49 56 60
REMARK Flexibility Score: inf
ROOT
ATOM      1  C   UNL A   1      35.192  21.369  24.734  1.00  0.00     0.275 C 
ENDROOT
BRANCH   1   2
ATOM      2  C   UNL A   1      33.958  21.151  25.617  1.00  0.00     0.274 C 
BRANCH   2   3
ATOM      3  O   UNL A   1      33.879  22.151  26.669  1.00  0.00    -0.461 OA
BRANCH   3   4
ATOM      4  C   UNL A   1      32.651  22.693  26.875  1.00  0.00     0.326 C 
ATOM      5  O   UNL A   1      32.246  23.020  27.990  1.00  0.00    -0.250 OA
BRANCH   4   6
ATOM      6  C   UNL A   1      31.778  22.886  25.659  1.00  0.00     0.244 C 
BRANCH   6   7
ATOM      7  N   UNL A   1      31.798  24.161  24.950  1.00  0.00    -0.333 N 
ATOM      8  C   UNL A   1      32.950  25.351  19.564  1.00  0.00     0.044 C 
ATOM      9  C   UNL A   1      32.707  24.966  20.988  1.00  0.00    -0.050 A 
ATOM     10  C   UNL A   1      32.695  23.620  21.359  1.00  0.00     0.005 A 
ATOM     11  C   UNL A   1      32.433  25.960  21.940  1.00  0.00     0.014 A 
ATOM     12  C   UNL A   1      32.435  23.238  22.671  1.00  0.00     0.027 A 
ATOM     13  C   UNL A   1      32.111  25.592  23.259  1.00  0.00     0.008 A 
ATOM     14  C   UNL A   1      32.139  24.241  23.607  1.00  0.00     0.049 A 
ATOM     15  C   UNL A   1      31.680  26.306  24.405  1.00  0.00     0.011 A 
ATOM     16  C   UNL A   1      31.223  25.368  25.314  1.00  0.00     0.024 A 
ATOM     17  C   UNL A   1      30.274  25.625  26.428  1.00  0.00     0.065 C 
BRANCH  15  18
ATOM     18  C   UNL A   1      31.468  27.728  24.620  1.00  0.00    -0.005 A 
ATOM     19  C   UNL A   1      32.390  28.438  25.382  1.00  0.00     0.029 A 
ATOM     20  C   UNL A   1      30.392  28.396  23.985  1.00  0.00     0.008 A 
ATOM     21  C   UNL A   1      32.198  29.794  25.510  1.00  0.00     0.112 A 
ATOM     22  C   UNL A   1      30.263  29.783  24.211  1.00  0.00     0.074 A 
ATOM     23  C   UNL A   1      29.464  27.741  23.134  1.00  0.00     0.011 A 
ATOM     24  N   UNL A   1      31.155  30.461  24.968  1.00  0.00    -0.256 NA
ATOM     25  C   UNL A   1      29.180  30.456  23.622  1.00  0.00    -0.025 A 
ATOM     26  C   UNL A   1      28.413  28.426  22.541  1.00  0.00     0.001 A 
ATOM     27  C   UNL A   1      28.941  31.922  23.868  1.00  0.00     0.047 C 
ATOM     28  C   UNL A   1      28.262  29.778  22.799  1.00  0.00     0.005 A 
ENDBRANCH  15  18
ENDBRANCH   6   7
ENDBRANCH   4   6
ENDBRANCH   3   4
ENDBRANCH   2   3
ENDBRANCH   1   2
BRANCH   1  29
ATOM     29  O   UNL A   1      36.314  21.708  25.565  1.00  0.00    -0.458 OA
BRANCH  29  30
ATOM     30  C   UNL A   1      37.455  21.010  25.324  1.00  0.00     0.338 C 
ATOM     31  O   UNL A   1      37.581  20.043  24.609  1.00  0.00    -0.246 OA
BRANCH  30  32
ATOM     32  C   UNL A   1      38.557  21.904  25.745  1.00  0.00     0.060 A 
ATOM     33  C   UNL A   1      39.808  21.454  26.140  1.00  0.00     0.016 A 
ATOM     34  C   UNL A   1      38.188  23.222  25.986  1.00  0.00     0.016 A 
ATOM     35  C   UNL A   1      40.589  22.285  26.942  1.00  0.00     0.010 A 
ATOM     36  C   UNL A   1      38.942  24.041  26.805  1.00  0.00     0.010 A 
ATOM     37  C   UNL A   1      40.099  23.533  27.364  1.00  0.00    -0.014 A 
BRANCH  37  38
ATOM     38  C   UNL A   1      40.925  24.411  28.174  1.00  0.00     0.031 A 
ATOM     39  C   UNL A   1      40.265  25.709  28.406  1.00  0.00     0.074 A 
ATOM     40  C   UNL A   1      42.115  24.167  28.758  1.00  0.00     0.049 A 
ATOM     41  N   UNL A   1      40.438  26.766  27.693  1.00  0.00    -0.248 NA
ATOM     42  C   UNL A   1      39.161  25.790  29.368  1.00  0.00     0.031 C 
ATOM     43  C   UNL A   1      42.831  22.911  28.971  1.00  0.00     0.029 A 
ATOM     44  N   UNL A   1      42.937  25.090  29.334  1.00  0.00    -0.354 N 
ATOM     45  C   UNL A   1      39.589  27.724  28.221  1.00  0.00     0.074 A 
ATOM     46  C   UNL A   1      38.704  27.018  29.116  1.00  0.00     0.031 C 
ATOM     47  C   UNL A   1      43.898  23.136  29.784  1.00  0.00     0.029 A 
ATOM     48  C   UNL A   1      44.032  24.568  30.006  1.00  0.00     0.049 A 
ATOM     49  H   UNL A   1      42.766  26.059  29.277  1.00  0.00     0.167 HD
ATOM     50  C   UNL A   1      39.816  29.048  28.005  1.00  0.00     0.034 A 
ATOM     51  C   UNL A   1      44.969  25.276  30.689  1.00  0.00     0.034 A 
ATOM     52  C   UNL A   1      40.843  29.241  27.009  1.00  0.00     0.049 A 
ATOM     53  C   UNL A   1      44.953  26.672  30.186  1.00  0.00     0.074 A 
ATOM     54  C   UNL A   1      40.961  28.919  25.671  1.00  0.00     0.029 A 
ATOM     55  N   UNL A   1      42.124  29.469  27.455  1.00  0.00    -0.354 N 
ATOM     56  N   UNL A   1      45.400  27.029  29.018  1.00  0.00    -0.248 NA
ATOM     57  C   UNL A   1      44.050  27.619  30.823  1.00  0.00     0.031 C 
ATOM     58  C   UNL A   1      42.318  28.520  25.499  1.00  0.00     0.029 A 
ATOM     59  C   UNL A   1      42.975  28.676  26.722  1.00  0.00     0.049 A 
ATOM     60  H   UNL A   1      42.387  30.089  28.173  1.00  0.00     0.167 HD
ATOM     61  C   UNL A   1      44.478  27.960  28.568  1.00  0.00     0.074 A 
ATOM     62  C   UNL A   1      43.746  28.373  29.765  1.00  0.00     0.031 C 
ATOM     63  C   UNL A   1      44.201  28.095  27.238  1.00  0.00     0.034 A 
BRANCH  50  64
ATOM     64  C   UNL A   1      39.335  30.146  28.911  1.00  0.00     0.023 A 
ATOM     65  C   UNL A   1      40.134  30.710  29.921  1.00  0.00     0.031 A 
ATOM     66  C   UNL A   1      38.115  30.797  28.652  1.00  0.00     0.131 A 
ATOM     67  C   UNL A   1      39.723  31.838  30.640  1.00  0.00     0.055 A 
ATOM     68  C   UNL A   1      37.733  31.966  29.321  1.00  0.00     0.041 A 
ATOM     69  F   UNL A   1      37.278  30.346  27.704  1.00  0.00    -0.206 F 
ATOM     70  C   UNL A   1      38.538  32.492  30.323  1.00  0.00     0.022 A 
BRANCH  67  71
ATOM     71  S   UNL A   1      40.741  32.477  31.999  1.00  0.00     0.124 S 
ATOM     72  O   UNL A   1      39.731  32.819  32.994  1.00  0.00    -0.237 OA
ATOM     73  O   UNL A   1      41.576  31.320  32.312  1.00  0.00    -0.237 OA
ATOM     74  O   UNL A   1      41.447  33.603  31.396  1.00  0.00    -0.744 OA
ENDBRANCH  67  71
ENDBRANCH  50  64
BRANCH  51  75
ATOM     75  C   UNL A   1      45.564  24.965  32.009  1.00  0.00     0.023 A 
ATOM     76  C   UNL A   1      44.734  24.502  33.043  1.00  0.00     0.031 A 
ATOM     77  C   UNL A   1      46.830  25.467  32.370  1.00  0.00     0.131 A 
ATOM     78  C   UNL A   1      45.128  24.638  34.380  1.00  0.00     0.055 A 
ATOM     79  C   UNL A   1      47.233  25.575  33.707  1.00  0.00     0.041 A 
ATOM     80  F   UNL A   1      47.665  25.950  31.436  1.00  0.00    -0.206 F 
ATOM     81  C   UNL A   1      46.368  25.179  34.723  1.00  0.00     0.022 A 
BRANCH  78  82
ATOM     82  S   UNL A   1      43.969  24.214  35.709  1.00  0.00     0.124 S 
ATOM     83  O   UNL A   1      44.850  23.626  36.716  1.00  0.00    -0.237 OA
ATOM     84  O   UNL A   1      43.414  25.520  36.042  1.00  0.00    -0.237 OA
ATOM     85  O   UNL A   1      43.052  23.275  35.069  1.00  0.00    -0.744 OA
ENDBRANCH  78  82
ENDBRANCH  51  75
BRANCH  63  86
ATOM     86  C   UNL A   1      45.093  27.386  26.235  1.00  0.00     0.023 A 
ATOM     87  C   UNL A   1      44.854  26.018  26.008  1.00  0.00     0.031 A 
ATOM     88  C   UNL A   1      46.251  27.939  25.651  1.00  0.00     0.131 A 
ATOM     89  C   UNL A   1      45.755  25.251  25.258  1.00  0.00     0.055 A 
ATOM     90  C   UNL A   1      47.109  27.188  24.839  1.00  0.00     0.041 A 
ATOM     91  F   UNL A   1      46.637  29.195  25.906  1.00  0.00    -0.206 F 
ATOM     92  C   UNL A   1      46.872  25.832  24.652  1.00  0.00     0.022 A 
BRANCH  89  93
ATOM     93  S   UNL A   1      45.583  23.450  25.184  1.00  0.00     0.124 S 
ATOM     94  O   UNL A   1      44.143  23.271  25.344  1.00  0.00    -0.237 OA
ATOM     95  O   UNL A   1      46.106  23.141  23.853  1.00  0.00    -0.237 OA
ATOM     96  O   UNL A   1      46.401  22.971  26.293  1.00  0.00    -0.744 OA
ENDBRANCH  89  93
ENDBRANCH  63  86
ENDBRANCH  37  38
ENDBRANCH  30  32
ENDBRANCH  29  30
ENDBRANCH   1  29
TORSDOF 16
ENDMDL
MODEL 3
REMARK VINA RESULT:     -12.9      1.817      2.616
REMARK SMILES Cc1ccc2c(c1)c(-c1ccnc3c(C)cccc13)c(C)n2CC(=O)OCCOC(=O)c1ccc(-c2c3nc(c(-c4cc(S(=O)(=O)[O-])ccc4F)c4ccc([nH]4)c(-c4cc(S(=O)(=O)[O-])ccc4F)c4nc(c(-c5cc(S(=O)(=O)[O-])ccc5F)c5ccc2[nH]5)C=C4)C=C3)cc1
REMARK SMILES IDX 28 1 27 2 26 3 24 4 25 5 23 6 22 7 1 8 2 9 3 10 7 11 4 12
REMARK SMILES IDX 6 13 5 14 8 15 20 16 21 17 9 18 10 19 19 20 11 21 13 22
REMARK SMILES IDX 18 23 12 24 14 25 17 26 15 27 16 28 29 29 30 30 31 31 32 32
REMARK SMILES IDX 33 33 94 34 34 35 93 36 35 37 36 38 37 39 87 40 38 41 92 42
REMARK SMILES IDX 86 43 88 44 39 45 91 46 85 47 84 48 40 50 72 51 52 52 71 53
REMARK SMILES IDX 53 54 56 55 70 56 89 57 54 58 55 59 69 61 90 62 57 63 41 64
REMARK SMILES IDX 42 65 50 66 43 67 49 68 51 69 48 70 44 71 45 72 46 73 47 74
REMARK SMILES IDX 73 75 74 76 82 77 75 78 81 79 83 80 80 81 76 82 77 83 78 84
REMARK SMILES IDX 79 85 58 86 59 87 67 88 60 89 66 90 68 91 65 92 61 93 62 94
REMARK SMILES IDX 63 95 64 96
REMARK H PARENT 88 49 56 60
REMARK Flexibility Score: inf
ROOT
ATOM      1  C   UNL A   1      36.574  20.106  25.000  1.00  0.00     0.275 C 
ENDROOT
BRANCH   1   2
ATOM      2  C   UNL A   1      35.334  20.950  24.681  1.00  0.00     0.274 C 
BRANCH   2   3
ATOM      3  O   UNL A   1      35.674  22.358  24.557  1.00  0.00    -0.461 OA
BRANCH   3   4
ATOM      4  C   UNL A   1      35.548  22.886  23.312  1.00  0.00     0.326 C 
ATOM      5  O   UNL A   1      36.513  23.261  22.647  1.00  0.00    -0.250 OA
BRANCH   4   6
ATOM      6  C   UNL A   1      34.148  22.999  22.757  1.00  0.00     0.244 C 
BRANCH   6   7
ATOM      7  N   UNL A   1      33.183  23.880  23.406  1.00  0.00    -0.333 N 
ATOM      8  C   UNL A   1      29.364  22.826  27.414  1.00  0.00     0.044 C 
ATOM      9  C   UNL A   1      30.364  23.019  26.318  1.00  0.00    -0.050 A 
ATOM     10  C   UNL A   1      31.209  21.972  25.947  1.00  0.00     0.005 A 
ATOM     11  C   UNL A   1      30.488  24.274  25.703  1.00  0.00     0.014 A 
ATOM     12  C   UNL A   1      32.171  22.141  24.956  1.00  0.00     0.027 A 
ATOM     13  C   UNL A   1      31.491  24.482  24.739  1.00  0.00     0.008 A 
ATOM     14  C   UNL A   1      32.299  23.408  24.367  1.00  0.00     0.049 A 
ATOM     15  C   UNL A   1      31.957  25.617  24.030  1.00  0.00     0.011 A 
ATOM     16  C   UNL A   1      33.167  25.264  23.458  1.00  0.00     0.024 A 
ATOM     17  C   UNL A   1      34.234  26.203  23.029  1.00  0.00     0.065 C 
BRANCH  15  18
ATOM     18  C   UNL A   1      31.497  26.996  24.026  1.00  0.00    -0.005 A 
ATOM     19  C   UNL A   1      30.673  27.428  22.992  1.00  0.00     0.029 A 
ATOM     20  C   UNL A   1      31.806  27.857  25.109  1.00  0.00     0.008 A 
ATOM     21  C   UNL A   1      30.200  28.718  23.054  1.00  0.00     0.112 A 
ATOM     22  C   UNL A   1      31.301  29.174  25.057  1.00  0.00     0.074 A 
ATOM     23  C   UNL A   1      32.577  27.452  26.229  1.00  0.00     0.011 A 
ATOM     24  N   UNL A   1      30.515  29.590  24.038  1.00  0.00    -0.256 NA
ATOM     25  C   UNL A   1      31.629  30.054  26.100  1.00  0.00    -0.025 A 
ATOM     26  C   UNL A   1      32.872  28.328  27.263  1.00  0.00     0.001 A 
ATOM     27  C   UNL A   1      31.179  31.491  26.084  1.00  0.00     0.047 C 
ATOM     28  C   UNL A   1      32.413  29.632  27.190  1.00  0.00     0.005 A 
ENDBRANCH  15  18
ENDBRANCH   6   7
ENDBRANCH   4   6
ENDBRANCH   3   4
ENDBRANCH   2   3
ENDBRANCH   1   2
BRANCH   1  29
ATOM     29  O   UNL A   1      37.754  20.881  24.737  1.00  0.00    -0.458 OA
BRANCH  29  30
ATOM     30  C   UNL A   1      38.890  20.446  25.343  1.00  0.00     0.338 C 
ATOM     31  O   UNL A   1      39.649  19.593  24.945  1.00  0.00    -0.246 OA
BRANCH  30  32
ATOM     32  C   UNL A   1      39.234  21.496  26.329  1.00  0.00     0.060 A 
ATOM     33  C   UNL A   1      38.801  22.811  26.239  1.00  0.00     0.016 A 
ATOM     34  C   UNL A   1      40.247  21.161  27.219  1.00  0.00     0.016 A 
ATOM     35  C   UNL A   1      39.529  23.795  26.907  1.00  0.00     0.010 A 
ATOM     36  C   UNL A   1      40.991  22.132  27.860  1.00  0.00     0.010 A 
ATOM     37  C   UNL A   1      40.691  23.459  27.623  1.00  0.00    -0.014 A 
BRANCH  37  38
ATOM     38  C   UNL A   1      41.431  24.481  28.343  1.00  0.00     0.031 A 
ATOM     39  C   UNL A   1      40.642  25.719  28.484  1.00  0.00     0.074 A 
ATOM     40  C   UNL A   1      42.647  24.409  28.920  1.00  0.00     0.049 A 
ATOM     41  N   UNL A   1      40.695  26.726  27.685  1.00  0.00    -0.248 NA
ATOM     42  C   UNL A   1      39.548  25.764  29.459  1.00  0.00     0.031 C 
ATOM     43  C   UNL A   1      43.493  23.256  29.218  1.00  0.00     0.029 A 
ATOM     44  N   UNL A   1      43.376  25.456  29.403  1.00  0.00    -0.354 N 
ATOM     45  C   UNL A   1      39.758  27.631  28.152  1.00  0.00     0.074 A 
ATOM     46  C   UNL A   1      38.962  26.914  29.120  1.00  0.00     0.031 C 
ATOM     47  C   UNL A   1      44.541  23.654  29.988  1.00  0.00     0.029 A 
ATOM     48  C   UNL A   1      44.527  25.106  30.092  1.00  0.00     0.049 A 
ATOM     49  H   UNL A   1      43.104  26.394  29.273  1.00  0.00     0.167 HD
ATOM     50  C   UNL A   1      39.842  28.950  27.827  1.00  0.00     0.034 A 
ATOM     51  C   UNL A   1      45.394  25.961  30.696  1.00  0.00     0.034 A 
ATOM     52  C   UNL A   1      40.832  29.166  26.797  1.00  0.00     0.049 A 
ATOM     53  C   UNL A   1      45.226  27.302  30.084  1.00  0.00     0.074 A 
ATOM     54  C   UNL A   1      40.966  28.749  25.487  1.00  0.00     0.029 A 
ATOM     55  N   UNL A   1      42.088  29.560  27.197  1.00  0.00    -0.354 N 
ATOM     56  N   UNL A   1      45.619  27.605  28.882  1.00  0.00    -0.248 NA
ATOM     57  C   UNL A   1      44.237  28.199  30.662  1.00  0.00     0.031 C 
ATOM     58  C   UNL A   1      42.355  28.480  25.320  1.00  0.00     0.029 A 
ATOM     59  C   UNL A   1      43.007  28.801  26.512  1.00  0.00     0.049 A 
ATOM     60  H   UNL A   1      42.293  30.260  27.857  1.00  0.00     0.167 HD
ATOM     61  C   UNL A   1      44.599  28.397  28.378  1.00  0.00     0.074 A 
ATOM     62  C   UNL A   1      43.843  28.829  29.553  1.00  0.00     0.031 C 
ATOM     63  C   UNL A   1      44.293  28.394  27.047  1.00  0.00     0.034 A 
BRANCH  50  64
ATOM     64  C   UNL A   1      39.261  30.062  28.651  1.00  0.00     0.023 A 
ATOM     65  C   UNL A   1      37.990  30.612  28.410  1.00  0.00     0.031 A 
ATOM     66  C   UNL A   1      39.896  30.473  29.838  1.00  0.00     0.131 A 
ATOM     67  C   UNL A   1      37.406  31.530  29.289  1.00  0.00     0.055 A 
ATOM     68  C   UNL A   1      39.285  31.337  30.754  1.00  0.00     0.041 A 
ATOM     69  F   UNL A   1      41.111  30.006  30.170  1.00  0.00    -0.206 F 
ATOM     70  C   UNL A   1      38.033  31.873  30.482  1.00  0.00     0.022 A 
BRANCH  67  71
ATOM     71  S   UNL A   1      35.806  32.286  28.892  1.00  0.00     0.124 S 
ATOM     72  O   UNL A   1      35.086  31.168  28.291  1.00  0.00    -0.237 OA
ATOM     73  O   UNL A   1      35.341  32.705  30.212  1.00  0.00    -0.237 OA
ATOM     74  O   UNL A   1      36.159  33.376  27.987  1.00  0.00    -0.744 OA
ENDBRANCH  67  71
ENDBRANCH  50  64
BRANCH  51  75
ATOM     75  C   UNL A   1      46.034  25.820  32.025  1.00  0.00     0.023 A 
ATOM     76  C   UNL A   1      47.431  25.707  32.103  1.00  0.00     0.031 A 
ATOM     77  C   UNL A   1      45.286  25.421  33.151  1.00  0.00     0.131 A 
ATOM     78  C   UNL A   1      48.031  25.122  33.227  1.00  0.00     0.055 A 
ATOM     79  C   UNL A   1      45.890  24.863  34.284  1.00  0.00     0.041 A 
ATOM     80  F   UNL A   1      43.945  25.478  33.136  1.00  0.00    -0.206 F 
ATOM     81  C   UNL A   1      47.271  24.691  34.316  1.00  0.00     0.022 A 
BRANCH  78  82
ATOM     82  S   UNL A   1      49.816  24.807  33.234  1.00  0.00     0.124 S 
ATOM     83  O   UNL A   1      50.346  26.028  33.839  1.00  0.00    -0.237 OA
ATOM     84  O   UNL A   1      49.900  23.607  34.058  1.00  0.00    -0.237 OA
ATOM     85  O   UNL A   1      50.134  24.633  31.819  1.00  0.00    -0.744 OA
ENDBRANCH  78  82
ENDBRANCH  51  75
BRANCH  63  86
ATOM     86  C   UNL A   1      45.242  27.700  26.086  1.00  0.00     0.023 A 
ATOM     87  C   UNL A   1      45.090  26.313  25.913  1.00  0.00     0.031 A 
ATOM     88  C   UNL A   1      46.373  28.299  25.495  1.00  0.00     0.131 A 
ATOM     89  C   UNL A   1      46.047  25.573  25.206  1.00  0.00     0.055 A 
ATOM     90  C   UNL A   1      47.287  27.570  24.726  1.00  0.00     0.041 A 
ATOM     91  F   UNL A   1      46.679  29.586  25.704  1.00  0.00    -0.206 F 
ATOM     92  C   UNL A   1      47.136  26.196  24.592  1.00  0.00     0.022 A 
BRANCH  89  93
ATOM     93  S   UNL A   1      45.985  23.762  25.204  1.00  0.00     0.124 S 
ATOM     94  O   UNL A   1      46.544  23.436  23.895  1.00  0.00    -0.237 OA
ATOM     95  O   UNL A   1      46.829  23.420  26.348  1.00  0.00    -0.237 OA
ATOM     96  O   UNL A   1      44.568  23.458  25.373  1.00  0.00    -0.744 OA
ENDBRANCH  89  93
ENDBRANCH  63  86
ENDBRANCH  37  38
ENDBRANCH  30  32
ENDBRANCH  29  30
ENDBRANCH   1  29
TORSDOF 16
ENDMDL
