MODEL 1
REMARK VINA RESULT:     -10.6      0.000      0.000
REMARK SMILES CCOC(=O)NC(=O)COc1csc(C(=O)OCCOC(=O)c2ccc(-c3c4nc(c(-c5cc(S(=O)(=O)[O-])ccc5F)c5ccc([nH]5)c(-c5cc(S(=O)(=O)[O-])ccc5F)c5nc(c(-c6cc(S(=O)(=O)[O-])ccc6F)c6ccc3[nH]6)C=C5)C=C4)cc2)c1
REMARK SMILES IDX 18 1 17 2 15 3 16 4 14 5 11 6 12 7 86 8 13 9 10 10 9 11 7 12
REMARK SMILES IDX 4 13 5 14 6 15 8 17 3 18 2 19 1 20 19 21 20 22 21 23 22 24
REMARK SMILES IDX 23 25 24 26 85 27 25 28 84 29 26 30 27 31 28 32 78 33 29 34
REMARK SMILES IDX 83 35 77 36 79 37 30 38 82 39 76 40 75 41 31 43 63 44 43 45
REMARK SMILES IDX 62 46 44 47 47 48 61 49 80 50 45 51 46 52 60 54 81 55 48 56
REMARK SMILES IDX 32 57 33 58 41 59 34 60 40 61 42 62 39 63 35 64 36 65 37 66
REMARK SMILES IDX 38 67 64 68 65 69 73 70 66 71 72 72 74 73 71 74 67 75 68 76
REMARK SMILES IDX 69 77 70 78 49 79 50 80 58 81 51 82 57 83 59 84 56 85 52 86
REMARK SMILES IDX 53 87 54 88 55 89
REMARK H PARENT 6 16 79 42 47 53
REMARK Flexibility Score: inf
ROOT
ATOM      1  C   UNL A   1      31.402  29.100  24.779  1.00  0.00     0.275 C 
ENDROOT
BRANCH   1   2
ATOM      2  O   UNL A   1      32.288  27.978  24.600  1.00  0.00    -0.458 OA
BRANCH   2   3
ATOM      3  C   UNL A   1      31.815  26.774  25.048  1.00  0.00     0.348 C 
ATOM      4  O   UNL A   1      30.735  26.632  25.600  1.00  0.00    -0.245 OA
BRANCH   3   5
ATOM      5  C   UNL A   1      32.755  25.712  24.732  1.00  0.00     0.116 A 
ATOM      6  C   UNL A   1      34.367  24.019  24.824  1.00  0.00     0.131 A 
ATOM      7  C   UNL A   1      34.287  24.239  23.470  1.00  0.00     0.112 A 
ATOM      8  C   UNL A   1      33.487  24.874  25.554  1.00  0.00     0.074 A 
ATOM      9  S   UNL A   1      33.058  25.358  23.078  1.00  0.00    -0.133 S 
BRANCH   6  10
ATOM     10  O   UNL A   1      35.067  23.028  25.423  1.00  0.00    -0.483 OA
BRANCH  10  11
ATOM     11  C   UNL A   1      34.481  21.743  25.421  1.00  0.00     0.329 C 
BRANCH  11  12
ATOM     12  C   UNL A   1      33.740  21.114  26.612  1.00  0.00     0.267 C 
ATOM     13  C   UNL A   1      32.921  18.967  25.519  1.00  0.00     0.413 C 
ATOM     14  O   UNL A   1      32.329  17.916  25.736  1.00  0.00    -0.224 OA
ATOM     15  N   UNL A   1      33.113  19.892  26.517  1.00  0.00    -0.258 N 
ATOM     16  H   UNL A   1      32.702  19.616  27.368  1.00  0.00     0.176 HD
ATOM     17  O   UNL A   1      33.642  21.724  27.681  1.00  0.00    -0.271 OA
BRANCH  13  18
ATOM     18  O   UNL A   1      33.432  19.325  24.322  1.00  0.00    -0.450 OA
BRANCH  18  19
ATOM     19  C   UNL A   1      32.509  19.374  23.225  1.00  0.00     0.231 C 
ATOM     20  C   UNL A   1      32.499  18.062  22.458  1.00  0.00     0.049 C 
ENDBRANCH  18  19
ENDBRANCH  13  18
ENDBRANCH  11  12
ENDBRANCH  10  11
ENDBRANCH   6  10
ENDBRANCH   3   5
ENDBRANCH   2   3
ENDBRANCH   1   2
BRANCH   1  21
ATOM     21  C   UNL A   1      31.739  29.894  26.045  1.00  0.00     0.275 C 
BRANCH  21  22
ATOM     22  O   UNL A   1      33.111  30.333  26.065  1.00  0.00    -0.458 OA
BRANCH  22  23
ATOM     23  C   UNL A   1      33.392  31.284  26.987  1.00  0.00     0.338 C 
ATOM     24  O   UNL A   1      32.660  32.192  27.346  1.00  0.00    -0.246 OA
BRANCH  23  25
ATOM     25  C   UNL A   1      34.684  30.995  27.633  1.00  0.00     0.060 A 
ATOM     26  C   UNL A   1      34.903  29.687  28.062  1.00  0.00     0.016 A 
ATOM     27  C   UNL A   1      35.623  31.990  27.909  1.00  0.00     0.016 A 
ATOM     28  C   UNL A   1      36.054  29.356  28.770  1.00  0.00     0.010 A 
ATOM     29  C   UNL A   1      36.789  31.656  28.617  1.00  0.00     0.010 A 
ATOM     30  C   UNL A   1      37.009  30.337  29.062  1.00  0.00    -0.014 A 
BRANCH  30  31
ATOM     31  C   UNL A   1      38.195  29.978  29.886  1.00  0.00     0.031 A 
ATOM     32  C   UNL A   1      39.246  29.056  29.330  1.00  0.00     0.074 A 
ATOM     33  C   UNL A   1      38.361  30.525  31.106  1.00  0.00     0.049 A 
ATOM     34  N   UNL A   1      40.313  28.567  29.908  1.00  0.00    -0.248 NA
ATOM     35  C   UNL A   1      39.067  28.625  27.936  1.00  0.00     0.031 C 
ATOM     36  C   UNL A   1      37.448  31.485  31.730  1.00  0.00     0.029 A 
ATOM     37  N   UNL A   1      39.359  30.364  32.036  1.00  0.00    -0.354 N 
ATOM     38  C   UNL A   1      40.924  27.754  28.959  1.00  0.00     0.074 A 
ATOM     39  C   UNL A   1      40.089  27.798  27.776  1.00  0.00     0.031 C 
ATOM     40  C   UNL A   1      37.937  31.840  32.928  1.00  0.00     0.029 A 
ATOM     41  C   UNL A   1      39.162  31.089  33.189  1.00  0.00     0.049 A 
ATOM     42  H   UNL A   1      40.141  29.786  31.891  1.00  0.00     0.167 HD
ATOM     43  C   UNL A   1      42.074  27.042  29.066  1.00  0.00     0.034 A 
ATOM     44  C   UNL A   1      39.867  31.120  34.339  1.00  0.00     0.034 A 
ATOM     45  C   UNL A   1      42.902  27.019  30.250  1.00  0.00     0.049 A 
ATOM     46  C   UNL A   1      41.099  30.258  34.461  1.00  0.00     0.074 A 
ATOM     47  C   UNL A   1      44.084  26.329  30.464  1.00  0.00     0.029 A 
ATOM     48  N   UNL A   1      42.636  27.716  31.422  1.00  0.00    -0.354 N 
ATOM     49  N   UNL A   1      41.638  29.457  33.572  1.00  0.00    -0.248 NA
ATOM     50  C   UNL A   1      41.812  30.302  35.744  1.00  0.00     0.031 C 
ATOM     51  C   UNL A   1      44.496  26.558  31.783  1.00  0.00     0.029 A 
ATOM     52  C   UNL A   1      43.613  27.450  32.370  1.00  0.00     0.049 A 
ATOM     53  H   UNL A   1      41.864  28.313  31.560  1.00  0.00     0.167 HD
ATOM     54  C   UNL A   1      42.768  28.918  34.184  1.00  0.00     0.074 A 
ATOM     55  C   UNL A   1      42.840  29.501  35.508  1.00  0.00     0.031 C 
ATOM     56  C   UNL A   1      43.665  28.025  33.695  1.00  0.00     0.034 A 
BRANCH  43  57
ATOM     57  C   UNL A   1      42.467  26.180  27.888  1.00  0.00     0.023 A 
ATOM     58  C   UNL A   1      41.949  24.887  27.702  1.00  0.00     0.031 A 
ATOM     59  C   UNL A   1      43.403  26.655  26.950  1.00  0.00     0.131 A 
ATOM     60  C   UNL A   1      42.422  24.088  26.648  1.00  0.00     0.055 A 
ATOM     61  C   UNL A   1      43.810  25.884  25.860  1.00  0.00     0.041 A 
ATOM     62  F   UNL A   1      43.949  27.873  27.087  1.00  0.00    -0.206 F 
ATOM     63  C   UNL A   1      43.330  24.587  25.711  1.00  0.00     0.022 A 
BRANCH  60  64
ATOM     64  S   UNL A   1      41.940  22.340  26.597  1.00  0.00     0.124 S 
ATOM     65  O   UNL A   1      42.513  21.839  27.844  1.00  0.00    -0.237 OA
ATOM     66  O   UNL A   1      40.485  22.414  26.546  1.00  0.00    -0.237 OA
ATOM     67  O   UNL A   1      42.582  21.842  25.382  1.00  0.00    -0.744 OA
ENDBRANCH  60  64
ENDBRANCH  43  57
BRANCH  44  68
ATOM     68  C   UNL A   1      39.400  31.946  35.490  1.00  0.00     0.023 A 
ATOM     69  C   UNL A   1      38.657  31.381  36.539  1.00  0.00     0.031 A 
ATOM     70  C   UNL A   1      39.650  33.330  35.531  1.00  0.00     0.131 A 
ATOM     71  C   UNL A   1      38.156  32.202  37.562  1.00  0.00     0.055 A 
ATOM     72  C   UNL A   1      39.199  34.132  36.579  1.00  0.00     0.041 A 
ATOM     73  F   UNL A   1      40.350  33.923  34.550  1.00  0.00    -0.206 F 
ATOM     74  C   UNL A   1      38.435  33.571  37.597  1.00  0.00     0.022 A 
BRANCH  71  75
ATOM     75  S   UNL A   1      37.059  31.471  38.808  1.00  0.00     0.124 S 
ATOM     76  O   UNL A   1      35.895  32.344  38.729  1.00  0.00    -0.237 OA
ATOM     77  O   UNL A   1      36.881  30.115  38.297  1.00  0.00    -0.237 OA
ATOM     78  O   UNL A   1      37.833  31.571  40.044  1.00  0.00    -0.744 OA
ENDBRANCH  71  75
ENDBRANCH  44  68
BRANCH  56  79
ATOM     79  C   UNL A   1      44.823  27.660  34.592  1.00  0.00     0.023 A 
ATOM     80  C   UNL A   1      44.730  26.620  35.534  1.00  0.00     0.031 A 
ATOM     81  C   UNL A   1      46.029  28.380  34.517  1.00  0.00     0.131 A 
ATOM     82  C   UNL A   1      45.803  26.366  36.403  1.00  0.00     0.055 A 
ATOM     83  C   UNL A   1      47.113  28.085  35.344  1.00  0.00     0.041 A 
ATOM     84  F   UNL A   1      46.172  29.384  33.638  1.00  0.00    -0.206 F 
ATOM     85  C   UNL A   1      47.000  27.082  36.303  1.00  0.00     0.022 A 
BRANCH  82  86
ATOM     86  S   UNL A   1      45.584  25.147  37.727  1.00  0.00     0.124 S 
ATOM     87  O   UNL A   1      44.147  25.220  37.973  1.00  0.00    -0.237 OA
ATOM     88  O   UNL A   1      46.063  23.918  37.104  1.00  0.00    -0.237 OA
ATOM     89  O   UNL A   1      46.424  25.659  38.809  1.00  0.00    -0.744 OA
ENDBRANCH  82  86
ENDBRANCH  56  79
ENDBRANCH  30  31
ENDBRANCH  23  25
ENDBRANCH  22  23
ENDBRANCH  21  22
ENDBRANCH   1  21
TORSDOF 19
ENDMDL
MODEL 2
REMARK VINA RESULT:     -10.6      5.299     10.303
REMARK SMILES CCOC(=O)NC(=O)COc1csc(C(=O)OCCOC(=O)c2ccc(-c3c4nc(c(-c5cc(S(=O)(=O)[O-])ccc5F)c5ccc([nH]5)c(-c5cc(S(=O)(=O)[O-])ccc5F)c5nc(c(-c6cc(S(=O)(=O)[O-])ccc6F)c6ccc3[nH]6)C=C5)C=C4)cc2)c1
REMARK SMILES IDX 18 1 17 2 15 3 16 4 14 5 11 6 12 7 86 8 13 9 10 10 9 11 7 12
REMARK SMILES IDX 4 13 5 14 6 15 8 17 3 18 2 19 1 20 19 21 20 22 21 23 22 24
REMARK SMILES IDX 23 25 24 26 85 27 25 28 84 29 26 30 27 31 28 32 78 33 29 34
REMARK SMILES IDX 83 35 77 36 79 37 30 38 82 39 76 40 75 41 31 43 63 44 43 45
REMARK SMILES IDX 62 46 44 47 47 48 61 49 80 50 45 51 46 52 60 54 81 55 48 56
REMARK SMILES IDX 32 57 33 58 41 59 34 60 40 61 42 62 39 63 35 64 36 65 37 66
REMARK SMILES IDX 38 67 64 68 65 69 73 70 66 71 72 72 74 73 71 74 67 75 68 76
REMARK SMILES IDX 69 77 70 78 49 79 50 80 58 81 51 82 57 83 59 84 56 85 52 86
REMARK SMILES IDX 53 87 54 88 55 89
REMARK H PARENT 6 16 79 42 47 53
REMARK Flexibility Score: inf
ROOT
ATOM      1  C   UNL A   1      35.089  20.700  25.006  1.00  0.00     0.275 C 
ENDROOT
BRANCH   1   2
ATOM      2  O   UNL A   1      34.791  22.105  25.111  1.00  0.00    -0.458 OA
BRANCH   2   3
ATOM      3  C   UNL A   1      34.078  22.475  26.220  1.00  0.00     0.348 C 
ATOM      4  O   UNL A   1      33.965  21.781  27.218  1.00  0.00    -0.245 OA
BRANCH   3   5
ATOM      5  C   UNL A   1      33.527  23.809  26.044  1.00  0.00     0.116 A 
ATOM      6  C   UNL A   1      33.226  26.099  25.668  1.00  0.00     0.131 A 
ATOM      7  C   UNL A   1      31.993  25.743  26.160  1.00  0.00     0.112 A 
ATOM      8  C   UNL A   1      34.115  24.983  25.608  1.00  0.00     0.074 A 
ATOM      9  S   UNL A   1      31.866  24.058  26.403  1.00  0.00    -0.133 S 
BRANCH   6  10
ATOM     10  O   UNL A   1      33.554  27.308  25.158  1.00  0.00    -0.483 OA
BRANCH  10  11
ATOM     11  C   UNL A   1      32.580  27.947  24.360  1.00  0.00     0.329 C 
BRANCH  11  12
ATOM     12  C   UNL A   1      32.874  28.707  23.056  1.00  0.00     0.267 C 
ATOM     13  C   UNL A   1      30.495  29.258  22.338  1.00  0.00     0.413 C 
ATOM     14  O   UNL A   1      29.835  29.851  21.493  1.00  0.00    -0.224 OA
ATOM     15  N   UNL A   1      31.869  29.235  22.277  1.00  0.00    -0.258 N 
ATOM     16  H   UNL A   1      32.217  29.709  21.488  1.00  0.00     0.176 HD
ATOM     17  O   UNL A   1      34.032  28.815  22.641  1.00  0.00    -0.271 OA
BRANCH  13  18
ATOM     18  O   UNL A   1      29.972  28.582  23.384  1.00  0.00    -0.450 OA
BRANCH  18  19
ATOM     19  C   UNL A   1      28.720  27.923  23.153  1.00  0.00     0.231 C 
ATOM     20  C   UNL A   1      28.632  26.623  23.935  1.00  0.00     0.049 C 
ENDBRANCH  18  19
ENDBRANCH  13  18
ENDBRANCH  11  12
ENDBRANCH  10  11
ENDBRANCH   6  10
ENDBRANCH   3   5
ENDBRANCH   2   3
ENDBRANCH   1   2
BRANCH   1  21
ATOM     21  C   UNL A   1      36.599  20.439  24.978  1.00  0.00     0.275 C 
BRANCH  21  22
ATOM     22  O   UNL A   1      37.342  21.471  25.655  1.00  0.00    -0.458 OA
BRANCH  22  23
ATOM     23  C   UNL A   1      38.629  21.156  25.937  1.00  0.00     0.338 C 
ATOM     24  O   UNL A   1      39.199  20.111  25.670  1.00  0.00    -0.246 OA
BRANCH  23  25
ATOM     25  C   UNL A   1      39.326  22.327  26.498  1.00  0.00     0.060 A 
ATOM     26  C   UNL A   1      38.913  23.584  26.058  1.00  0.00     0.016 A 
ATOM     27  C   UNL A   1      40.420  22.208  27.354  1.00  0.00     0.016 A 
ATOM     28  C   UNL A   1      39.586  24.732  26.463  1.00  0.00     0.010 A 
ATOM     29  C   UNL A   1      41.095  23.367  27.770  1.00  0.00     0.010 A 
ATOM     30  C   UNL A   1      40.689  24.639  27.319  1.00  0.00    -0.014 A 
BRANCH  30  31
ATOM     31  C   UNL A   1      41.440  25.872  27.679  1.00  0.00     0.031 A 
ATOM     32  C   UNL A   1      40.775  26.947  28.494  1.00  0.00     0.074 A 
ATOM     33  C   UNL A   1      42.734  26.001  27.328  1.00  0.00     0.049 A 
ATOM     34  N   UNL A   1      41.230  28.120  28.852  1.00  0.00    -0.248 NA
ATOM     35  C   UNL A   1      39.413  26.660  28.967  1.00  0.00     0.031 C 
ATOM     36  C   UNL A   1      43.512  25.000  26.594  1.00  0.00     0.029 A 
ATOM     37  N   UNL A   1      43.629  27.019  27.548  1.00  0.00    -0.354 N 
ATOM     38  C   UNL A   1      40.205  28.725  29.573  1.00  0.00     0.074 A 
ATOM     39  C   UNL A   1      39.096  27.793  29.578  1.00  0.00     0.031 C 
ATOM     40  C   UNL A   1      44.769  25.446  26.443  1.00  0.00     0.029 A 
ATOM     41  C   UNL A   1      44.874  26.789  27.009  1.00  0.00     0.049 A 
ATOM     42  H   UNL A   1      43.401  27.838  28.045  1.00  0.00     0.167 HD
ATOM     43  C   UNL A   1      40.195  29.940  30.177  1.00  0.00     0.034 A 
ATOM     44  C   UNL A   1      45.965  27.579  26.946  1.00  0.00     0.034 A 
ATOM     45  C   UNL A   1      41.315  30.852  30.173  1.00  0.00     0.049 A 
ATOM     46  C   UNL A   1      45.902  28.957  27.556  1.00  0.00     0.074 A 
ATOM     47  C   UNL A   1      41.408  32.108  30.751  1.00  0.00     0.029 A 
ATOM     48  N   UNL A   1      42.539  30.610  29.561  1.00  0.00    -0.354 N 
ATOM     49  N   UNL A   1      44.910  29.534  28.194  1.00  0.00    -0.248 NA
ATOM     50  C   UNL A   1      47.104  29.791  27.432  1.00  0.00     0.031 C 
ATOM     51  C   UNL A   1      42.661  32.647  30.434  1.00  0.00     0.029 A 
ATOM     52  C   UNL A   1      43.379  31.701  29.722  1.00  0.00     0.049 A 
ATOM     53  H   UNL A   1      42.775  29.782  29.082  1.00  0.00     0.167 HD
ATOM     54  C   UNL A   1      45.379  30.792  28.565  1.00  0.00     0.074 A 
ATOM     55  C   UNL A   1      46.747  30.880  28.097  1.00  0.00     0.031 C 
ATOM     56  C   UNL A   1      44.737  31.784  29.235  1.00  0.00     0.034 A 
BRANCH  43  57
ATOM     57  C   UNL A   1      38.906  30.374  30.837  1.00  0.00     0.023 A 
ATOM     58  C   UNL A   1      37.983  31.215  30.192  1.00  0.00     0.031 A 
ATOM     59  C   UNL A   1      38.614  29.960  32.150  1.00  0.00     0.131 A 
ATOM     60  C   UNL A   1      36.849  31.672  30.885  1.00  0.00     0.055 A 
ATOM     61  C   UNL A   1      37.446  30.356  32.805  1.00  0.00     0.041 A 
ATOM     62  F   UNL A   1      39.468  29.175  32.824  1.00  0.00    -0.206 F 
ATOM     63  C   UNL A   1      36.562  31.227  32.178  1.00  0.00     0.022 A 
BRANCH  60  64
ATOM     64  S   UNL A   1      35.827  32.963  30.126  1.00  0.00     0.124 S 
ATOM     65  O   UNL A   1      34.597  32.231  29.833  1.00  0.00    -0.237 OA
ATOM     66  O   UNL A   1      35.740  33.962  31.184  1.00  0.00    -0.237 OA
ATOM     67  O   UNL A   1      36.597  33.364  28.950  1.00  0.00    -0.744 OA
ENDBRANCH  60  64
ENDBRANCH  43  57
BRANCH  44  68
ATOM     68  C   UNL A   1      47.191  27.120  26.231  1.00  0.00     0.023 A 
ATOM     69  C   UNL A   1      48.205  26.418  26.901  1.00  0.00     0.031 A 
ATOM     70  C   UNL A   1      47.388  27.424  24.872  1.00  0.00     0.131 A 
ATOM     71  C   UNL A   1      49.387  26.078  26.221  1.00  0.00     0.055 A 
ATOM     72  C   UNL A   1      48.539  27.036  24.186  1.00  0.00     0.041 A 
ATOM     73  F   UNL A   1      46.453  28.101  24.185  1.00  0.00    -0.206 F 
ATOM     74  C   UNL A   1      49.553  26.369  24.865  1.00  0.00     0.022 A 
BRANCH  71  75
ATOM     75  S   UNL A   1      50.745  25.323  27.158  1.00  0.00     0.124 S 
ATOM     76  O   UNL A   1      50.052  24.271  27.891  1.00  0.00    -0.237 OA
ATOM     77  O   UNL A   1      51.639  24.880  26.093  1.00  0.00    -0.237 OA
ATOM     78  O   UNL A   1      51.249  26.426  27.974  1.00  0.00    -0.744 OA
ENDBRANCH  71  75
ENDBRANCH  44  68
BRANCH  56  79
ATOM     79  C   UNL A   1      45.533  33.032  29.530  1.00  0.00     0.023 A 
ATOM     80  C   UNL A   1      45.528  34.136  28.660  1.00  0.00     0.031 A 
ATOM     81  C   UNL A   1      46.325  33.107  30.691  1.00  0.00     0.131 A 
ATOM     82  C   UNL A   1      46.345  35.245  28.933  1.00  0.00     0.055 A 
ATOM     83  C   UNL A   1      47.089  34.236  30.987  1.00  0.00     0.041 A 
ATOM     84  F   UNL A   1      46.368  32.081  31.555  1.00  0.00    -0.206 F 
ATOM     85  C   UNL A   1      47.113  35.308  30.099  1.00  0.00     0.022 A 
BRANCH  82  86
ATOM     86  S   UNL A   1      46.459  36.570  27.700  1.00  0.00     0.124 S 
ATOM     87  O   UNL A   1      45.603  36.064  26.631  1.00  0.00    -0.237 OA
ATOM     88  O   UNL A   1      45.950  37.725  28.432  1.00  0.00    -0.237 OA
ATOM     89  O   UNL A   1      47.885  36.620  27.380  1.00  0.00    -0.744 OA
ENDBRANCH  82  86
ENDBRANCH  56  79
ENDBRANCH  30  31
ENDBRANCH  23  25
ENDBRANCH  22  23
ENDBRANCH  21  22
ENDBRANCH   1  21
TORSDOF 19
ENDMDL
MODEL 3
REMARK VINA RESULT:     -10.6      5.238     10.613
REMARK SMILES CCOC(=O)NC(=O)COc1csc(C(=O)OCCOC(=O)c2ccc(-c3c4nc(c(-c5cc(S(=O)(=O)[O-])ccc5F)c5ccc([nH]5)c(-c5cc(S(=O)(=O)[O-])ccc5F)c5nc(c(-c6cc(S(=O)(=O)[O-])ccc6F)c6ccc3[nH]6)C=C5)C=C4)cc2)c1
REMARK SMILES IDX 18 1 17 2 15 3 16 4 14 5 11 6 12 7 86 8 13 9 10 10 9 11 7 12
REMARK SMILES IDX 4 13 5 14 6 15 8 17 3 18 2 19 1 20 19 21 20 22 21 23 22 24
REMARK SMILES IDX 23 25 24 26 85 27 25 28 84 29 26 30 27 31 28 32 78 33 29 34
REMARK SMILES IDX 83 35 77 36 79 37 30 38 82 39 76 40 75 41 31 43 63 44 43 45
REMARK SMILES IDX 62 46 44 47 47 48 61 49 80 50 45 51 46 52 60 54 81 55 48 56
REMARK SMILES IDX 32 57 33 58 41 59 34 60 40 61 42 62 39 63 35 64 36 65 37 66
REMARK SMILES IDX 38 67 64 68 65 69 73 70 66 71 72 72 74 73 71 74 67 75 68 76
REMARK SMILES IDX 69 77 70 78 49 79 50 80 58 81 51 82 57 83 59 84 56 85 52 86
REMARK SMILES IDX 53 87 54 88 55 89
REMARK H PARENT 6 16 79 42 47 53
REMARK Flexibility Score: inf
ROOT
ATOM      1  C   UNL A   1      34.804  20.627  25.028  1.00  0.00     0.275 C 
ENDROOT
BRANCH   1   2
ATOM      2  O   UNL A   1      34.549  22.035  25.194  1.00  0.00    -0.458 OA
BRANCH   2   3
ATOM      3  C   UNL A   1      33.259  22.432  24.970  1.00  0.00     0.348 C 
ATOM      4  O   UNL A   1      32.286  21.717  25.155  1.00  0.00    -0.245 OA
BRANCH   3   5
ATOM      5  C   UNL A   1      33.224  23.817  24.532  1.00  0.00     0.116 A 
ATOM      6  C   UNL A   1      32.830  25.814  23.377  1.00  0.00     0.131 A 
ATOM      7  C   UNL A   1      33.816  26.201  24.252  1.00  0.00     0.112 A 
ATOM      8  C   UNL A   1      32.493  24.435  23.533  1.00  0.00     0.074 A 
ATOM      9  S   UNL A   1      34.221  24.955  25.347  1.00  0.00    -0.133 S 
BRANCH   6  10
ATOM     10  O   UNL A   1      32.136  26.635  22.555  1.00  0.00    -0.483 OA
BRANCH  10  11
ATOM     11  C   UNL A   1      32.178  28.015  22.851  1.00  0.00     0.329 C 
BRANCH  11  12
ATOM     12  C   UNL A   1      30.954  28.946  22.873  1.00  0.00     0.267 C 
ATOM     13  C   UNL A   1      31.404  30.192  25.046  1.00  0.00     0.413 C 
ATOM     14  O   UNL A   1      30.992  31.094  25.766  1.00  0.00    -0.224 OA
ATOM     15  N   UNL A   1      30.747  29.854  23.886  1.00  0.00    -0.258 N 
ATOM     16  H   UNL A   1      29.933  30.391  23.746  1.00  0.00     0.176 HD
ATOM     17  O   UNL A   1      30.087  28.860  21.997  1.00  0.00    -0.271 OA
BRANCH  13  18
ATOM     18  O   UNL A   1      32.504  29.451  25.298  1.00  0.00    -0.450 OA
BRANCH  18  19
ATOM     19  C   UNL A   1      33.377  29.939  26.327  1.00  0.00     0.231 C 
ATOM     20  C   UNL A   1      34.372  28.873  26.752  1.00  0.00     0.049 C 
ENDBRANCH  18  19
ENDBRANCH  13  18
ENDBRANCH  11  12
ENDBRANCH  10  11
ENDBRANCH   6  10
ENDBRANCH   3   5
ENDBRANCH   2   3
ENDBRANCH   1   2
BRANCH   1  21
ATOM     21  C   UNL A   1      36.305  20.320  25.001  1.00  0.00     0.275 C 
BRANCH  21  22
ATOM     22  O   UNL A   1      37.091  21.389  25.564  1.00  0.00    -0.458 OA
BRANCH  22  23
ATOM     23  C   UNL A   1      38.401  21.099  25.746  1.00  0.00     0.338 C 
ATOM     24  O   UNL A   1      38.974  20.074  25.415  1.00  0.00    -0.246 OA
BRANCH  23  25
ATOM     25  C   UNL A   1      39.109  22.274  26.283  1.00  0.00     0.060 A 
ATOM     26  C   UNL A   1      38.583  23.528  25.978  1.00  0.00     0.016 A 
ATOM     27  C   UNL A   1      40.311  22.169  26.983  1.00  0.00     0.016 A 
ATOM     28  C   UNL A   1      39.248  24.688  26.363  1.00  0.00     0.010 A 
ATOM     29  C   UNL A   1      40.980  23.339  27.379  1.00  0.00     0.010 A 
ATOM     30  C   UNL A   1      40.458  24.609  27.062  1.00  0.00    -0.014 A 
BRANCH  30  31
ATOM     31  C   UNL A   1      41.190  25.860  27.397  1.00  0.00     0.031 A 
ATOM     32  C   UNL A   1      40.542  26.901  28.269  1.00  0.00     0.074 A 
ATOM     33  C   UNL A   1      42.456  26.036  26.971  1.00  0.00     0.049 A 
ATOM     34  N   UNL A   1      40.981  28.083  28.618  1.00  0.00    -0.248 NA
ATOM     35  C   UNL A   1      39.221  26.564  28.817  1.00  0.00     0.031 C 
ATOM     36  C   UNL A   1      43.219  25.071  26.176  1.00  0.00     0.029 A 
ATOM     37  N   UNL A   1      43.330  27.079  27.155  1.00  0.00    -0.354 N 
ATOM     38  C   UNL A   1      39.983  28.643  29.409  1.00  0.00     0.074 A 
ATOM     39  C   UNL A   1      38.906  27.677  29.464  1.00  0.00     0.031 C 
ATOM     40  C   UNL A   1      44.450  25.560  25.958  1.00  0.00     0.029 A 
ATOM     41  C   UNL A   1      44.547  26.897  26.538  1.00  0.00     0.049 A 
ATOM     42  H   UNL A   1      43.108  27.882  27.679  1.00  0.00     0.167 HD
ATOM     43  C   UNL A   1      39.971  29.849  30.033  1.00  0.00     0.034 A 
ATOM     44  C   UNL A   1      45.607  27.723  26.424  1.00  0.00     0.034 A 
ATOM     45  C   UNL A   1      41.060  30.797  29.978  1.00  0.00     0.049 A 
ATOM     46  C   UNL A   1      45.538  29.089  27.059  1.00  0.00     0.074 A 
ATOM     47  C   UNL A   1      41.149  32.045  30.570  1.00  0.00     0.029 A 
ATOM     48  N   UNL A   1      42.252  30.602  29.290  1.00  0.00    -0.354 N 
ATOM     49  N   UNL A   1      44.569  29.624  27.765  1.00  0.00    -0.248 NA
ATOM     50  C   UNL A   1      46.703  29.963  26.878  1.00  0.00     0.031 C 
ATOM     51  C   UNL A   1      42.363  32.630  30.187  1.00  0.00     0.029 A 
ATOM     52  C   UNL A   1      43.066  31.718  29.419  1.00  0.00     0.049 A 
ATOM     53  H   UNL A   1      42.484  29.790  28.783  1.00  0.00     0.167 HD
ATOM     54  C   UNL A   1      45.019  30.891  28.129  1.00  0.00     0.074 A 
ATOM     55  C   UNL A   1      46.353  31.029  27.581  1.00  0.00     0.031 C 
ATOM     56  C   UNL A   1      44.389  31.851  28.852  1.00  0.00     0.034 A 
BRANCH  43  57
ATOM     57  C   UNL A   1      38.712  30.231  30.776  1.00  0.00     0.023 A 
ATOM     58  C   UNL A   1      37.673  30.954  30.164  1.00  0.00     0.031 A 
ATOM     59  C   UNL A   1      38.564  29.889  32.133  1.00  0.00     0.131 A 
ATOM     60  C   UNL A   1      36.569  31.373  30.924  1.00  0.00     0.055 A 
ATOM     61  C   UNL A   1      37.428  30.242  32.863  1.00  0.00     0.041 A 
ATOM     62  F   UNL A   1      39.532  29.218  32.777  1.00  0.00    -0.206 F 
ATOM     63  C   UNL A   1      36.428  31.000  32.263  1.00  0.00     0.022 A 
BRANCH  60  64
ATOM     64  S   UNL A   1      35.387  32.530  30.179  1.00  0.00     0.124 S 
ATOM     65  O   UNL A   1      34.395  32.665  31.243  1.00  0.00    -0.237 OA
ATOM     66  O   UNL A   1      36.212  33.704  29.921  1.00  0.00    -0.237 OA
ATOM     67  O   UNL A   1      34.919  31.822  28.989  1.00  0.00    -0.744 OA
ENDBRANCH  60  64
ENDBRANCH  43  57
BRANCH  44  68
ATOM     68  C   UNL A   1      46.802  27.314  25.630  1.00  0.00     0.023 A 
ATOM     69  C   UNL A   1      47.003  27.783  24.322  1.00  0.00     0.031 A 
ATOM     70  C   UNL A   1      47.738  26.404  26.154  1.00  0.00     0.131 A 
ATOM     71  C   UNL A   1      48.091  27.310  23.569  1.00  0.00     0.055 A 
ATOM     72  C   UNL A   1      48.847  25.981  25.423  1.00  0.00     0.041 A 
ATOM     73  F   UNL A   1      47.589  25.919  27.398  1.00  0.00    -0.206 F 
ATOM     74  C   UNL A   1      49.021  26.424  24.116  1.00  0.00     0.022 A 
BRANCH  71  75
ATOM     75  S   UNL A   1      48.226  27.803  21.828  1.00  0.00     0.124 S 
ATOM     76  O   UNL A   1      48.278  26.511  21.156  1.00  0.00    -0.237 OA
ATOM     77  O   UNL A   1      47.003  28.577  21.636  1.00  0.00    -0.237 OA
ATOM     78  O   UNL A   1      49.464  28.579  21.790  1.00  0.00    -0.744 OA
ENDBRANCH  71  75
ENDBRANCH  44  68
BRANCH  56  79
ATOM     79  C   UNL A   1      45.161  33.120  29.121  1.00  0.00     0.023 A 
ATOM     80  C   UNL A   1      45.133  34.207  28.230  1.00  0.00     0.031 A 
ATOM     81  C   UNL A   1      45.956  33.232  30.276  1.00  0.00     0.131 A 
ATOM     82  C   UNL A   1      45.928  35.337  28.479  1.00  0.00     0.055 A 
ATOM     83  C   UNL A   1      46.700  34.381  30.547  1.00  0.00     0.041 A 
ATOM     84  F   UNL A   1      46.023  32.223  31.159  1.00  0.00    -0.206 F 
ATOM     85  C   UNL A   1      46.700  35.436  29.640  1.00  0.00     0.022 A 
BRANCH  82  86
ATOM     86  S   UNL A   1      46.012  36.639  27.220  1.00  0.00     0.124 S 
ATOM     87  O   UNL A   1      45.713  35.900  25.997  1.00  0.00    -0.237 OA
ATOM     88  O   UNL A   1      44.986  37.575  27.668  1.00  0.00    -0.237 OA
ATOM     89  O   UNL A   1      47.385  37.131  27.325  1.00  0.00    -0.744 OA
ENDBRANCH  82  86
ENDBRANCH  56  79
ENDBRANCH  30  31
ENDBRANCH  23  25
ENDBRANCH  22  23
ENDBRANCH  21  22
ENDBRANCH   1  21
TORSDOF 19
ENDMDL
