MODEL 1
REMARK VINA RESULT:     -12.8      0.000      0.000
REMARK SMILES C[C@H](C(=O)OCCOC(=O)c1ccc(-c2c3nc(c(-c4cc(S(=O)(=O)[O-])ccc4F)c4ccc([nH]4)c(-c4cc(S(=O)(=O)[O-])ccc4F)c4nc(c(-c5cc(S(=O)(=O)[O-])ccc5F)c5ccc2[nH]5)C=C4)C=C3)cc1)c1ccc2c3cc(Cl)ccc3n(C(=O)c3cocn3)c2c1
REMARK SMILES IDX 6 1 5 2 3 3 4 4 2 5 1 6 74 7 75 8 94 9 76 10 93 11 77 12
REMARK SMILES IDX 85 13 78 14 84 15 79 16 83 17 80 18 82 19 81 20 86 21 87 22
REMARK SMILES IDX 88 23 89 24 92 25 90 26 91 27 7 28 8 29 9 30 10 31 11 32
REMARK SMILES IDX 12 33 73 34 13 35 72 36 14 37 15 38 16 39 66 40 17 41 71 42
REMARK SMILES IDX 65 43 67 44 18 45 70 46 64 47 63 48 19 50 51 51 31 52 50 53
REMARK SMILES IDX 32 54 35 55 49 56 68 57 33 58 34 59 48 61 69 62 36 63 20 64
REMARK SMILES IDX 21 65 29 66 22 67 28 68 30 69 27 70 23 71 24 72 25 73 26 74
REMARK SMILES IDX 52 75 53 76 61 77 54 78 60 79 62 80 59 81 55 82 56 83 57 84
REMARK SMILES IDX 58 85 37 86 38 87 46 88 39 89 45 90 47 91 44 92 40 93 41 94
REMARK SMILES IDX 42 95 43 96
REMARK H PARENT 67 49 35 60
REMARK Flexibility Score: inf
ROOT
ATOM      1  C   UNL A   1      31.381  29.340  24.093  1.00  0.00     0.274 C 
ENDROOT
BRANCH   1   2
ATOM      2  O   UNL A   1      30.196  28.526  24.045  1.00  0.00    -0.462 OA
BRANCH   2   3
ATOM      3  C   UNL A   1      30.425  27.189  23.916  1.00  0.00     0.313 C 
ATOM      4  O   UNL A   1      30.346  26.578  22.855  1.00  0.00    -0.252 OA
BRANCH   3   5
ATOM      5  C   UNL A   1      30.773  26.513  25.241  1.00  0.00     0.126 C 
ATOM      6  C   UNL A   1      29.664  25.590  25.753  1.00  0.00     0.025 C 
BRANCH   5   7
ATOM      7  C   UNL A   1      32.117  25.816  25.232  1.00  0.00    -0.032 A 
ATOM      8  C   UNL A   1      33.269  26.556  25.515  1.00  0.00     0.005 A 
ATOM      9  C   UNL A   1      32.229  24.456  24.918  1.00  0.00     0.032 A 
ATOM     10  C   UNL A   1      34.511  25.934  25.625  1.00  0.00     0.011 A 
ATOM     11  C   UNL A   1      33.498  23.862  24.921  1.00  0.00     0.058 A 
ATOM     12  C   UNL A   1      34.613  24.556  25.363  1.00  0.00     0.008 A 
ATOM     13  N   UNL A   1      33.894  22.583  24.524  1.00  0.00    -0.274 N 
ATOM     14  C   UNL A   1      35.669  23.618  25.459  1.00  0.00     0.009 A 
ATOM     15  C   UNL A   1      35.238  22.416  24.878  1.00  0.00     0.057 A 
ATOM     16  C   UNL A   1      36.978  23.735  25.969  1.00  0.00     0.031 A 
ATOM     17  C   UNL A   1      36.156  21.370  24.662  1.00  0.00     0.029 A 
ATOM     18  C   UNL A   1      37.858  22.672  25.819  1.00  0.00     0.041 A 
ATOM     19  C   UNL A   1      37.465  21.520  25.147  1.00  0.00     0.023 A 
ATOM     20  Cl  UNL A   1      39.456  22.806  26.445  1.00  0.00    -0.084 Cl
BRANCH  13  21
ATOM     21  C   UNL A   1      33.031  21.702  23.817  1.00  0.00     0.284 C 
ATOM     22  O   UNL A   1      32.412  22.202  22.884  1.00  0.00    -0.266 OA
BRANCH  21  23
ATOM     23  C   UNL A   1      32.776  20.306  24.161  1.00  0.00     0.167 A 
ATOM     24  C   UNL A   1      32.587  19.721  25.392  1.00  0.00     0.231 A 
ATOM     25  N   UNL A   1      32.507  19.354  23.180  1.00  0.00    -0.211 NA
ATOM     26  O   UNL A   1      32.207  18.422  25.203  1.00  0.00    -0.451 OA
ATOM     27  C   UNL A   1      32.166  18.283  23.851  1.00  0.00     0.308 A 
ENDBRANCH  21  23
ENDBRANCH  13  21
ENDBRANCH   5   7
ENDBRANCH   3   5
ENDBRANCH   2   3
ENDBRANCH   1   2
BRANCH   1  28
ATOM     28  C   UNL A   1      31.434  30.094  25.422  1.00  0.00     0.275 C 
BRANCH  28  29
ATOM     29  O   UNL A   1      32.774  30.052  25.954  1.00  0.00    -0.458 OA
BRANCH  29  30
ATOM     30  C   UNL A   1      33.084  31.028  26.841  1.00  0.00     0.338 C 
ATOM     31  O   UNL A   1      32.345  31.929  27.212  1.00  0.00    -0.246 OA
BRANCH  30  32
ATOM     32  C   UNL A   1      34.444  30.840  27.400  1.00  0.00     0.060 A 
ATOM     33  C   UNL A   1      34.920  29.577  27.746  1.00  0.00     0.016 A 
ATOM     34  C   UNL A   1      35.200  31.962  27.733  1.00  0.00     0.016 A 
ATOM     35  C   UNL A   1      36.055  29.442  28.545  1.00  0.00     0.010 A 
ATOM     36  C   UNL A   1      36.431  31.808  28.383  1.00  0.00     0.010 A 
ATOM     37  C   UNL A   1      36.866  30.548  28.829  1.00  0.00    -0.014 A 
BRANCH  37  38
ATOM     38  C   UNL A   1      38.174  30.401  29.543  1.00  0.00     0.031 A 
ATOM     39  C   UNL A   1      39.286  29.576  28.941  1.00  0.00     0.074 A 
ATOM     40  C   UNL A   1      38.352  30.951  30.765  1.00  0.00     0.049 A 
ATOM     41  N   UNL A   1      40.348  29.067  29.513  1.00  0.00    -0.248 NA
ATOM     42  C   UNL A   1      39.168  29.256  27.510  1.00  0.00     0.031 C 
ATOM     43  C   UNL A   1      37.400  31.820  31.461  1.00  0.00     0.029 A 
ATOM     44  N   UNL A   1      39.396  30.844  31.654  1.00  0.00    -0.354 N 
ATOM     45  C   UNL A   1      40.988  28.310  28.534  1.00  0.00     0.074 A 
ATOM     46  C   UNL A   1      40.183  28.421  27.335  1.00  0.00     0.031 C 
ATOM     47  C   UNL A   1      37.912  32.192  32.641  1.00  0.00     0.029 A 
ATOM     48  C   UNL A   1      39.164  31.484  32.852  1.00  0.00     0.049 A 
ATOM     49  H   UNL A   1      40.229  30.358  31.454  1.00  0.00     0.167 HD
ATOM     50  C   UNL A   1      42.131  27.587  28.635  1.00  0.00     0.034 A 
ATOM     51  C   UNL A   1      39.831  31.452  34.023  1.00  0.00     0.034 A 
ATOM     52  C   UNL A   1      42.941  27.527  29.831  1.00  0.00     0.049 A 
ATOM     53  C   UNL A   1      41.055  30.587  34.135  1.00  0.00     0.074 A 
ATOM     54  C   UNL A   1      44.134  26.852  30.033  1.00  0.00     0.029 A 
ATOM     55  N   UNL A   1      42.645  28.167  31.029  1.00  0.00    -0.354 N 
ATOM     56  N   UNL A   1      41.616  29.827  33.223  1.00  0.00    -0.248 NA
ATOM     57  C   UNL A   1      41.729  30.565  35.439  1.00  0.00     0.031 C 
ATOM     58  C   UNL A   1      44.517  27.022  31.367  1.00  0.00     0.029 A 
ATOM     59  C   UNL A   1      43.614  27.876  31.979  1.00  0.00     0.049 A 
ATOM     60  H   UNL A   1      41.861  28.745  31.181  1.00  0.00     0.167 HD
ATOM     61  C   UNL A   1      42.729  29.261  33.838  1.00  0.00     0.074 A 
ATOM     62  C   UNL A   1      42.767  29.780  35.189  1.00  0.00     0.031 C 
ATOM     63  C   UNL A   1      43.639  28.393  33.327  1.00  0.00     0.034 A 
BRANCH  50  64
ATOM     64  C   UNL A   1      42.546  26.749  27.444  1.00  0.00     0.023 A 
ATOM     65  C   UNL A   1      42.481  25.345  27.452  1.00  0.00     0.031 A 
ATOM     66  C   UNL A   1      43.029  27.374  26.278  1.00  0.00     0.131 A 
ATOM     67  C   UNL A   1      42.959  24.615  26.351  1.00  0.00     0.055 A 
ATOM     68  C   UNL A   1      43.421  26.645  25.155  1.00  0.00     0.041 A 
ATOM     69  F   UNL A   1      43.134  28.711  26.214  1.00  0.00    -0.206 F 
ATOM     70  C   UNL A   1      43.402  25.256  25.191  1.00  0.00     0.022 A 
BRANCH  67  71
ATOM     71  S   UNL A   1      43.129  22.816  26.512  1.00  0.00     0.124 S 
ATOM     72  O   UNL A   1      42.593  22.352  25.235  1.00  0.00    -0.237 OA
ATOM     73  O   UNL A   1      44.565  22.649  26.700  1.00  0.00    -0.237 OA
ATOM     74  O   UNL A   1      42.306  22.496  27.678  1.00  0.00    -0.744 OA
ENDBRANCH  67  71
ENDBRANCH  50  64
BRANCH  51  75
ATOM     75  C   UNL A   1      39.315  32.203  35.206  1.00  0.00     0.023 A 
ATOM     76  C   UNL A   1      39.721  33.524  35.451  1.00  0.00     0.031 A 
ATOM     77  C   UNL A   1      38.438  31.603  36.128  1.00  0.00     0.131 A 
ATOM     78  C   UNL A   1      39.288  34.184  36.609  1.00  0.00     0.055 A 
ATOM     79  C   UNL A   1      37.954  32.290  37.243  1.00  0.00     0.041 A 
ATOM     80  F   UNL A   1      38.019  30.340  35.947  1.00  0.00    -0.206 F 
ATOM     81  C   UNL A   1      38.390  33.584  37.497  1.00  0.00     0.022 A 
BRANCH  78  82
ATOM     82  S   UNL A   1      39.995  35.809  36.993  1.00  0.00     0.124 S 
ATOM     83  O   UNL A   1      39.618  36.581  35.814  1.00  0.00    -0.237 OA
ATOM     84  O   UNL A   1      39.309  36.154  38.233  1.00  0.00    -0.237 OA
ATOM     85  O   UNL A   1      41.424  35.535  37.129  1.00  0.00    -0.744 OA
ENDBRANCH  78  82
ENDBRANCH  51  75
BRANCH  63  86
ATOM     86  C   UNL A   1      44.788  28.004  34.226  1.00  0.00     0.023 A 
ATOM     87  C   UNL A   1      44.746  26.854  35.033  1.00  0.00     0.031 A 
ATOM     88  C   UNL A   1      45.933  28.818  34.293  1.00  0.00     0.131 A 
ATOM     89  C   UNL A   1      45.800  26.583  35.918  1.00  0.00     0.055 A 
ATOM     90  C   UNL A   1      47.009  28.506  35.125  1.00  0.00     0.041 A 
ATOM     91  F   UNL A   1      46.025  29.932  33.551  1.00  0.00    -0.206 F 
ATOM     92  C   UNL A   1      46.940  27.391  35.956  1.00  0.00     0.022 A 
BRANCH  89  93
ATOM     93  S   UNL A   1      45.617  25.218  37.099  1.00  0.00     0.124 S 
ATOM     94  O   UNL A   1      46.973  25.086  37.622  1.00  0.00    -0.237 OA
ATOM     95  O   UNL A   1      44.622  25.742  38.030  1.00  0.00    -0.237 OA
ATOM     96  O   UNL A   1      45.162  24.104  36.269  1.00  0.00    -0.744 OA
ENDBRANCH  89  93
ENDBRANCH  63  86
ENDBRANCH  37  38
ENDBRANCH  30  32
ENDBRANCH  29  30
ENDBRANCH  28  29
ENDBRANCH   1  28
TORSDOF 17
ENDMDL
MODEL 2
REMARK VINA RESULT:     -12.7      5.109     10.329
REMARK SMILES C[C@H](C(=O)OCCOC(=O)c1ccc(-c2c3nc(c(-c4cc(S(=O)(=O)[O-])ccc4F)c4ccc([nH]4)c(-c4cc(S(=O)(=O)[O-])ccc4F)c4nc(c(-c5cc(S(=O)(=O)[O-])ccc5F)c5ccc2[nH]5)C=C4)C=C3)cc1)c1ccc2c3cc(Cl)ccc3n(C(=O)c3cocn3)c2c1
REMARK SMILES IDX 6 1 5 2 3 3 4 4 2 5 1 6 74 7 75 8 94 9 76 10 93 11 77 12
REMARK SMILES IDX 85 13 78 14 84 15 79 16 83 17 80 18 82 19 81 20 86 21 87 22
REMARK SMILES IDX 88 23 89 24 92 25 90 26 91 27 7 28 8 29 9 30 10 31 11 32
REMARK SMILES IDX 12 33 73 34 13 35 72 36 14 37 15 38 16 39 66 40 17 41 71 42
REMARK SMILES IDX 65 43 67 44 18 45 70 46 64 47 63 48 19 50 51 51 31 52 50 53
REMARK SMILES IDX 32 54 35 55 49 56 68 57 33 58 34 59 48 61 69 62 36 63 20 64
REMARK SMILES IDX 21 65 29 66 22 67 28 68 30 69 27 70 23 71 24 72 25 73 26 74
REMARK SMILES IDX 52 75 53 76 61 77 54 78 60 79 62 80 59 81 55 82 56 83 57 84
REMARK SMILES IDX 58 85 37 86 38 87 46 88 39 89 45 90 47 91 44 92 40 93 41 94
REMARK SMILES IDX 42 95 43 96
REMARK H PARENT 67 49 35 60
REMARK Flexibility Score: inf
ROOT
ATOM      1  C   UNL A   1      34.834  21.812  26.516  1.00  0.00     0.274 C 
ENDROOT
BRANCH   1   2
ATOM      2  O   UNL A   1      34.741  23.194  26.124  1.00  0.00    -0.462 OA
BRANCH   2   3
ATOM      3  C   UNL A   1      33.686  23.488  25.313  1.00  0.00     0.313 C 
ATOM      4  O   UNL A   1      32.519  23.226  25.582  1.00  0.00    -0.252 OA
BRANCH   3   5
ATOM      5  C   UNL A   1      34.107  24.164  24.010  1.00  0.00     0.126 C 
ATOM      6  C   UNL A   1      34.181  23.195  22.827  1.00  0.00     0.025 C 
BRANCH   5   7
ATOM      7  C   UNL A   1      33.288  25.392  23.671  1.00  0.00    -0.032 A 
ATOM      8  C   UNL A   1      33.006  25.673  22.330  1.00  0.00     0.005 A 
ATOM      9  C   UNL A   1      32.835  26.263  24.669  1.00  0.00     0.032 A 
ATOM     10  C   UNL A   1      32.167  26.728  21.981  1.00  0.00     0.011 A 
ATOM     11  C   UNL A   1      32.085  27.387  24.299  1.00  0.00     0.058 A 
ATOM     12  C   UNL A   1      31.667  27.571  22.990  1.00  0.00     0.008 A 
ATOM     13  N   UNL A   1      31.634  28.461  25.069  1.00  0.00    -0.274 N 
ATOM     14  C   UNL A   1      30.752  28.650  22.999  1.00  0.00     0.009 A 
ATOM     15  C   UNL A   1      30.785  29.239  24.273  1.00  0.00     0.057 A 
ATOM     16  C   UNL A   1      29.931  29.186  21.987  1.00  0.00     0.031 A 
ATOM     17  C   UNL A   1      30.115  30.456  24.503  1.00  0.00     0.029 A 
ATOM     18  C   UNL A   1      29.214  30.347  22.244  1.00  0.00     0.041 A 
ATOM     19  C   UNL A   1      29.330  30.991  23.469  1.00  0.00     0.023 A 
ATOM     20  Cl  UNL A   1      28.203  31.003  21.013  1.00  0.00    -0.084 Cl
BRANCH  13  21
ATOM     21  C   UNL A   1      32.079  28.686  26.400  1.00  0.00     0.284 C 
ATOM     22  O   UNL A   1      31.455  28.094  27.274  1.00  0.00    -0.266 OA
BRANCH  21  23
ATOM     23  C   UNL A   1      33.144  29.604  26.797  1.00  0.00     0.167 A 
ATOM     24  C   UNL A   1      33.087  30.950  27.080  1.00  0.00     0.231 A 
ATOM     25  N   UNL A   1      34.416  29.143  27.123  1.00  0.00    -0.211 NA
ATOM     26  O   UNL A   1      34.299  31.341  27.574  1.00  0.00    -0.451 OA
ATOM     27  C   UNL A   1      35.036  30.198  27.585  1.00  0.00     0.308 A 
ENDBRANCH  21  23
ENDBRANCH  13  21
ENDBRANCH   5   7
ENDBRANCH   3   5
ENDBRANCH   2   3
ENDBRANCH   1   2
BRANCH   1  28
ATOM     28  C   UNL A   1      35.783  21.073  25.572  1.00  0.00     0.275 C 
BRANCH  28  29
ATOM     29  O   UNL A   1      36.870  21.942  25.193  1.00  0.00    -0.458 OA
BRANCH  29  30
ATOM     30  C   UNL A   1      38.101  21.556  25.606  1.00  0.00     0.338 C 
ATOM     31  O   UNL A   1      38.608  20.455  25.440  1.00  0.00    -0.246 OA
BRANCH  30  32
ATOM     32  C   UNL A   1      38.834  22.677  26.241  1.00  0.00     0.060 A 
ATOM     33  C   UNL A   1      38.406  23.996  26.106  1.00  0.00     0.016 A 
ATOM     34  C   UNL A   1      40.062  22.423  26.850  1.00  0.00     0.016 A 
ATOM     35  C   UNL A   1      39.255  25.053  26.434  1.00  0.00     0.010 A 
ATOM     36  C   UNL A   1      40.833  23.485  27.339  1.00  0.00     0.010 A 
ATOM     37  C   UNL A   1      40.458  24.821  27.112  1.00  0.00    -0.014 A 
BRANCH  37  38
ATOM     38  C   UNL A   1      41.304  25.947  27.620  1.00  0.00     0.031 A 
ATOM     39  C   UNL A   1      40.717  26.988  28.545  1.00  0.00     0.074 A 
ATOM     40  C   UNL A   1      42.583  26.084  27.206  1.00  0.00     0.049 A 
ATOM     41  N   UNL A   1      41.160  28.183  28.841  1.00  0.00    -0.248 NA
ATOM     42  C   UNL A   1      39.444  26.645  29.199  1.00  0.00     0.031 C 
ATOM     43  C   UNL A   1      43.315  25.139  26.359  1.00  0.00     0.029 A 
ATOM     44  N   UNL A   1      43.496  27.089  27.428  1.00  0.00    -0.354 N 
ATOM     45  C   UNL A   1      40.192  28.763  29.656  1.00  0.00     0.074 A 
ATOM     46  C   UNL A   1      39.131  27.786  29.797  1.00  0.00     0.031 C 
ATOM     47  C   UNL A   1      44.562  25.586  26.163  1.00  0.00     0.029 A 
ATOM     48  C   UNL A   1      44.683  26.911  26.750  1.00  0.00     0.049 A 
ATOM     49  H   UNL A   1      43.319  27.860  28.013  1.00  0.00     0.167 HD
ATOM     50  C   UNL A   1      40.188  29.997  30.222  1.00  0.00     0.034 A 
ATOM     51  C   UNL A   1      45.726  27.739  26.548  1.00  0.00     0.034 A 
ATOM     52  C   UNL A   1      41.278  30.938  30.103  1.00  0.00     0.049 A 
ATOM     53  C   UNL A   1      45.670  29.127  27.123  1.00  0.00     0.074 A 
ATOM     54  C   UNL A   1      41.393  32.200  30.662  1.00  0.00     0.029 A 
ATOM     55  N   UNL A   1      42.445  30.722  29.378  1.00  0.00    -0.354 N 
ATOM     56  N   UNL A   1      44.723  29.687  27.840  1.00  0.00    -0.248 NA
ATOM     57  C   UNL A   1      46.819  30.000  26.851  1.00  0.00     0.031 C 
ATOM     58  C   UNL A   1      42.588  32.773  30.215  1.00  0.00     0.029 A 
ATOM     59  C   UNL A   1      43.266  31.839  29.450  1.00  0.00     0.049 A 
ATOM     60  H   UNL A   1      42.658  29.896  28.885  1.00  0.00     0.167 HD
ATOM     61  C   UNL A   1      45.179  30.969  28.130  1.00  0.00     0.074 A 
ATOM     62  C   UNL A   1      46.489  31.092  27.525  1.00  0.00     0.031 C 
ATOM     63  C   UNL A   1      44.568  31.955  28.837  1.00  0.00     0.034 A 
BRANCH  50  64
ATOM     64  C   UNL A   1      38.944  30.428  30.969  1.00  0.00     0.023 A 
ATOM     65  C   UNL A   1      37.988  31.291  30.405  1.00  0.00     0.031 A 
ATOM     66  C   UNL A   1      38.719  29.973  32.283  1.00  0.00     0.131 A 
ATOM     67  C   UNL A   1      36.896  31.726  31.175  1.00  0.00     0.055 A 
ATOM     68  C   UNL A   1      37.587  30.341  33.011  1.00  0.00     0.041 A 
ATOM     69  F   UNL A   1      39.604  29.163  32.886  1.00  0.00    -0.206 F 
ATOM     70  C   UNL A   1      36.674  31.235  32.464  1.00  0.00     0.022 A 
BRANCH  67  71
ATOM     71  S   UNL A   1      35.851  33.056  30.520  1.00  0.00     0.124 S 
ATOM     72  O   UNL A   1      36.138  34.145  31.451  1.00  0.00    -0.237 OA
ATOM     73  O   UNL A   1      36.363  33.223  29.165  1.00  0.00    -0.237 OA
ATOM     74  O   UNL A   1      34.499  32.507  30.613  1.00  0.00    -0.744 OA
ENDBRANCH  67  71
ENDBRANCH  50  64
BRANCH  51  75
ATOM     75  C   UNL A   1      46.878  27.309  25.703  1.00  0.00     0.023 A 
ATOM     76  C   UNL A   1      47.040  27.808  24.401  1.00  0.00     0.031 A 
ATOM     77  C   UNL A   1      47.815  26.367  26.166  1.00  0.00     0.131 A 
ATOM     78  C   UNL A   1      48.084  27.331  23.594  1.00  0.00     0.055 A 
ATOM     79  C   UNL A   1      48.893  25.949  25.384  1.00  0.00     0.041 A 
ATOM     80  F   UNL A   1      47.708  25.852  27.402  1.00  0.00    -0.206 F 
ATOM     81  C   UNL A   1      49.024  26.421  24.083  1.00  0.00     0.022 A 
BRANCH  78  82
ATOM     82  S   UNL A   1      48.136  27.846  21.856  1.00  0.00     0.124 S 
ATOM     83  O   UNL A   1      46.826  28.465  21.692  1.00  0.00    -0.237 OA
ATOM     84  O   UNL A   1      49.281  28.750  21.842  1.00  0.00    -0.237 OA
ATOM     85  O   UNL A   1      48.329  26.589  21.135  1.00  0.00    -0.744 OA
ENDBRANCH  78  82
ENDBRANCH  51  75
BRANCH  63  86
ATOM     86  C   UNL A   1      45.350  33.229  29.042  1.00  0.00     0.023 A 
ATOM     87  C   UNL A   1      45.219  34.330  28.178  1.00  0.00     0.031 A 
ATOM     88  C   UNL A   1      46.262  33.329  30.108  1.00  0.00     0.131 A 
ATOM     89  C   UNL A   1      46.032  35.460  28.358  1.00  0.00     0.055 A 
ATOM     90  C   UNL A   1      47.019  34.482  30.322  1.00  0.00     0.041 A 
ATOM     91  F   UNL A   1      46.435  32.306  30.960  1.00  0.00    -0.206 F 
ATOM     92  C   UNL A   1      46.918  35.550  29.435  1.00  0.00     0.022 A 
BRANCH  89  93
ATOM     93  S   UNL A   1      45.996  36.768  27.102  1.00  0.00     0.124 S 
ATOM     94  O   UNL A   1      46.879  37.773  27.685  1.00  0.00    -0.237 OA
ATOM     95  O   UNL A   1      46.505  36.080  25.919  1.00  0.00    -0.237 OA
ATOM     96  O   UNL A   1      44.585  37.144  27.039  1.00  0.00    -0.744 OA
ENDBRANCH  89  93
ENDBRANCH  63  86
ENDBRANCH  37  38
ENDBRANCH  30  32
ENDBRANCH  29  30
ENDBRANCH  28  29
ENDBRANCH   1  28
TORSDOF 17
ENDMDL
MODEL 3
REMARK VINA RESULT:     -12.6      1.479      2.563
REMARK SMILES C[C@H](C(=O)OCCOC(=O)c1ccc(-c2c3nc(c(-c4cc(S(=O)(=O)[O-])ccc4F)c4ccc([nH]4)c(-c4cc(S(=O)(=O)[O-])ccc4F)c4nc(c(-c5cc(S(=O)(=O)[O-])ccc5F)c5ccc2[nH]5)C=C4)C=C3)cc1)c1ccc2c3cc(Cl)ccc3n(C(=O)c3cocn3)c2c1
REMARK SMILES IDX 6 1 5 2 3 3 4 4 2 5 1 6 74 7 75 8 94 9 76 10 93 11 77 12
REMARK SMILES IDX 85 13 78 14 84 15 79 16 83 17 80 18 82 19 81 20 86 21 87 22
REMARK SMILES IDX 88 23 89 24 92 25 90 26 91 27 7 28 8 29 9 30 10 31 11 32
REMARK SMILES IDX 12 33 73 34 13 35 72 36 14 37 15 38 16 39 66 40 17 41 71 42
REMARK SMILES IDX 65 43 67 44 18 45 70 46 64 47 63 48 19 50 51 51 31 52 50 53
REMARK SMILES IDX 32 54 35 55 49 56 68 57 33 58 34 59 48 61 69 62 36 63 20 64
REMARK SMILES IDX 21 65 29 66 22 67 28 68 30 69 27 70 23 71 24 72 25 73 26 74
REMARK SMILES IDX 52 75 53 76 61 77 54 78 60 79 62 80 59 81 55 82 56 83 57 84
REMARK SMILES IDX 58 85 37 86 38 87 46 88 39 89 45 90 47 91 44 92 40 93 41 94
REMARK SMILES IDX 42 95 43 96
REMARK H PARENT 67 49 35 60
REMARK Flexibility Score: inf
ROOT
ATOM      1  C   UNL A   1      33.381  28.020  24.938  1.00  0.00     0.274 C 
ENDROOT
BRANCH   1   2
ATOM      2  O   UNL A   1      32.995  27.411  23.692  1.00  0.00    -0.462 OA
BRANCH   2   3
ATOM      3  C   UNL A   1      31.939  26.554  23.777  1.00  0.00     0.313 C 
ATOM      4  O   UNL A   1      31.183  26.303  22.846  1.00  0.00    -0.252 OA
BRANCH   3   5
ATOM      5  C   UNL A   1      31.775  25.947  25.169  1.00  0.00     0.126 C 
ATOM      6  C   UNL A   1      30.406  26.234  25.791  1.00  0.00     0.025 C 
BRANCH   5   7
ATOM      7  C   UNL A   1      32.116  24.473  25.232  1.00  0.00    -0.032 A 
ATOM      8  C   UNL A   1      31.215  23.592  25.838  1.00  0.00     0.005 A 
ATOM      9  C   UNL A   1      33.326  23.984  24.724  1.00  0.00     0.032 A 
ATOM     10  C   UNL A   1      31.438  22.217  25.821  1.00  0.00     0.011 A 
ATOM     11  C   UNL A   1      33.592  22.611  24.813  1.00  0.00     0.058 A 
ATOM     12  C   UNL A   1      32.629  21.721  25.261  1.00  0.00     0.008 A 
ATOM     13  N   UNL A   1      34.754  21.899  24.509  1.00  0.00    -0.274 N 
ATOM     14  C   UNL A   1      33.124  20.419  25.010  1.00  0.00     0.009 A 
ATOM     15  C   UNL A   1      34.463  20.532  24.607  1.00  0.00     0.057 A 
ATOM     16  C   UNL A   1      32.524  19.151  25.143  1.00  0.00     0.031 A 
ATOM     17  C   UNL A   1      35.260  19.379  24.479  1.00  0.00     0.029 A 
ATOM     18  C   UNL A   1      33.297  18.015  24.944  1.00  0.00     0.041 A 
ATOM     19  C   UNL A   1      34.651  18.125  24.650  1.00  0.00     0.023 A 
ATOM     20  Cl  UNL A   1      32.568  16.463  25.098  1.00  0.00    -0.084 Cl
BRANCH  13  21
ATOM     21  C   UNL A   1      35.993  22.540  24.236  1.00  0.00     0.284 C 
ATOM     22  O   UNL A   1      36.152  22.914  23.080  1.00  0.00    -0.266 OA
BRANCH  21  23
ATOM     23  C   UNL A   1      37.089  22.710  25.186  1.00  0.00     0.167 A 
ATOM     24  C   UNL A   1      38.066  21.821  25.573  1.00  0.00     0.231 A 
ATOM     25  N   UNL A   1      37.393  23.956  25.730  1.00  0.00    -0.211 NA
ATOM     26  O   UNL A   1      38.974  22.484  26.350  1.00  0.00    -0.451 OA
ATOM     27  C   UNL A   1      38.510  23.763  26.383  1.00  0.00     0.308 A 
ENDBRANCH  21  23
ENDBRANCH  13  21
ENDBRANCH   5   7
ENDBRANCH   3   5
ENDBRANCH   2   3
ENDBRANCH   1   2
BRANCH   1  28
ATOM     28  C   UNL A   1      32.693  29.378  25.081  1.00  0.00     0.275 C 
BRANCH  28  29
ATOM     29  O   UNL A   1      32.465  29.665  26.476  1.00  0.00    -0.458 OA
BRANCH  29  30
ATOM     30  C   UNL A   1      32.968  30.841  26.923  1.00  0.00     0.338 C 
ATOM     31  O   UNL A   1      32.382  31.914  26.953  1.00  0.00    -0.246 OA
BRANCH  30  32
ATOM     32  C   UNL A   1      34.336  30.672  27.469  1.00  0.00     0.060 A 
ATOM     33  C   UNL A   1      34.782  29.441  27.946  1.00  0.00     0.016 A 
ATOM     34  C   UNL A   1      35.134  31.799  27.656  1.00  0.00     0.016 A 
ATOM     35  C   UNL A   1      35.933  29.360  28.729  1.00  0.00     0.010 A 
ATOM     36  C   UNL A   1      36.376  31.679  28.291  1.00  0.00     0.010 A 
ATOM     37  C   UNL A   1      36.784  30.462  28.867  1.00  0.00    -0.014 A 
BRANCH  37  38
ATOM     38  C   UNL A   1      38.105  30.354  29.563  1.00  0.00     0.031 A 
ATOM     39  C   UNL A   1      39.222  29.535  28.962  1.00  0.00     0.074 A 
ATOM     40  C   UNL A   1      38.293  30.934  30.770  1.00  0.00     0.049 A 
ATOM     41  N   UNL A   1      40.302  29.057  29.528  1.00  0.00    -0.248 NA
ATOM     42  C   UNL A   1      39.087  29.181  27.540  1.00  0.00     0.031 C 
ATOM     43  C   UNL A   1      37.336  31.801  31.462  1.00  0.00     0.029 A 
ATOM     44  N   UNL A   1      39.352  30.864  31.645  1.00  0.00    -0.354 N 
ATOM     45  C   UNL A   1      40.939  28.290  28.555  1.00  0.00     0.074 A 
ATOM     46  C   UNL A   1      40.114  28.361  27.367  1.00  0.00     0.031 C 
ATOM     47  C   UNL A   1      37.860  32.207  32.626  1.00  0.00     0.029 A 
ATOM     48  C   UNL A   1      39.128  31.526  32.833  1.00  0.00     0.049 A 
ATOM     49  H   UNL A   1      40.190  30.387  31.443  1.00  0.00     0.167 HD
ATOM     50  C   UNL A   1      42.097  27.588  28.654  1.00  0.00     0.034 A 
ATOM     51  C   UNL A   1      39.813  31.531  33.993  1.00  0.00     0.034 A 
ATOM     52  C   UNL A   1      42.926  27.569  29.838  1.00  0.00     0.049 A 
ATOM     53  C   UNL A   1      41.053  30.689  34.104  1.00  0.00     0.074 A 
ATOM     54  C   UNL A   1      44.133  26.919  30.036  1.00  0.00     0.029 A 
ATOM     55  N   UNL A   1      42.637  28.230  31.027  1.00  0.00    -0.354 N 
ATOM     56  N   UNL A   1      41.613  29.919  33.200  1.00  0.00    -0.248 NA
ATOM     57  C   UNL A   1      41.748  30.708  35.398  1.00  0.00     0.031 C 
ATOM     58  C   UNL A   1      44.534  27.125  31.360  1.00  0.00     0.029 A 
ATOM     59  C   UNL A   1      43.626  27.976  31.967  1.00  0.00     0.049 A 
ATOM     60  H   UNL A   1      41.846  28.797  31.179  1.00  0.00     0.167 HD
ATOM     61  C   UNL A   1      42.745  29.386  33.810  1.00  0.00     0.074 A 
ATOM     62  C   UNL A   1      42.795  29.935  35.149  1.00  0.00     0.031 C 
ATOM     63  C   UNL A   1      43.663  28.523  33.303  1.00  0.00     0.034 A 
BRANCH  50  64
ATOM     64  C   UNL A   1      42.507  26.732  27.475  1.00  0.00     0.023 A 
ATOM     65  C   UNL A   1      42.334  25.337  27.461  1.00  0.00     0.031 A 
ATOM     66  C   UNL A   1      43.098  27.329  26.344  1.00  0.00     0.131 A 
ATOM     67  C   UNL A   1      42.811  24.582  26.376  1.00  0.00     0.055 A 
ATOM     68  C   UNL A   1      43.492  26.582  25.233  1.00  0.00     0.041 A 
ATOM     69  F   UNL A   1      43.310  28.654  26.304  1.00  0.00    -0.206 F 
ATOM     70  C   UNL A   1      43.363  25.198  25.250  1.00  0.00     0.022 A 
BRANCH  67  71
ATOM     71  S   UNL A   1      42.833  22.774  26.522  1.00  0.00     0.124 S 
ATOM     72  O   UNL A   1      42.217  22.368  25.261  1.00  0.00    -0.237 OA
ATOM     73  O   UNL A   1      44.255  22.485  26.661  1.00  0.00    -0.237 OA
ATOM     74  O   UNL A   1      42.025  22.516  27.713  1.00  0.00    -0.744 OA
ENDBRANCH  67  71
ENDBRANCH  50  64
BRANCH  51  75
ATOM     75  C   UNL A   1      39.302  32.298  35.167  1.00  0.00     0.023 A 
ATOM     76  C   UNL A   1      39.739  33.609  35.413  1.00  0.00     0.031 A 
ATOM     77  C   UNL A   1      38.399  31.724  36.081  1.00  0.00     0.131 A 
ATOM     78  C   UNL A   1      39.308  34.285  36.564  1.00  0.00     0.055 A 
ATOM     79  C   UNL A   1      37.919  32.426  37.187  1.00  0.00     0.041 A 
ATOM     80  F   UNL A   1      37.951  30.471  35.899  1.00  0.00    -0.206 F 
ATOM     81  C   UNL A   1      38.386  33.711  37.443  1.00  0.00     0.022 A 
BRANCH  78  82
ATOM     82  S   UNL A   1      40.052  35.892  36.951  1.00  0.00     0.124 S 
ATOM     83  O   UNL A   1      39.369  36.242  38.192  1.00  0.00    -0.237 OA
ATOM     84  O   UNL A   1      41.465  35.552  37.070  1.00  0.00    -0.237 OA
ATOM     85  O   UNL A   1      39.705  36.715  35.794  1.00  0.00    -0.744 OA
ENDBRANCH  78  82
ENDBRANCH  51  75
BRANCH  63  86
ATOM     86  C   UNL A   1      44.832  28.174  34.192  1.00  0.00     0.023 A 
ATOM     87  C   UNL A   1      44.804  27.067  35.058  1.00  0.00     0.031 A 
ATOM     88  C   UNL A   1      45.982  28.983  34.189  1.00  0.00     0.131 A 
ATOM     89  C   UNL A   1      45.879  26.834  35.929  1.00  0.00     0.055 A 
ATOM     90  C   UNL A   1      47.077  28.707  35.010  1.00  0.00     0.041 A 
ATOM     91  F   UNL A   1      46.060  30.057  33.389  1.00  0.00    -0.206 F 
ATOM     92  C   UNL A   1      47.023  27.637  35.897  1.00  0.00     0.022 A 
BRANCH  89  93
ATOM     93  S   UNL A   1      45.720  25.533  37.182  1.00  0.00     0.124 S 
ATOM     94  O   UNL A   1      44.360  25.746  37.669  1.00  0.00    -0.237 OA
ATOM     95  O   UNL A   1      45.934  24.318  36.401  1.00  0.00    -0.237 OA
ATOM     96  O   UNL A   1      46.778  25.847  38.140  1.00  0.00    -0.744 OA
ENDBRANCH  89  93
ENDBRANCH  63  86
ENDBRANCH  37  38
ENDBRANCH  30  32
ENDBRANCH  29  30
ENDBRANCH  28  29
ENDBRANCH   1  28
TORSDOF 17
ENDMDL
