MODEL 1
REMARK VINA RESULT:     -11.8      0.000      0.000
REMARK SMILES O=C(CNc1nc(-c2ccccc2)c(-c2ccccc2)s1)OCCOC(=O)c1ccc(-c2c3nc(c(-c4cc(S(=O)(=O)[O-])ccc4F)c4ccc([nH]4)c(-c4cc(S(=O)(=O)[O-])ccc4F)c4nc(c(-c5cc(S(=O)(=O)[O-])ccc5F)c5ccc2[nH]5)C=C4)C=C3)cc1
REMARK SMILES IDX 23 1 22 2 2 3 1 4 3 5 4 6 5 8 6 9 21 10 7 11 14 12 8 13 9 14
REMARK SMILES IDX 13 15 10 16 12 17 11 18 15 19 16 20 20 21 17 22 19 23 18 24
REMARK SMILES IDX 24 25 25 26 26 27 27 28 28 29 29 30 90 31 30 32 89 33 31 34
REMARK SMILES IDX 32 35 33 36 83 37 34 38 88 39 82 40 84 41 35 42 87 43 81 44
REMARK SMILES IDX 80 45 36 47 68 48 48 49 67 50 49 51 52 52 66 53 85 54 50 55
REMARK SMILES IDX 51 56 65 58 86 59 53 60 37 61 38 62 46 63 39 64 45 65 47 66
REMARK SMILES IDX 44 67 40 68 41 69 42 70 43 71 69 72 70 73 78 74 71 75 77 76
REMARK SMILES IDX 79 77 76 78 72 79 73 80 74 81 75 82 54 83 55 84 63 85 56 86
REMARK SMILES IDX 62 87 64 88 61 89 57 90 58 91 59 92 60 93
REMARK H PARENT 4 7 84 46 52 57
REMARK Flexibility Score: inf
ROOT
ATOM      1  C   UNL A   1      31.563  28.987  25.179  1.00  0.00     0.274 C 
ENDROOT
BRANCH   1   2
ATOM      2  O   UNL A   1      30.626  29.077  24.086  1.00  0.00    -0.461 OA
BRANCH   2   3
ATOM      3  C   UNL A   1      29.974  28.034  23.512  1.00  0.00     0.325 C 
ATOM      4  O   UNL A   1      29.626  28.113  22.333  1.00  0.00    -0.250 OA
BRANCH   3   5
ATOM      5  C   UNL A   1      29.715  26.767  24.320  1.00  0.00     0.238 C 
BRANCH   5   6
ATOM      6  N   UNL A   1      29.788  25.578  23.490  1.00  0.00    -0.351 N 
ATOM      7  H   UNL A   1      29.064  25.387  22.850  1.00  0.00     0.163 HD
BRANCH   6   8
ATOM      8  C   UNL A   1      30.831  24.734  23.585  1.00  0.00     0.184 A 
ATOM      9  N   UNL A   1      30.742  23.432  23.721  1.00  0.00    -0.220 NA
ATOM     10  S   UNL A   1      32.424  25.367  23.662  1.00  0.00    -0.096 S 
ATOM     11  C   UNL A   1      31.996  22.880  23.924  1.00  0.00     0.091 A 
ATOM     12  C   UNL A   1      33.033  23.796  23.992  1.00  0.00     0.064 A 
BRANCH  11  13
ATOM     13  C   UNL A   1      32.178  21.438  24.024  1.00  0.00     0.002 A 
ATOM     14  C   UNL A   1      32.491  20.822  25.245  1.00  0.00     0.010 A 
ATOM     15  C   UNL A   1      32.107  20.657  22.864  1.00  0.00     0.010 A 
ATOM     16  C   UNL A   1      32.778  19.456  25.293  1.00  0.00     0.001 A 
ATOM     17  C   UNL A   1      32.399  19.291  22.915  1.00  0.00     0.001 A 
ATOM     18  C   UNL A   1      32.744  18.694  24.126  1.00  0.00     0.000 A 
ENDBRANCH  11  13
BRANCH  12  19
ATOM     19  C   UNL A   1      34.462  23.626  24.230  1.00  0.00    -0.006 A 
ATOM     20  C   UNL A   1      35.016  23.961  25.474  1.00  0.00     0.009 A 
ATOM     21  C   UNL A   1      35.289  23.105  23.229  1.00  0.00     0.009 A 
ATOM     22  C   UNL A   1      36.380  23.792  25.706  1.00  0.00     0.001 A 
ATOM     23  C   UNL A   1      36.654  22.938  23.463  1.00  0.00     0.001 A 
ATOM     24  C   UNL A   1      37.199  23.285  24.699  1.00  0.00     0.000 A 
ENDBRANCH  12  19
ENDBRANCH   6   8
ENDBRANCH   5   6
ENDBRANCH   3   5
ENDBRANCH   2   3
ENDBRANCH   1   2
BRANCH   1  25
ATOM     25  C   UNL A   1      31.804  30.340  25.847  1.00  0.00     0.275 C 
BRANCH  25  26
ATOM     26  O   UNL A   1      33.153  30.423  26.327  1.00  0.00    -0.458 OA
BRANCH  26  27
ATOM     27  C   UNL A   1      33.424  31.477  27.136  1.00  0.00     0.338 C 
ATOM     28  O   UNL A   1      32.684  32.413  27.383  1.00  0.00    -0.246 OA
BRANCH  27  29
ATOM     29  C   UNL A   1      34.688  31.204  27.857  1.00  0.00     0.060 A 
ATOM     30  C   UNL A   1      34.889  29.914  28.361  1.00  0.00     0.016 A 
ATOM     31  C   UNL A   1      35.691  32.172  27.975  1.00  0.00     0.016 A 
ATOM     32  C   UNL A   1      36.096  29.587  28.984  1.00  0.00     0.010 A 
ATOM     33  C   UNL A   1      36.894  31.846  28.607  1.00  0.00     0.010 A 
ATOM     34  C   UNL A   1      37.101  30.554  29.118  1.00  0.00    -0.014 A 
BRANCH  34  35
ATOM     35  C   UNL A   1      38.354  30.247  29.849  1.00  0.00     0.031 A 
ATOM     36  C   UNL A   1      39.298  29.223  29.287  1.00  0.00     0.074 A 
ATOM     37  C   UNL A   1      38.621  30.849  31.023  1.00  0.00     0.049 A 
ATOM     38  N   UNL A   1      40.406  28.752  29.798  1.00  0.00    -0.248 NA
ATOM     39  C   UNL A   1      38.943  28.650  27.979  1.00  0.00     0.031 C 
ATOM     40  C   UNL A   1      37.787  31.870  31.657  1.00  0.00     0.029 A 
ATOM     41  N   UNL A   1      39.660  30.671  31.903  1.00  0.00    -0.354 N 
ATOM     42  C   UNL A   1      40.884  27.828  28.876  1.00  0.00     0.074 A 
ATOM     43  C   UNL A   1      39.932  27.787  27.786  1.00  0.00     0.031 C 
ATOM     44  C   UNL A   1      38.332  32.207  32.838  1.00  0.00     0.029 A 
ATOM     45  C   UNL A   1      39.532  31.402  33.062  1.00  0.00     0.049 A 
ATOM     46  H   UNL A   1      40.424  30.077  31.723  1.00  0.00     0.167 HD
ATOM     47  C   UNL A   1      42.014  27.083  28.937  1.00  0.00     0.034 A 
ATOM     48  C   UNL A   1      40.277  31.393  34.187  1.00  0.00     0.034 A 
ATOM     49  C   UNL A   1      42.949  27.123  30.033  1.00  0.00     0.049 A 
ATOM     50  C   UNL A   1      41.480  30.481  34.265  1.00  0.00     0.074 A 
ATOM     51  C   UNL A   1      44.159  26.460  30.155  1.00  0.00     0.029 A 
ATOM     52  N   UNL A   1      42.767  27.839  31.207  1.00  0.00    -0.354 N 
ATOM     53  N   UNL A   1      41.956  29.660  33.356  1.00  0.00    -0.248 NA
ATOM     54  C   UNL A   1      42.245  30.492  35.520  1.00  0.00     0.031 C 
ATOM     55  C   UNL A   1      44.670  26.717  31.432  1.00  0.00     0.029 A 
ATOM     56  C   UNL A   1      43.814  27.593  32.080  1.00  0.00     0.049 A 
ATOM     57  H   UNL A   1      42.006  28.435  31.393  1.00  0.00     0.167 HD
ATOM     58  C   UNL A   1      43.088  29.081  33.925  1.00  0.00     0.074 A 
ATOM     59  C   UNL A   1      43.232  29.654  35.245  1.00  0.00     0.031 C 
ATOM     60  C   UNL A   1      43.936  28.159  33.402  1.00  0.00     0.034 A 
BRANCH  47  61
ATOM     61  C   UNL A   1      42.279  26.126  27.807  1.00  0.00     0.023 A 
ATOM     62  C   UNL A   1      41.787  24.809  27.821  1.00  0.00     0.031 A 
ATOM     63  C   UNL A   1      43.024  26.545  26.691  1.00  0.00     0.131 A 
ATOM     64  C   UNL A   1      42.081  23.945  26.756  1.00  0.00     0.055 A 
ATOM     65  C   UNL A   1      43.264  25.698  25.609  1.00  0.00     0.041 A 
ATOM     66  F   UNL A   1      43.533  27.786  26.638  1.00  0.00    -0.206 F 
ATOM     67  C   UNL A   1      42.797  24.387  25.640  1.00  0.00     0.022 A 
BRANCH  64  68
ATOM     68  S   UNL A   1      41.585  22.206  26.883  1.00  0.00     0.124 S 
ATOM     69  O   UNL A   1      41.789  21.739  25.515  1.00  0.00    -0.237 OA
ATOM     70  O   UNL A   1      42.510  21.684  27.882  1.00  0.00    -0.237 OA
ATOM     71  O   UNL A   1      40.187  22.279  27.306  1.00  0.00    -0.744 OA
ENDBRANCH  64  68
ENDBRANCH  47  61
BRANCH  48  72
ATOM     72  C   UNL A   1      39.883  32.212  35.370  1.00  0.00     0.023 A 
ATOM     73  C   UNL A   1      39.065  31.682  36.380  1.00  0.00     0.031 A 
ATOM     74  C   UNL A   1      40.238  33.570  35.453  1.00  0.00     0.131 A 
ATOM     75  C   UNL A   1      38.579  32.520  37.397  1.00  0.00     0.055 A 
ATOM     76  C   UNL A   1      39.799  34.385  36.499  1.00  0.00     0.041 A 
ATOM     77  F   UNL A   1      41.012  34.130  34.510  1.00  0.00    -0.206 F 
ATOM     78  C   UNL A   1      38.950  33.864  37.469  1.00  0.00     0.022 A 
BRANCH  75  79
ATOM     79  S   UNL A   1      37.354  31.855  38.558  1.00  0.00     0.124 S 
ATOM     80  O   UNL A   1      37.139  30.513  38.029  1.00  0.00    -0.237 OA
ATOM     81  O   UNL A   1      38.066  31.938  39.829  1.00  0.00    -0.237 OA
ATOM     82  O   UNL A   1      36.221  32.769  38.419  1.00  0.00    -0.744 OA
ENDBRANCH  75  79
ENDBRANCH  48  72
BRANCH  60  83
ATOM     83  C   UNL A   1      45.107  27.739  34.254  1.00  0.00     0.023 A 
ATOM     84  C   UNL A   1      45.031  26.631  35.116  1.00  0.00     0.031 A 
ATOM     85  C   UNL A   1      46.314  28.458  34.204  1.00  0.00     0.131 A 
ATOM     86  C   UNL A   1      46.129  26.298  35.924  1.00  0.00     0.055 A 
ATOM     87  C   UNL A   1      47.420  28.091  34.971  1.00  0.00     0.041 A 
ATOM     88  F   UNL A   1      46.440  29.525  33.399  1.00  0.00    -0.206 F 
ATOM     89  C   UNL A   1      47.328  27.011  35.845  1.00  0.00     0.022 A 
BRANCH  86  90
ATOM     90  S   UNL A   1      45.951  24.953  37.129  1.00  0.00     0.124 S 
ATOM     91  O   UNL A   1      45.045  24.043  36.436  1.00  0.00    -0.237 OA
ATOM     92  O   UNL A   1      47.325  24.487  37.285  1.00  0.00    -0.237 OA
ATOM     93  O   UNL A   1      45.387  25.616  38.303  1.00  0.00    -0.744 OA
ENDBRANCH  86  90
ENDBRANCH  60  83
ENDBRANCH  34  35
ENDBRANCH  27  29
ENDBRANCH  26  27
ENDBRANCH  25  26
ENDBRANCH   1  25
TORSDOF 18
ENDMDL
MODEL 2
REMARK VINA RESULT:     -11.8      0.531      2.085
REMARK SMILES O=C(CNc1nc(-c2ccccc2)c(-c2ccccc2)s1)OCCOC(=O)c1ccc(-c2c3nc(c(-c4cc(S(=O)(=O)[O-])ccc4F)c4ccc([nH]4)c(-c4cc(S(=O)(=O)[O-])ccc4F)c4nc(c(-c5cc(S(=O)(=O)[O-])ccc5F)c5ccc2[nH]5)C=C4)C=C3)cc1
REMARK SMILES IDX 23 1 22 2 2 3 1 4 3 5 4 6 5 8 6 9 21 10 7 11 14 12 8 13 9 14
REMARK SMILES IDX 13 15 10 16 12 17 11 18 15 19 16 20 20 21 17 22 19 23 18 24
REMARK SMILES IDX 24 25 25 26 26 27 27 28 28 29 29 30 90 31 30 32 89 33 31 34
REMARK SMILES IDX 32 35 33 36 83 37 34 38 88 39 82 40 84 41 35 42 87 43 81 44
REMARK SMILES IDX 80 45 36 47 68 48 48 49 67 50 49 51 52 52 66 53 85 54 50 55
REMARK SMILES IDX 51 56 65 58 86 59 53 60 37 61 38 62 46 63 39 64 45 65 47 66
REMARK SMILES IDX 44 67 40 68 41 69 42 70 43 71 69 72 70 73 78 74 71 75 77 76
REMARK SMILES IDX 79 77 76 78 72 79 73 80 74 81 75 82 54 83 55 84 63 85 56 86
REMARK SMILES IDX 62 87 64 88 61 89 57 90 58 91 59 92 60 93
REMARK H PARENT 4 7 84 46 52 57
REMARK Flexibility Score: inf
ROOT
ATOM      1  C   UNL A   1      31.405  29.182  25.204  1.00  0.00     0.274 C 
ENDROOT
BRANCH   1   2
ATOM      2  O   UNL A   1      30.665  29.384  23.982  1.00  0.00    -0.461 OA
BRANCH   2   3
ATOM      3  C   UNL A   1      30.242  28.408  23.140  1.00  0.00     0.325 C 
ATOM      4  O   UNL A   1      29.931  28.699  21.984  1.00  0.00    -0.250 OA
BRANCH   3   5
ATOM      5  C   UNL A   1      30.195  26.961  23.621  1.00  0.00     0.238 C 
BRANCH   5   6
ATOM      6  N   UNL A   1      30.889  26.070  22.708  1.00  0.00    -0.351 N 
ATOM      7  H   UNL A   1      30.833  26.228  21.737  1.00  0.00     0.163 HD
BRANCH   6   8
ATOM      8  C   UNL A   1      31.607  25.032  23.172  1.00  0.00     0.184 A 
ATOM      9  N   UNL A   1      32.900  25.047  23.401  1.00  0.00    -0.220 NA
ATOM     10  S   UNL A   1      30.848  23.508  23.385  1.00  0.00    -0.096 S 
ATOM     11  C   UNL A   1      33.345  23.781  23.744  1.00  0.00     0.091 A 
ATOM     12  C   UNL A   1      32.372  22.794  23.719  1.00  0.00     0.064 A 
BRANCH  11  13
ATOM     13  C   UNL A   1      34.730  23.546  24.125  1.00  0.00     0.002 A 
ATOM     14  C   UNL A   1      35.628  22.896  23.265  1.00  0.00     0.010 A 
ATOM     15  C   UNL A   1      35.160  23.916  25.406  1.00  0.00     0.010 A 
ATOM     16  C   UNL A   1      36.917  22.577  23.698  1.00  0.00     0.001 A 
ATOM     17  C   UNL A   1      36.449  23.591  25.839  1.00  0.00     0.001 A 
ATOM     18  C   UNL A   1      37.322  22.913  24.989  1.00  0.00     0.000 A 
ENDBRANCH  11  13
BRANCH  12  19
ATOM     19  C   UNL A   1      32.442  21.359  23.971  1.00  0.00    -0.006 A 
ATOM     20  C   UNL A   1      32.265  20.448  22.920  1.00  0.00     0.009 A 
ATOM     21  C   UNL A   1      32.710  20.878  25.257  1.00  0.00     0.009 A 
ATOM     22  C   UNL A   1      32.339  19.076  23.157  1.00  0.00     0.001 A 
ATOM     23  C   UNL A   1      32.781  19.505  25.492  1.00  0.00     0.001 A 
ATOM     24  C   UNL A   1      32.593  18.605  24.443  1.00  0.00     0.000 A 
ENDBRANCH  12  19
ENDBRANCH   6   8
ENDBRANCH   5   6
ENDBRANCH   3   5
ENDBRANCH   2   3
ENDBRANCH   1   2
BRANCH   1  25
ATOM     25  C   UNL A   1      31.657  30.490  25.951  1.00  0.00     0.275 C 
BRANCH  25  26
ATOM     26  O   UNL A   1      33.032  30.575  26.352  1.00  0.00    -0.458 OA
BRANCH  26  27
ATOM     27  C   UNL A   1      33.358  31.657  27.102  1.00  0.00     0.338 C 
ATOM     28  O   UNL A   1      32.664  32.638  27.304  1.00  0.00    -0.246 OA
BRANCH  27  29
ATOM     29  C   UNL A   1      34.615  31.365  27.828  1.00  0.00     0.060 A 
ATOM     30  C   UNL A   1      34.797  30.069  28.326  1.00  0.00     0.016 A 
ATOM     31  C   UNL A   1      35.630  32.319  27.954  1.00  0.00     0.016 A 
ATOM     32  C   UNL A   1      35.997  29.725  28.954  1.00  0.00     0.010 A 
ATOM     33  C   UNL A   1      36.825  31.975  28.591  1.00  0.00     0.010 A 
ATOM     34  C   UNL A   1      37.014  30.678  29.097  1.00  0.00    -0.014 A 
BRANCH  34  35
ATOM     35  C   UNL A   1      38.259  30.351  29.832  1.00  0.00     0.031 A 
ATOM     36  C   UNL A   1      39.207  29.338  29.257  1.00  0.00     0.074 A 
ATOM     37  C   UNL A   1      38.517  30.927  31.021  1.00  0.00     0.049 A 
ATOM     38  N   UNL A   1      40.308  28.853  29.767  1.00  0.00    -0.248 NA
ATOM     39  C   UNL A   1      38.862  28.795  27.933  1.00  0.00     0.031 C 
ATOM     40  C   UNL A   1      37.679  31.936  31.670  1.00  0.00     0.029 A 
ATOM     41  N   UNL A   1      39.548  30.727  31.907  1.00  0.00    -0.354 N 
ATOM     42  C   UNL A   1      40.792  27.948  28.829  1.00  0.00     0.074 A 
ATOM     43  C   UNL A   1      39.850  27.934  27.730  1.00  0.00     0.031 C 
ATOM     44  C   UNL A   1      38.215  32.245  32.864  1.00  0.00     0.029 A 
ATOM     45  C   UNL A   1      39.411  31.433  33.080  1.00  0.00     0.049 A 
ATOM     46  H   UNL A   1      40.312  30.135  31.720  1.00  0.00     0.167 HD
ATOM     47  C   UNL A   1      41.920  27.200  28.883  1.00  0.00     0.034 A 
ATOM     48  C   UNL A   1      40.145  31.397  34.211  1.00  0.00     0.034 A 
ATOM     49  C   UNL A   1      42.845  27.212  29.989  1.00  0.00     0.049 A 
ATOM     50  C   UNL A   1      41.346  30.480  34.280  1.00  0.00     0.074 A 
ATOM     51  C   UNL A   1      44.052  26.544  30.108  1.00  0.00     0.029 A 
ATOM     52  N   UNL A   1      42.655  27.903  31.177  1.00  0.00    -0.354 N 
ATOM     53  N   UNL A   1      41.828  29.678  33.358  1.00  0.00    -0.248 NA
ATOM     54  C   UNL A   1      42.099  30.462  35.542  1.00  0.00     0.031 C 
ATOM     55  C   UNL A   1      44.553  26.772  31.394  1.00  0.00     0.029 A 
ATOM     56  C   UNL A   1      43.693  27.635  32.054  1.00  0.00     0.049 A 
ATOM     57  H   UNL A   1      41.893  28.497  31.368  1.00  0.00     0.167 HD
ATOM     58  C   UNL A   1      42.953  29.084  33.924  1.00  0.00     0.074 A 
ATOM     59  C   UNL A   1      43.086  29.627  35.258  1.00  0.00     0.031 C 
ATOM     60  C   UNL A   1      43.803  28.171  33.388  1.00  0.00     0.034 A 
BRANCH  47  61
ATOM     61  C   UNL A   1      42.193  26.267  27.735  1.00  0.00     0.023 A 
ATOM     62  C   UNL A   1      41.784  24.922  27.760  1.00  0.00     0.031 A 
ATOM     63  C   UNL A   1      42.861  26.737  26.591  1.00  0.00     0.131 A 
ATOM     64  C   UNL A   1      42.083  24.084  26.676  1.00  0.00     0.055 A 
ATOM     65  C   UNL A   1      43.105  25.912  25.493  1.00  0.00     0.041 A 
ATOM     66  F   UNL A   1      43.290  28.007  26.527  1.00  0.00    -0.206 F 
ATOM     67  C   UNL A   1      42.721  24.575  25.533  1.00  0.00     0.022 A 
BRANCH  64  68
ATOM     68  S   UNL A   1      41.700  22.317  26.810  1.00  0.00     0.124 S 
ATOM     69  O   UNL A   1      42.143  21.818  25.511  1.00  0.00    -0.237 OA
ATOM     70  O   UNL A   1      42.499  21.906  27.959  1.00  0.00    -0.237 OA
ATOM     71  O   UNL A   1      40.253  22.294  27.018  1.00  0.00    -0.744 OA
ENDBRANCH  64  68
ENDBRANCH  47  61
BRANCH  48  72
ATOM     72  C   UNL A   1      39.742  32.190  35.409  1.00  0.00     0.023 A 
ATOM     73  C   UNL A   1      38.964  31.622  36.429  1.00  0.00     0.031 A 
ATOM     74  C   UNL A   1      40.048  33.561  35.498  1.00  0.00     0.131 A 
ATOM     75  C   UNL A   1      38.465  32.432  37.462  1.00  0.00     0.055 A 
ATOM     76  C   UNL A   1      39.598  34.350  36.558  1.00  0.00     0.041 A 
ATOM     77  F   UNL A   1      40.783  34.157  34.546  1.00  0.00    -0.206 F 
ATOM     78  C   UNL A   1      38.787  33.789  37.539  1.00  0.00     0.022 A 
BRANCH  75  79
ATOM     79  S   UNL A   1      37.287  31.712  38.639  1.00  0.00     0.124 S 
ATOM     80  O   UNL A   1      36.181  32.660  38.571  1.00  0.00    -0.237 OA
ATOM     81  O   UNL A   1      37.042  30.397  38.054  1.00  0.00    -0.237 OA
ATOM     82  O   UNL A   1      38.027  31.704  39.899  1.00  0.00    -0.744 OA
ENDBRANCH  75  79
ENDBRANCH  48  72
BRANCH  60  83
ATOM     83  C   UNL A   1      44.966  27.730  34.242  1.00  0.00     0.023 A 
ATOM     84  C   UNL A   1      44.871  26.619  35.099  1.00  0.00     0.031 A 
ATOM     85  C   UNL A   1      46.184  28.430  34.198  1.00  0.00     0.131 A 
ATOM     86  C   UNL A   1      45.961  26.266  35.908  1.00  0.00     0.055 A 
ATOM     87  C   UNL A   1      47.282  28.042  34.966  1.00  0.00     0.041 A 
ATOM     88  F   UNL A   1      46.328  29.498  33.397  1.00  0.00    -0.206 F 
ATOM     89  C   UNL A   1      47.171  26.960  35.835  1.00  0.00     0.022 A 
BRANCH  86  90
ATOM     90  S   UNL A   1      45.759  24.919  37.107  1.00  0.00     0.124 S 
ATOM     91  O   UNL A   1      44.440  25.202  37.662  1.00  0.00    -0.237 OA
ATOM     92  O   UNL A   1      45.855  23.731  36.265  1.00  0.00    -0.237 OA
ATOM     93  O   UNL A   1      46.876  25.112  38.031  1.00  0.00    -0.744 OA
ENDBRANCH  86  90
ENDBRANCH  60  83
ENDBRANCH  34  35
ENDBRANCH  27  29
ENDBRANCH  26  27
ENDBRANCH  25  26
ENDBRANCH   1  25
TORSDOF 18
ENDMDL
MODEL 3
REMARK VINA RESULT:     -11.7      5.060      9.919
REMARK SMILES O=C(CNc1nc(-c2ccccc2)c(-c2ccccc2)s1)OCCOC(=O)c1ccc(-c2c3nc(c(-c4cc(S(=O)(=O)[O-])ccc4F)c4ccc([nH]4)c(-c4cc(S(=O)(=O)[O-])ccc4F)c4nc(c(-c5cc(S(=O)(=O)[O-])ccc5F)c5ccc2[nH]5)C=C4)C=C3)cc1
REMARK SMILES IDX 23 1 22 2 2 3 1 4 3 5 4 6 5 8 6 9 21 10 7 11 14 12 8 13 9 14
REMARK SMILES IDX 13 15 10 16 12 17 11 18 15 19 16 20 20 21 17 22 19 23 18 24
REMARK SMILES IDX 24 25 25 26 26 27 27 28 28 29 29 30 90 31 30 32 89 33 31 34
REMARK SMILES IDX 32 35 33 36 83 37 34 38 88 39 82 40 84 41 35 42 87 43 81 44
REMARK SMILES IDX 80 45 36 47 68 48 48 49 67 50 49 51 52 52 66 53 85 54 50 55
REMARK SMILES IDX 51 56 65 58 86 59 53 60 37 61 38 62 46 63 39 64 45 65 47 66
REMARK SMILES IDX 44 67 40 68 41 69 42 70 43 71 69 72 70 73 78 74 71 75 77 76
REMARK SMILES IDX 79 77 76 78 72 79 73 80 74 81 75 82 54 83 55 84 63 85 56 86
REMARK SMILES IDX 62 87 64 88 61 89 57 90 58 91 59 92 60 93
REMARK H PARENT 4 7 84 46 52 57
REMARK Flexibility Score: inf
ROOT
ATOM      1  C   UNL A   1      34.594  20.628  25.337  1.00  0.00     0.274 C 
ENDROOT
BRANCH   1   2
ATOM      2  O   UNL A   1      33.892  21.300  24.270  1.00  0.00    -0.461 OA
BRANCH   2   3
ATOM      3  C   UNL A   1      32.554  21.257  24.049  1.00  0.00     0.325 C 
ATOM      4  O   UNL A   1      31.814  20.783  24.911  1.00  0.00    -0.250 OA
BRANCH   3   5
ATOM      5  C   UNL A   1      31.982  21.831  22.757  1.00  0.00     0.238 C 
BRANCH   5   6
ATOM      6  N   UNL A   1      32.603  23.097  22.413  1.00  0.00    -0.351 N 
ATOM      7  H   UNL A   1      33.316  23.121  21.733  1.00  0.00     0.163 HD
BRANCH   6   8
ATOM      8  C   UNL A   1      32.218  24.238  23.011  1.00  0.00     0.184 A 
ATOM      9  N   UNL A   1      31.311  25.068  22.549  1.00  0.00    -0.220 NA
ATOM     10  S   UNL A   1      33.026  24.761  24.432  1.00  0.00    -0.096 S 
ATOM     11  C   UNL A   1      31.251  26.206  23.336  1.00  0.00     0.091 A 
ATOM     12  C   UNL A   1      32.167  26.246  24.375  1.00  0.00     0.064 A 
BRANCH  11  13
ATOM     13  C   UNL A   1      30.266  27.248  23.081  1.00  0.00     0.002 A 
ATOM     14  C   UNL A   1      30.621  28.458  22.466  1.00  0.00     0.010 A 
ATOM     15  C   UNL A   1      28.949  27.067  23.520  1.00  0.00     0.010 A 
ATOM     16  C   UNL A   1      29.686  29.488  22.340  1.00  0.00     0.001 A 
ATOM     17  C   UNL A   1      28.016  28.101  23.397  1.00  0.00     0.001 A 
ATOM     18  C   UNL A   1      28.388  29.313  22.817  1.00  0.00     0.000 A 
ENDBRANCH  11  13
BRANCH  12  19
ATOM     19  C   UNL A   1      32.446  27.265  25.381  1.00  0.00    -0.006 A 
ATOM     20  C   UNL A   1      31.552  27.472  26.443  1.00  0.00     0.009 A 
ATOM     21  C   UNL A   1      33.616  28.028  25.312  1.00  0.00     0.009 A 
ATOM     22  C   UNL A   1      31.819  28.440  27.410  1.00  0.00     0.001 A 
ATOM     23  C   UNL A   1      33.880  28.997  26.280  1.00  0.00     0.001 A 
ATOM     24  C   UNL A   1      32.981  29.204  27.326  1.00  0.00     0.000 A 
ENDBRANCH  12  19
ENDBRANCH   6   8
ENDBRANCH   5   6
ENDBRANCH   3   5
ENDBRANCH   2   3
ENDBRANCH   1   2
BRANCH   1  25
ATOM     25  C   UNL A   1      36.069  20.406  25.009  1.00  0.00     0.275 C 
BRANCH  25  26
ATOM     26  O   UNL A   1      36.883  21.353  25.716  1.00  0.00    -0.458 OA
BRANCH  26  27
ATOM     27  C   UNL A   1      38.196  21.031  25.825  1.00  0.00     0.338 C 
ATOM     28  O   UNL A   1      38.723  19.994  25.464  1.00  0.00    -0.246 OA
BRANCH  27  29
ATOM     29  C   UNL A   1      38.940  22.236  26.255  1.00  0.00     0.060 A 
ATOM     30  C   UNL A   1      40.089  22.054  27.034  1.00  0.00     0.016 A 
ATOM     31  C   UNL A   1      38.563  23.520  25.844  1.00  0.00     0.016 A 
ATOM     32  C   UNL A   1      40.865  23.155  27.404  1.00  0.00     0.010 A 
ATOM     33  C   UNL A   1      39.336  24.620  26.222  1.00  0.00     0.010 A 
ATOM     34  C   UNL A   1      40.488  24.445  27.007  1.00  0.00    -0.014 A 
BRANCH  34  35
ATOM     35  C   UNL A   1      41.256  25.630  27.458  1.00  0.00     0.031 A 
ATOM     36  C   UNL A   1      40.542  26.734  28.185  1.00  0.00     0.074 A 
ATOM     37  C   UNL A   1      42.570  25.733  27.185  1.00  0.00     0.049 A 
ATOM     38  N   UNL A   1      41.004  27.884  28.599  1.00  0.00    -0.248 NA
ATOM     39  C   UNL A   1      39.117  26.513  28.476  1.00  0.00     0.031 C 
ATOM     40  C   UNL A   1      43.371  24.718  26.500  1.00  0.00     0.029 A 
ATOM     41  N   UNL A   1      43.457  26.753  27.427  1.00  0.00    -0.354 N 
ATOM     42  C   UNL A   1      39.930  28.528  29.203  1.00  0.00     0.074 A 
ATOM     43  C   UNL A   1      38.787  27.649  29.078  1.00  0.00     0.031 C 
ATOM     44  C   UNL A   1      44.625  25.179  26.354  1.00  0.00     0.029 A 
ATOM     45  C   UNL A   1      44.708  26.532  26.899  1.00  0.00     0.049 A 
ATOM     46  H   UNL A   1      43.220  27.564  27.932  1.00  0.00     0.167 HD
ATOM     47  C   UNL A   1      39.903  29.741  29.805  1.00  0.00     0.034 A 
ATOM     48  C   UNL A   1      45.782  27.346  26.831  1.00  0.00     0.034 A 
ATOM     49  C   UNL A   1      41.045  30.613  29.914  1.00  0.00     0.049 A 
ATOM     50  C   UNL A   1      45.695  28.731  27.428  1.00  0.00     0.074 A 
ATOM     51  C   UNL A   1      41.138  31.831  30.567  1.00  0.00     0.029 A 
ATOM     52  N   UNL A   1      42.282  30.380  29.331  1.00  0.00    -0.354 N 
ATOM     53  N   UNL A   1      44.690  29.301  28.054  1.00  0.00    -0.248 NA
ATOM     54  C   UNL A   1      46.885  29.586  27.307  1.00  0.00     0.031 C 
ATOM     55  C   UNL A   1      42.406  32.366  30.316  1.00  0.00     0.029 A 
ATOM     56  C   UNL A   1      43.127  31.453  29.563  1.00  0.00     0.049 A 
ATOM     57  H   UNL A   1      42.524  29.570  28.826  1.00  0.00     0.167 HD
ATOM     58  C   UNL A   1      45.140  30.567  28.421  1.00  0.00     0.074 A 
ATOM     59  C   UNL A   1      46.507  30.674  27.961  1.00  0.00     0.031 C 
ATOM     60  C   UNL A   1      44.483  31.553  29.083  1.00  0.00     0.034 A 
BRANCH  47  61
ATOM     61  C   UNL A   1      38.585  30.218  30.353  1.00  0.00     0.023 A 
ATOM     62  C   UNL A   1      37.712  31.015  29.592  1.00  0.00     0.031 A 
ATOM     63  C   UNL A   1      38.192  29.856  31.653  1.00  0.00     0.131 A 
ATOM     64  C   UNL A   1      36.506  31.457  30.155  1.00  0.00     0.055 A 
ATOM     65  C   UNL A   1      36.965  30.250  32.185  1.00  0.00     0.041 A 
ATOM     66  F   UNL A   1      38.999  29.112  32.426  1.00  0.00    -0.206 F 
ATOM     67  C   UNL A   1      36.116  31.061  31.438  1.00  0.00     0.022 A 
BRANCH  64  68
ATOM     68  S   UNL A   1      35.485  32.625  29.217  1.00  0.00     0.124 S 
ATOM     69  O   UNL A   1      36.214  33.876  29.408  1.00  0.00    -0.237 OA
ATOM     70  O   UNL A   1      35.517  32.065  27.871  1.00  0.00    -0.237 OA
ATOM     71  O   UNL A   1      34.187  32.561  29.888  1.00  0.00    -0.744 OA
ENDBRANCH  64  68
ENDBRANCH  47  61
BRANCH  48  72
ATOM     72  C   UNL A   1      47.018  26.919  26.111  1.00  0.00     0.023 A 
ATOM     73  C   UNL A   1      48.057  26.255  26.782  1.00  0.00     0.031 A 
ATOM     74  C   UNL A   1      47.218  27.263  24.762  1.00  0.00     0.131 A 
ATOM     75  C   UNL A   1      49.271  26.009  26.122  1.00  0.00     0.055 A 
ATOM     76  C   UNL A   1      48.407  26.965  24.093  1.00  0.00     0.041 A 
ATOM     77  F   UNL A   1      46.261  27.906  24.075  1.00  0.00    -0.206 F 
ATOM     78  C   UNL A   1      49.449  26.349  24.779  1.00  0.00     0.022 A 
BRANCH  75  79
ATOM     79  S   UNL A   1      50.662  25.348  27.080  1.00  0.00     0.124 S 
ATOM     80  O   UNL A   1      51.579  24.929  26.025  1.00  0.00    -0.237 OA
ATOM     81  O   UNL A   1      51.071  26.511  27.861  1.00  0.00    -0.237 OA
ATOM     82  O   UNL A   1      50.060  24.261  27.850  1.00  0.00    -0.744 OA
ENDBRANCH  75  79
ENDBRANCH  48  72
BRANCH  60  83
ATOM     83  C   UNL A   1      45.251  32.819  29.369  1.00  0.00     0.023 A 
ATOM     84  C   UNL A   1      45.225  33.912  28.485  1.00  0.00     0.031 A 
ATOM     85  C   UNL A   1      46.019  32.933  30.541  1.00  0.00     0.131 A 
ATOM     86  C   UNL A   1      45.987  35.056  28.766  1.00  0.00     0.055 A 
ATOM     87  C   UNL A   1      46.733  34.094  30.842  1.00  0.00     0.041 A 
ATOM     88  F   UNL A   1      46.079  31.919  31.418  1.00  0.00    -0.206 F 
ATOM     89  C   UNL A   1      46.728  35.160  29.947  1.00  0.00     0.022 A 
BRANCH  86  90
ATOM     90  S   UNL A   1      46.048  36.390  27.538  1.00  0.00     0.124 S 
ATOM     91  O   UNL A   1      46.428  37.538  28.355  1.00  0.00    -0.237 OA
ATOM     92  O   UNL A   1      47.059  35.911  26.602  1.00  0.00    -0.237 OA
ATOM     93  O   UNL A   1      44.686  36.431  27.008  1.00  0.00    -0.744 OA
ENDBRANCH  86  90
ENDBRANCH  60  83
ENDBRANCH  34  35
ENDBRANCH  27  29
ENDBRANCH  26  27
ENDBRANCH  25  26
ENDBRANCH   1  25
TORSDOF 18
ENDMDL
