MODEL 1
REMARK VINA RESULT:     -12.3      0.000      0.000
REMARK SMILES Cc1sc(NC(=O)[C@@H]2[C@@H](C(=O)OCCOC(=O)c3ccc(-c4c5nc(c(-c6cc(S(=O)(=O)[O-])ccc6F)c6ccc([nH]6)c(-c6cc(S(=O)(=O)[O-])ccc6F)c6nc(c(-c7cc(S(=O)(=O)[O-])ccc7F)c7ccc4[nH]7)C=C6)C=C5)cc3)[C@@H]3C=C[C@H]2C3)c(C#N)c1C
REMARK SMILES IDX 13 1 12 2 10 3 11 4 9 5 8 6 84 7 81 8 83 9 85 10 82 11 6 12
REMARK SMILES IDX 5 13 7 15 4 16 1 17 2 18 3 19 89 20 86 21 90 22 87 23 88 24
REMARK SMILES IDX 14 25 15 26 16 27 17 28 18 29 19 30 80 31 20 32 79 33 21 34
REMARK SMILES IDX 22 35 23 36 73 37 24 38 78 39 72 40 74 41 25 42 77 43 71 44
REMARK SMILES IDX 70 45 26 47 58 48 38 49 57 50 39 51 42 52 56 53 75 54 40 55
REMARK SMILES IDX 41 56 55 58 76 59 43 60 27 61 28 62 36 63 29 64 35 65 37 66
REMARK SMILES IDX 34 67 30 68 31 69 32 70 33 71 59 72 60 73 68 74 61 75 67 76
REMARK SMILES IDX 69 77 66 78 62 79 63 80 64 81 65 82 44 83 45 84 53 85 46 86
REMARK SMILES IDX 52 87 54 88 51 89 47 90 48 91 49 92 50 93
REMARK H PARENT 5 14 74 46 42 57
REMARK Flexibility Score: inf
ROOT
ATOM      1  C   UNL A   1      32.744  30.348  27.266  1.00  0.00     0.274 C 
ENDROOT
BRANCH   1   2
ATOM      2  O   UNL A   1      32.751  29.510  26.087  1.00  0.00    -0.462 OA
BRANCH   2   3
ATOM      3  C   UNL A   1      31.648  29.626  25.297  1.00  0.00     0.310 C 
ATOM      4  O   UNL A   1      31.008  30.673  25.199  1.00  0.00    -0.252 OA
BRANCH   3   5
ATOM      5  C   UNL A   1      31.260  28.310  24.599  1.00  0.00     0.119 C 
ATOM      6  C   UNL A   1      32.305  27.127  24.536  1.00  0.00     0.100 C 
ATOM      7  C   UNL A   1      32.650  27.083  22.992  1.00  0.00     0.025 C 
ATOM      8  C   UNL A   1      31.120  28.701  23.094  1.00  0.00     0.027 C 
ATOM      9  C   UNL A   1      31.456  26.622  22.194  1.00  0.00    -0.027 C 
ATOM     10  C   UNL A   1      32.573  28.564  22.611  1.00  0.00     0.017 C 
ATOM     11  C   UNL A   1      30.512  27.567  22.313  1.00  0.00    -0.027 C 
BRANCH   6  12
ATOM     12  C   UNL A   1      31.784  25.776  25.055  1.00  0.00     0.229 C 
ATOM     13  N   UNL A   1      32.414  24.591  24.813  1.00  0.00    -0.316 N 
ATOM     14  H   UNL A   1      31.787  23.874  24.562  1.00  0.00     0.170 HD
ATOM     15  O   UNL A   1      30.656  25.669  25.551  1.00  0.00    -0.274 OA
BRANCH  13  16
ATOM     16  C   UNL A   1      33.726  24.164  24.837  1.00  0.00     0.113 A 
ATOM     17  C   UNL A   1      37.416  23.815  26.065  1.00  0.00     0.057 C 
ATOM     18  C   UNL A   1      36.074  23.649  25.405  1.00  0.00     0.008 A 
ATOM     19  S   UNL A   1      34.624  24.039  26.263  1.00  0.00    -0.122 S 
ATOM     20  C   UNL A   1      35.771  23.285  24.094  1.00  0.00    -0.017 A 
ATOM     21  C   UNL A   1      34.420  23.638  23.765  1.00  0.00     0.090 A 
ATOM     22  C   UNL A   1      36.731  22.797  23.064  1.00  0.00     0.047 C 
BRANCH  21  23
ATOM     23  C   UNL A   1      33.890  23.604  22.443  1.00  0.00     0.103 C 
ATOM     24  N   UNL A   1      33.401  23.662  21.374  1.00  0.00    -0.192 NA
ENDBRANCH  21  23
ENDBRANCH  13  16
ENDBRANCH   6  12
ENDBRANCH   3   5
ENDBRANCH   2   3
ENDBRANCH   1   2
BRANCH   1  25
ATOM     25  C   UNL A   1      34.063  31.113  27.442  1.00  0.00     0.275 C 
BRANCH  25  26
ATOM     26  O   UNL A   1      35.142  30.567  28.249  1.00  0.00    -0.458 OA
BRANCH  26  27
ATOM     27  C   UNL A   1      36.089  31.401  28.744  1.00  0.00     0.338 C 
ATOM     28  O   UNL A   1      36.156  32.587  28.525  1.00  0.00    -0.246 OA
BRANCH  27  29
ATOM     29  C   UNL A   1      37.209  30.695  29.398  1.00  0.00     0.060 A 
ATOM     30  C   UNL A   1      38.506  31.225  29.392  1.00  0.00     0.016 A 
ATOM     31  C   UNL A   1      37.027  29.399  29.820  1.00  0.00     0.016 A 
ATOM     32  C   UNL A   1      39.606  30.345  29.402  1.00  0.00     0.010 A 
ATOM     33  C   UNL A   1      38.131  28.553  29.858  1.00  0.00     0.010 A 
ATOM     34  C   UNL A   1      39.407  28.952  29.421  1.00  0.00    -0.014 A 
BRANCH  34  35
ATOM     35  C   UNL A   1      40.565  27.981  29.492  1.00  0.00     0.031 A 
ATOM     36  C   UNL A   1      41.052  28.106  30.885  1.00  0.00     0.074 A 
ATOM     37  C   UNL A   1      41.084  27.021  28.651  1.00  0.00     0.049 A 
ATOM     38  N   UNL A   1      41.926  28.951  31.337  1.00  0.00    -0.248 NA
ATOM     39  C   UNL A   1      40.161  27.566  31.929  1.00  0.00     0.031 C 
ATOM     40  C   UNL A   1      40.645  26.625  27.301  1.00  0.00     0.029 A 
ATOM     41  N   UNL A   1      42.169  26.151  28.817  1.00  0.00    -0.354 N 
ATOM     42  C   UNL A   1      41.870  28.733  32.709  1.00  0.00     0.074 A 
ATOM     43  C   UNL A   1      40.529  28.320  32.967  1.00  0.00     0.031 C 
ATOM     44  C   UNL A   1      41.355  25.580  26.831  1.00  0.00     0.029 A 
ATOM     45  C   UNL A   1      42.294  25.140  27.828  1.00  0.00     0.049 A 
ATOM     46  H   UNL A   1      42.800  26.234  29.567  1.00  0.00     0.167 HD
ATOM     47  C   UNL A   1      42.981  28.280  33.357  1.00  0.00     0.034 A 
ATOM     48  C   UNL A   1      43.085  24.019  27.724  1.00  0.00     0.034 A 
ATOM     49  C   UNL A   1      44.167  28.616  32.591  1.00  0.00     0.049 A 
ATOM     50  C   UNL A   1      44.241  24.245  28.609  1.00  0.00     0.074 A 
ATOM     51  C   UNL A   1      44.697  29.777  32.061  1.00  0.00     0.029 A 
ATOM     52  N   UNL A   1      44.744  27.576  31.904  1.00  0.00    -0.354 N 
ATOM     53  N   UNL A   1      45.148  25.151  28.367  1.00  0.00    -0.248 NA
ATOM     54  C   UNL A   1      44.094  23.857  29.999  1.00  0.00     0.031 C 
ATOM     55  C   UNL A   1      45.343  29.395  30.850  1.00  0.00     0.029 A 
ATOM     56  C   UNL A   1      45.304  28.005  30.729  1.00  0.00     0.049 A 
ATOM     57  H   UNL A   1      44.754  26.642  32.215  1.00  0.00     0.167 HD
ATOM     58  C   UNL A   1      45.324  25.788  29.584  1.00  0.00     0.074 A 
ATOM     59  C   UNL A   1      44.731  24.882  30.570  1.00  0.00     0.031 C 
ATOM     60  C   UNL A   1      45.647  27.115  29.629  1.00  0.00     0.034 A 
BRANCH  47  61
ATOM     61  C   UNL A   1      42.943  27.111  34.353  1.00  0.00     0.023 A 
ATOM     62  C   UNL A   1      43.665  25.965  33.990  1.00  0.00     0.031 A 
ATOM     63  C   UNL A   1      42.087  26.936  35.481  1.00  0.00     0.131 A 
ATOM     64  C   UNL A   1      43.465  24.740  34.655  1.00  0.00     0.055 A 
ATOM     65  C   UNL A   1      41.924  25.730  36.161  1.00  0.00     0.041 A 
ATOM     66  F   UNL A   1      41.293  27.882  35.987  1.00  0.00    -0.206 F 
ATOM     67  C   UNL A   1      42.600  24.612  35.737  1.00  0.00     0.022 A 
BRANCH  64  68
ATOM     68  S   UNL A   1      44.261  23.265  33.988  1.00  0.00     0.124 S 
ATOM     69  O   UNL A   1      45.528  23.815  33.523  1.00  0.00    -0.237 OA
ATOM     70  O   UNL A   1      44.315  22.402  35.163  1.00  0.00    -0.237 OA
ATOM     71  O   UNL A   1      43.339  22.832  32.940  1.00  0.00    -0.744 OA
ENDBRANCH  64  68
ENDBRANCH  47  61
BRANCH  48  72
ATOM     72  C   UNL A   1      42.781  22.681  27.063  1.00  0.00     0.023 A 
ATOM     73  C   UNL A   1      43.679  21.944  26.232  1.00  0.00     0.031 A 
ATOM     74  C   UNL A   1      41.616  21.974  27.448  1.00  0.00     0.131 A 
ATOM     75  C   UNL A   1      43.388  20.595  25.850  1.00  0.00     0.055 A 
ATOM     76  C   UNL A   1      41.335  20.658  27.067  1.00  0.00     0.041 A 
ATOM     77  F   UNL A   1      40.720  22.502  28.292  1.00  0.00    -0.206 F 
ATOM     78  C   UNL A   1      42.226  19.957  26.282  1.00  0.00     0.022 A 
BRANCH  75  79
ATOM     79  S   UNL A   1      44.544  19.570  24.857  1.00  0.00     0.124 S 
ATOM     80  O   UNL A   1      45.832  19.862  25.475  1.00  0.00    -0.237 OA
ATOM     81  O   UNL A   1      44.021  18.223  25.042  1.00  0.00    -0.237 OA
ATOM     82  O   UNL A   1      44.390  20.097  23.498  1.00  0.00    -0.744 OA
ENDBRANCH  75  79
ENDBRANCH  48  72
BRANCH  60  83
ATOM     83  C   UNL A   1      46.353  27.732  28.433  1.00  0.00     0.023 A 
ATOM     84  C   UNL A   1      47.743  27.740  28.175  1.00  0.00     0.031 A 
ATOM     85  C   UNL A   1      45.508  28.281  27.448  1.00  0.00     0.131 A 
ATOM     86  C   UNL A   1      48.227  28.278  26.959  1.00  0.00     0.055 A 
ATOM     87  C   UNL A   1      45.986  28.784  26.242  1.00  0.00     0.041 A 
ATOM     88  F   UNL A   1      44.177  28.306  27.635  1.00  0.00    -0.206 F 
ATOM     89  C   UNL A   1      47.351  28.787  25.993  1.00  0.00     0.022 A 
BRANCH  86  90
ATOM     90  S   UNL A   1      50.018  28.357  26.609  1.00  0.00     0.124 S 
ATOM     91  O   UNL A   1      50.626  28.086  27.906  1.00  0.00    -0.237 OA
ATOM     92  O   UNL A   1      50.190  27.317  25.597  1.00  0.00    -0.237 OA
ATOM     93  O   UNL A   1      50.212  29.724  26.119  1.00  0.00    -0.744 OA
ENDBRANCH  86  90
ENDBRANCH  60  83
ENDBRANCH  34  35
ENDBRANCH  27  29
ENDBRANCH  26  27
ENDBRANCH  25  26
ENDBRANCH   1  25
TORSDOF 17
ENDMDL
MODEL 2
REMARK VINA RESULT:     -12.3      4.680     10.332
REMARK SMILES Cc1sc(NC(=O)[C@@H]2[C@@H](C(=O)OCCOC(=O)c3ccc(-c4c5nc(c(-c6cc(S(=O)(=O)[O-])ccc6F)c6ccc([nH]6)c(-c6cc(S(=O)(=O)[O-])ccc6F)c6nc(c(-c7cc(S(=O)(=O)[O-])ccc7F)c7ccc4[nH]7)C=C6)C=C5)cc3)[C@@H]3C=C[C@H]2C3)c(C#N)c1C
REMARK SMILES IDX 13 1 12 2 10 3 11 4 9 5 8 6 84 7 81 8 83 9 85 10 82 11 6 12
REMARK SMILES IDX 5 13 7 15 4 16 1 17 2 18 3 19 89 20 86 21 90 22 87 23 88 24
REMARK SMILES IDX 14 25 15 26 16 27 17 28 18 29 19 30 80 31 20 32 79 33 21 34
REMARK SMILES IDX 22 35 23 36 73 37 24 38 78 39 72 40 74 41 25 42 77 43 71 44
REMARK SMILES IDX 70 45 26 47 58 48 38 49 57 50 39 51 42 52 56 53 75 54 40 55
REMARK SMILES IDX 41 56 55 58 76 59 43 60 27 61 28 62 36 63 29 64 35 65 37 66
REMARK SMILES IDX 34 67 30 68 31 69 32 70 33 71 59 72 60 73 68 74 61 75 67 76
REMARK SMILES IDX 69 77 66 78 62 79 63 80 64 81 65 82 44 83 45 84 53 85 46 86
REMARK SMILES IDX 52 87 54 88 51 89 47 90 48 91 49 92 50 93
REMARK H PARENT 5 14 74 46 42 57
REMARK Flexibility Score: inf
ROOT
ATOM      1  C   UNL A   1      37.430  22.793  25.992  1.00  0.00     0.274 C 
ENDROOT
BRANCH   1   2
ATOM      2  O   UNL A   1      36.912  22.451  24.687  1.00  0.00    -0.462 OA
BRANCH   2   3
ATOM      3  C   UNL A   1      35.989  21.448  24.682  1.00  0.00     0.310 C 
ATOM      4  O   UNL A   1      36.280  20.278  24.925  1.00  0.00    -0.252 OA
BRANCH   3   5
ATOM      5  C   UNL A   1      34.580  21.923  24.285  1.00  0.00     0.119 C 
ATOM      6  C   UNL A   1      34.072  23.339  24.767  1.00  0.00     0.100 C 
ATOM      7  C   UNL A   1      32.938  22.942  25.797  1.00  0.00     0.025 C 
ATOM      8  C   UNL A   1      33.621  20.956  25.047  1.00  0.00     0.027 C 
ATOM      9  C   UNL A   1      31.771  22.306  25.081  1.00  0.00    -0.027 C 
ATOM     10  C   UNL A   1      33.506  21.659  26.410  1.00  0.00     0.017 C 
ATOM     11  C   UNL A   1      32.204  21.143  24.574  1.00  0.00    -0.027 C 
BRANCH   6  12
ATOM     12  C   UNL A   1      33.549  24.254  23.648  1.00  0.00     0.229 C 
ATOM     13  N   UNL A   1      32.805  25.373  23.885  1.00  0.00    -0.316 N 
ATOM     14  H   UNL A   1      32.040  25.456  23.270  1.00  0.00     0.170 HD
ATOM     15  O   UNL A   1      33.604  23.914  22.460  1.00  0.00    -0.274 OA
BRANCH  13  16
ATOM     16  C   UNL A   1      32.877  26.415  24.788  1.00  0.00     0.113 A 
ATOM     17  C   UNL A   1      34.462  29.258  26.943  1.00  0.00     0.057 C 
ATOM     18  C   UNL A   1      33.542  28.336  26.190  1.00  0.00     0.008 A 
ATOM     19  S   UNL A   1      34.045  27.633  24.692  1.00  0.00    -0.122 S 
ATOM     20  C   UNL A   1      32.290  27.844  26.554  1.00  0.00    -0.017 A 
ATOM     21  C   UNL A   1      31.942  26.698  25.764  1.00  0.00     0.090 A 
ATOM     22  C   UNL A   1      31.477  28.268  27.729  1.00  0.00     0.047 C 
BRANCH  21  23
ATOM     23  C   UNL A   1      30.838  25.843  26.048  1.00  0.00     0.103 C 
ATOM     24  N   UNL A   1      29.906  25.197  26.363  1.00  0.00    -0.192 NA
ENDBRANCH  21  23
ENDBRANCH  13  16
ENDBRANCH   6  12
ENDBRANCH   3   5
ENDBRANCH   2   3
ENDBRANCH   1   2
BRANCH   1  25
ATOM     25  C   UNL A   1      38.855  22.264  26.209  1.00  0.00     0.275 C 
BRANCH  25  26
ATOM     26  O   UNL A   1      40.002  23.152  26.130  1.00  0.00    -0.458 OA
BRANCH  26  27
ATOM     27  C   UNL A   1      40.728  23.401  27.247  1.00  0.00     0.338 C 
ATOM     28  O   UNL A   1      40.923  22.613  28.141  1.00  0.00    -0.246 OA
BRANCH  27  29
ATOM     29  C   UNL A   1      41.076  24.827  27.416  1.00  0.00     0.060 A 
ATOM     30  C   UNL A   1      41.805  25.272  28.527  1.00  0.00     0.016 A 
ATOM     31  C   UNL A   1      40.486  25.760  26.597  1.00  0.00     0.016 A 
ATOM     32  C   UNL A   1      41.581  26.573  29.017  1.00  0.00     0.010 A 
ATOM     33  C   UNL A   1      40.304  27.051  27.083  1.00  0.00     0.010 A 
ATOM     34  C   UNL A   1      40.641  27.418  28.399  1.00  0.00    -0.014 A 
BRANCH  34  35
ATOM     35  C   UNL A   1      40.418  28.841  28.864  1.00  0.00     0.031 A 
ATOM     36  C   UNL A   1      41.688  29.527  28.534  1.00  0.00     0.074 A 
ATOM     37  C   UNL A   1      39.339  29.553  29.339  1.00  0.00     0.049 A 
ATOM     38  N   UNL A   1      42.751  29.609  29.273  1.00  0.00    -0.248 NA
ATOM     39  C   UNL A   1      41.954  29.733  27.097  1.00  0.00     0.031 C 
ATOM     40  C   UNL A   1      37.956  29.105  29.580  1.00  0.00     0.029 A 
ATOM     41  N   UNL A   1      39.231  30.892  29.737  1.00  0.00    -0.354 N 
ATOM     42  C   UNL A   1      43.668  30.204  28.413  1.00  0.00     0.074 A 
ATOM     43  C   UNL A   1      43.288  29.774  27.106  1.00  0.00     0.031 C 
ATOM     44  C   UNL A   1      37.162  30.122  29.969  1.00  0.00     0.029 A 
ATOM     45  C   UNL A   1      37.909  31.350  29.975  1.00  0.00     0.049 A 
ATOM     46  H   UNL A   1      40.018  31.474  29.843  1.00  0.00     0.167 HD
ATOM     47  C   UNL A   1      44.182  31.426  28.730  1.00  0.00     0.034 A 
ATOM     48  C   UNL A   1      37.373  32.598  30.199  1.00  0.00     0.034 A 
ATOM     49  C   UNL A   1      44.086  31.641  30.162  1.00  0.00     0.049 A 
ATOM     50  C   UNL A   1      38.479  33.442  30.683  1.00  0.00     0.074 A 
ATOM     51  C   UNL A   1      44.490  30.949  31.288  1.00  0.00     0.029 A 
ATOM     52  N   UNL A   1      43.093  32.499  30.569  1.00  0.00    -0.354 N 
ATOM     53  N   UNL A   1      39.049  33.261  31.842  1.00  0.00    -0.248 NA
ATOM     54  C   UNL A   1      39.286  34.110  29.680  1.00  0.00     0.031 C 
ATOM     55  C   UNL A   1      43.495  31.197  32.278  1.00  0.00     0.029 A 
ATOM     56  C   UNL A   1      42.580  32.126  31.783  1.00  0.00     0.049 A 
ATOM     57  H   UNL A   1      42.790  33.281  30.053  1.00  0.00     0.167 HD
ATOM     58  C   UNL A   1      40.405  33.331  31.566  1.00  0.00     0.074 A 
ATOM     59  C   UNL A   1      40.486  33.961  30.246  1.00  0.00     0.031 C 
ATOM     60  C   UNL A   1      41.297  32.593  32.291  1.00  0.00     0.034 A 
BRANCH  47  61
ATOM     61  C   UNL A   1      44.257  32.584  27.723  1.00  0.00     0.023 A 
ATOM     62  C   UNL A   1      43.651  33.785  28.116  1.00  0.00     0.031 A 
ATOM     63  C   UNL A   1      44.646  32.539  26.351  1.00  0.00     0.131 A 
ATOM     64  C   UNL A   1      43.387  34.804  27.181  1.00  0.00     0.055 A 
ATOM     65  C   UNL A   1      44.418  33.569  25.439  1.00  0.00     0.041 A 
ATOM     66  F   UNL A   1      45.219  31.491  25.756  1.00  0.00    -0.206 F 
ATOM     67  C   UNL A   1      43.765  34.707  25.845  1.00  0.00     0.022 A 
BRANCH  64  68
ATOM     68  S   UNL A   1      42.408  36.222  27.714  1.00  0.00     0.124 S 
ATOM     69  O   UNL A   1      42.694  36.241  29.143  1.00  0.00    -0.237 OA
ATOM     70  O   UNL A   1      42.987  37.298  26.918  1.00  0.00    -0.237 OA
ATOM     71  O   UNL A   1      41.044  35.843  27.350  1.00  0.00    -0.744 OA
ENDBRANCH  64  68
ENDBRANCH  47  61
BRANCH  48  72
ATOM     72  C   UNL A   1      36.004  33.143  29.813  1.00  0.00     0.023 A 
ATOM     73  C   UNL A   1      35.202  34.013  30.614  1.00  0.00     0.031 A 
ATOM     74  C   UNL A   1      35.550  32.979  28.482  1.00  0.00     0.131 A 
ATOM     75  C   UNL A   1      34.043  34.653  30.070  1.00  0.00     0.055 A 
ATOM     76  C   UNL A   1      34.413  33.603  27.959  1.00  0.00     0.041 A 
ATOM     77  F   UNL A   1      36.240  32.259  27.588  1.00  0.00    -0.206 F 
ATOM     78  C   UNL A   1      33.665  34.456  28.743  1.00  0.00     0.022 A 
BRANCH  75  79
ATOM     79  S   UNL A   1      33.025  35.848  31.025  1.00  0.00     0.124 S 
ATOM     80  O   UNL A   1      32.323  34.981  31.964  1.00  0.00    -0.237 OA
ATOM     81  O   UNL A   1      34.026  36.746  31.588  1.00  0.00    -0.237 OA
ATOM     82  O   UNL A   1      32.169  36.461  30.006  1.00  0.00    -0.744 OA
ENDBRANCH  75  79
ENDBRANCH  48  72
BRANCH  60  83
ATOM     83  C   UNL A   1      40.913  32.167  33.699  1.00  0.00     0.023 A 
ATOM     84  C   UNL A   1      41.061  32.920  34.887  1.00  0.00     0.031 A 
ATOM     85  C   UNL A   1      40.270  30.917  33.799  1.00  0.00     0.131 A 
ATOM     86  C   UNL A   1      40.560  32.408  36.107  1.00  0.00     0.055 A 
ATOM     87  C   UNL A   1      39.756  30.430  34.997  1.00  0.00     0.041 A 
ATOM     88  F   UNL A   1      40.101  30.153  32.707  1.00  0.00    -0.206 F 
ATOM     89  C   UNL A   1      39.901  31.174  36.159  1.00  0.00     0.022 A 
BRANCH  86  90
ATOM     90  S   UNL A   1      40.778  33.322  37.674  1.00  0.00     0.124 S 
ATOM     91  O   UNL A   1      42.126  33.866  37.561  1.00  0.00    -0.237 OA
ATOM     92  O   UNL A   1      39.694  34.300  37.624  1.00  0.00    -0.237 OA
ATOM     93  O   UNL A   1      40.622  32.288  38.699  1.00  0.00    -0.744 OA
ENDBRANCH  86  90
ENDBRANCH  60  83
ENDBRANCH  34  35
ENDBRANCH  27  29
ENDBRANCH  26  27
ENDBRANCH  25  26
ENDBRANCH   1  25
TORSDOF 17
ENDMDL
MODEL 3
REMARK VINA RESULT:     -11.9      1.174      1.871
REMARK SMILES Cc1sc(NC(=O)[C@@H]2[C@@H](C(=O)OCCOC(=O)c3ccc(-c4c5nc(c(-c6cc(S(=O)(=O)[O-])ccc6F)c6ccc([nH]6)c(-c6cc(S(=O)(=O)[O-])ccc6F)c6nc(c(-c7cc(S(=O)(=O)[O-])ccc7F)c7ccc4[nH]7)C=C6)C=C5)cc3)[C@@H]3C=C[C@H]2C3)c(C#N)c1C
REMARK SMILES IDX 13 1 12 2 10 3 11 4 9 5 8 6 84 7 81 8 83 9 85 10 82 11 6 12
REMARK SMILES IDX 5 13 7 15 4 16 1 17 2 18 3 19 89 20 86 21 90 22 87 23 88 24
REMARK SMILES IDX 14 25 15 26 16 27 17 28 18 29 19 30 80 31 20 32 79 33 21 34
REMARK SMILES IDX 22 35 23 36 73 37 24 38 78 39 72 40 74 41 25 42 77 43 71 44
REMARK SMILES IDX 70 45 26 47 58 48 38 49 57 50 39 51 42 52 56 53 75 54 40 55
REMARK SMILES IDX 41 56 55 58 76 59 43 60 27 61 28 62 36 63 29 64 35 65 37 66
REMARK SMILES IDX 34 67 30 68 31 69 32 70 33 71 59 72 60 73 68 74 61 75 67 76
REMARK SMILES IDX 69 77 66 78 62 79 63 80 64 81 65 82 44 83 45 84 53 85 46 86
REMARK SMILES IDX 52 87 54 88 51 89 47 90 48 91 49 92 50 93
REMARK H PARENT 5 14 74 46 42 57
REMARK Flexibility Score: inf
ROOT
ATOM      1  C   UNL A   1      33.550  29.686  26.425  1.00  0.00     0.274 C 
ENDROOT
BRANCH   1   2
ATOM      2  O   UNL A   1      33.650  28.264  26.187  1.00  0.00    -0.462 OA
BRANCH   2   3
ATOM      3  C   UNL A   1      32.467  27.590  26.244  1.00  0.00     0.310 C 
ATOM      4  O   UNL A   1      31.833  27.448  27.288  1.00  0.00    -0.252 OA
BRANCH   3   5
ATOM      5  C   UNL A   1      32.049  26.983  24.892  1.00  0.00     0.119 C 
ATOM      6  C   UNL A   1      32.898  27.306  23.599  1.00  0.00     0.100 C 
ATOM      7  C   UNL A   1      31.892  28.201  22.768  1.00  0.00     0.025 C 
ATOM      8  C   UNL A   1      30.687  27.671  24.568  1.00  0.00     0.027 C 
ATOM      9  C   UNL A   1      30.717  27.379  22.296  1.00  0.00    -0.027 C 
ATOM     10  C   UNL A   1      31.158  28.961  23.876  1.00  0.00     0.017 C 
ATOM     11  C   UNL A   1      30.032  27.006  23.386  1.00  0.00    -0.027 C 
BRANCH   6  12
ATOM     12  C   UNL A   1      33.370  26.073  22.811  1.00  0.00     0.229 C 
ATOM     13  N   UNL A   1      33.668  24.879  23.400  1.00  0.00    -0.316 N 
ATOM     14  H   UNL A   1      34.495  24.478  23.045  1.00  0.00     0.170 HD
ATOM     15  O   UNL A   1      33.698  26.157  21.621  1.00  0.00    -0.274 OA
BRANCH  13  16
ATOM     16  C   UNL A   1      33.079  24.105  24.379  1.00  0.00     0.113 A 
ATOM     17  C   UNL A   1      30.261  22.603  26.625  1.00  0.00     0.057 C 
ATOM     18  C   UNL A   1      31.534  22.894  25.878  1.00  0.00     0.008 A 
ATOM     19  S   UNL A   1      31.479  23.570  24.287  1.00  0.00    -0.122 S 
ATOM     20  C   UNL A   1      32.856  22.784  26.305  1.00  0.00    -0.017 A 
ATOM     21  C   UNL A   1      33.733  23.534  25.454  1.00  0.00     0.090 A 
ATOM     22  C   UNL A   1      33.329  22.170  27.579  1.00  0.00     0.047 C 
BRANCH  21  23
ATOM     23  C   UNL A   1      35.099  23.803  25.759  1.00  0.00     0.103 C 
ATOM     24  N   UNL A   1      36.237  23.924  26.031  1.00  0.00    -0.192 NA
ENDBRANCH  21  23
ENDBRANCH  13  16
ENDBRANCH   6  12
ENDBRANCH   3   5
ENDBRANCH   2   3
ENDBRANCH   1   2
BRANCH   1  25
ATOM     25  C   UNL A   1      34.323  30.121  27.678  1.00  0.00     0.275 C 
BRANCH  25  26
ATOM     26  O   UNL A   1      35.618  30.772  27.570  1.00  0.00    -0.458 OA
BRANCH  26  27
ATOM     27  C   UNL A   1      36.124  31.428  28.643  1.00  0.00     0.338 C 
ATOM     28  O   UNL A   1      35.875  32.571  28.941  1.00  0.00    -0.246 OA
BRANCH  27  29
ATOM     29  C   UNL A   1      37.223  30.701  29.310  1.00  0.00     0.060 A 
ATOM     30  C   UNL A   1      38.523  31.223  29.350  1.00  0.00     0.016 A 
ATOM     31  C   UNL A   1      37.024  29.396  29.697  1.00  0.00     0.016 A 
ATOM     32  C   UNL A   1      39.618  30.337  29.368  1.00  0.00     0.010 A 
ATOM     33  C   UNL A   1      38.122  28.543  29.745  1.00  0.00     0.010 A 
ATOM     34  C   UNL A   1      39.411  28.945  29.351  1.00  0.00    -0.014 A 
BRANCH  34  35
ATOM     35  C   UNL A   1      40.562  27.966  29.429  1.00  0.00     0.031 A 
ATOM     36  C   UNL A   1      41.031  28.077  30.830  1.00  0.00     0.074 A 
ATOM     37  C   UNL A   1      41.087  27.010  28.588  1.00  0.00     0.049 A 
ATOM     38  N   UNL A   1      41.903  28.913  31.301  1.00  0.00    -0.248 NA
ATOM     39  C   UNL A   1      40.122  27.534  31.857  1.00  0.00     0.031 C 
ATOM     40  C   UNL A   1      40.665  26.628  27.228  1.00  0.00     0.029 A 
ATOM     41  N   UNL A   1      42.164  26.132  28.761  1.00  0.00    -0.354 N 
ATOM     42  C   UNL A   1      41.827  28.684  32.670  1.00  0.00     0.074 A 
ATOM     43  C   UNL A   1      40.479  28.277  32.907  1.00  0.00     0.031 C 
ATOM     44  C   UNL A   1      41.375  25.583  26.760  1.00  0.00     0.029 A 
ATOM     45  C   UNL A   1      42.297  25.129  27.765  1.00  0.00     0.049 A 
ATOM     46  H   UNL A   1      42.786  26.206  29.521  1.00  0.00     0.167 HD
ATOM     47  C   UNL A   1      42.925  28.219  33.330  1.00  0.00     0.034 A 
ATOM     48  C   UNL A   1      43.083  24.004  27.664  1.00  0.00     0.034 A 
ATOM     49  C   UNL A   1      44.124  28.553  32.583  1.00  0.00     0.049 A 
ATOM     50  C   UNL A   1      44.227  24.216  28.567  1.00  0.00     0.074 A 
ATOM     51  C   UNL A   1      44.668  29.715  32.071  1.00  0.00     0.029 A 
ATOM     52  N   UNL A   1      44.704  27.515  31.896  1.00  0.00    -0.354 N 
ATOM     53  N   UNL A   1      45.143  25.117  28.344  1.00  0.00    -0.248 NA
ATOM     54  C   UNL A   1      44.058  23.817  29.951  1.00  0.00     0.031 C 
ATOM     55  C   UNL A   1      45.329  29.339  30.866  1.00  0.00     0.029 A 
ATOM     56  C   UNL A   1      45.283  27.951  30.733  1.00  0.00     0.049 A 
ATOM     57  H   UNL A   1      44.704  26.579  32.200  1.00  0.00     0.167 HD
ATOM     58  C   UNL A   1      45.306  25.743  29.569  1.00  0.00     0.074 A 
ATOM     59  C   UNL A   1      44.694  24.833  30.539  1.00  0.00     0.031 C 
ATOM     60  C   UNL A   1      45.636  27.068  29.630  1.00  0.00     0.034 A 
BRANCH  47  61
ATOM     61  C   UNL A   1      42.867  27.041  34.316  1.00  0.00     0.023 A 
ATOM     62  C   UNL A   1      43.641  25.920  33.987  1.00  0.00     0.031 A 
ATOM     63  C   UNL A   1      41.954  26.834  35.393  1.00  0.00     0.131 A 
ATOM     64  C   UNL A   1      43.440  24.685  34.632  1.00  0.00     0.055 A 
ATOM     65  C   UNL A   1      41.790  25.618  36.056  1.00  0.00     0.041 A 
ATOM     66  F   UNL A   1      41.107  27.752  35.860  1.00  0.00    -0.206 F 
ATOM     67  C   UNL A   1      42.520  24.524  35.664  1.00  0.00     0.022 A 
BRANCH  64  68
ATOM     68  S   UNL A   1      44.314  23.238  34.002  1.00  0.00     0.124 S 
ATOM     69  O   UNL A   1      43.384  22.768  32.984  1.00  0.00    -0.237 OA
ATOM     70  O   UNL A   1      45.560  23.830  33.525  1.00  0.00    -0.237 OA
ATOM     71  O   UNL A   1      44.443  22.385  35.181  1.00  0.00    -0.744 OA
ENDBRANCH  64  68
ENDBRANCH  47  61
BRANCH  48  72
ATOM     72  C   UNL A   1      42.779  22.673  26.987  1.00  0.00     0.023 A 
ATOM     73  C   UNL A   1      43.710  21.898  26.229  1.00  0.00     0.031 A 
ATOM     74  C   UNL A   1      41.564  22.012  27.287  1.00  0.00     0.131 A 
ATOM     75  C   UNL A   1      43.398  20.558  25.832  1.00  0.00     0.055 A 
ATOM     76  C   UNL A   1      41.264  20.705  26.891  1.00  0.00     0.041 A 
ATOM     77  F   UNL A   1      40.628  22.579  28.058  1.00  0.00    -0.206 F 
ATOM     78  C   UNL A   1      42.184  19.966  26.178  1.00  0.00     0.022 A 
BRANCH  75  79
ATOM     79  S   UNL A   1      44.587  19.485  24.933  1.00  0.00     0.124 S 
ATOM     80  O   UNL A   1      44.234  19.724  23.539  1.00  0.00    -0.237 OA
ATOM     81  O   UNL A   1      45.879  19.993  25.375  1.00  0.00    -0.237 OA
ATOM     82  O   UNL A   1      44.270  18.138  25.417  1.00  0.00    -0.744 OA
ENDBRANCH  75  79
ENDBRANCH  48  72
BRANCH  60  83
ATOM     83  C   UNL A   1      46.363  27.690  28.449  1.00  0.00     0.023 A 
ATOM     84  C   UNL A   1      47.754  27.670  28.197  1.00  0.00     0.031 A 
ATOM     85  C   UNL A   1      45.536  28.278  27.471  1.00  0.00     0.131 A 
ATOM     86  C   UNL A   1      48.256  28.219  26.994  1.00  0.00     0.055 A 
ATOM     87  C   UNL A   1      46.032  28.792  26.277  1.00  0.00     0.041 A 
ATOM     88  F   UNL A   1      44.205  28.331  27.652  1.00  0.00    -0.206 F 
ATOM     89  C   UNL A   1      47.397  28.767  26.034  1.00  0.00     0.022 A 
BRANCH  86  90
ATOM     90  S   UNL A   1      50.051  28.263  26.654  1.00  0.00     0.124 S 
ATOM     91  O   UNL A   1      50.294  27.001  25.965  1.00  0.00    -0.237 OA
ATOM     92  O   UNL A   1      50.190  29.467  25.838  1.00  0.00    -0.237 OA
ATOM     93  O   UNL A   1      50.650  28.355  27.987  1.00  0.00    -0.744 OA
ENDBRANCH  86  90
ENDBRANCH  60  83
ENDBRANCH  34  35
ENDBRANCH  27  29
ENDBRANCH  26  27
ENDBRANCH  25  26
ENDBRANCH   1  25
TORSDOF 17
ENDMDL
