MODEL 1
REMARK VINA RESULT:     -10.9      0.000      0.000
REMARK SMILES O=C(OCCOC(=O)[C@H]1C[C@@H](O)CN1C(=O)c1cc(F)c(F)cc1Cl)c1ccc(-c2c3nc(c(-c4cc(S(=O)(=O)[O-])ccc4F)c4ccc([nH]4)c(-c4cc(S(=O)(=O)[O-])ccc4F)c4nc(c(-c5cc(S(=O)(=O)[O-])ccc5F)c5ccc2[nH]5)C=C4)C=C3)cc1
REMARK SMILES IDX 4 1 3 2 2 3 1 4 26 5 27 6 88 7 28 8 87 9 29 10 30 11 31 12
REMARK SMILES IDX 81 13 32 14 86 15 80 16 82 17 33 18 85 19 79 20 78 21 34 23
REMARK SMILES IDX 66 24 46 25 65 26 47 27 50 28 64 29 83 30 48 31 49 32 63 34
REMARK SMILES IDX 84 35 51 36 35 37 36 38 44 39 37 40 43 41 45 42 42 43 38 44
REMARK SMILES IDX 39 45 40 46 41 47 67 48 68 49 76 50 69 51 75 52 77 53 74 54
REMARK SMILES IDX 70 55 71 56 72 57 73 58 52 59 53 60 61 61 54 62 60 63 62 64
REMARK SMILES IDX 59 65 55 66 56 67 57 68 58 69 5 70 6 71 7 72 8 73 9 74 10 75
REMARK SMILES IDX 14 76 11 77 13 78 15 79 16 80 17 81 18 82 24 83 19 84 23 85
REMARK SMILES IDX 25 86 20 87 21 88 22 89 12 90
REMARK H PARENT 82 22 50 33 12 91
REMARK Flexibility Score: inf
ROOT
ATOM      1  C   UNL A   1      32.913  32.939  27.353  1.00  0.00     0.275 C 
ENDROOT
BRANCH   1   2
ATOM      2  O   UNL A   1      33.642  31.865  27.979  1.00  0.00    -0.458 OA
BRANCH   2   3
ATOM      3  C   UNL A   1      34.279  30.806  27.418  1.00  0.00     0.338 C 
ATOM      4  O   UNL A   1      33.690  30.161  26.551  1.00  0.00    -0.246 OA
BRANCH   3   5
ATOM      5  C   UNL A   1      35.589  30.267  27.911  1.00  0.00     0.060 A 
ATOM      6  C   UNL A   1      35.614  29.812  29.243  1.00  0.00     0.016 A 
ATOM      7  C   UNL A   1      36.769  30.156  27.169  1.00  0.00     0.016 A 
ATOM      8  C   UNL A   1      36.802  29.359  29.835  1.00  0.00     0.010 A 
ATOM      9  C   UNL A   1      37.962  29.706  27.760  1.00  0.00     0.010 A 
ATOM     10  C   UNL A   1      38.000  29.331  29.106  1.00  0.00    -0.014 A 
BRANCH  10  11
ATOM     11  C   UNL A   1      39.221  28.731  29.698  1.00  0.00     0.031 A 
ATOM     12  C   UNL A   1      39.876  27.480  29.189  1.00  0.00     0.074 A 
ATOM     13  C   UNL A   1      39.750  29.350  30.765  1.00  0.00     0.049 A 
ATOM     14  N   UNL A   1      41.125  27.109  29.312  1.00  0.00    -0.248 NA
ATOM     15  C   UNL A   1      39.060  26.534  28.426  1.00  0.00     0.031 C 
ATOM     16  C   UNL A   1      39.178  30.532  31.406  1.00  0.00     0.029 A 
ATOM     17  N   UNL A   1      40.856  29.053  31.512  1.00  0.00    -0.354 N 
ATOM     18  C   UNL A   1      41.271  25.981  28.510  1.00  0.00     0.074 A 
ATOM     19  C   UNL A   1      39.970  25.683  27.962  1.00  0.00     0.031 C 
ATOM     20  C   UNL A   1      39.921  30.842  32.475  1.00  0.00     0.029 A 
ATOM     21  C   UNL A   1      41.006  29.872  32.600  1.00  0.00     0.049 A 
ATOM     22  H   UNL A   1      41.481  28.325  31.290  1.00  0.00     0.167 HD
ATOM     23  C   UNL A   1      42.384  25.243  28.290  1.00  0.00     0.034 A 
ATOM     24  C   UNL A   1      41.909  29.834  33.597  1.00  0.00     0.034 A 
ATOM     25  C   UNL A   1      43.546  25.327  29.135  1.00  0.00     0.049 A 
ATOM     26  C   UNL A   1      43.040  28.849  33.498  1.00  0.00     0.074 A 
ATOM     27  C   UNL A   1      44.704  24.573  29.079  1.00  0.00     0.029 A 
ATOM     28  N   UNL A   1      43.639  26.121  30.270  1.00  0.00    -0.354 N 
ATOM     29  N   UNL A   1      43.295  27.982  32.544  1.00  0.00    -0.248 NA
ATOM     30  C   UNL A   1      44.024  28.853  34.585  1.00  0.00     0.031 C 
ATOM     31  C   UNL A   1      45.413  24.795  30.262  1.00  0.00     0.029 A 
ATOM     32  C   UNL A   1      44.774  25.789  30.988  1.00  0.00     0.049 A 
ATOM     33  H   UNL A   1      42.992  26.817  30.526  1.00  0.00     0.167 HD
ATOM     34  C   UNL A   1      44.483  27.354  32.901  1.00  0.00     0.074 A 
ATOM     35  C   UNL A   1      44.902  27.956  34.152  1.00  0.00     0.031 C 
ATOM     36  C   UNL A   1      45.167  26.377  32.250  1.00  0.00     0.034 A 
BRANCH  23  37
ATOM     37  C   UNL A   1      42.398  24.249  27.155  1.00  0.00     0.023 A 
ATOM     38  C   UNL A   1      41.893  22.946  27.325  1.00  0.00     0.031 A 
ATOM     39  C   UNL A   1      43.085  24.543  25.963  1.00  0.00     0.131 A 
ATOM     40  C   UNL A   1      42.126  21.974  26.340  1.00  0.00     0.055 A 
ATOM     41  C   UNL A   1      43.299  23.575  24.978  1.00  0.00     0.041 A 
ATOM     42  F   UNL A   1      43.584  25.773  25.748  1.00  0.00    -0.206 F 
ATOM     43  C   UNL A   1      42.828  22.279  25.170  1.00  0.00     0.022 A 
BRANCH  40  44
ATOM     44  S   UNL A   1      41.567  20.262  26.560  1.00  0.00     0.124 S 
ATOM     45  O   UNL A   1      40.117  20.426  26.634  1.00  0.00    -0.237 OA
ATOM     46  O   UNL A   1      42.062  19.621  25.346  1.00  0.00    -0.237 OA
ATOM     47  O   UNL A   1      42.205  19.846  27.805  1.00  0.00    -0.744 OA
ENDBRANCH  40  44
ENDBRANCH  23  37
BRANCH  24  48
ATOM     48  C   UNL A   1      41.759  30.815  34.706  1.00  0.00     0.023 A 
ATOM     49  C   UNL A   1      40.629  30.758  35.546  1.00  0.00     0.031 A 
ATOM     50  C   UNL A   1      42.609  31.925  34.809  1.00  0.00     0.131 A 
ATOM     51  C   UNL A   1      40.324  31.843  36.376  1.00  0.00     0.055 A 
ATOM     52  C   UNL A   1      42.344  32.967  35.698  1.00  0.00     0.041 A 
ATOM     53  F   UNL A   1      43.684  32.029  34.014  1.00  0.00    -0.206 F 
ATOM     54  C   UNL A   1      41.182  32.943  36.466  1.00  0.00     0.022 A 
BRANCH  51  55
ATOM     55  S   UNL A   1      38.711  31.946  37.204  1.00  0.00     0.124 S 
ATOM     56  O   UNL A   1      38.037  32.982  36.428  1.00  0.00    -0.237 OA
ATOM     57  O   UNL A   1      38.197  30.589  37.030  1.00  0.00    -0.237 OA
ATOM     58  O   UNL A   1      39.050  32.306  38.577  1.00  0.00    -0.744 OA
ENDBRANCH  51  55
ENDBRANCH  24  48
BRANCH  36  59
ATOM     59  C   UNL A   1      46.440  25.855  32.872  1.00  0.00     0.023 A 
ATOM     60  C   UNL A   1      47.684  26.277  32.368  1.00  0.00     0.031 A 
ATOM     61  C   UNL A   1      46.426  24.837  33.840  1.00  0.00     0.131 A 
ATOM     62  C   UNL A   1      48.860  25.650  32.794  1.00  0.00     0.055 A 
ATOM     63  C   UNL A   1      47.606  24.259  34.311  1.00  0.00     0.041 A 
ATOM     64  F   UNL A   1      45.265  24.386  34.341  1.00  0.00    -0.206 F 
ATOM     65  C   UNL A   1      48.829  24.652  33.773  1.00  0.00     0.022 A 
BRANCH  62  66
ATOM     66  S   UNL A   1      50.452  26.024  32.010  1.00  0.00     0.124 S 
ATOM     67  O   UNL A   1      50.038  26.822  30.858  1.00  0.00    -0.237 OA
ATOM     68  O   UNL A   1      51.146  26.761  33.063  1.00  0.00    -0.237 OA
ATOM     69  O   UNL A   1      51.006  24.713  31.693  1.00  0.00    -0.744 OA
ENDBRANCH  62  66
ENDBRANCH  36  59
ENDBRANCH  10  11
ENDBRANCH   3   5
ENDBRANCH   2   3
ENDBRANCH   1   2
BRANCH   1  70
ATOM     70  C   UNL A   1      33.329  34.321  27.849  1.00  0.00     0.274 C 
BRANCH  70  71
ATOM     71  O   UNL A   1      33.177  34.390  29.269  1.00  0.00    -0.461 OA
BRANCH  71  72
ATOM     72  C   UNL A   1      32.957  35.616  29.824  1.00  0.00     0.329 C 
ATOM     73  O   UNL A   1      32.097  36.405  29.455  1.00  0.00    -0.250 OA
BRANCH  72  74
ATOM     74  C   UNL A   1      33.923  35.835  31.003  1.00  0.00     0.198 C 
ATOM     75  C   UNL A   1      33.531  37.047  31.841  1.00  0.00     0.071 C 
ATOM     76  N   UNL A   1      33.916  34.744  31.974  1.00  0.00    -0.322 N 
ATOM     77  C   UNL A   1      32.639  36.481  32.929  1.00  0.00     0.136 C 
ATOM     78  C   UNL A   1      33.338  35.173  33.253  1.00  0.00     0.152 C 
BRANCH  76  79
ATOM     79  C   UNL A   1      34.654  33.602  31.737  1.00  0.00     0.256 C 
ATOM     80  O   UNL A   1      34.231  32.463  31.894  1.00  0.00    -0.269 OA
BRANCH  79  81
ATOM     81  C   UNL A   1      36.038  33.808  31.281  1.00  0.00     0.061 A 
ATOM     82  C   UNL A   1      36.335  33.454  29.958  1.00  0.00     0.057 A 
ATOM     83  C   UNL A   1      37.046  34.247  32.149  1.00  0.00     0.056 A 
ATOM     84  C   UNL A   1      37.654  33.444  29.542  1.00  0.00     0.159 A 
ATOM     85  C   UNL A   1      38.368  34.267  31.703  1.00  0.00     0.063 A 
ATOM     86  Cl  UNL A   1      36.739  34.715  33.780  1.00  0.00    -0.083 Cl
ATOM     87  F   UNL A   1      37.946  33.016  28.307  1.00  0.00    -0.204 F 
ATOM     88  C   UNL A   1      38.665  33.842  30.409  1.00  0.00     0.160 A 
ATOM     89  F   UNL A   1      39.941  33.811  30.005  1.00  0.00    -0.204 F 
ENDBRANCH  79  81
ENDBRANCH  76  79
BRANCH  77  90
ATOM     90  O   UNL A   1      31.323  36.285  32.418  1.00  0.00    -0.391 OA
ATOM     91  H   UNL A   1      31.317  35.517  31.826  1.00  0.00     0.211 HD
ENDBRANCH  77  90
ENDBRANCH  72  74
ENDBRANCH  71  72
ENDBRANCH  70  71
ENDBRANCH   1  70
TORSDOF 17
ENDMDL
MODEL 2
REMARK VINA RESULT:     -10.8      3.653      9.770
REMARK SMILES O=C(OCCOC(=O)[C@H]1C[C@@H](O)CN1C(=O)c1cc(F)c(F)cc1Cl)c1ccc(-c2c3nc(c(-c4cc(S(=O)(=O)[O-])ccc4F)c4ccc([nH]4)c(-c4cc(S(=O)(=O)[O-])ccc4F)c4nc(c(-c5cc(S(=O)(=O)[O-])ccc5F)c5ccc2[nH]5)C=C4)C=C3)cc1
REMARK SMILES IDX 4 1 3 2 2 3 1 4 26 5 27 6 88 7 28 8 87 9 29 10 30 11 31 12
REMARK SMILES IDX 81 13 32 14 86 15 80 16 82 17 33 18 85 19 79 20 78 21 34 23
REMARK SMILES IDX 66 24 46 25 65 26 47 27 50 28 64 29 83 30 48 31 49 32 63 34
REMARK SMILES IDX 84 35 51 36 35 37 36 38 44 39 37 40 43 41 45 42 42 43 38 44
REMARK SMILES IDX 39 45 40 46 41 47 67 48 68 49 76 50 69 51 75 52 77 53 74 54
REMARK SMILES IDX 70 55 71 56 72 57 73 58 52 59 53 60 61 61 54 62 60 63 62 64
REMARK SMILES IDX 59 65 55 66 56 67 57 68 58 69 5 70 6 71 7 72 8 73 9 74 10 75
REMARK SMILES IDX 14 76 11 77 13 78 15 79 16 80 17 81 18 82 24 83 19 84 23 85
REMARK SMILES IDX 25 86 20 87 21 88 22 89 12 90
REMARK H PARENT 82 22 50 33 12 91
REMARK Flexibility Score: inf
ROOT
ATOM      1  C   UNL A   1      32.152  29.951  26.135  1.00  0.00     0.275 C 
ENDROOT
BRANCH   1   2
ATOM      2  O   UNL A   1      33.552  30.200  26.366  1.00  0.00    -0.458 OA
BRANCH   2   3
ATOM      3  C   UNL A   1      34.163  30.826  27.405  1.00  0.00     0.338 C 
ATOM      4  O   UNL A   1      33.764  31.943  27.731  1.00  0.00    -0.246 OA
BRANCH   3   5
ATOM      5  C   UNL A   1      35.406  30.314  28.070  1.00  0.00     0.060 A 
ATOM      6  C   UNL A   1      36.583  30.345  27.299  1.00  0.00     0.016 A 
ATOM      7  C   UNL A   1      35.505  29.833  29.380  1.00  0.00     0.016 A 
ATOM      8  C   UNL A   1      37.789  29.822  27.789  1.00  0.00     0.010 A 
ATOM      9  C   UNL A   1      36.710  29.305  29.873  1.00  0.00     0.010 A 
ATOM     10  C   UNL A   1      37.857  29.265  29.075  1.00  0.00    -0.014 A 
BRANCH  10  11
ATOM     11  C   UNL A   1      39.162  28.831  29.633  1.00  0.00     0.031 A 
ATOM     12  C   UNL A   1      39.840  29.491  30.798  1.00  0.00     0.074 A 
ATOM     13  C   UNL A   1      39.767  27.793  29.035  1.00  0.00     0.049 A 
ATOM     14  N   UNL A   1      40.707  28.976  31.631  1.00  0.00    -0.248 NA
ATOM     15  C   UNL A   1      39.497  30.882  31.100  1.00  0.00     0.031 C 
ATOM     16  C   UNL A   1      39.257  27.104  27.852  1.00  0.00     0.029 A 
ATOM     17  N   UNL A   1      40.949  27.166  29.316  1.00  0.00    -0.354 N 
ATOM     18  C   UNL A   1      40.883  29.922  32.636  1.00  0.00     0.074 A 
ATOM     19  C   UNL A   1      40.091  31.072  32.274  1.00  0.00     0.031 C 
ATOM     20  C   UNL A   1      40.140  26.168  27.486  1.00  0.00     0.029 A 
ATOM     21  C   UNL A   1      41.280  26.205  28.398  1.00  0.00     0.049 A 
ATOM     22  H   UNL A   1      41.505  27.384  30.100  1.00  0.00     0.167 HD
ATOM     23  C   UNL A   1      41.669  29.847  33.735  1.00  0.00     0.034 A 
ATOM     24  C   UNL A   1      42.389  25.450  28.294  1.00  0.00     0.034 A 
ATOM     25  C   UNL A   1      42.723  28.875  33.867  1.00  0.00     0.049 A 
ATOM     26  C   UNL A   1      43.408  25.522  29.396  1.00  0.00     0.074 A 
ATOM     27  C   UNL A   1      43.650  28.747  34.885  1.00  0.00     0.029 A 
ATOM     28  N   UNL A   1      43.074  27.958  32.886  1.00  0.00    -0.354 N 
ATOM     29  N   UNL A   1      43.380  26.239  30.496  1.00  0.00    -0.248 NA
ATOM     30  C   UNL A   1      44.590  24.664  29.268  1.00  0.00     0.031 C 
ATOM     31  C   UNL A   1      44.645  27.871  34.445  1.00  0.00     0.029 A 
ATOM     32  C   UNL A   1      44.270  27.346  33.217  1.00  0.00     0.049 A 
ATOM     33  H   UNL A   1      42.549  27.770  32.074  1.00  0.00     0.167 HD
ATOM     34  C   UNL A   1      44.527  25.902  31.206  1.00  0.00     0.074 A 
ATOM     35  C   UNL A   1      45.217  24.902  30.415  1.00  0.00     0.031 C 
ATOM     36  C   UNL A   1      44.964  26.370  32.406  1.00  0.00     0.034 A 
BRANCH  23  37
ATOM     37  C   UNL A   1      41.483  30.851  34.846  1.00  0.00     0.023 A 
ATOM     38  C   UNL A   1      40.293  30.892  35.597  1.00  0.00     0.031 A 
ATOM     39  C   UNL A   1      42.419  31.885  35.030  1.00  0.00     0.131 A 
ATOM     40  C   UNL A   1      40.050  31.972  36.459  1.00  0.00     0.055 A 
ATOM     41  C   UNL A   1      42.178  32.950  35.904  1.00  0.00     0.041 A 
ATOM     42  F   UNL A   1      43.574  31.892  34.342  1.00  0.00    -0.206 F 
ATOM     43  C   UNL A   1      40.983  33.002  36.615  1.00  0.00     0.022 A 
BRANCH  40  44
ATOM     44  S   UNL A   1      38.491  32.107  37.378  1.00  0.00     0.124 S 
ATOM     45  O   UNL A   1      37.857  33.250  36.726  1.00  0.00    -0.237 OA
ATOM     46  O   UNL A   1      37.869  30.813  37.115  1.00  0.00    -0.237 OA
ATOM     47  O   UNL A   1      38.918  32.339  38.754  1.00  0.00    -0.744 OA
ENDBRANCH  40  44
ENDBRANCH  23  37
BRANCH  24  48
ATOM     48  C   UNL A   1      42.504  24.546  27.118  1.00  0.00     0.023 A 
ATOM     49  C   UNL A   1      41.913  23.267  27.154  1.00  0.00     0.031 A 
ATOM     50  C   UNL A   1      43.361  24.852  26.051  1.00  0.00     0.131 A 
ATOM     51  C   UNL A   1      42.273  22.307  26.201  1.00  0.00     0.055 A 
ATOM     52  C   UNL A   1      43.652  23.917  25.057  1.00  0.00     0.041 A 
ATOM     53  F   UNL A   1      43.960  26.051  25.988  1.00  0.00    -0.206 F 
ATOM     54  C   UNL A   1      43.130  22.629  25.144  1.00  0.00     0.022 A 
BRANCH  51  55
ATOM     55  S   UNL A   1      41.799  20.567  26.419  1.00  0.00     0.124 S 
ATOM     56  O   UNL A   1      40.364  20.610  26.158  1.00  0.00    -0.237 OA
ATOM     57  O   UNL A   1      42.609  19.906  25.398  1.00  0.00    -0.237 OA
ATOM     58  O   UNL A   1      42.183  20.274  27.796  1.00  0.00    -0.744 OA
ENDBRANCH  51  55
ENDBRANCH  24  48
BRANCH  36  59
ATOM     59  C   UNL A   1      46.267  25.838  32.952  1.00  0.00     0.023 A 
ATOM     60  C   UNL A   1      47.484  26.292  32.412  1.00  0.00     0.031 A 
ATOM     61  C   UNL A   1      46.304  24.784  33.880  1.00  0.00     0.131 A 
ATOM     62  C   UNL A   1      48.683  25.662  32.764  1.00  0.00     0.055 A 
ATOM     63  C   UNL A   1      47.508  24.201  34.277  1.00  0.00     0.041 A 
ATOM     64  F   UNL A   1      45.169  24.302  34.412  1.00  0.00    -0.206 F 
ATOM     65  C   UNL A   1      48.702  24.627  33.704  1.00  0.00     0.022 A 
BRANCH  62  66
ATOM     66  S   UNL A   1      50.236  26.083  31.927  1.00  0.00     0.124 S 
ATOM     67  O   UNL A   1      50.387  24.966  30.997  1.00  0.00    -0.237 OA
ATOM     68  O   UNL A   1      49.914  27.368  31.312  1.00  0.00    -0.237 OA
ATOM     69  O   UNL A   1      51.216  26.133  33.007  1.00  0.00    -0.744 OA
ENDBRANCH  62  66
ENDBRANCH  36  59
ENDBRANCH  10  11
ENDBRANCH   3   5
ENDBRANCH   2   3
ENDBRANCH   1   2
BRANCH   1  70
ATOM     70  C   UNL A   1      31.796  28.467  26.132  1.00  0.00     0.274 C 
BRANCH  70  71
ATOM     71  O   UNL A   1      31.449  28.058  24.807  1.00  0.00    -0.461 OA
BRANCH  71  72
ATOM     72  C   UNL A   1      32.398  27.404  24.076  1.00  0.00     0.329 C 
ATOM     73  O   UNL A   1      33.547  27.795  23.918  1.00  0.00    -0.250 OA
BRANCH  72  74
ATOM     74  C   UNL A   1      31.817  26.092  23.522  1.00  0.00     0.198 C 
ATOM     75  C   UNL A   1      31.484  26.200  22.037  1.00  0.00     0.071 C 
ATOM     76  N   UNL A   1      32.752  24.971  23.571  1.00  0.00    -0.322 N 
ATOM     77  C   UNL A   1      32.738  25.715  21.334  1.00  0.00     0.136 C 
ATOM     78  C   UNL A   1      33.166  24.562  22.223  1.00  0.00     0.152 C 
BRANCH  76  79
ATOM     79  C   UNL A   1      32.920  24.262  24.743  1.00  0.00     0.256 C 
ATOM     80  O   UNL A   1      32.122  24.270  25.673  1.00  0.00    -0.269 OA
BRANCH  79  81
ATOM     81  C   UNL A   1      34.155  23.470  24.851  1.00  0.00     0.061 A 
ATOM     82  C   UNL A   1      35.325  24.156  25.203  1.00  0.00     0.057 A 
ATOM     83  C   UNL A   1      34.193  22.108  24.526  1.00  0.00     0.056 A 
ATOM     84  C   UNL A   1      36.541  23.499  25.129  1.00  0.00     0.159 A 
ATOM     85  C   UNL A   1      35.423  21.450  24.492  1.00  0.00     0.063 A 
ATOM     86  Cl  UNL A   1      32.784  21.206  24.105  1.00  0.00    -0.083 Cl
ATOM     87  F   UNL A   1      37.667  24.180  25.375  1.00  0.00    -0.204 F 
ATOM     88  C   UNL A   1      36.591  22.157  24.770  1.00  0.00     0.160 A 
ATOM     89  F   UNL A   1      37.772  21.533  24.682  1.00  0.00    -0.204 F 
ENDBRANCH  79  81
ENDBRANCH  76  79
BRANCH  77  90
ATOM     90  O   UNL A   1      33.703  26.764  21.295  1.00  0.00    -0.391 OA
ATOM     91  H   UNL A   1      33.615  27.254  20.463  1.00  0.00     0.211 HD
ENDBRANCH  77  90
ENDBRANCH  72  74
ENDBRANCH  71  72
ENDBRANCH  70  71
ENDBRANCH   1  70
TORSDOF 17
ENDMDL
MODEL 3
REMARK VINA RESULT:     -10.8      3.862      6.178
REMARK SMILES O=C(OCCOC(=O)[C@H]1C[C@@H](O)CN1C(=O)c1cc(F)c(F)cc1Cl)c1ccc(-c2c3nc(c(-c4cc(S(=O)(=O)[O-])ccc4F)c4ccc([nH]4)c(-c4cc(S(=O)(=O)[O-])ccc4F)c4nc(c(-c5cc(S(=O)(=O)[O-])ccc5F)c5ccc2[nH]5)C=C4)C=C3)cc1
REMARK SMILES IDX 4 1 3 2 2 3 1 4 26 5 27 6 88 7 28 8 87 9 29 10 30 11 31 12
REMARK SMILES IDX 81 13 32 14 86 15 80 16 82 17 33 18 85 19 79 20 78 21 34 23
REMARK SMILES IDX 66 24 46 25 65 26 47 27 50 28 64 29 83 30 48 31 49 32 63 34
REMARK SMILES IDX 84 35 51 36 35 37 36 38 44 39 37 40 43 41 45 42 42 43 38 44
REMARK SMILES IDX 39 45 40 46 41 47 67 48 68 49 76 50 69 51 75 52 77 53 74 54
REMARK SMILES IDX 70 55 71 56 72 57 73 58 52 59 53 60 61 61 54 62 60 63 62 64
REMARK SMILES IDX 59 65 55 66 56 67 57 68 58 69 5 70 6 71 7 72 8 73 9 74 10 75
REMARK SMILES IDX 14 76 11 77 13 78 15 79 16 80 17 81 18 82 24 83 19 84 23 85
REMARK SMILES IDX 25 86 20 87 21 88 22 89 12 90
REMARK H PARENT 82 22 50 33 12 91
REMARK Flexibility Score: inf
ROOT
ATOM      1  C   UNL A   1      31.918  30.219  26.335  1.00  0.00     0.275 C 
ENDROOT
BRANCH   1   2
ATOM      2  O   UNL A   1      33.343  30.087  26.506  1.00  0.00    -0.458 OA
BRANCH   2   3
ATOM      3  C   UNL A   1      34.199  30.824  27.260  1.00  0.00     0.338 C 
ATOM      4  O   UNL A   1      33.975  32.026  27.393  1.00  0.00    -0.246 OA
BRANCH   3   5
ATOM      5  C   UNL A   1      35.496  30.297  27.799  1.00  0.00     0.060 A 
ATOM      6  C   UNL A   1      35.474  29.824  29.124  1.00  0.00     0.016 A 
ATOM      7  C   UNL A   1      36.707  30.215  27.104  1.00  0.00     0.016 A 
ATOM      8  C   UNL A   1      36.643  29.380  29.759  1.00  0.00     0.010 A 
ATOM      9  C   UNL A   1      37.881  29.774  27.737  1.00  0.00     0.010 A 
ATOM     10  C   UNL A   1      37.871  29.380  29.078  1.00  0.00    -0.014 A 
BRANCH  10  11
ATOM     11  C   UNL A   1      39.076  28.790  29.712  1.00  0.00     0.031 A 
ATOM     12  C   UNL A   1      39.785  27.571  29.198  1.00  0.00     0.074 A 
ATOM     13  C   UNL A   1      39.537  29.388  30.821  1.00  0.00     0.049 A 
ATOM     14  N   UNL A   1      41.035  27.226  29.371  1.00  0.00    -0.248 NA
ATOM     15  C   UNL A   1      39.030  26.632  28.367  1.00  0.00     0.031 C 
ATOM     16  C   UNL A   1      38.906  30.535  31.469  1.00  0.00     0.029 A 
ATOM     17  N   UNL A   1      40.612  29.093  31.613  1.00  0.00    -0.354 N 
ATOM     18  C   UNL A   1      41.248  26.127  28.544  1.00  0.00     0.074 A 
ATOM     19  C   UNL A   1      39.983  25.817  27.923  1.00  0.00     0.031 C 
ATOM     20  C   UNL A   1      39.588  30.829  32.583  1.00  0.00     0.029 A 
ATOM     21  C   UNL A   1      40.689  29.881  32.732  1.00  0.00     0.049 A 
ATOM     22  H   UNL A   1      41.265  28.386  31.401  1.00  0.00     0.167 HD
ATOM     23  C   UNL A   1      42.387  25.422  28.356  1.00  0.00     0.034 A 
ATOM     24  C   UNL A   1      41.543  29.831  33.770  1.00  0.00     0.034 A 
ATOM     25  C   UNL A   1      43.505  25.506  29.259  1.00  0.00     0.049 A 
ATOM     26  C   UNL A   1      42.701  28.876  33.698  1.00  0.00     0.074 A 
ATOM     27  C   UNL A   1      44.682  24.781  29.239  1.00  0.00     0.029 A 
ATOM     28  N   UNL A   1      43.523  26.266  30.422  1.00  0.00    -0.354 N 
ATOM     29  N   UNL A   1      43.023  28.046  32.731  1.00  0.00    -0.248 NA
ATOM     30  C   UNL A   1      43.631  28.869  34.831  1.00  0.00     0.031 C 
ATOM     31  C   UNL A   1      45.328  24.982  30.461  1.00  0.00     0.029 A 
ATOM     32  C   UNL A   1      44.630  25.938  31.184  1.00  0.00     0.049 A 
ATOM     33  H   UNL A   1      42.847  26.939  30.666  1.00  0.00     0.167 HD
ATOM     34  C   UNL A   1      44.208  27.434  33.128  1.00  0.00     0.074 A 
ATOM     35  C   UNL A   1      44.551  28.006  34.415  1.00  0.00     0.031 C 
ATOM     36  C   UNL A   1      44.947  26.494  32.482  1.00  0.00     0.034 A 
BRANCH  23  37
ATOM     37  C   UNL A   1      42.481  24.464  27.194  1.00  0.00     0.023 A 
ATOM     38  C   UNL A   1      41.990  23.149  27.295  1.00  0.00     0.031 A 
ATOM     39  C   UNL A   1      43.227  24.807  26.051  1.00  0.00     0.131 A 
ATOM     40  C   UNL A   1      42.294  22.213  26.296  1.00  0.00     0.055 A 
ATOM     41  C   UNL A   1      43.512  23.874  25.050  1.00  0.00     0.041 A 
ATOM     42  F   UNL A   1      43.716  26.051  25.902  1.00  0.00    -0.206 F 
ATOM     43  C   UNL A   1      43.054  22.566  25.176  1.00  0.00     0.022 A 
BRANCH  40  44
ATOM     44  S   UNL A   1      41.754  20.486  26.432  1.00  0.00     0.124 S 
ATOM     45  O   UNL A   1      40.314  20.603  26.213  1.00  0.00    -0.237 OA
ATOM     46  O   UNL A   1      42.500  19.847  25.352  1.00  0.00    -0.237 OA
ATOM     47  O   UNL A   1      42.143  20.106  27.785  1.00  0.00    -0.744 OA
ENDBRANCH  40  44
ENDBRANCH  23  37
BRANCH  24  48
ATOM     48  C   UNL A   1      41.315  30.773  34.899  1.00  0.00     0.023 A 
ATOM     49  C   UNL A   1      40.152  30.659  35.686  1.00  0.00     0.031 A 
ATOM     50  C   UNL A   1      42.127  31.903  35.074  1.00  0.00     0.131 A 
ATOM     51  C   UNL A   1      39.778  31.709  36.532  1.00  0.00     0.055 A 
ATOM     52  C   UNL A   1      41.792  32.910  35.980  1.00  0.00     0.041 A 
ATOM     53  F   UNL A   1      43.233  32.062  34.331  1.00  0.00    -0.206 F 
ATOM     54  C   UNL A   1      40.598  32.829  36.694  1.00  0.00     0.022 A 
BRANCH  51  55
ATOM     55  S   UNL A   1      38.127  31.741  37.290  1.00  0.00     0.124 S 
ATOM     56  O   UNL A   1      38.424  32.207  38.641  1.00  0.00    -0.237 OA
ATOM     57  O   UNL A   1      37.422  32.692  36.432  1.00  0.00    -0.237 OA
ATOM     58  O   UNL A   1      37.671  30.359  37.184  1.00  0.00    -0.744 OA
ENDBRANCH  51  55
ENDBRANCH  24  48
BRANCH  36  59
ATOM     59  C   UNL A   1      46.200  25.983  33.149  1.00  0.00     0.023 A 
ATOM     60  C   UNL A   1      46.125  24.876  34.015  1.00  0.00     0.031 A 
ATOM     61  C   UNL A   1      47.421  26.673  33.058  1.00  0.00     0.131 A 
ATOM     62  C   UNL A   1      47.232  24.523  34.794  1.00  0.00     0.055 A 
ATOM     63  C   UNL A   1      48.542  26.277  33.788  1.00  0.00     0.041 A 
ATOM     64  F   UNL A   1      47.540  27.746  32.259  1.00  0.00    -0.206 F 
ATOM     65  C   UNL A   1      48.445  25.209  34.675  1.00  0.00     0.022 A 
BRANCH  62  66
ATOM     66  S   UNL A   1      47.101  23.240  36.070  1.00  0.00     0.124 S 
ATOM     67  O   UNL A   1      48.273  22.415  35.787  1.00  0.00    -0.237 OA
ATOM     68  O   UNL A   1      47.173  24.024  37.301  1.00  0.00    -0.237 OA
ATOM     69  O   UNL A   1      45.814  22.608  35.804  1.00  0.00    -0.744 OA
ENDBRANCH  62  66
ENDBRANCH  36  59
ENDBRANCH  10  11
ENDBRANCH   3   5
ENDBRANCH   2   3
ENDBRANCH   1   2
BRANCH   1  70
ATOM     70  C   UNL A   1      31.421  29.699  24.989  1.00  0.00     0.274 C 
BRANCH  70  71
ATOM     71  O   UNL A   1      32.334  28.724  24.482  1.00  0.00    -0.461 OA
BRANCH  71  72
ATOM     72  C   UNL A   1      31.819  27.536  24.051  1.00  0.00     0.329 C 
ATOM     73  O   UNL A   1      31.163  27.391  23.028  1.00  0.00    -0.250 OA
BRANCH  72  74
ATOM     74  C   UNL A   1      32.219  26.412  25.023  1.00  0.00     0.198 C 
ATOM     75  C   UNL A   1      31.211  26.253  26.156  1.00  0.00     0.071 C 
ATOM     76  N   UNL A   1      32.238  25.087  24.408  1.00  0.00    -0.322 N 
ATOM     77  C   UNL A   1      30.238  25.205  25.650  1.00  0.00     0.136 C 
ATOM     78  C   UNL A   1      31.167  24.237  24.940  1.00  0.00     0.152 C 
BRANCH  76  79
ATOM     79  C   UNL A   1      33.334  24.681  23.674  1.00  0.00     0.256 C 
ATOM     80  O   UNL A   1      33.531  24.986  22.504  1.00  0.00    -0.269 OA
BRANCH  79  81
ATOM     81  C   UNL A   1      34.298  23.815  24.372  1.00  0.00     0.061 A 
ATOM     82  C   UNL A   1      35.329  24.447  25.079  1.00  0.00     0.057 A 
ATOM     83  C   UNL A   1      34.253  22.420  24.264  1.00  0.00     0.056 A 
ATOM     84  C   UNL A   1      36.365  23.683  25.586  1.00  0.00     0.159 A 
ATOM     85  C   UNL A   1      35.287  21.660  24.813  1.00  0.00     0.063 A 
ATOM     86  Cl  UNL A   1      32.998  21.585  23.424  1.00  0.00    -0.083 Cl
ATOM     87  F   UNL A   1      37.398  24.295  26.180  1.00  0.00    -0.204 F 
ATOM     88  C   UNL A   1      36.348  22.300  25.450  1.00  0.00     0.160 A 
ATOM     89  F   UNL A   1      37.364  21.569  25.927  1.00  0.00    -0.204 F 
ENDBRANCH  79  81
ENDBRANCH  76  79
BRANCH  77  90
ATOM     90  O   UNL A   1      29.297  25.809  24.765  1.00  0.00    -0.391 OA
ATOM     91  H   UNL A   1      29.650  25.799  23.862  1.00  0.00     0.211 HD
ENDBRANCH  77  90
ENDBRANCH  72  74
ENDBRANCH  71  72
ENDBRANCH  70  71
ENDBRANCH   1  70
TORSDOF 17
ENDMDL
