MODEL 1
REMARK VINA RESULT:     -12.6      0.000      0.000
REMARK SMILES O=C(OCCOC(=O)[C@H]1O[C@@H](Oc2c(-c3cc(O)c(O)c(O)c3)oc3cc(O)cc(O)c3c2=O)[C@H](O)[C@@H](O)[C@@H]1O)c1ccc(-c2c3nc(c(-c4cc(S(=O)(=O)[O-])ccc4F)c4ccc([nH]4)c(-c4cc(S(=O)(=O)[O-])ccc4F)c4nc(c(-c5cc(S(=O)(=O)[O-])ccc5F)c5ccc2[nH]5)C=C4)C=C3)cc1
REMARK SMILES IDX 5 1 4 2 3 3 2 4 1 5 41 6 42 7 103 8 43 9 102 10 44 11 45 12
REMARK SMILES IDX 46 13 96 14 47 15 101 16 95 17 97 18 48 19 100 20 94 21
REMARK SMILES IDX 93 22 49 24 81 25 61 26 80 27 62 28 65 29 79 30 98 31 63 32
REMARK SMILES IDX 64 33 78 35 99 36 66 37 50 38 51 39 59 40 52 41 58 42 60 43
REMARK SMILES IDX 57 44 53 45 54 46 55 47 56 48 82 49 83 50 91 51 84 52 90 53
REMARK SMILES IDX 92 54 89 55 85 56 86 57 87 58 88 59 67 60 68 61 76 62 69 63
REMARK SMILES IDX 75 64 77 65 74 66 70 67 71 68 72 69 73 70 6 71 7 72 8 73
REMARK SMILES IDX 9 74 10 75 39 76 11 77 37 78 35 79 40 80 12 82 13 83 14 84
REMARK SMILES IDX 33 85 24 86 32 87 34 88 25 89 30 90 26 91 29 92 27 93 15 94
REMARK SMILES IDX 16 95 23 96 17 97 21 98 19 99 18 100 22 102 20 104 31 106
REMARK SMILES IDX 28 108 38 110 36 112
REMARK H PARENT 97 23 65 34 40 81 18 101 22 103 20 105 31 107 28 109 38 111
REMARK H PARENT 36 113
REMARK Flexibility Score: inf
ROOT
ATOM      1  C   UNL A   1      31.675  29.056  23.906  1.00  0.00     0.274 C 
ENDROOT
BRANCH   1   2
ATOM      2  C   UNL A   1      31.648  29.841  25.218  1.00  0.00     0.275 C 
BRANCH   2   3
ATOM      3  O   UNL A   1      32.932  29.967  25.848  1.00  0.00    -0.458 OA
BRANCH   3   4
ATOM      4  C   UNL A   1      33.305  30.774  26.873  1.00  0.00     0.338 C 
ATOM      5  O   UNL A   1      32.535  31.668  27.224  1.00  0.00    -0.246 OA
BRANCH   4   6
ATOM      6  C   UNL A   1      34.670  30.734  27.496  1.00  0.00     0.060 A 
ATOM      7  C   UNL A   1      35.529  31.813  27.700  1.00  0.00     0.016 A 
ATOM      8  C   UNL A   1      35.109  29.474  27.933  1.00  0.00     0.016 A 
ATOM      9  C   UNL A   1      36.728  31.661  28.403  1.00  0.00     0.010 A 
ATOM     10  C   UNL A   1      36.270  29.325  28.697  1.00  0.00     0.010 A 
ATOM     11  C   UNL A   1      37.103  30.421  28.924  1.00  0.00    -0.014 A 
BRANCH  11  12
ATOM     12  C   UNL A   1      38.455  30.270  29.515  1.00  0.00     0.031 A 
ATOM     13  C   UNL A   1      38.688  30.829  30.894  1.00  0.00     0.074 A 
ATOM     14  C   UNL A   1      39.406  29.547  28.887  1.00  0.00     0.049 A 
ATOM     15  N   UNL A   1      39.721  30.689  31.681  1.00  0.00    -0.248 NA
ATOM     16  C   UNL A   1      37.615  31.665  31.461  1.00  0.00     0.031 C 
ATOM     17  C   UNL A   1      39.283  28.966  27.546  1.00  0.00     0.029 A 
ATOM     18  N   UNL A   1      40.648  29.139  29.304  1.00  0.00    -0.354 N 
ATOM     19  C   UNL A   1      39.401  31.388  32.840  1.00  0.00     0.074 A 
ATOM     20  C   UNL A   1      38.144  32.054  32.605  1.00  0.00     0.031 C 
ATOM     21  C   UNL A   1      40.385  28.245  27.272  1.00  0.00     0.029 A 
ATOM     22  C   UNL A   1      41.301  28.318  28.407  1.00  0.00     0.049 A 
ATOM     23  H   UNL A   1      41.040  29.408  30.167  1.00  0.00     0.167 HD
ATOM     24  C   UNL A   1      40.058  31.422  34.021  1.00  0.00     0.034 A 
ATOM     25  C   UNL A   1      42.489  27.684  28.508  1.00  0.00     0.034 A 
ATOM     26  C   UNL A   1      41.315  30.760  34.238  1.00  0.00     0.049 A 
ATOM     27  C   UNL A   1      43.247  27.805  29.812  1.00  0.00     0.074 A 
ATOM     28  C   UNL A   1      42.106  30.756  35.370  1.00  0.00     0.029 A 
ATOM     29  N   UNL A   1      41.965  29.982  33.287  1.00  0.00    -0.354 N 
ATOM     30  N   UNL A   1      42.904  28.442  30.912  1.00  0.00    -0.248 NA
ATOM     31  C   UNL A   1      44.533  27.105  29.901  1.00  0.00     0.031 C 
ATOM     32  C   UNL A   1      43.265  30.026  35.083  1.00  0.00     0.029 A 
ATOM     33  C   UNL A   1      43.159  29.510  33.800  1.00  0.00     0.049 A 
ATOM     34  H   UNL A   1      41.624  29.796  32.383  1.00  0.00     0.167 HD
ATOM     35  C   UNL A   1      43.921  28.189  31.830  1.00  0.00     0.074 A 
ATOM     36  C   UNL A   1      44.865  27.315  31.165  1.00  0.00     0.031 C 
ATOM     37  C   UNL A   1      44.075  28.638  33.103  1.00  0.00     0.034 A 
BRANCH  24  38
ATOM     38  C   UNL A   1      39.416  32.217  35.131  1.00  0.00     0.023 A 
ATOM     39  C   UNL A   1      39.771  33.560  35.362  1.00  0.00     0.031 A 
ATOM     40  C   UNL A   1      38.521  31.608  36.024  1.00  0.00     0.131 A 
ATOM     41  C   UNL A   1      39.309  34.217  36.511  1.00  0.00     0.055 A 
ATOM     42  C   UNL A   1      37.994  32.298  37.117  1.00  0.00     0.041 A 
ATOM     43  F   UNL A   1      38.173  30.321  35.871  1.00  0.00    -0.206 F 
ATOM     44  C   UNL A   1      38.401  33.604  37.376  1.00  0.00     0.022 A 
BRANCH  41  45
ATOM     45  S   UNL A   1      40.045  35.818  36.946  1.00  0.00     0.124 S 
ATOM     46  O   UNL A   1      39.688  36.629  35.784  1.00  0.00    -0.237 OA
ATOM     47  O   UNL A   1      39.365  36.153  38.191  1.00  0.00    -0.237 OA
ATOM     48  O   UNL A   1      41.470  35.516  37.072  1.00  0.00    -0.744 OA
ENDBRANCH  41  45
ENDBRANCH  24  38
BRANCH  25  49
ATOM     49  C   UNL A   1      43.055  26.896  27.366  1.00  0.00     0.023 A 
ATOM     50  C   UNL A   1      42.874  25.505  27.259  1.00  0.00     0.031 A 
ATOM     51  C   UNL A   1      43.882  27.517  26.411  1.00  0.00     0.131 A 
ATOM     52  C   UNL A   1      43.565  24.777  26.274  1.00  0.00     0.055 A 
ATOM     53  C   UNL A   1      44.515  26.797  25.394  1.00  0.00     0.041 A 
ATOM     54  F   UNL A   1      44.095  28.842  26.457  1.00  0.00    -0.206 F 
ATOM     55  C   UNL A   1      44.376  25.415  25.335  1.00  0.00     0.022 A 
BRANCH  52  56
ATOM     56  S   UNL A   1      43.498  22.961  26.322  1.00  0.00     0.124 S 
ATOM     57  O   UNL A   1      42.865  22.652  25.046  1.00  0.00    -0.237 OA
ATOM     58  O   UNL A   1      44.910  22.611  26.440  1.00  0.00    -0.237 OA
ATOM     59  O   UNL A   1      42.687  22.680  27.505  1.00  0.00    -0.744 OA
ENDBRANCH  52  56
ENDBRANCH  25  49
BRANCH  37  60
ATOM     60  C   UNL A   1      45.290  28.158  33.855  1.00  0.00     0.023 A 
ATOM     61  C   UNL A   1      45.262  26.977  34.617  1.00  0.00     0.031 A 
ATOM     62  C   UNL A   1      46.488  28.894  33.815  1.00  0.00     0.131 A 
ATOM     63  C   UNL A   1      46.386  26.607  35.367  1.00  0.00     0.055 A 
ATOM     64  C   UNL A   1      47.628  28.476  34.502  1.00  0.00     0.041 A 
ATOM     65  F   UNL A   1      46.570  30.028  33.102  1.00  0.00    -0.206 F 
ATOM     66  C   UNL A   1      47.575  27.337  35.298  1.00  0.00     0.022 A 
BRANCH  63  67
ATOM     67  S   UNL A   1      46.229  25.226  36.530  1.00  0.00     0.124 S 
ATOM     68  O   UNL A   1      44.780  25.090  36.643  1.00  0.00    -0.237 OA
ATOM     69  O   UNL A   1      46.917  24.147  35.828  1.00  0.00    -0.237 OA
ATOM     70  O   UNL A   1      46.903  25.712  37.732  1.00  0.00    -0.744 OA
ENDBRANCH  63  67
ENDBRANCH  37  60
ENDBRANCH  11  12
ENDBRANCH   4   6
ENDBRANCH   3   4
ENDBRANCH   2   3
ENDBRANCH   1   2
BRANCH   1  71
ATOM     71  O   UNL A   1      30.496  28.265  23.702  1.00  0.00    -0.460 OA
BRANCH  71  72
ATOM     72  C   UNL A   1      30.500  26.994  24.219  1.00  0.00     0.338 C 
ATOM     73  O   UNL A   1      29.646  26.533  24.960  1.00  0.00    -0.249 OA
BRANCH  72  74
ATOM     74  C   UNL A   1      31.769  26.265  23.772  1.00  0.00     0.263 C 
ATOM     75  O   UNL A   1      32.071  25.205  24.670  1.00  0.00    -0.322 OA
ATOM     76  C   UNL A   1      31.609  25.643  22.391  1.00  0.00     0.186 C 
ATOM     77  C   UNL A   1      33.272  24.472  24.399  1.00  0.00     0.340 C 
ATOM     78  C   UNL A   1      33.027  25.284  21.941  1.00  0.00     0.181 C 
ATOM     79  C   UNL A   1      33.603  24.244  22.892  1.00  0.00     0.214 C 
BRANCH  76  80
ATOM     80  O   UNL A   1      30.992  26.467  21.423  1.00  0.00    -0.387 OA
ATOM     81  H   UNL A   1      30.134  26.771  21.758  1.00  0.00     0.211 HD
ENDBRANCH  76  80
BRANCH  77  82
ATOM     82  O   UNL A   1      33.255  23.160  25.032  1.00  0.00    -0.454 OA
BRANCH  82  83
ATOM     83  C   UNL A   1      34.515  22.593  25.206  1.00  0.00     0.214 A 
ATOM     84  C   UNL A   1      34.833  21.329  24.845  1.00  0.00     0.181 A 
ATOM     85  C   UNL A   1      35.602  23.466  25.750  1.00  0.00     0.239 A 
ATOM     86  O   UNL A   1      36.061  20.737  25.058  1.00  0.00    -0.452 OA
ATOM     87  C   UNL A   1      36.945  22.849  25.886  1.00  0.00     0.111 A 
ATOM     88  O   UNL A   1      35.378  24.636  26.039  1.00  0.00    -0.285 OA
ATOM     89  C   UNL A   1      37.085  21.504  25.543  1.00  0.00     0.146 A 
ATOM     90  C   UNL A   1      38.078  23.555  26.320  1.00  0.00     0.134 A 
ATOM     91  C   UNL A   1      38.319  20.860  25.652  1.00  0.00     0.094 A 
ATOM     92  C   UNL A   1      39.324  22.920  26.412  1.00  0.00     0.093 A 
ATOM     93  C   UNL A   1      39.430  21.575  26.077  1.00  0.00     0.123 A 
BRANCH  84  94
ATOM     94  C   UNL A   1      33.847  20.389  24.276  1.00  0.00     0.029 A 
ATOM     95  C   UNL A   1      32.910  20.861  23.335  1.00  0.00     0.062 A 
ATOM     96  C   UNL A   1      33.941  19.011  24.512  1.00  0.00     0.062 A 
ATOM     97  C   UNL A   1      32.194  19.961  22.540  1.00  0.00     0.162 A 
ATOM     98  C   UNL A   1      33.183  18.132  23.747  1.00  0.00     0.162 A 
ATOM     99  C   UNL A   1      32.330  18.591  22.741  1.00  0.00     0.200 A 
BRANCH  97 100
ATOM    100  O   UNL A   1      31.478  20.521  21.519  1.00  0.00    -0.504 OA
ATOM    101  H   UNL A   1      31.490  21.449  21.393  1.00  0.00     0.293 HD
ENDBRANCH  97 100
BRANCH  98 102
ATOM    102  O   UNL A   1      33.360  16.789  23.933  1.00  0.00    -0.504 OA
ATOM    103  H   UNL A   1      33.165  16.190  23.240  1.00  0.00     0.293 HD
ENDBRANCH  98 102
BRANCH  99 104
ATOM    104  O   UNL A   1      31.705  17.631  21.991  1.00  0.00    -0.502 OA
ATOM    105  H   UNL A   1      31.885  17.563  21.074  1.00  0.00     0.293 HD
ENDBRANCH  99 104
ENDBRANCH  84  94
BRANCH  90 106
ATOM    106  O   UNL A   1      37.999  24.880  26.641  1.00  0.00    -0.507 OA
ATOM    107  H   UNL A   1      37.221  25.362  26.447  1.00  0.00     0.293 HD
ENDBRANCH  90 106
BRANCH  93 108
ATOM    108  O   UNL A   1      40.622  20.916  26.135  1.00  0.00    -0.508 OA
ATOM    109  H   UNL A   1      41.369  21.332  26.518  1.00  0.00     0.293 HD
ENDBRANCH  93 108
ENDBRANCH  82  83
ENDBRANCH  77  82
BRANCH  78 110
ATOM    110  O   UNL A   1      32.967  24.815  20.579  1.00  0.00    -0.387 OA
ATOM    111  H   UNL A   1      32.793  25.563  19.987  1.00  0.00     0.211 HD
ENDBRANCH  78 110
BRANCH  79 112
ATOM    112  O   UNL A   1      34.993  24.011  22.641  1.00  0.00    -0.384 OA
ATOM    113  H   UNL A   1      35.114  23.735  21.719  1.00  0.00     0.211 HD
ENDBRANCH  79 112
ENDBRANCH  72  74
ENDBRANCH  71  72
ENDBRANCH   1  71
TORSDOF 25
ENDMDL
MODEL 2
REMARK VINA RESULT:     -12.2      1.881      2.349
REMARK SMILES O=C(OCCOC(=O)[C@H]1O[C@@H](Oc2c(-c3cc(O)c(O)c(O)c3)oc3cc(O)cc(O)c3c2=O)[C@H](O)[C@@H](O)[C@@H]1O)c1ccc(-c2c3nc(c(-c4cc(S(=O)(=O)[O-])ccc4F)c4ccc([nH]4)c(-c4cc(S(=O)(=O)[O-])ccc4F)c4nc(c(-c5cc(S(=O)(=O)[O-])ccc5F)c5ccc2[nH]5)C=C4)C=C3)cc1
REMARK SMILES IDX 5 1 4 2 3 3 2 4 1 5 41 6 42 7 103 8 43 9 102 10 44 11 45 12
REMARK SMILES IDX 46 13 96 14 47 15 101 16 95 17 97 18 48 19 100 20 94 21
REMARK SMILES IDX 93 22 49 24 81 25 61 26 80 27 62 28 65 29 79 30 98 31 63 32
REMARK SMILES IDX 64 33 78 35 99 36 66 37 50 38 51 39 59 40 52 41 58 42 60 43
REMARK SMILES IDX 57 44 53 45 54 46 55 47 56 48 82 49 83 50 91 51 84 52 90 53
REMARK SMILES IDX 92 54 89 55 85 56 86 57 87 58 88 59 67 60 68 61 76 62 69 63
REMARK SMILES IDX 75 64 77 65 74 66 70 67 71 68 72 69 73 70 6 71 7 72 8 73
REMARK SMILES IDX 9 74 10 75 39 76 11 77 37 78 35 79 40 80 12 82 13 83 14 84
REMARK SMILES IDX 33 85 24 86 32 87 34 88 25 89 30 90 26 91 29 92 27 93 15 94
REMARK SMILES IDX 16 95 23 96 17 97 21 98 19 99 18 100 22 102 20 104 31 106
REMARK SMILES IDX 28 108 38 110 36 112
REMARK H PARENT 97 23 65 34 40 81 18 101 22 103 20 105 31 107 28 109 38 111
REMARK H PARENT 36 113
REMARK Flexibility Score: inf
ROOT
ATOM      1  C   UNL A   1      32.320  29.540  25.215  1.00  0.00     0.274 C 
ENDROOT
BRANCH   1   2
ATOM      2  C   UNL A   1      32.526  30.342  26.500  1.00  0.00     0.275 C 
BRANCH   2   3
ATOM      3  O   UNL A   1      33.758  30.050  27.178  1.00  0.00    -0.458 OA
BRANCH   3   4
ATOM      4  C   UNL A   1      34.695  30.907  27.654  1.00  0.00     0.338 C 
ATOM      5  O   UNL A   1      34.578  32.105  27.396  1.00  0.00    -0.246 OA
BRANCH   4   6
ATOM      6  C   UNL A   1      35.949  30.454  28.343  1.00  0.00     0.060 A 
ATOM      7  C   UNL A   1      36.072  29.399  29.246  1.00  0.00     0.016 A 
ATOM      8  C   UNL A   1      37.118  31.161  28.020  1.00  0.00     0.016 A 
ATOM      9  C   UNL A   1      37.323  29.000  29.728  1.00  0.00     0.010 A 
ATOM     10  C   UNL A   1      38.379  30.725  28.439  1.00  0.00     0.010 A 
ATOM     11  C   UNL A   1      38.490  29.646  29.317  1.00  0.00    -0.014 A 
BRANCH  11  12
ATOM     12  C   UNL A   1      39.773  29.300  29.976  1.00  0.00     0.031 A 
ATOM     13  C   UNL A   1      40.087  29.957  31.295  1.00  0.00     0.074 A 
ATOM     14  C   UNL A   1      40.571  28.337  29.470  1.00  0.00     0.049 A 
ATOM     15  N   UNL A   1      41.056  29.707  32.134  1.00  0.00    -0.248 NA
ATOM     16  C   UNL A   1      39.193  31.047  31.723  1.00  0.00     0.031 C 
ATOM     17  C   UNL A   1      40.360  27.641  28.196  1.00  0.00     0.029 A 
ATOM     18  N   UNL A   1      41.698  27.742  29.980  1.00  0.00    -0.354 N 
ATOM     19  C   UNL A   1      40.861  30.584  33.196  1.00  0.00     0.074 A 
ATOM     20  C   UNL A   1      39.768  31.454  32.839  1.00  0.00     0.031 C 
ATOM     21  C   UNL A   1      41.300  26.691  28.048  1.00  0.00     0.029 A 
ATOM     22  C   UNL A   1      42.190  26.712  29.205  1.00  0.00     0.049 A 
ATOM     23  H   UNL A   1      42.119  28.026  30.824  1.00  0.00     0.167 HD
ATOM     24  C   UNL A   1      41.489  30.623  34.393  1.00  0.00     0.034 A 
ATOM     25  C   UNL A   1      43.225  25.872  29.424  1.00  0.00     0.034 A 
ATOM     26  C   UNL A   1      42.583  29.756  34.732  1.00  0.00     0.049 A 
ATOM     27  C   UNL A   1      43.967  25.991  30.737  1.00  0.00     0.074 A 
ATOM     28  C   UNL A   1      43.336  29.726  35.889  1.00  0.00     0.029 A 
ATOM     29  N   UNL A   1      43.082  28.762  33.899  1.00  0.00    -0.354 N 
ATOM     30  N   UNL A   1      43.738  26.805  31.746  1.00  0.00    -0.248 NA
ATOM     31  C   UNL A   1      45.085  25.066  30.955  1.00  0.00     0.031 C 
ATOM     32  C   UNL A   1      44.331  28.755  35.731  1.00  0.00     0.029 A 
ATOM     33  C   UNL A   1      44.147  28.126  34.508  1.00  0.00     0.049 A 
ATOM     34  H   UNL A   1      42.728  28.543  33.007  1.00  0.00     0.167 HD
ATOM     35  C   UNL A   1      44.666  26.463  32.727  1.00  0.00     0.074 A 
ATOM     36  C   UNL A   1      45.429  25.349  32.201  1.00  0.00     0.031 C 
ATOM     37  C   UNL A   1      44.884  27.016  33.949  1.00  0.00     0.034 A 
BRANCH  24  38
ATOM     38  C   UNL A   1      40.999  31.651  35.382  1.00  0.00     0.023 A 
ATOM     39  C   UNL A   1      39.923  31.373  36.246  1.00  0.00     0.031 A 
ATOM     40  C   UNL A   1      41.540  32.946  35.397  1.00  0.00     0.131 A 
ATOM     41  C   UNL A   1      39.360  32.400  37.017  1.00  0.00     0.055 A 
ATOM     42  C   UNL A   1      41.032  33.941  36.235  1.00  0.00     0.041 A 
ATOM     43  F   UNL A   1      42.545  33.276  34.573  1.00  0.00    -0.206 F 
ATOM     44  C   UNL A   1      39.925  33.677  37.037  1.00  0.00     0.022 A 
BRANCH  41  45
ATOM     45  S   UNL A   1      37.782  32.087  37.856  1.00  0.00     0.124 S 
ATOM     46  O   UNL A   1      38.141  32.327  39.251  1.00  0.00    -0.237 OA
ATOM     47  O   UNL A   1      36.897  33.073  37.246  1.00  0.00    -0.237 OA
ATOM     48  O   UNL A   1      37.490  30.694  37.525  1.00  0.00    -0.744 OA
ENDBRANCH  41  45
ENDBRANCH  24  38
BRANCH  25  49
ATOM     49  C   UNL A   1      43.643  24.862  28.398  1.00  0.00     0.023 A 
ATOM     50  C   UNL A   1      44.664  25.126  27.468  1.00  0.00     0.031 A 
ATOM     51  C   UNL A   1      42.948  23.645  28.271  1.00  0.00     0.131 A 
ATOM     52  C   UNL A   1      44.908  24.227  26.413  1.00  0.00     0.055 A 
ATOM     53  C   UNL A   1      43.238  22.725  27.259  1.00  0.00     0.041 A 
ATOM     54  F   UNL A   1      41.962  23.333  29.128  1.00  0.00    -0.206 F 
ATOM     55  C   UNL A   1      44.209  23.024  26.310  1.00  0.00     0.022 A 
BRANCH  52  56
ATOM     56  S   UNL A   1      46.061  24.717  25.096  1.00  0.00     0.124 S 
ATOM     57  O   UNL A   1      45.841  23.672  24.104  1.00  0.00    -0.237 OA
ATOM     58  O   UNL A   1      45.571  26.047  24.747  1.00  0.00    -0.237 OA
ATOM     59  O   UNL A   1      47.365  24.688  25.756  1.00  0.00    -0.744 OA
ENDBRANCH  52  56
ENDBRANCH  25  49
BRANCH  37  60
ATOM     60  C   UNL A   1      45.963  26.396  34.799  1.00  0.00     0.023 A 
ATOM     61  C   UNL A   1      45.692  25.318  35.658  1.00  0.00     0.031 A 
ATOM     62  C   UNL A   1      47.278  26.893  34.752  1.00  0.00     0.131 A 
ATOM     63  C   UNL A   1      46.702  24.821  36.492  1.00  0.00     0.055 A 
ATOM     64  C   UNL A   1      48.298  26.341  35.527  1.00  0.00     0.041 A 
ATOM     65  F   UNL A   1      47.593  27.920  33.947  1.00  0.00    -0.206 F 
ATOM     66  C   UNL A   1      48.008  25.311  36.417  1.00  0.00     0.022 A 
BRANCH  63  67
ATOM     67  S   UNL A   1      46.254  23.609  37.762  1.00  0.00     0.124 S 
ATOM     68  O   UNL A   1      45.934  22.433  36.958  1.00  0.00    -0.237 OA
ATOM     69  O   UNL A   1      47.475  23.524  38.558  1.00  0.00    -0.237 OA
ATOM     70  O   UNL A   1      45.115  24.227  38.439  1.00  0.00    -0.744 OA
ENDBRANCH  63  67
ENDBRANCH  37  60
ENDBRANCH  11  12
ENDBRANCH   4   6
ENDBRANCH   3   4
ENDBRANCH   2   3
ENDBRANCH   1   2
BRANCH   1  71
ATOM     71  O   UNL A   1      31.184  28.667  25.276  1.00  0.00    -0.460 OA
BRANCH  71  72
ATOM     72  C   UNL A   1      31.385  27.417  25.808  1.00  0.00     0.338 C 
ATOM     73  O   UNL A   1      31.002  27.051  26.907  1.00  0.00    -0.249 OA
BRANCH  72  74
ATOM     74  C   UNL A   1      32.215  26.576  24.835  1.00  0.00     0.263 C 
ATOM     75  O   UNL A   1      32.616  25.360  25.453  1.00  0.00    -0.322 OA
ATOM     76  C   UNL A   1      31.422  26.200  23.591  1.00  0.00     0.186 C 
ATOM     77  C   UNL A   1      33.451  24.499  24.669  1.00  0.00     0.340 C 
ATOM     78  C   UNL A   1      32.459  25.698  22.584  1.00  0.00     0.181 C 
ATOM     79  C   UNL A   1      33.132  24.451  23.142  1.00  0.00     0.214 C 
BRANCH  76  80
ATOM     80  O   UNL A   1      30.663  27.244  23.017  1.00  0.00    -0.387 OA
ATOM     81  H   UNL A   1      29.808  27.309  23.472  1.00  0.00     0.211 HD
ENDBRANCH  76  80
BRANCH  77  82
ATOM     82  O   UNL A   1      33.413  23.126  25.153  1.00  0.00    -0.454 OA
BRANCH  82  83
ATOM     83  C   UNL A   1      34.665  22.530  25.281  1.00  0.00     0.214 A 
ATOM     84  C   UNL A   1      34.947  21.268  24.885  1.00  0.00     0.181 A 
ATOM     85  C   UNL A   1      35.783  23.369  25.815  1.00  0.00     0.239 A 
ATOM     86  O   UNL A   1      36.167  20.647  25.052  1.00  0.00    -0.452 OA
ATOM     87  C   UNL A   1      37.116  22.722  25.902  1.00  0.00     0.111 A 
ATOM     88  O   UNL A   1      35.591  24.537  26.135  1.00  0.00    -0.285 OA
ATOM     89  C   UNL A   1      37.219  21.382  25.527  1.00  0.00     0.146 A 
ATOM     90  C   UNL A   1      38.275  23.394  26.321  1.00  0.00     0.134 A 
ATOM     91  C   UNL A   1      38.442  20.711  25.589  1.00  0.00     0.094 A 
ATOM     92  C   UNL A   1      39.509  22.732  26.366  1.00  0.00     0.093 A 
ATOM     93  C   UNL A   1      39.578  21.393  25.999  1.00  0.00     0.123 A 
BRANCH  84  94
ATOM     94  C   UNL A   1      33.927  20.361  24.322  1.00  0.00     0.029 A 
ATOM     95  C   UNL A   1      32.981  20.871  23.411  1.00  0.00     0.062 A 
ATOM     96  C   UNL A   1      33.993  18.978  24.533  1.00  0.00     0.062 A 
ATOM     97  C   UNL A   1      32.226  20.002  22.616  1.00  0.00     0.162 A 
ATOM     98  C   UNL A   1      33.198  18.129  23.770  1.00  0.00     0.162 A 
ATOM     99  C   UNL A   1      32.334  18.625  22.791  1.00  0.00     0.200 A 
BRANCH  97 100
ATOM    100  O   UNL A   1      31.502  20.596  21.621  1.00  0.00    -0.504 OA
ATOM    101  H   UNL A   1      30.805  21.184  21.836  1.00  0.00     0.293 HD
ENDBRANCH  97 100
BRANCH  98 102
ATOM    102  O   UNL A   1      33.347  16.780  23.929  1.00  0.00    -0.504 OA
ATOM    103  H   UNL A   1      33.642  16.254  23.213  1.00  0.00     0.293 HD
ENDBRANCH  98 102
BRANCH  99 104
ATOM    104  O   UNL A   1      31.671  17.694  22.039  1.00  0.00    -0.502 OA
ATOM    105  H   UNL A   1      32.055  16.853  21.889  1.00  0.00     0.293 HD
ENDBRANCH  99 104
ENDBRANCH  84  94
BRANCH  90 106
ATOM    106  O   UNL A   1      38.232  24.713  26.672  1.00  0.00    -0.507 OA
ATOM    107  H   UNL A   1      38.143  24.955  27.573  1.00  0.00     0.293 HD
ENDBRANCH  90 106
BRANCH  93 108
ATOM    108  O   UNL A   1      40.757  20.709  26.011  1.00  0.00    -0.508 OA
ATOM    109  H   UNL A   1      41.499  21.062  26.462  1.00  0.00     0.293 HD
ENDBRANCH  93 108
ENDBRANCH  82  83
ENDBRANCH  77  82
BRANCH  78 110
ATOM    110  O   UNL A   1      31.794  25.452  21.329  1.00  0.00    -0.387 OA
ATOM    111  H   UNL A   1      31.511  24.526  21.290  1.00  0.00     0.211 HD
ENDBRANCH  78 110
BRANCH  79 112
ATOM    112  O   UNL A   1      34.245  24.046  22.338  1.00  0.00    -0.384 OA
ATOM    113  H   UNL A   1      34.974  24.674  22.456  1.00  0.00     0.211 HD
ENDBRANCH  79 112
ENDBRANCH  72  74
ENDBRANCH  71  72
ENDBRANCH   1  71
TORSDOF 25
ENDMDL
MODEL 3
REMARK VINA RESULT:     -11.9      4.529      9.959
REMARK SMILES O=C(OCCOC(=O)[C@H]1O[C@@H](Oc2c(-c3cc(O)c(O)c(O)c3)oc3cc(O)cc(O)c3c2=O)[C@H](O)[C@@H](O)[C@@H]1O)c1ccc(-c2c3nc(c(-c4cc(S(=O)(=O)[O-])ccc4F)c4ccc([nH]4)c(-c4cc(S(=O)(=O)[O-])ccc4F)c4nc(c(-c5cc(S(=O)(=O)[O-])ccc5F)c5ccc2[nH]5)C=C4)C=C3)cc1
REMARK SMILES IDX 5 1 4 2 3 3 2 4 1 5 41 6 42 7 103 8 43 9 102 10 44 11 45 12
REMARK SMILES IDX 46 13 96 14 47 15 101 16 95 17 97 18 48 19 100 20 94 21
REMARK SMILES IDX 93 22 49 24 81 25 61 26 80 27 62 28 65 29 79 30 98 31 63 32
REMARK SMILES IDX 64 33 78 35 99 36 66 37 50 38 51 39 59 40 52 41 58 42 60 43
REMARK SMILES IDX 57 44 53 45 54 46 55 47 56 48 82 49 83 50 91 51 84 52 90 53
REMARK SMILES IDX 92 54 89 55 85 56 86 57 87 58 88 59 67 60 68 61 76 62 69 63
REMARK SMILES IDX 75 64 77 65 74 66 70 67 71 68 72 69 73 70 6 71 7 72 8 73
REMARK SMILES IDX 9 74 10 75 39 76 11 77 37 78 35 79 40 80 12 82 13 83 14 84
REMARK SMILES IDX 33 85 24 86 32 87 34 88 25 89 30 90 26 91 29 92 27 93 15 94
REMARK SMILES IDX 16 95 23 96 17 97 21 98 19 99 18 100 22 102 20 104 31 106
REMARK SMILES IDX 28 108 38 110 36 112
REMARK H PARENT 97 23 65 34 40 81 18 101 22 103 20 105 31 107 28 109 38 111
REMARK H PARENT 36 113
REMARK Flexibility Score: inf
ROOT
ATOM      1  C   UNL A   1      35.067  20.769  25.246  1.00  0.00     0.274 C 
ENDROOT
BRANCH   1   2
ATOM      2  C   UNL A   1      36.574  20.694  25.000  1.00  0.00     0.275 C 
BRANCH   2   3
ATOM      3  O   UNL A   1      37.331  21.685  25.712  1.00  0.00    -0.458 OA
BRANCH   3   4
ATOM      4  C   UNL A   1      38.660  21.714  25.984  1.00  0.00     0.338 C 
ATOM      5  O   UNL A   1      39.317  20.689  25.801  1.00  0.00    -0.246 OA
BRANCH   4   6
ATOM      6  C   UNL A   1      39.339  22.878  26.643  1.00  0.00     0.060 A 
ATOM      7  C   UNL A   1      40.301  22.825  27.651  1.00  0.00     0.016 A 
ATOM      8  C   UNL A   1      38.975  24.150  26.172  1.00  0.00     0.016 A 
ATOM      9  C   UNL A   1      40.947  23.982  28.098  1.00  0.00     0.010 A 
ATOM     10  C   UNL A   1      39.663  25.302  26.561  1.00  0.00     0.010 A 
ATOM     11  C   UNL A   1      40.648  25.229  27.547  1.00  0.00    -0.014 A 
BRANCH  11  12
ATOM     12  C   UNL A   1      41.233  26.446  28.163  1.00  0.00     0.031 A 
ATOM     13  C   UNL A   1      42.683  26.747  27.889  1.00  0.00     0.074 A 
ATOM     14  C   UNL A   1      40.457  27.316  28.842  1.00  0.00     0.049 A 
ATOM     15  N   UNL A   1      43.376  27.815  28.178  1.00  0.00    -0.248 NA
ATOM     16  C   UNL A   1      43.460  25.700  27.203  1.00  0.00     0.031 C 
ATOM     17  C   UNL A   1      39.040  27.117  29.167  1.00  0.00     0.029 A 
ATOM     18  N   UNL A   1      40.733  28.562  29.349  1.00  0.00    -0.354 N 
ATOM     19  C   UNL A   1      44.651  27.577  27.678  1.00  0.00     0.074 A 
ATOM     20  C   UNL A   1      44.672  26.221  27.187  1.00  0.00     0.031 C 
ATOM     21  C   UNL A   1      38.566  28.216  29.779  1.00  0.00     0.029 A 
ATOM     22  C   UNL A   1      39.641  29.197  29.903  1.00  0.00     0.049 A 
ATOM     23  H   UNL A   1      41.630  28.966  29.320  1.00  0.00     0.167 HD
ATOM     24  C   UNL A   1      45.696  28.428  27.573  1.00  0.00     0.034 A 
ATOM     25  C   UNL A   1      39.524  30.437  30.427  1.00  0.00     0.034 A 
ATOM     26  C   UNL A   1      45.665  29.773  28.075  1.00  0.00     0.049 A 
ATOM     27  C   UNL A   1      40.735  31.343  30.373  1.00  0.00     0.074 A 
ATOM     28  C   UNL A   1      46.670  30.720  28.075  1.00  0.00     0.029 A 
ATOM     29  N   UNL A   1      44.556  30.360  28.674  1.00  0.00    -0.354 N 
ATOM     30  N   UNL A   1      41.923  31.108  29.857  1.00  0.00    -0.248 NA
ATOM     31  C   UNL A   1      40.585  32.687  30.944  1.00  0.00     0.031 C 
ATOM     32  C   UNL A   1      46.189  31.859  28.731  1.00  0.00     0.029 A 
ATOM     33  C   UNL A   1      44.860  31.649  29.068  1.00  0.00     0.049 A 
ATOM     34  H   UNL A   1      43.684  29.921  28.800  1.00  0.00     0.167 HD
ATOM     35  C   UNL A   1      42.646  32.288  30.016  1.00  0.00     0.074 A 
ATOM     36  C   UNL A   1      41.749  33.238  30.641  1.00  0.00     0.031 C 
ATOM     37  C   UNL A   1      43.935  32.569  29.689  1.00  0.00     0.034 A 
BRANCH  24  38
ATOM     38  C   UNL A   1      46.940  27.894  26.907  1.00  0.00     0.023 A 
ATOM     39  C   UNL A   1      47.162  28.078  25.529  1.00  0.00     0.031 A 
ATOM     40  C   UNL A   1      47.860  27.115  27.625  1.00  0.00     0.131 A 
ATOM     41  C   UNL A   1      48.221  27.411  24.896  1.00  0.00     0.055 A 
ATOM     42  C   UNL A   1      48.964  26.528  27.005  1.00  0.00     0.041 A 
ATOM     43  F   UNL A   1      47.682  26.880  28.934  1.00  0.00    -0.206 F 
ATOM     44  C   UNL A   1      49.140  26.659  25.630  1.00  0.00     0.022 A 
BRANCH  41  45
ATOM     45  S   UNL A   1      48.278  27.404  23.082  1.00  0.00     0.124 S 
ATOM     46  O   UNL A   1      49.552  28.070  22.827  1.00  0.00    -0.237 OA
ATOM     47  O   UNL A   1      48.228  25.981  22.769  1.00  0.00    -0.237 OA
ATOM     48  O   UNL A   1      47.093  28.171  22.701  1.00  0.00    -0.744 OA
ENDBRANCH  41  45
ENDBRANCH  24  38
BRANCH  25  49
ATOM     49  C   UNL A   1      38.248  30.904  31.058  1.00  0.00     0.023 A 
ATOM     50  C   UNL A   1      37.231  31.523  30.309  1.00  0.00     0.031 A 
ATOM     51  C   UNL A   1      38.071  30.827  32.452  1.00  0.00     0.131 A 
ATOM     52  C   UNL A   1      36.128  32.104  30.961  1.00  0.00     0.055 A 
ATOM     53  C   UNL A   1      36.942  31.349  33.088  1.00  0.00     0.041 A 
ATOM     54  F   UNL A   1      39.005  30.248  33.224  1.00  0.00    -0.206 F 
ATOM     55  C   UNL A   1      35.972  32.011  32.344  1.00  0.00     0.022 A 
BRANCH  52  56
ATOM     56  S   UNL A   1      34.965  33.105  29.987  1.00  0.00     0.124 S 
ATOM     57  O   UNL A   1      34.390  32.107  29.093  1.00  0.00    -0.237 OA
ATOM     58  O   UNL A   1      34.078  33.628  31.021  1.00  0.00    -0.237 OA
ATOM     59  O   UNL A   1      35.824  34.098  29.344  1.00  0.00    -0.744 OA
ENDBRANCH  52  56
ENDBRANCH  25  49
BRANCH  37  60
ATOM     60  C   UNL A   1      44.423  33.966  29.972  1.00  0.00     0.023 A 
ATOM     61  C   UNL A   1      44.319  34.988  29.014  1.00  0.00     0.031 A 
ATOM     62  C   UNL A   1      45.006  34.277  31.214  1.00  0.00     0.131 A 
ATOM     63  C   UNL A   1      44.858  36.253  29.284  1.00  0.00     0.055 A 
ATOM     64  C   UNL A   1      45.469  35.561  31.505  1.00  0.00     0.041 A 
ATOM     65  F   UNL A   1      45.129  33.339  32.166  1.00  0.00    -0.206 F 
ATOM     66  C   UNL A   1      45.413  36.552  30.530  1.00  0.00     0.022 A 
BRANCH  63  67
ATOM     67  S   UNL A   1      44.933  37.463  27.937  1.00  0.00     0.124 S 
ATOM     68  O   UNL A   1      45.000  38.725  28.669  1.00  0.00    -0.237 OA
ATOM     69  O   UNL A   1      46.148  37.071  27.231  1.00  0.00    -0.237 OA
ATOM     70  O   UNL A   1      43.689  37.237  27.203  1.00  0.00    -0.744 OA
ENDBRANCH  63  67
ENDBRANCH  37  60
ENDBRANCH  11  12
ENDBRANCH   4   6
ENDBRANCH   3   4
ENDBRANCH   2   3
ENDBRANCH   1   2
BRANCH   1  71
ATOM     71  O   UNL A   1      34.366  21.473  24.212  1.00  0.00    -0.460 OA
BRANCH  71  72
ATOM     72  C   UNL A   1      33.008  21.289  24.142  1.00  0.00     0.338 C 
ATOM     73  O   UNL A   1      32.451  20.387  23.537  1.00  0.00    -0.249 OA
BRANCH  72  74
ATOM     74  C   UNL A   1      32.300  22.421  24.889  1.00  0.00     0.263 C 
ATOM     75  O   UNL A   1      31.551  23.218  23.981  1.00  0.00    -0.322 OA
ATOM     76  C   UNL A   1      31.318  21.890  25.925  1.00  0.00     0.186 C 
ATOM     77  C   UNL A   1      30.880  24.353  24.542  1.00  0.00     0.340 C 
ATOM     78  C   UNL A   1      30.978  23.089  26.814  1.00  0.00     0.181 C 
ATOM     79  C   UNL A   1      30.286  24.153  25.971  1.00  0.00     0.214 C 
BRANCH  76  80
ATOM     80  O   UNL A   1      31.794  20.824  26.721  1.00  0.00    -0.387 OA
ATOM     81  H   UNL A   1      32.721  20.643  26.497  1.00  0.00     0.211 HD
ENDBRANCH  76  80
BRANCH  77  82
ATOM     82  O   UNL A   1      29.791  24.810  23.691  1.00  0.00    -0.454 OA
BRANCH  82  83
ATOM     83  C   UNL A   1      29.864  26.155  23.340  1.00  0.00     0.214 A 
ATOM     84  C   UNL A   1      30.962  26.741  22.810  1.00  0.00     0.181 A 
ATOM     85  C   UNL A   1      28.623  26.980  23.482  1.00  0.00     0.239 A 
ATOM     86  O   UNL A   1      31.067  28.082  22.505  1.00  0.00    -0.452 OA
ATOM     87  C   UNL A   1      28.717  28.400  23.060  1.00  0.00     0.111 A 
ATOM     88  O   UNL A   1      27.586  26.481  23.904  1.00  0.00    -0.285 OA
ATOM     89  C   UNL A   1      29.952  28.868  22.610  1.00  0.00     0.146 A 
ATOM     90  C   UNL A   1      27.626  29.283  23.073  1.00  0.00     0.134 A 
ATOM     91  C   UNL A   1      30.111  30.195  22.204  1.00  0.00     0.094 A 
ATOM     92  C   UNL A   1      27.775  30.609  22.647  1.00  0.00     0.093 A 
ATOM     93  C   UNL A   1      29.020  31.052  22.217  1.00  0.00     0.123 A 
BRANCH  84  94
ATOM     94  C   UNL A   1      32.232  26.017  22.603  1.00  0.00     0.029 A 
ATOM     95  C   UNL A   1      33.221  26.063  23.605  1.00  0.00     0.062 A 
ATOM     96  C   UNL A   1      32.398  25.144  21.520  1.00  0.00     0.062 A 
ATOM     97  C   UNL A   1      34.275  25.144  23.600  1.00  0.00     0.162 A 
ATOM     98  C   UNL A   1      33.482  24.271  21.504  1.00  0.00     0.162 A 
ATOM     99  C   UNL A   1      34.408  24.241  22.549  1.00  0.00     0.200 A 
BRANCH  97 100
ATOM    100  O   UNL A   1      35.052  25.134  24.724  1.00  0.00    -0.504 OA
ATOM    101  H   UNL A   1      34.725  25.499  25.522  1.00  0.00     0.293 HD
ENDBRANCH  97 100
BRANCH  98 102
ATOM    102  O   UNL A   1      33.572  23.365  20.484  1.00  0.00    -0.504 OA
ATOM    103  H   UNL A   1      33.387  22.461  20.643  1.00  0.00     0.293 HD
ENDBRANCH  98 102
BRANCH  99 104
ATOM    104  O   UNL A   1      35.378  23.278  22.472  1.00  0.00    -0.502 OA
ATOM    105  H   UNL A   1      35.644  22.818  23.243  1.00  0.00     0.293 HD
ENDBRANCH  99 104
ENDBRANCH  84  94
BRANCH  90 106
ATOM    106  O   UNL A   1      26.391  28.865  23.479  1.00  0.00    -0.507 OA
ATOM    107  H   UNL A   1      25.696  29.486  23.579  1.00  0.00     0.293 HD
ENDBRANCH  90 106
BRANCH  93 108
ATOM    108  O   UNL A   1      29.212  32.328  21.778  1.00  0.00    -0.508 OA
ATOM    109  H   UNL A   1      29.779  32.493  21.050  1.00  0.00     0.293 HD
ENDBRANCH  93 108
ENDBRANCH  82  83
ENDBRANCH  77  82
BRANCH  78 110
ATOM    110  O   UNL A   1      30.157  22.628  27.905  1.00  0.00    -0.387 OA
ATOM    111  H   UNL A   1      29.461  22.047  27.563  1.00  0.00     0.211 HD
ENDBRANCH  78 110
BRANCH  79 112
ATOM    112  O   UNL A   1      30.117  25.375  26.697  1.00  0.00    -0.384 OA
ATOM    113  H   UNL A   1      30.781  26.019  26.406  1.00  0.00     0.211 HD
ENDBRANCH  79 112
ENDBRANCH  72  74
ENDBRANCH  71  72
ENDBRANCH   1  71
TORSDOF 25
ENDMDL
