MODEL 1
REMARK VINA RESULT:     -10.6      0.000      0.000
REMARK SMILES Cc1n[nH]c(CCC(=O)OCCOC(=O)c2ccc(-c3c4nc(c(-c5cc(S(=O)(=O)[O-])ccc5F)c5ccc([nH]5)c(-c5cc(S(=O)(=O)[O-])ccc5F)c5nc(c(-c6cc(S(=O)(=O)[O-])ccc6F)c6ccc3[nH]6)C=C5)C=C4)cc2)c1C
REMARK SMILES IDX 12 1 11 2 10 3 8 4 9 5 7 6 6 7 5 8 1 9 2 10 3 11 79 12 4 13
REMARK SMILES IDX 80 14 13 16 14 17 15 18 16 19 17 20 78 21 18 22 77 23 19 24
REMARK SMILES IDX 20 25 21 26 71 27 22 28 76 29 70 30 72 31 23 32 75 33 69 34
REMARK SMILES IDX 68 35 24 37 56 38 36 39 55 40 37 41 40 42 54 43 73 44 38 45
REMARK SMILES IDX 39 46 53 48 74 49 41 50 25 51 26 52 34 53 27 54 33 55 35 56
REMARK SMILES IDX 32 57 28 58 29 59 30 60 31 61 57 62 58 63 66 64 59 65 65 66
REMARK SMILES IDX 67 67 64 68 60 69 61 70 62 71 63 72 42 73 43 74 51 75 44 76
REMARK SMILES IDX 50 77 52 78 49 79 45 80 46 81 47 82 48 83
REMARK H PARENT 4 15 72 36 40 47
REMARK Flexibility Score: inf
ROOT
ATOM      1  C   UNL A   1      41.218  20.787  26.502  1.00  0.00     0.275 C 
ENDROOT
BRANCH   1   2
ATOM      2  C   UNL A   1      42.508  19.969  26.488  1.00  0.00     0.274 C 
BRANCH   2   3
ATOM      3  O   UNL A   1      42.879  19.554  25.161  1.00  0.00    -0.462 OA
BRANCH   3   4
ATOM      4  C   UNL A   1      44.160  19.140  24.981  1.00  0.00     0.306 C 
ATOM      5  O   UNL A   1      44.602  18.076  25.409  1.00  0.00    -0.252 OA
BRANCH   4   6
ATOM      6  C   UNL A   1      45.047  20.154  24.270  1.00  0.00     0.129 C 
BRANCH   6   7
ATOM      7  C   UNL A   1      45.750  21.268  25.063  1.00  0.00     0.067 C 
BRANCH   7   8
ATOM      8  C   UNL A   1      44.887  22.465  25.265  1.00  0.00     0.039 A 
ATOM      9  C   UNL A   1      43.918  25.941  25.763  1.00  0.00     0.069 C 
ATOM     10  C   UNL A   1      44.048  24.484  25.525  1.00  0.00     0.062 A 
ATOM     11  N   UNL A   1      43.226  23.873  24.662  1.00  0.00    -0.181 NA
ATOM     12  C   UNL A   1      45.032  23.598  26.044  1.00  0.00    -0.007 A 
ATOM     13  N   UNL A   1      43.710  22.625  24.595  1.00  0.00    -0.282 N 
ATOM     14  C   UNL A   1      46.049  23.879  27.088  1.00  0.00     0.048 C 
ATOM     15  H   UNL A   1      43.260  21.897  24.110  1.00  0.00     0.190 HD
ENDBRANCH   7   8
ENDBRANCH   6   7
ENDBRANCH   4   6
ENDBRANCH   3   4
ENDBRANCH   2   3
ENDBRANCH   1   2
BRANCH   1  16
ATOM     16  O   UNL A   1      41.383  22.155  26.893  1.00  0.00    -0.458 OA
BRANCH  16  17
ATOM     17  C   UNL A   1      40.230  22.858  26.934  1.00  0.00     0.338 C 
ATOM     18  O   UNL A   1      39.147  22.522  26.501  1.00  0.00    -0.246 OA
BRANCH  17  19
ATOM     19  C   UNL A   1      40.441  24.245  27.321  1.00  0.00     0.060 A 
ATOM     20  C   UNL A   1      41.523  24.489  28.181  1.00  0.00     0.016 A 
ATOM     21  C   UNL A   1      39.464  25.209  27.058  1.00  0.00     0.016 A 
ATOM     22  C   UNL A   1      41.585  25.689  28.845  1.00  0.00     0.010 A 
ATOM     23  C   UNL A   1      39.525  26.407  27.730  1.00  0.00     0.010 A 
ATOM     24  C   UNL A   1      40.567  26.621  28.634  1.00  0.00    -0.014 A 
BRANCH  24  25
ATOM     25  C   UNL A   1      40.737  27.923  29.234  1.00  0.00     0.031 A 
ATOM     26  C   UNL A   1      41.816  28.716  28.602  1.00  0.00     0.074 A 
ATOM     27  C   UNL A   1      39.907  28.427  30.158  1.00  0.00     0.049 A 
ATOM     28  N   UNL A   1      42.939  29.082  29.122  1.00  0.00    -0.248 NA
ATOM     29  C   UNL A   1      41.713  28.973  27.156  1.00  0.00     0.031 C 
ATOM     30  C   UNL A   1      38.642  27.875  30.637  1.00  0.00     0.029 A 
ATOM     31  N   UNL A   1      39.974  29.639  30.763  1.00  0.00    -0.354 N 
ATOM     32  C   UNL A   1      43.594  29.807  28.133  1.00  0.00     0.074 A 
ATOM     33  C   UNL A   1      42.902  29.521  26.907  1.00  0.00     0.031 C 
ATOM     34  C   UNL A   1      37.951  28.854  31.263  1.00  0.00     0.029 A 
ATOM     35  C   UNL A   1      38.777  30.052  31.325  1.00  0.00     0.049 A 
ATOM     36  H   UNL A   1      40.799  30.176  30.801  1.00  0.00     0.167 HD
ATOM     37  C   UNL A   1      44.509  30.764  28.447  1.00  0.00     0.034 A 
ATOM     38  C   UNL A   1      38.468  31.320  31.699  1.00  0.00     0.034 A 
ATOM     39  C   UNL A   1      44.956  30.623  29.816  1.00  0.00     0.049 A 
ATOM     40  C   UNL A   1      39.756  32.035  31.921  1.00  0.00     0.074 A 
ATOM     41  C   UNL A   1      45.555  29.601  30.532  1.00  0.00     0.029 A 
ATOM     42  N   UNL A   1      44.448  31.486  30.764  1.00  0.00    -0.354 N 
ATOM     43  N   UNL A   1      40.604  31.708  32.860  1.00  0.00    -0.248 NA
ATOM     44  C   UNL A   1      40.336  32.784  30.811  1.00  0.00     0.031 C 
ATOM     45  C   UNL A   1      44.929  29.637  31.813  1.00  0.00     0.029 A 
ATOM     46  C   UNL A   1      44.046  30.720  31.832  1.00  0.00     0.049 A 
ATOM     47  H   UNL A   1      44.385  32.465  30.690  1.00  0.00     0.167 HD
ATOM     48  C   UNL A   1      41.858  31.812  32.273  1.00  0.00     0.074 A 
ATOM     49  C   UNL A   1      41.636  32.583  31.051  1.00  0.00     0.031 C 
ATOM     50  C   UNL A   1      42.902  31.023  32.672  1.00  0.00     0.034 A 
BRANCH  37  51
ATOM     51  C   UNL A   1      44.731  32.031  27.652  1.00  0.00     0.023 A 
ATOM     52  C   UNL A   1      44.121  33.202  28.141  1.00  0.00     0.031 A 
ATOM     53  C   UNL A   1      45.237  32.112  26.333  1.00  0.00     0.131 A 
ATOM     54  C   UNL A   1      43.926  34.317  27.310  1.00  0.00     0.055 A 
ATOM     55  C   UNL A   1      45.108  33.252  25.536  1.00  0.00     0.041 A 
ATOM     56  F   UNL A   1      45.800  31.076  25.701  1.00  0.00    -0.206 F 
ATOM     57  C   UNL A   1      44.416  34.352  26.009  1.00  0.00     0.022 A 
BRANCH  54  58
ATOM     58  S   UNL A   1      42.842  35.639  27.902  1.00  0.00     0.124 S 
ATOM     59  O   UNL A   1      41.750  34.876  28.499  1.00  0.00    -0.237 OA
ATOM     60  O   UNL A   1      43.715  36.349  28.829  1.00  0.00    -0.237 OA
ATOM     61  O   UNL A   1      42.500  36.367  26.682  1.00  0.00    -0.744 OA
ENDBRANCH  54  58
ENDBRANCH  37  51
BRANCH  38  62
ATOM     62  C   UNL A   1      37.150  31.989  31.531  1.00  0.00     0.023 A 
ATOM     63  C   UNL A   1      36.590  32.252  30.266  1.00  0.00     0.031 A 
ATOM     64  C   UNL A   1      36.306  32.195  32.650  1.00  0.00     0.131 A 
ATOM     65  C   UNL A   1      35.255  32.709  30.159  1.00  0.00     0.055 A 
ATOM     66  C   UNL A   1      34.996  32.663  32.540  1.00  0.00     0.041 A 
ATOM     67  F   UNL A   1      36.697  31.868  33.891  1.00  0.00    -0.206 F 
ATOM     68  C   UNL A   1      34.461  32.914  31.290  1.00  0.00     0.022 A 
BRANCH  65  69
ATOM     69  S   UNL A   1      34.492  32.943  28.522  1.00  0.00     0.124 S 
ATOM     70  O   UNL A   1      33.981  31.610  28.228  1.00  0.00    -0.237 OA
ATOM     71  O   UNL A   1      33.499  33.978  28.783  1.00  0.00    -0.237 OA
ATOM     72  O   UNL A   1      35.614  33.370  27.684  1.00  0.00    -0.744 OA
ENDBRANCH  65  69
ENDBRANCH  38  62
BRANCH  50  73
ATOM     73  C   UNL A   1      42.765  30.222  33.951  1.00  0.00     0.023 A 
ATOM     74  C   UNL A   1      42.259  28.904  34.024  1.00  0.00     0.031 A 
ATOM     75  C   UNL A   1      43.308  30.773  35.127  1.00  0.00     0.131 A 
ATOM     76  C   UNL A   1      42.298  28.196  35.242  1.00  0.00     0.055 A 
ATOM     77  C   UNL A   1      43.366  30.062  36.325  1.00  0.00     0.041 A 
ATOM     78  F   UNL A   1      43.836  32.009  35.118  1.00  0.00    -0.206 F 
ATOM     79  C   UNL A   1      42.853  28.772  36.389  1.00  0.00     0.022 A 
BRANCH  76  80
ATOM     80  S   UNL A   1      41.613  26.512  35.359  1.00  0.00     0.124 S 
ATOM     81  O   UNL A   1      40.544  26.506  34.368  1.00  0.00    -0.237 OA
ATOM     82  O   UNL A   1      42.773  25.678  35.057  1.00  0.00    -0.237 OA
ATOM     83  O   UNL A   1      41.154  26.429  36.748  1.00  0.00    -0.744 OA
ENDBRANCH  76  80
ENDBRANCH  50  73
ENDBRANCH  24  25
ENDBRANCH  17  19
ENDBRANCH  16  17
ENDBRANCH   1  16
TORSDOF 16
ENDMDL
MODEL 2
REMARK VINA RESULT:     -10.5      3.557     10.986
REMARK SMILES Cc1n[nH]c(CCC(=O)OCCOC(=O)c2ccc(-c3c4nc(c(-c5cc(S(=O)(=O)[O-])ccc5F)c5ccc([nH]5)c(-c5cc(S(=O)(=O)[O-])ccc5F)c5nc(c(-c6cc(S(=O)(=O)[O-])ccc6F)c6ccc3[nH]6)C=C5)C=C4)cc2)c1C
REMARK SMILES IDX 12 1 11 2 10 3 8 4 9 5 7 6 6 7 5 8 1 9 2 10 3 11 79 12 4 13
REMARK SMILES IDX 80 14 13 16 14 17 15 18 16 19 17 20 78 21 18 22 77 23 19 24
REMARK SMILES IDX 20 25 21 26 71 27 22 28 76 29 70 30 72 31 23 32 75 33 69 34
REMARK SMILES IDX 68 35 24 37 56 38 36 39 55 40 37 41 40 42 54 43 73 44 38 45
REMARK SMILES IDX 39 46 53 48 74 49 41 50 25 51 26 52 34 53 27 54 33 55 35 56
REMARK SMILES IDX 32 57 28 58 29 59 30 60 31 61 57 62 58 63 66 64 59 65 65 66
REMARK SMILES IDX 67 67 64 68 60 69 61 70 62 71 63 72 42 73 43 74 51 75 44 76
REMARK SMILES IDX 50 77 52 78 49 79 45 80 46 81 47 82 48 83
REMARK H PARENT 4 15 72 36 40 47
REMARK Flexibility Score: inf
ROOT
ATOM      1  C   UNL A   1      34.476  32.745  29.808  1.00  0.00     0.275 C 
ENDROOT
BRANCH   1   2
ATOM      2  C   UNL A   1      34.403  33.690  31.007  1.00  0.00     0.274 C 
BRANCH   2   3
ATOM      3  O   UNL A   1      34.108  32.997  32.233  1.00  0.00    -0.462 OA
BRANCH   3   4
ATOM      4  C   UNL A   1      35.052  33.042  33.208  1.00  0.00     0.306 C 
ATOM      5  O   UNL A   1      34.829  33.405  34.361  1.00  0.00    -0.252 OA
BRANCH   4   6
ATOM      6  C   UNL A   1      36.454  32.684  32.732  1.00  0.00     0.129 C 
BRANCH   6   7
ATOM      7  C   UNL A   1      36.930  31.222  32.733  1.00  0.00     0.067 C 
BRANCH   7   8
ATOM      8  C   UNL A   1      38.065  30.985  33.667  1.00  0.00     0.039 A 
ATOM      9  C   UNL A   1      41.040  31.624  35.669  1.00  0.00     0.069 C 
ATOM     10  C   UNL A   1      39.820  31.130  34.988  1.00  0.00     0.062 A 
ATOM     11  N   UNL A   1      38.937  30.382  35.662  1.00  0.00    -0.181 NA
ATOM     12  C   UNL A   1      39.378  31.420  33.669  1.00  0.00    -0.007 A 
ATOM     13  N   UNL A   1      37.922  30.238  34.799  1.00  0.00    -0.282 N 
ATOM     14  C   UNL A   1      40.116  32.135  32.598  1.00  0.00     0.048 C 
ATOM     15  H   UNL A   1      37.150  29.651  34.966  1.00  0.00     0.190 HD
ENDBRANCH   7   8
ENDBRANCH   6   7
ENDBRANCH   4   6
ENDBRANCH   3   4
ENDBRANCH   2   3
ENDBRANCH   1   2
BRANCH   1  16
ATOM     16  O   UNL A   1      35.755  32.698  29.163  1.00  0.00    -0.458 OA
BRANCH  16  17
ATOM     17  C   UNL A   1      35.922  31.631  28.351  1.00  0.00     0.338 C 
ATOM     18  O   UNL A   1      35.178  31.254  27.469  1.00  0.00    -0.246 OA
BRANCH  17  19
ATOM     19  C   UNL A   1      36.990  30.753  28.804  1.00  0.00     0.060 A 
ATOM     20  C   UNL A   1      38.139  31.384  29.304  1.00  0.00     0.016 A 
ATOM     21  C   UNL A   1      36.957  29.388  28.505  1.00  0.00     0.016 A 
ATOM     22  C   UNL A   1      39.294  30.653  29.434  1.00  0.00     0.010 A 
ATOM     23  C   UNL A   1      38.117  28.660  28.630  1.00  0.00     0.010 A 
ATOM     24  C   UNL A   1      39.276  29.307  29.065  1.00  0.00    -0.014 A 
BRANCH  24  25
ATOM     25  C   UNL A   1      40.462  28.535  29.348  1.00  0.00     0.031 A 
ATOM     26  C   UNL A   1      40.759  28.439  30.796  1.00  0.00     0.074 A 
ATOM     27  C   UNL A   1      41.136  27.844  28.418  1.00  0.00     0.049 A 
ATOM     28  N   UNL A   1      41.761  28.944  31.434  1.00  0.00    -0.248 NA
ATOM     29  C   UNL A   1      39.718  27.871  31.668  1.00  0.00     0.031 C 
ATOM     30  C   UNL A   1      40.771  27.609  27.023  1.00  0.00     0.029 A 
ATOM     31  N   UNL A   1      42.244  27.080  28.590  1.00  0.00    -0.354 N 
ATOM     32  C   UNL A   1      41.590  28.569  32.761  1.00  0.00     0.074 A 
ATOM     33  C   UNL A   1      40.233  28.112  32.873  1.00  0.00     0.031 C 
ATOM     34  C   UNL A   1      41.501  26.574  26.552  1.00  0.00     0.029 A 
ATOM     35  C   UNL A   1      42.453  26.161  27.574  1.00  0.00     0.049 A 
ATOM     36  H   UNL A   1      42.845  27.171  29.364  1.00  0.00     0.167 HD
ATOM     37  C   UNL A   1      42.651  28.450  33.605  1.00  0.00     0.034 A 
ATOM     38  C   UNL A   1      43.271  25.078  27.636  1.00  0.00     0.034 A 
ATOM     39  C   UNL A   1      43.817  29.119  33.068  1.00  0.00     0.049 A 
ATOM     40  C   UNL A   1      44.274  25.351  28.703  1.00  0.00     0.074 A 
ATOM     41  C   UNL A   1      44.083  30.418  32.673  1.00  0.00     0.029 A 
ATOM     42  N   UNL A   1      44.808  28.351  32.493  1.00  0.00    -0.354 N 
ATOM     43  N   UNL A   1      45.157  26.312  28.628  1.00  0.00    -0.248 NA
ATOM     44  C   UNL A   1      43.993  24.887  30.057  1.00  0.00     0.031 C 
ATOM     45  C   UNL A   1      44.876  30.286  31.495  1.00  0.00     0.029 A 
ATOM     46  C   UNL A   1      45.113  28.926  31.283  1.00  0.00     0.049 A 
ATOM     47  H   UNL A   1      45.219  27.543  32.877  1.00  0.00     0.167 HD
ATOM     48  C   UNL A   1      45.207  26.862  29.901  1.00  0.00     0.074 A 
ATOM     49  C   UNL A   1      44.555  25.875  30.761  1.00  0.00     0.031 C 
ATOM     50  C   UNL A   1      45.505  28.182  30.099  1.00  0.00     0.034 A 
BRANCH  37  51
ATOM     51  C   UNL A   1      42.746  27.439  34.726  1.00  0.00     0.023 A 
ATOM     52  C   UNL A   1      43.493  26.274  34.468  1.00  0.00     0.031 A 
ATOM     53  C   UNL A   1      41.939  27.401  35.887  1.00  0.00     0.131 A 
ATOM     54  C   UNL A   1      43.331  25.122  35.254  1.00  0.00     0.055 A 
ATOM     55  C   UNL A   1      41.840  26.276  36.710  1.00  0.00     0.041 A 
ATOM     56  F   UNL A   1      41.130  28.403  36.248  1.00  0.00    -0.206 F 
ATOM     57  C   UNL A   1      42.508  25.113  36.375  1.00  0.00     0.022 A 
BRANCH  54  58
ATOM     58  S   UNL A   1      44.061  23.576  34.658  1.00  0.00     0.124 S 
ATOM     59  O   UNL A   1      42.932  22.970  33.958  1.00  0.00    -0.237 OA
ATOM     60  O   UNL A   1      45.152  24.065  33.822  1.00  0.00    -0.237 OA
ATOM     61  O   UNL A   1      44.469  22.901  35.887  1.00  0.00    -0.744 OA
ENDBRANCH  54  58
ENDBRANCH  37  51
BRANCH  38  62
ATOM     62  C   UNL A   1      42.994  23.734  27.061  1.00  0.00     0.023 A 
ATOM     63  C   UNL A   1      43.915  23.058  26.239  1.00  0.00     0.031 A 
ATOM     64  C   UNL A   1      41.872  22.988  27.500  1.00  0.00     0.131 A 
ATOM     65  C   UNL A   1      43.692  21.708  25.879  1.00  0.00     0.055 A 
ATOM     66  C   UNL A   1      41.648  21.661  27.128  1.00  0.00     0.041 A 
ATOM     67  F   UNL A   1      40.993  23.495  28.378  1.00  0.00    -0.206 F 
ATOM     68  C   UNL A   1      42.564  21.012  26.321  1.00  0.00     0.022 A 
BRANCH  65  69
ATOM     69  S   UNL A   1      44.935  20.798  24.909  1.00  0.00     0.124 S 
ATOM     70  O   UNL A   1      44.651  19.413  25.267  1.00  0.00    -0.237 OA
ATOM     71  O   UNL A   1      44.619  21.194  23.542  1.00  0.00    -0.237 OA
ATOM     72  O   UNL A   1      46.206  21.317  25.417  1.00  0.00    -0.744 OA
ENDBRANCH  65  69
ENDBRANCH  38  62
BRANCH  50  73
ATOM     73  C   UNL A   1      46.055  28.989  28.940  1.00  0.00     0.023 A 
ATOM     74  C   UNL A   1      47.415  29.026  28.560  1.00  0.00     0.031 A 
ATOM     75  C   UNL A   1      45.130  29.638  28.101  1.00  0.00     0.131 A 
ATOM     76  C   UNL A   1      47.806  29.701  27.387  1.00  0.00     0.055 A 
ATOM     77  C   UNL A   1      45.516  30.286  26.929  1.00  0.00     0.041 A 
ATOM     78  F   UNL A   1      43.817  29.613  28.387  1.00  0.00    -0.206 F 
ATOM     79  C   UNL A   1      46.858  30.326  26.570  1.00  0.00     0.022 A 
BRANCH  76  80
ATOM     80  S   UNL A   1      49.560  29.789  26.905  1.00  0.00     0.124 S 
ATOM     81  O   UNL A   1      49.661  28.845  25.799  1.00  0.00    -0.237 OA
ATOM     82  O   UNL A   1      49.723  31.199  26.561  1.00  0.00    -0.237 OA
ATOM     83  O   UNL A   1      50.266  29.378  28.121  1.00  0.00    -0.744 OA
ENDBRANCH  76  80
ENDBRANCH  50  73
ENDBRANCH  24  25
ENDBRANCH  17  19
ENDBRANCH  16  17
ENDBRANCH   1  16
TORSDOF 16
ENDMDL
MODEL 3
REMARK VINA RESULT:     -10.5      3.027     11.286
REMARK SMILES Cc1n[nH]c(CCC(=O)OCCOC(=O)c2ccc(-c3c4nc(c(-c5cc(S(=O)(=O)[O-])ccc5F)c5ccc([nH]5)c(-c5cc(S(=O)(=O)[O-])ccc5F)c5nc(c(-c6cc(S(=O)(=O)[O-])ccc6F)c6ccc3[nH]6)C=C5)C=C4)cc2)c1C
REMARK SMILES IDX 12 1 11 2 10 3 8 4 9 5 7 6 6 7 5 8 1 9 2 10 3 11 79 12 4 13
REMARK SMILES IDX 80 14 13 16 14 17 15 18 16 19 17 20 78 21 18 22 77 23 19 24
REMARK SMILES IDX 20 25 21 26 71 27 22 28 76 29 70 30 72 31 23 32 75 33 69 34
REMARK SMILES IDX 68 35 24 37 56 38 36 39 55 40 37 41 40 42 54 43 73 44 38 45
REMARK SMILES IDX 39 46 53 48 74 49 41 50 25 51 26 52 34 53 27 54 33 55 35 56
REMARK SMILES IDX 32 57 28 58 29 59 30 60 31 61 57 62 58 63 66 64 59 65 65 66
REMARK SMILES IDX 67 67 64 68 60 69 61 70 62 71 63 72 42 73 43 74 51 75 44 76
REMARK SMILES IDX 50 77 52 78 49 79 45 80 46 81 47 82 48 83
REMARK H PARENT 4 15 72 36 40 47
REMARK Flexibility Score: inf
ROOT
ATOM      1  C   UNL A   1      33.998  33.421  28.952  1.00  0.00     0.275 C 
ENDROOT
BRANCH   1   2
ATOM      2  C   UNL A   1      33.876  34.898  29.324  1.00  0.00     0.274 C 
BRANCH   2   3
ATOM      3  O   UNL A   1      32.826  35.138  30.279  1.00  0.00    -0.462 OA
BRANCH   3   4
ATOM      4  C   UNL A   1      33.066  36.071  31.236  1.00  0.00     0.306 C 
ATOM      5  O   UNL A   1      32.528  37.175  31.266  1.00  0.00    -0.252 OA
BRANCH   4   6
ATOM      6  C   UNL A   1      34.140  35.670  32.239  1.00  0.00     0.129 C 
BRANCH   6   7
ATOM      7  C   UNL A   1      34.032  34.345  33.011  1.00  0.00     0.067 C 
BRANCH   7   8
ATOM      8  C   UNL A   1      35.119  33.387  32.668  1.00  0.00     0.039 A 
ATOM      9  C   UNL A   1      38.201  31.466  32.945  1.00  0.00     0.069 C 
ATOM     10  C   UNL A   1      36.895  32.087  32.622  1.00  0.00     0.062 A 
ATOM     11  N   UNL A   1      35.898  31.332  32.142  1.00  0.00    -0.181 NA
ATOM     12  C   UNL A   1      36.490  33.432  32.838  1.00  0.00    -0.007 A 
ATOM     13  N   UNL A   1      34.858  32.175  32.099  1.00  0.00    -0.282 N 
ATOM     14  C   UNL A   1      37.331  34.578  33.268  1.00  0.00     0.048 C 
ATOM     15  H   UNL A   1      33.990  31.943  31.696  1.00  0.00     0.190 HD
ENDBRANCH   7   8
ENDBRANCH   6   7
ENDBRANCH   4   6
ENDBRANCH   3   4
ENDBRANCH   2   3
ENDBRANCH   1   2
BRANCH   1  16
ATOM     16  O   UNL A   1      35.314  32.875  29.099  1.00  0.00    -0.458 OA
BRANCH  16  17
ATOM     17  C   UNL A   1      35.571  31.832  28.280  1.00  0.00     0.338 C 
ATOM     18  O   UNL A   1      34.872  31.411  27.382  1.00  0.00    -0.246 OA
BRANCH  17  19
ATOM     19  C   UNL A   1      36.692  31.027  28.744  1.00  0.00     0.060 A 
ATOM     20  C   UNL A   1      37.827  31.735  29.169  1.00  0.00     0.016 A 
ATOM     21  C   UNL A   1      36.713  29.649  28.520  1.00  0.00     0.016 A 
ATOM     22  C   UNL A   1      39.018  31.064  29.299  1.00  0.00     0.010 A 
ATOM     23  C   UNL A   1      37.908  28.980  28.645  1.00  0.00     0.010 A 
ATOM     24  C   UNL A   1      39.049  29.700  29.005  1.00  0.00    -0.014 A 
BRANCH  24  25
ATOM     25  C   UNL A   1      40.278  28.998  29.289  1.00  0.00     0.031 A 
ATOM     26  C   UNL A   1      40.540  28.853  30.739  1.00  0.00     0.074 A 
ATOM     27  C   UNL A   1      41.024  28.400  28.349  1.00  0.00     0.049 A 
ATOM     28  N   UNL A   1      41.486  29.393  31.431  1.00  0.00    -0.248 NA
ATOM     29  C   UNL A   1      39.517  28.173  31.551  1.00  0.00     0.031 C 
ATOM     30  C   UNL A   1      40.716  28.210  26.934  1.00  0.00     0.029 A 
ATOM     31  N   UNL A   1      42.177  27.706  28.520  1.00  0.00    -0.354 N 
ATOM     32  C   UNL A   1      41.304  28.943  32.734  1.00  0.00     0.074 A 
ATOM     33  C   UNL A   1      39.980  28.390  32.781  1.00  0.00     0.031 C 
ATOM     34  C   UNL A   1      41.529  27.250  26.439  1.00  0.00     0.029 A 
ATOM     35  C   UNL A   1      42.478  26.854  27.470  1.00  0.00     0.049 A 
ATOM     36  H   UNL A   1      42.748  27.801  29.316  1.00  0.00     0.167 HD
ATOM     37  C   UNL A   1      42.347  28.855  33.603  1.00  0.00     0.034 A 
ATOM     38  C   UNL A   1      43.367  25.828  27.506  1.00  0.00     0.034 A 
ATOM     39  C   UNL A   1      43.478  29.628  33.135  1.00  0.00     0.049 A 
ATOM     40  C   UNL A   1      44.319  26.116  28.616  1.00  0.00     0.074 A 
ATOM     41  C   UNL A   1      43.664  30.959  32.810  1.00  0.00     0.029 A 
ATOM     42  N   UNL A   1      44.535  28.958  32.557  1.00  0.00    -0.354 N 
ATOM     43  N   UNL A   1      45.134  27.138  28.614  1.00  0.00    -0.248 NA
ATOM     44  C   UNL A   1      44.033  25.569  29.938  1.00  0.00     0.031 C 
ATOM     45  C   UNL A   1      44.497  30.940  31.652  1.00  0.00     0.029 A 
ATOM     46  C   UNL A   1      44.834  29.610  31.385  1.00  0.00     0.049 A 
ATOM     47  H   UNL A   1      44.990  28.162  32.916  1.00  0.00     0.167 HD
ATOM     48  C   UNL A   1      45.110  27.627  29.912  1.00  0.00     0.074 A 
ATOM     49  C   UNL A   1      44.505  26.557  30.704  1.00  0.00     0.031 C 
ATOM     50  C   UNL A   1      45.310  28.953  30.181  1.00  0.00     0.034 A 
BRANCH  37  51
ATOM     51  C   UNL A   1      42.480  27.800  34.678  1.00  0.00     0.023 A 
ATOM     52  C   UNL A   1      43.294  26.690  34.381  1.00  0.00     0.031 A 
ATOM     53  C   UNL A   1      41.659  27.665  35.823  1.00  0.00     0.131 A 
ATOM     54  C   UNL A   1      43.182  25.496  35.110  1.00  0.00     0.055 A 
ATOM     55  C   UNL A   1      41.610  26.499  36.591  1.00  0.00     0.041 A 
ATOM     56  F   UNL A   1      40.792  28.604  36.216  1.00  0.00    -0.206 F 
ATOM     57  C   UNL A   1      42.345  25.391  36.216  1.00  0.00     0.022 A 
BRANCH  54  58
ATOM     58  S   UNL A   1      44.005  24.021  34.457  1.00  0.00     0.124 S 
ATOM     59  O   UNL A   1      43.266  22.955  35.126  1.00  0.00    -0.237 OA
ATOM     60  O   UNL A   1      43.778  24.163  33.024  1.00  0.00    -0.237 OA
ATOM     61  O   UNL A   1      45.390  24.188  34.892  1.00  0.00    -0.744 OA
ENDBRANCH  54  58
ENDBRANCH  37  51
BRANCH  38  62
ATOM     62  C   UNL A   1      43.200  24.498  26.862  1.00  0.00     0.023 A 
ATOM     63  C   UNL A   1      44.143  23.972  25.957  1.00  0.00     0.031 A 
ATOM     64  C   UNL A   1      42.186  23.613  27.303  1.00  0.00     0.131 A 
ATOM     65  C   UNL A   1      44.041  22.629  25.523  1.00  0.00     0.055 A 
ATOM     66  C   UNL A   1      42.081  22.294  26.859  1.00  0.00     0.041 A 
ATOM     67  F   UNL A   1      41.307  23.972  28.250  1.00  0.00    -0.206 F 
ATOM     68  C   UNL A   1      43.016  21.793  25.971  1.00  0.00     0.022 A 
BRANCH  65  69
ATOM     69  S   UNL A   1      45.319  21.914  24.442  1.00  0.00     0.124 S 
ATOM     70  O   UNL A   1      44.532  21.070  23.551  1.00  0.00    -0.237 OA
ATOM     71  O   UNL A   1      45.928  23.098  23.848  1.00  0.00    -0.237 OA
ATOM     72  O   UNL A   1      46.182  21.186  25.374  1.00  0.00    -0.744 OA
ENDBRANCH  65  69
ENDBRANCH  38  62
BRANCH  50  73
ATOM     73  C   UNL A   1      45.835  29.852  29.079  1.00  0.00     0.023 A 
ATOM     74  C   UNL A   1      45.032  30.701  28.283  1.00  0.00     0.031 A 
ATOM     75  C   UNL A   1      47.230  29.952  28.929  1.00  0.00     0.131 A 
ATOM     76  C   UNL A   1      45.631  31.596  27.375  1.00  0.00     0.055 A 
ATOM     77  C   UNL A   1      47.821  30.855  28.046  1.00  0.00     0.041 A 
ATOM     78  F   UNL A   1      48.051  29.197  29.678  1.00  0.00    -0.206 F 
ATOM     79  C   UNL A   1      47.022  31.676  27.259  1.00  0.00     0.022 A 
BRANCH  76  80
ATOM     80  S   UNL A   1      44.608  32.668  26.316  1.00  0.00     0.124 S 
ATOM     81  O   UNL A   1      45.566  33.240  25.378  1.00  0.00    -0.237 OA
ATOM     82  O   UNL A   1      43.643  31.728  25.752  1.00  0.00    -0.237 OA
ATOM     83  O   UNL A   1      44.034  33.629  27.261  1.00  0.00    -0.744 OA
ENDBRANCH  76  80
ENDBRANCH  50  73
ENDBRANCH  24  25
ENDBRANCH  17  19
ENDBRANCH  16  17
ENDBRANCH   1  16
TORSDOF 16
ENDMDL
