MODEL 1
REMARK VINA RESULT:     -12.2      0.000      0.000
REMARK SMILES O=C(OCCOC(=O)C1CCN(C(=O)COc2ccc(Cl)cc2Cl)CC1)c1ccc(-c2c3nc(c(-c4cc(S(=O)(=O)[O-])ccc4F)c4ccc([nH]4)c(-c4cc(S(=O)(=O)[O-])ccc4F)c4nc(c(-c5cc(S(=O)(=O)[O-])ccc5F)c5ccc2[nH]5)C=C4)C=C3)cc1
REMARK SMILES IDX 4 1 3 2 2 3 1 4 27 5 28 6 89 7 29 8 88 9 30 10 31 11 32 12
REMARK SMILES IDX 82 13 33 14 87 15 81 16 83 17 34 18 86 19 80 20 79 21 35 23
REMARK SMILES IDX 67 24 47 25 66 26 48 27 51 28 65 29 84 30 49 31 50 32 64 34
REMARK SMILES IDX 85 35 52 36 36 37 37 38 45 39 38 40 44 41 46 42 43 43 39 44
REMARK SMILES IDX 40 45 41 46 42 47 68 48 69 49 77 50 70 51 76 52 78 53 75 54
REMARK SMILES IDX 71 55 72 56 73 57 74 58 53 59 54 60 62 61 55 62 61 63 63 64
REMARK SMILES IDX 60 65 56 66 57 67 58 68 59 69 5 70 6 71 7 72 8 73 9 74 10 75
REMARK SMILES IDX 26 76 11 77 25 78 12 79 13 80 14 81 15 82 16 83 17 84 18 85
REMARK SMILES IDX 23 86 19 87 22 88 24 89 20 90 21 91
REMARK H PARENT 83 22 51 33
REMARK Flexibility Score: inf
ROOT
ATOM      1  C   UNL A   1      32.411  30.768  26.851  1.00  0.00     0.275 C 
ENDROOT
BRANCH   1   2
ATOM      2  O   UNL A   1      33.851  30.748  26.822  1.00  0.00    -0.458 OA
BRANCH   2   3
ATOM      3  C   UNL A   1      34.753  31.266  27.693  1.00  0.00     0.338 C 
ATOM      4  O   UNL A   1      34.655  32.458  27.984  1.00  0.00    -0.246 OA
BRANCH   3   5
ATOM      5  C   UNL A   1      35.964  30.528  28.189  1.00  0.00     0.060 A 
ATOM      6  C   UNL A   1      36.027  29.720  29.326  1.00  0.00     0.016 A 
ATOM      7  C   UNL A   1      37.125  30.618  27.388  1.00  0.00     0.016 A 
ATOM      8  C   UNL A   1      37.172  28.985  29.630  1.00  0.00     0.010 A 
ATOM      9  C   UNL A   1      38.280  29.881  27.687  1.00  0.00     0.010 A 
ATOM     10  C   UNL A   1      38.309  29.074  28.827  1.00  0.00    -0.014 A 
BRANCH  10  11
ATOM     11  C   UNL A   1      39.569  28.528  29.377  1.00  0.00     0.031 A 
ATOM     12  C   UNL A   1      40.012  29.053  30.711  1.00  0.00     0.074 A 
ATOM     13  C   UNL A   1      40.196  27.491  28.792  1.00  0.00     0.049 A 
ATOM     14  N   UNL A   1      40.966  28.633  31.496  1.00  0.00    -0.248 NA
ATOM     15  C   UNL A   1      39.251  30.198  31.240  1.00  0.00     0.031 C 
ATOM     16  C   UNL A   1      39.791  26.867  27.533  1.00  0.00     0.029 A 
ATOM     17  N   UNL A   1      41.281  26.755  29.191  1.00  0.00    -0.354 N 
ATOM     18  C   UNL A   1      40.909  29.452  32.619  1.00  0.00     0.074 A 
ATOM     19  C   UNL A   1      39.864  30.422  32.388  1.00  0.00     0.031 C 
ATOM     20  C   UNL A   1      40.603  25.829  27.272  1.00  0.00     0.029 A 
ATOM     21  C   UNL A   1      41.600  25.725  28.334  1.00  0.00     0.049 A 
ATOM     22  H   UNL A   1      41.785  26.943  30.015  1.00  0.00     0.167 HD
ATOM     23  C   UNL A   1      41.654  29.387  33.747  1.00  0.00     0.034 A 
ATOM     24  C   UNL A   1      42.584  24.806  28.410  1.00  0.00     0.034 A 
ATOM     25  C   UNL A   1      42.722  28.438  33.925  1.00  0.00     0.049 A 
ATOM     26  C   UNL A   1      43.481  24.830  29.624  1.00  0.00     0.074 A 
ATOM     27  C   UNL A   1      43.592  28.304  34.990  1.00  0.00     0.029 A 
ATOM     28  N   UNL A   1      43.081  27.470  32.992  1.00  0.00    -0.354 N 
ATOM     29  N   UNL A   1      43.421  25.609  30.681  1.00  0.00    -0.248 NA
ATOM     30  C   UNL A   1      44.565  23.842  29.664  1.00  0.00     0.031 C 
ATOM     31  C   UNL A   1      44.521  27.309  34.669  1.00  0.00     0.029 A 
ATOM     32  C   UNL A   1      44.178  26.756  33.443  1.00  0.00     0.049 A 
ATOM     33  H   UNL A   1      42.621  27.315  32.135  1.00  0.00     0.167 HD
ATOM     34  C   UNL A   1      44.436  25.178  31.530  1.00  0.00     0.074 A 
ATOM     35  C   UNL A   1      45.081  24.063  30.865  1.00  0.00     0.031 C 
ATOM     36  C   UNL A   1      44.800  25.649  32.752  1.00  0.00     0.034 A 
BRANCH  23  37
ATOM     37  C   UNL A   1      41.378  30.434  34.796  1.00  0.00     0.023 A 
ATOM     38  C   UNL A   1      40.205  30.412  35.573  1.00  0.00     0.031 A 
ATOM     39  C   UNL A   1      42.237  31.537  34.934  1.00  0.00     0.131 A 
ATOM     40  C   UNL A   1      39.874  31.518  36.371  1.00  0.00     0.055 A 
ATOM     41  C   UNL A   1      41.947  32.593  35.799  1.00  0.00     0.041 A 
ATOM     42  F   UNL A   1      43.353  31.630  34.194  1.00  0.00    -0.206 F 
ATOM     43  C   UNL A   1      40.748  32.598  36.508  1.00  0.00     0.022 A 
BRANCH  40  44
ATOM     44  S   UNL A   1      38.198  31.615  37.066  1.00  0.00     0.124 S 
ATOM     45  O   UNL A   1      37.772  30.219  37.003  1.00  0.00    -0.237 OA
ATOM     46  O   UNL A   1      38.441  32.148  38.401  1.00  0.00    -0.237 OA
ATOM     47  O   UNL A   1      37.499  32.515  36.151  1.00  0.00    -0.744 OA
ENDBRANCH  40  44
ENDBRANCH  23  37
BRANCH  24  48
ATOM     48  C   UNL A   1      42.791  23.806  27.317  1.00  0.00     0.023 A 
ATOM     49  C   UNL A   1      42.155  22.553  27.332  1.00  0.00     0.031 A 
ATOM     50  C   UNL A   1      43.689  24.071  26.267  1.00  0.00     0.131 A 
ATOM     51  C   UNL A   1      42.456  21.600  26.342  1.00  0.00     0.055 A 
ATOM     52  C   UNL A   1      43.944  23.141  25.256  1.00  0.00     0.041 A 
ATOM     53  F   UNL A   1      44.335  25.246  26.209  1.00  0.00    -0.206 F 
ATOM     54  C   UNL A   1      43.335  21.891  25.297  1.00  0.00     0.022 A 
BRANCH  51  55
ATOM     55  S   UNL A   1      41.745  19.936  26.487  1.00  0.00     0.124 S 
ATOM     56  O   UNL A   1      40.320  20.227  26.590  1.00  0.00    -0.237 OA
ATOM     57  O   UNL A   1      42.185  19.310  25.244  1.00  0.00    -0.237 OA
ATOM     58  O   UNL A   1      42.364  19.405  27.700  1.00  0.00    -0.744 OA
ENDBRANCH  51  55
ENDBRANCH  24  48
BRANCH  36  59
ATOM     59  C   UNL A   1      45.907  24.914  33.464  1.00  0.00     0.023 A 
ATOM     60  C   UNL A   1      45.664  23.758  34.226  1.00  0.00     0.031 A 
ATOM     61  C   UNL A   1      47.228  25.389  33.386  1.00  0.00     0.131 A 
ATOM     62  C   UNL A   1      46.714  23.157  34.934  1.00  0.00     0.055 A 
ATOM     63  C   UNL A   1      48.281  24.743  34.032  1.00  0.00     0.041 A 
ATOM     64  F   UNL A   1      47.517  26.490  32.673  1.00  0.00    -0.206 F 
ATOM     65  C   UNL A   1      48.025  23.630  34.826  1.00  0.00     0.022 A 
BRANCH  62  66
ATOM     66  S   UNL A   1      46.323  21.819  36.094  1.00  0.00     0.124 S 
ATOM     67  O   UNL A   1      45.784  22.554  37.233  1.00  0.00    -0.237 OA
ATOM     68  O   UNL A   1      45.363  21.022  35.338  1.00  0.00    -0.237 OA
ATOM     69  O   UNL A   1      47.617  21.178  36.324  1.00  0.00    -0.744 OA
ENDBRANCH  62  66
ENDBRANCH  36  59
ENDBRANCH  10  11
ENDBRANCH   3   5
ENDBRANCH   2   3
ENDBRANCH   1   2
BRANCH   1  70
ATOM     70  C   UNL A   1      31.781  29.427  27.246  1.00  0.00     0.274 C 
BRANCH  70  71
ATOM     71  O   UNL A   1      31.583  28.565  26.116  1.00  0.00    -0.462 OA
BRANCH  71  72
ATOM     72  C   UNL A   1      31.561  27.231  26.394  1.00  0.00     0.309 C 
ATOM     73  O   UNL A   1      30.606  26.640  26.883  1.00  0.00    -0.252 OA
BRANCH  72  74
ATOM     74  C   UNL A   1      32.841  26.557  25.925  1.00  0.00     0.103 C 
ATOM     75  C   UNL A   1      33.470  27.327  24.761  1.00  0.00     0.037 C 
ATOM     76  C   UNL A   1      32.669  25.076  25.593  1.00  0.00     0.037 C 
ATOM     77  C   UNL A   1      32.698  27.094  23.465  1.00  0.00     0.120 C 
ATOM     78  C   UNL A   1      31.961  24.869  24.263  1.00  0.00     0.120 C 
ATOM     79  N   UNL A   1      32.586  25.663  23.204  1.00  0.00    -0.340 N 
ATOM     80  C   UNL A   1      33.048  25.164  21.994  1.00  0.00     0.260 C 
ATOM     81  O   UNL A   1      33.309  25.900  21.039  1.00  0.00    -0.271 OA
BRANCH  80  82
ATOM     82  C   UNL A   1      33.301  23.655  21.887  1.00  0.00     0.329 C 
BRANCH  82  83
ATOM     83  O   UNL A   1      34.330  23.159  22.741  1.00  0.00    -0.482 OA
BRANCH  83  84
ATOM     84  C   UNL A   1      33.944  22.090  23.509  1.00  0.00     0.138 A 
ATOM     85  C   UNL A   1      32.697  21.487  23.313  1.00  0.00     0.049 A 
ATOM     86  C   UNL A   1      34.852  21.509  24.401  1.00  0.00     0.084 A 
ATOM     87  C   UNL A   1      32.348  20.337  24.023  1.00  0.00     0.024 A 
ATOM     88  C   UNL A   1      34.512  20.350  25.104  1.00  0.00     0.045 A 
ATOM     89  Cl  UNL A   1      36.400  22.219  24.685  1.00  0.00    -0.080 Cl
ATOM     90  C   UNL A   1      33.259  19.772  24.910  1.00  0.00     0.042 A 
ATOM     91  Cl  UNL A   1      32.826  18.346  25.770  1.00  0.00    -0.084 Cl
ENDBRANCH  83  84
ENDBRANCH  82  83
ENDBRANCH  80  82
ENDBRANCH  72  74
ENDBRANCH  71  72
ENDBRANCH  70  71
ENDBRANCH   1  70
TORSDOF 17
ENDMDL
MODEL 2
REMARK VINA RESULT:     -12.2      2.264      3.061
REMARK SMILES O=C(OCCOC(=O)C1CCN(C(=O)COc2ccc(Cl)cc2Cl)CC1)c1ccc(-c2c3nc(c(-c4cc(S(=O)(=O)[O-])ccc4F)c4ccc([nH]4)c(-c4cc(S(=O)(=O)[O-])ccc4F)c4nc(c(-c5cc(S(=O)(=O)[O-])ccc5F)c5ccc2[nH]5)C=C4)C=C3)cc1
REMARK SMILES IDX 4 1 3 2 2 3 1 4 27 5 28 6 89 7 29 8 88 9 30 10 31 11 32 12
REMARK SMILES IDX 82 13 33 14 87 15 81 16 83 17 34 18 86 19 80 20 79 21 35 23
REMARK SMILES IDX 67 24 47 25 66 26 48 27 51 28 65 29 84 30 49 31 50 32 64 34
REMARK SMILES IDX 85 35 52 36 36 37 37 38 45 39 38 40 44 41 46 42 43 43 39 44
REMARK SMILES IDX 40 45 41 46 42 47 68 48 69 49 77 50 70 51 76 52 78 53 75 54
REMARK SMILES IDX 71 55 72 56 73 57 74 58 53 59 54 60 62 61 55 62 61 63 63 64
REMARK SMILES IDX 60 65 56 66 57 67 58 68 59 69 5 70 6 71 7 72 8 73 9 74 10 75
REMARK SMILES IDX 26 76 11 77 25 78 12 79 13 80 14 81 15 82 16 83 17 84 18 85
REMARK SMILES IDX 23 86 19 87 22 88 24 89 20 90 21 91
REMARK H PARENT 83 22 51 33
REMARK Flexibility Score: inf
ROOT
ATOM      1  C   UNL A   1      31.428  31.758  26.812  1.00  0.00     0.275 C 
ENDROOT
BRANCH   1   2
ATOM      2  O   UNL A   1      32.324  32.886  26.854  1.00  0.00    -0.458 OA
BRANCH   2   3
ATOM      3  C   UNL A   1      33.088  33.360  27.870  1.00  0.00     0.338 C 
ATOM      4  O   UNL A   1      32.806  34.463  28.338  1.00  0.00    -0.246 OA
BRANCH   3   5
ATOM      5  C   UNL A   1      34.358  32.711  28.342  1.00  0.00     0.060 A 
ATOM      6  C   UNL A   1      34.483  31.413  28.838  1.00  0.00     0.016 A 
ATOM      7  C   UNL A   1      35.540  33.475  28.208  1.00  0.00     0.016 A 
ATOM      8  C   UNL A   1      35.732  30.868  29.138  1.00  0.00     0.010 A 
ATOM      9  C   UNL A   1      36.799  32.935  28.506  1.00  0.00     0.010 A 
ATOM     10  C   UNL A   1      36.893  31.628  28.993  1.00  0.00    -0.014 A 
BRANCH  10  11
ATOM     11  C   UNL A   1      38.126  31.105  29.622  1.00  0.00     0.031 A 
ATOM     12  C   UNL A   1      38.366  31.477  31.056  1.00  0.00     0.074 A 
ATOM     13  C   UNL A   1      38.903  30.205  28.994  1.00  0.00     0.049 A 
ATOM     14  N   UNL A   1      39.258  31.025  31.894  1.00  0.00    -0.248 NA
ATOM     15  C   UNL A   1      37.452  32.482  31.626  1.00  0.00     0.031 C 
ATOM     16  C   UNL A   1      38.700  29.729  27.627  1.00  0.00     0.029 A 
ATOM     17  N   UNL A   1      39.996  29.502  29.429  1.00  0.00    -0.354 N 
ATOM     18  C   UNL A   1      39.002  31.678  33.095  1.00  0.00     0.074 A 
ATOM     19  C   UNL A   1      37.909  32.593  32.860  1.00  0.00     0.031 C 
ATOM     20  C   UNL A   1      39.625  28.797  27.340  1.00  0.00     0.029 A 
ATOM     21  C   UNL A   1      40.500  28.623  28.496  1.00  0.00     0.049 A 
ATOM     22  H   UNL A   1      40.385  29.614  30.327  1.00  0.00     0.167 HD
ATOM     23  C   UNL A   1      39.618  31.516  34.290  1.00  0.00     0.034 A 
ATOM     24  C   UNL A   1      41.546  27.776  28.577  1.00  0.00     0.034 A 
ATOM     25  C   UNL A   1      40.737  30.632  34.479  1.00  0.00     0.049 A 
ATOM     26  C   UNL A   1      42.294  27.700  29.887  1.00  0.00     0.074 A 
ATOM     27  C   UNL A   1      41.490  30.418  35.619  1.00  0.00     0.029 A 
ATOM     28  N   UNL A   1      41.284  29.826  33.484  1.00  0.00    -0.354 N 
ATOM     29  N   UNL A   1      42.046  28.324  31.018  1.00  0.00    -0.248 NA
ATOM     30  C   UNL A   1      43.449  26.797  29.938  1.00  0.00     0.031 C 
ATOM     31  C   UNL A   1      42.533  29.545  35.293  1.00  0.00     0.029 A 
ATOM     32  C   UNL A   1      42.381  29.140  33.974  1.00  0.00     0.049 A 
ATOM     33  H   UNL A   1      40.939  29.756  32.564  1.00  0.00     0.167 HD
ATOM     34  C   UNL A   1      42.992  27.857  31.926  1.00  0.00     0.074 A 
ATOM     35  C   UNL A   1      43.805  26.891  31.211  1.00  0.00     0.031 C 
ATOM     36  C   UNL A   1      43.172  28.184  33.233  1.00  0.00     0.034 A 
BRANCH  23  37
ATOM     37  C   UNL A   1      39.133  32.390  35.420  1.00  0.00     0.023 A 
ATOM     38  C   UNL A   1      39.575  33.717  35.571  1.00  0.00     0.031 A 
ATOM     39  C   UNL A   1      38.317  31.849  36.428  1.00  0.00     0.131 A 
ATOM     40  C   UNL A   1      39.287  34.420  36.750  1.00  0.00     0.055 A 
ATOM     41  C   UNL A   1      37.957  32.586  37.556  1.00  0.00     0.041 A 
ATOM     42  F   UNL A   1      37.894  30.578  36.355  1.00  0.00    -0.206 F 
ATOM     43  C   UNL A   1      38.460  33.873  37.734  1.00  0.00     0.022 A 
BRANCH  40  44
ATOM     44  S   UNL A   1      40.168  35.976  37.070  1.00  0.00     0.124 S 
ATOM     45  O   UNL A   1      39.790  36.773  35.906  1.00  0.00    -0.237 OA
ATOM     46  O   UNL A   1      39.603  36.402  38.345  1.00  0.00    -0.237 OA
ATOM     47  O   UNL A   1      41.572  35.572  37.113  1.00  0.00    -0.744 OA
ENDBRANCH  40  44
ENDBRANCH  23  37
BRANCH  24  48
ATOM     48  C   UNL A   1      41.963  26.950  27.403  1.00  0.00     0.023 A 
ATOM     49  C   UNL A   1      41.719  25.567  27.348  1.00  0.00     0.031 A 
ATOM     50  C   UNL A   1      42.676  27.531  26.338  1.00  0.00     0.131 A 
ATOM     51  C   UNL A   1      42.219  24.807  26.275  1.00  0.00     0.055 A 
ATOM     52  C   UNL A   1      43.124  26.781  25.247  1.00  0.00     0.041 A 
ATOM     53  F   UNL A   1      42.949  28.845  26.343  1.00  0.00    -0.206 F 
ATOM     54  C   UNL A   1      42.907  25.407  25.219  1.00  0.00     0.022 A 
BRANCH  51  55
ATOM     55  S   UNL A   1      42.031  23.002  26.321  1.00  0.00     0.124 S 
ATOM     56  O   UNL A   1      42.844  22.646  27.477  1.00  0.00    -0.237 OA
ATOM     57  O   UNL A   1      40.588  22.853  26.480  1.00  0.00    -0.237 OA
ATOM     58  O   UNL A   1      42.559  22.571  25.028  1.00  0.00    -0.744 OA
ENDBRANCH  51  55
ENDBRANCH  24  48
BRANCH  36  59
ATOM     59  C   UNL A   1      44.252  27.441  33.979  1.00  0.00     0.023 A 
ATOM     60  C   UNL A   1      44.000  26.225  34.637  1.00  0.00     0.031 A 
ATOM     61  C   UNL A   1      45.553  27.970  34.040  1.00  0.00     0.131 A 
ATOM     62  C   UNL A   1      45.018  25.615  35.384  1.00  0.00     0.055 A 
ATOM     63  C   UNL A   1      46.580  27.320  34.723  1.00  0.00     0.041 A 
ATOM     64  F   UNL A   1      45.849  29.130  33.431  1.00  0.00    -0.206 F 
ATOM     65  C   UNL A   1      46.311  26.143  35.414  1.00  0.00     0.022 A 
BRANCH  62  66
ATOM     66  S   UNL A   1      44.597  24.182  36.412  1.00  0.00     0.124 S 
ATOM     67  O   UNL A   1      44.031  24.817  37.598  1.00  0.00    -0.237 OA
ATOM     68  O   UNL A   1      43.655  23.457  35.567  1.00  0.00    -0.237 OA
ATOM     69  O   UNL A   1      45.884  23.519  36.618  1.00  0.00    -0.744 OA
ENDBRANCH  62  66
ENDBRANCH  36  59
ENDBRANCH  10  11
ENDBRANCH   3   5
ENDBRANCH   2   3
ENDBRANCH   1   2
BRANCH   1  70
ATOM     70  C   UNL A   1      32.140  30.401  26.839  1.00  0.00     0.274 C 
BRANCH  70  71
ATOM     71  O   UNL A   1      31.416  29.391  26.121  1.00  0.00    -0.462 OA
BRANCH  71  72
ATOM     72  C   UNL A   1      31.583  29.400  24.769  1.00  0.00     0.309 C 
ATOM     73  O   UNL A   1      30.728  29.754  23.967  1.00  0.00    -0.252 OA
BRANCH  72  74
ATOM     74  C   UNL A   1      33.004  29.007  24.396  1.00  0.00     0.103 C 
ATOM     75  C   UNL A   1      33.105  28.671  22.906  1.00  0.00     0.037 C 
ATOM     76  C   UNL A   1      33.582  27.892  25.266  1.00  0.00     0.037 C 
ATOM     77  C   UNL A   1      32.492  27.305  22.606  1.00  0.00     0.120 C 
ATOM     78  C   UNL A   1      33.010  26.531  24.901  1.00  0.00     0.120 C 
ATOM     79  N   UNL A   1      33.100  26.290  23.460  1.00  0.00    -0.340 N 
ATOM     80  C   UNL A   1      33.691  25.182  22.867  1.00  0.00     0.260 C 
ATOM     81  O   UNL A   1      33.501  24.894  21.683  1.00  0.00    -0.271 OA
BRANCH  80  82
ATOM     82  C   UNL A   1      34.661  24.346  23.711  1.00  0.00     0.329 C 
BRANCH  82  83
ATOM     83  O   UNL A   1      34.984  23.069  23.163  1.00  0.00    -0.482 OA
BRANCH  83  84
ATOM     84  C   UNL A   1      34.423  22.018  23.841  1.00  0.00     0.138 A 
ATOM     85  C   UNL A   1      33.066  21.717  23.689  1.00  0.00     0.049 A 
ATOM     86  C   UNL A   1      35.237  21.155  24.584  1.00  0.00     0.084 A 
ATOM     87  C   UNL A   1      32.520  20.586  24.298  1.00  0.00     0.024 A 
ATOM     88  C   UNL A   1      34.697  20.014  25.185  1.00  0.00     0.045 A 
ATOM     89  Cl  UNL A   1      36.916  21.487  24.809  1.00  0.00    -0.080 Cl
ATOM     90  C   UNL A   1      33.339  19.737  25.038  1.00  0.00     0.042 A 
ATOM     91  Cl  UNL A   1      32.661  18.338  25.773  1.00  0.00    -0.084 Cl
ENDBRANCH  83  84
ENDBRANCH  82  83
ENDBRANCH  80  82
ENDBRANCH  72  74
ENDBRANCH  71  72
ENDBRANCH  70  71
ENDBRANCH   1  70
TORSDOF 17
ENDMDL
MODEL 3
REMARK VINA RESULT:     -12.1      5.273     10.531
REMARK SMILES O=C(OCCOC(=O)C1CCN(C(=O)COc2ccc(Cl)cc2Cl)CC1)c1ccc(-c2c3nc(c(-c4cc(S(=O)(=O)[O-])ccc4F)c4ccc([nH]4)c(-c4cc(S(=O)(=O)[O-])ccc4F)c4nc(c(-c5cc(S(=O)(=O)[O-])ccc5F)c5ccc2[nH]5)C=C4)C=C3)cc1
REMARK SMILES IDX 4 1 3 2 2 3 1 4 27 5 28 6 89 7 29 8 88 9 30 10 31 11 32 12
REMARK SMILES IDX 82 13 33 14 87 15 81 16 83 17 34 18 86 19 80 20 79 21 35 23
REMARK SMILES IDX 67 24 47 25 66 26 48 27 51 28 65 29 84 30 49 31 50 32 64 34
REMARK SMILES IDX 85 35 52 36 36 37 37 38 45 39 38 40 44 41 46 42 43 43 39 44
REMARK SMILES IDX 40 45 41 46 42 47 68 48 69 49 77 50 70 51 76 52 78 53 75 54
REMARK SMILES IDX 71 55 72 56 73 57 74 58 53 59 54 60 62 61 55 62 61 63 63 64
REMARK SMILES IDX 60 65 56 66 57 67 58 68 59 69 5 70 6 71 7 72 8 73 9 74 10 75
REMARK SMILES IDX 26 76 11 77 25 78 12 79 13 80 14 81 15 82 16 83 17 84 18 85
REMARK SMILES IDX 23 86 19 87 22 88 24 89 20 90 21 91
REMARK H PARENT 83 22 51 33
REMARK Flexibility Score: inf
ROOT
ATOM      1  C   UNL A   1      37.761  20.961  25.320  1.00  0.00     0.275 C 
ENDROOT
BRANCH   1   2
ATOM      2  O   UNL A   1      38.605  22.117  25.479  1.00  0.00    -0.458 OA
BRANCH   2   3
ATOM      3  C   UNL A   1      39.443  22.458  26.490  1.00  0.00     0.338 C 
ATOM      4  O   UNL A   1      39.904  21.555  27.187  1.00  0.00    -0.246 OA
BRANCH   3   5
ATOM      5  C   UNL A   1      39.707  23.872  26.923  1.00  0.00     0.060 A 
ATOM      6  C   UNL A   1      39.999  24.949  26.084  1.00  0.00     0.016 A 
ATOM      7  C   UNL A   1      39.585  24.138  28.306  1.00  0.00     0.016 A 
ATOM      8  C   UNL A   1      40.111  26.247  26.582  1.00  0.00     0.010 A 
ATOM      9  C   UNL A   1      39.695  25.440  28.815  1.00  0.00     0.010 A 
ATOM     10  C   UNL A   1      39.979  26.499  27.948  1.00  0.00    -0.014 A 
BRANCH  10  11
ATOM     11  C   UNL A   1      40.420  27.823  28.436  1.00  0.00     0.031 A 
ATOM     12  C   UNL A   1      41.860  28.183  28.217  1.00  0.00     0.074 A 
ATOM     13  C   UNL A   1      39.537  28.727  28.899  1.00  0.00     0.049 A 
ATOM     14  N   UNL A   1      42.467  29.326  28.383  1.00  0.00    -0.248 NA
ATOM     15  C   UNL A   1      42.728  27.102  27.718  1.00  0.00     0.031 C 
ATOM     16  C   UNL A   1      38.105  28.489  29.073  1.00  0.00     0.029 A 
ATOM     17  N   UNL A   1      39.702  30.036  29.272  1.00  0.00    -0.354 N 
ATOM     18  C   UNL A   1      43.783  29.107  27.992  1.00  0.00     0.074 A 
ATOM     19  C   UNL A   1      43.896  27.712  27.634  1.00  0.00     0.031 C 
ATOM     20  C   UNL A   1      37.517  29.619  29.500  1.00  0.00     0.029 A 
ATOM     21  C   UNL A   1      38.532  30.658  29.650  1.00  0.00     0.049 A 
ATOM     22  H   UNL A   1      40.575  30.490  29.270  1.00  0.00     0.167 HD
ATOM     23  C   UNL A   1      44.802  29.996  27.926  1.00  0.00     0.034 A 
ATOM     24  C   UNL A   1      38.316  31.923  30.063  1.00  0.00     0.034 A 
ATOM     25  C   UNL A   1      44.669  31.369  28.338  1.00  0.00     0.049 A 
ATOM     26  C   UNL A   1      39.495  32.867  30.096  1.00  0.00     0.074 A 
ATOM     27  C   UNL A   1      45.633  32.358  28.379  1.00  0.00     0.029 A 
ATOM     28  N   UNL A   1      43.490  31.942  28.808  1.00  0.00    -0.354 N 
ATOM     29  N   UNL A   1      40.738  32.650  29.725  1.00  0.00    -0.248 NA
ATOM     30  C   UNL A   1      39.240  34.226  30.583  1.00  0.00     0.031 C 
ATOM     31  C   UNL A   1      45.059  33.502  28.943  1.00  0.00     0.029 A 
ATOM     32  C   UNL A   1      43.711  33.259  29.169  1.00  0.00     0.049 A 
ATOM     33  H   UNL A   1      42.625  31.476  28.873  1.00  0.00     0.167 HD
ATOM     34  C   UNL A   1      41.404  33.860  29.899  1.00  0.00     0.074 A 
ATOM     35  C   UNL A   1      40.419  34.802  30.394  1.00  0.00     0.031 C 
ATOM     36  C   UNL A   1      42.706  34.172  29.664  1.00  0.00     0.034 A 
BRANCH  23  37
ATOM     37  C   UNL A   1      46.138  29.457  27.482  1.00  0.00     0.023 A 
ATOM     38  C   UNL A   1      46.370  29.057  26.152  1.00  0.00     0.031 A 
ATOM     39  C   UNL A   1      47.152  29.222  28.426  1.00  0.00     0.131 A 
ATOM     40  C   UNL A   1      47.539  28.351  25.829  1.00  0.00     0.055 A 
ATOM     41  C   UNL A   1      48.352  28.602  28.077  1.00  0.00     0.041 A 
ATOM     42  F   UNL A   1      46.974  29.550  29.714  1.00  0.00    -0.206 F 
ATOM     43  C   UNL A   1      48.543  28.142  26.776  1.00  0.00     0.022 A 
BRANCH  40  44
ATOM     44  S   UNL A   1      47.640  27.538  24.208  1.00  0.00     0.124 S 
ATOM     45  O   UNL A   1      46.858  26.325  24.437  1.00  0.00    -0.237 OA
ATOM     46  O   UNL A   1      47.037  28.526  23.321  1.00  0.00    -0.237 OA
ATOM     47  O   UNL A   1      49.073  27.322  24.020  1.00  0.00    -0.744 OA
ENDBRANCH  40  44
ENDBRANCH  23  37
BRANCH  24  48
ATOM     48  C   UNL A   1      36.957  32.373  30.494  1.00  0.00     0.023 A 
ATOM     49  C   UNL A   1      36.113  33.100  29.636  1.00  0.00     0.031 A 
ATOM     50  C   UNL A   1      36.507  32.133  31.805  1.00  0.00     0.131 A 
ATOM     51  C   UNL A   1      34.886  33.595  30.112  1.00  0.00     0.055 A 
ATOM     52  C   UNL A   1      35.262  32.581  32.256  1.00  0.00     0.041 A 
ATOM     53  F   UNL A   1      37.276  31.455  32.671  1.00  0.00    -0.206 F 
ATOM     54  C   UNL A   1      34.449  33.328  31.411  1.00  0.00     0.022 A 
BRANCH  51  55
ATOM     55  S   UNL A   1      33.901  34.671  29.031  1.00  0.00     0.124 S 
ATOM     56  O   UNL A   1      33.724  35.853  29.866  1.00  0.00    -0.237 OA
ATOM     57  O   UNL A   1      34.780  34.825  27.876  1.00  0.00    -0.237 OA
ATOM     58  O   UNL A   1      32.688  33.891  28.787  1.00  0.00    -0.744 OA
ENDBRANCH  51  55
ENDBRANCH  24  48
BRANCH  36  59
ATOM     59  C   UNL A   1      43.112  35.608  29.883  1.00  0.00     0.023 A 
ATOM     60  C   UNL A   1      43.005  36.576  28.870  1.00  0.00     0.031 A 
ATOM     61  C   UNL A   1      43.627  36.008  31.129  1.00  0.00     0.131 A 
ATOM     62  C   UNL A   1      43.471  37.878  29.099  1.00  0.00     0.055 A 
ATOM     63  C   UNL A   1      44.020  37.323  31.374  1.00  0.00     0.041 A 
ATOM     64  F   UNL A   1      43.752  35.124  32.132  1.00  0.00    -0.206 F 
ATOM     65  C   UNL A   1      43.959  38.264  30.350  1.00  0.00     0.022 A 
BRANCH  62  66
ATOM     66  S   UNL A   1      43.541  39.032  27.701  1.00  0.00     0.124 S 
ATOM     67  O   UNL A   1      43.186  40.296  28.336  1.00  0.00    -0.237 OA
ATOM     68  O   UNL A   1      44.927  38.906  27.263  1.00  0.00    -0.237 OA
ATOM     69  O   UNL A   1      42.545  38.502  26.771  1.00  0.00    -0.744 OA
ENDBRANCH  62  66
ENDBRANCH  36  59
ENDBRANCH  10  11
ENDBRANCH   3   5
ENDBRANCH   2   3
ENDBRANCH   1   2
BRANCH   1  70
ATOM     70  C   UNL A   1      36.270  21.295  25.193  1.00  0.00     0.274 C 
BRANCH  70  71
ATOM     71  O   UNL A   1      35.928  22.521  25.857  1.00  0.00    -0.462 OA
BRANCH  71  72
ATOM     72  C   UNL A   1      34.737  22.517  26.517  1.00  0.00     0.309 C 
ATOM     73  O   UNL A   1      34.325  21.587  27.200  1.00  0.00    -0.252 OA
BRANCH  72  74
ATOM     74  C   UNL A   1      34.032  23.857  26.373  1.00  0.00     0.103 C 
ATOM     75  C   UNL A   1      32.513  23.687  26.442  1.00  0.00     0.037 C 
ATOM     76  C   UNL A   1      34.455  24.644  25.134  1.00  0.00     0.037 C 
ATOM     77  C   UNL A   1      31.965  23.095  25.147  1.00  0.00     0.120 C 
ATOM     78  C   UNL A   1      33.840  24.079  23.864  1.00  0.00     0.120 C 
ATOM     79  N   UNL A   1      32.394  23.904  24.011  1.00  0.00    -0.340 N 
ATOM     80  C   UNL A   1      31.432  24.422  23.155  1.00  0.00     0.260 C 
ATOM     81  O   UNL A   1      30.265  24.023  23.163  1.00  0.00    -0.271 OA
BRANCH  80  82
ATOM     82  C   UNL A   1      31.838  25.575  22.229  1.00  0.00     0.329 C 
BRANCH  82  83
ATOM     83  O   UNL A   1      31.336  26.855  22.610  1.00  0.00    -0.482 OA
BRANCH  83  84
ATOM     84  C   UNL A   1      31.941  27.379  23.723  1.00  0.00     0.138 A 
ATOM     85  C   UNL A   1      31.372  27.209  24.989  1.00  0.00     0.049 A 
ATOM     86  C   UNL A   1      33.205  27.970  23.614  1.00  0.00     0.084 A 
ATOM     87  C   UNL A   1      32.041  27.653  26.130  1.00  0.00     0.024 A 
ATOM     88  C   UNL A   1      33.885  28.404  24.756  1.00  0.00     0.045 A 
ATOM     89  Cl  UNL A   1      33.947  28.210  22.074  1.00  0.00    -0.080 Cl
ATOM     90  C   UNL A   1      33.296  28.243  26.009  1.00  0.00     0.042 A 
ATOM     91  Cl  UNL A   1      34.120  28.774  27.422  1.00  0.00    -0.084 Cl
ENDBRANCH  83  84
ENDBRANCH  82  83
ENDBRANCH  80  82
ENDBRANCH  72  74
ENDBRANCH  71  72
ENDBRANCH  70  71
ENDBRANCH   1  70
TORSDOF 17
ENDMDL
