MODEL 1
REMARK VINA RESULT:     -12.6      0.000      0.000
REMARK SMILES C[C@@H]1Cc2ccccc2N1S(=O)(=O)c1cccc(C(=O)OCCOC(=O)c2ccc(-c3c4nc(c(-c5cc(S(=O)(=O)[O-])ccc5F)c5ccc([nH]5)c(-c5cc(S(=O)(=O)[O-])ccc5F)c5nc(c(-c6cc(S(=O)(=O)[O-])ccc6F)c6ccc3[nH]6)C=C5)C=C4)cc2)c1
REMARK SMILES IDX 23 1 22 2 21 3 19 4 20 5 18 6 14 7 15 8 90 9 16 10 17 11
REMARK SMILES IDX 11 12 12 13 13 14 10 15 1 16 2 17 3 18 4 19 9 20 5 21 8 22
REMARK SMILES IDX 6 23 7 24 24 25 25 26 26 27 27 28 28 29 89 30 29 31 88 32
REMARK SMILES IDX 30 33 31 34 32 35 82 36 33 37 87 38 81 39 83 40 34 41 86 42
REMARK SMILES IDX 80 43 79 44 35 46 67 47 47 48 66 49 48 50 51 51 65 52 84 53
REMARK SMILES IDX 49 54 50 55 64 57 85 58 52 59 36 60 37 61 45 62 38 63 44 64
REMARK SMILES IDX 46 65 43 66 39 67 40 68 41 69 42 70 68 71 69 72 77 73 70 74
REMARK SMILES IDX 76 75 78 76 75 77 71 78 72 79 73 80 74 81 53 82 54 83 62 84
REMARK SMILES IDX 55 85 61 86 63 87 60 88 56 89 57 90 58 91 59 92
REMARK H PARENT 83 45 51 56
REMARK Flexibility Score: inf
ROOT
ATOM      1  C   UNL A   1      31.874  31.179  26.477  1.00  0.00     0.275 C 
ENDROOT
BRANCH   1   2
ATOM      2  C   UNL A   1      31.483  29.969  25.622  1.00  0.00     0.275 C 
BRANCH   2   3
ATOM      3  O   UNL A   1      32.199  28.783  26.019  1.00  0.00    -0.458 OA
BRANCH   3   4
ATOM      4  C   UNL A   1      31.495  27.892  26.765  1.00  0.00     0.338 C 
ATOM      5  O   UNL A   1      31.048  28.084  27.877  1.00  0.00    -0.246 OA
BRANCH   4   6
ATOM      6  C   UNL A   1      31.236  26.641  25.999  1.00  0.00     0.061 A 
ATOM      7  C   UNL A   1      31.414  24.269  25.605  1.00  0.00     0.088 A 
ATOM      8  C   UNL A   1      30.769  24.415  24.367  1.00  0.00     0.022 A 
ATOM      9  C   UNL A   1      31.645  25.375  26.434  1.00  0.00     0.038 A 
ATOM     10  C   UNL A   1      30.349  25.671  23.947  1.00  0.00     0.002 A 
ATOM     11  C   UNL A   1      30.560  26.772  24.772  1.00  0.00     0.016 A 
BRANCH   7  12
ATOM     12  S   UNL A   1      31.793  22.625  26.147  1.00  0.00     0.264 S 
ATOM     13  O   UNL A   1      30.627  21.817  25.837  1.00  0.00    -0.201 OA
ATOM     14  O   UNL A   1      32.234  22.719  27.527  1.00  0.00    -0.201 OA
BRANCH  12  15
ATOM     15  N   UNL A   1      33.114  22.026  25.242  1.00  0.00    -0.263 N 
ATOM     16  C   UNL A   1      34.908  23.769  25.387  1.00  0.00     0.032 C 
ATOM     17  C   UNL A   1      34.449  22.406  25.875  1.00  0.00     0.101 C 
ATOM     18  C   UNL A   1      35.440  21.280  25.526  1.00  0.00     0.063 C 
ATOM     19  C   UNL A   1      34.541  20.192  25.043  1.00  0.00    -0.021 A 
ATOM     20  C   UNL A   1      33.232  20.642  24.875  1.00  0.00     0.055 A 
ATOM     21  C   UNL A   1      34.927  18.909  24.675  1.00  0.00     0.006 A 
ATOM     22  C   UNL A   1      32.323  19.847  24.197  1.00  0.00     0.027 A 
ATOM     23  C   UNL A   1      33.982  18.075  24.081  1.00  0.00     0.000 A 
ATOM     24  C   UNL A   1      32.691  18.549  23.828  1.00  0.00     0.002 A 
ENDBRANCH  12  15
ENDBRANCH   7  12
ENDBRANCH   4   6
ENDBRANCH   3   4
ENDBRANCH   2   3
ENDBRANCH   1   2
BRANCH   1  25
ATOM     25  O   UNL A   1      33.039  30.910  27.279  1.00  0.00    -0.458 OA
BRANCH  25  26
ATOM     26  C   UNL A   1      33.782  31.993  27.606  1.00  0.00     0.338 C 
ATOM     27  O   UNL A   1      33.423  33.160  27.614  1.00  0.00    -0.246 OA
BRANCH  26  28
ATOM     28  C   UNL A   1      35.084  31.548  28.127  1.00  0.00     0.060 A 
ATOM     29  C   UNL A   1      36.181  32.402  28.230  1.00  0.00     0.016 A 
ATOM     30  C   UNL A   1      35.172  30.235  28.584  1.00  0.00     0.016 A 
ATOM     31  C   UNL A   1      37.377  31.915  28.778  1.00  0.00     0.010 A 
ATOM     32  C   UNL A   1      36.351  29.755  29.147  1.00  0.00     0.010 A 
ATOM     33  C   UNL A   1      37.473  30.586  29.242  1.00  0.00    -0.014 A 
BRANCH  33  34
ATOM     34  C   UNL A   1      38.720  30.068  29.873  1.00  0.00     0.031 A 
ATOM     35  C   UNL A   1      39.147  30.535  31.240  1.00  0.00     0.074 A 
ATOM     36  C   UNL A   1      39.502  29.214  29.180  1.00  0.00     0.049 A 
ATOM     37  N   UNL A   1      40.190  30.174  31.944  1.00  0.00    -0.248 NA
ATOM     38  C   UNL A   1      38.311  31.555  31.896  1.00  0.00     0.031 C 
ATOM     39  C   UNL A   1      39.235  28.756  27.817  1.00  0.00     0.029 A 
ATOM     40  N   UNL A   1      40.669  28.577  29.522  1.00  0.00    -0.354 N 
ATOM     41  C   UNL A   1      40.136  30.916  33.120  1.00  0.00     0.074 A 
ATOM     42  C   UNL A   1      38.994  31.796  33.008  1.00  0.00     0.031 C 
ATOM     43  C   UNL A   1      40.177  27.871  27.459  1.00  0.00     0.029 A 
ATOM     44  C   UNL A   1      41.138  27.721  28.550  1.00  0.00     0.049 A 
ATOM     45  H   UNL A   1      41.128  28.718  30.382  1.00  0.00     0.167 HD
ATOM     46  C   UNL A   1      40.945  30.843  34.205  1.00  0.00     0.034 A 
ATOM     47  C   UNL A   1      42.206  26.896  28.543  1.00  0.00     0.034 A 
ATOM     48  C   UNL A   1      42.059  29.936  34.314  1.00  0.00     0.049 A 
ATOM     49  C   UNL A   1      43.075  26.817  29.776  1.00  0.00     0.074 A 
ATOM     50  C   UNL A   1      42.897  29.740  35.399  1.00  0.00     0.029 A 
ATOM     51  N   UNL A   1      42.485  29.066  33.322  1.00  0.00    -0.354 N 
ATOM     52  N   UNL A   1      42.942  27.445  30.920  1.00  0.00    -0.248 NA
ATOM     53  C   UNL A   1      44.230  25.909  29.725  1.00  0.00     0.031 C 
ATOM     54  C   UNL A   1      43.858  28.796  35.046  1.00  0.00     0.029 A 
ATOM     55  C   UNL A   1      43.581  28.345  33.765  1.00  0.00     0.049 A 
ATOM     56  H   UNL A   1      42.069  28.975  32.434  1.00  0.00     0.167 HD
ATOM     57  C   UNL A   1      43.971  26.980  31.736  1.00  0.00     0.074 A 
ATOM     58  C   UNL A   1      44.703  26.001  30.961  1.00  0.00     0.031 C 
ATOM     59  C   UNL A   1      44.284  27.340  33.004  1.00  0.00     0.034 A 
BRANCH  46  60
ATOM     60  C   UNL A   1      40.643  31.708  35.406  1.00  0.00     0.023 A 
ATOM     61  C   UNL A   1      39.551  31.406  36.243  1.00  0.00     0.031 A 
ATOM     62  C   UNL A   1      41.319  32.924  35.609  1.00  0.00     0.131 A 
ATOM     63  C   UNL A   1      39.138  32.332  37.210  1.00  0.00     0.055 A 
ATOM     64  C   UNL A   1      40.932  33.822  36.605  1.00  0.00     0.041 A 
ATOM     65  F   UNL A   1      42.360  33.264  34.832  1.00  0.00    -0.206 F 
ATOM     66  C   UNL A   1      39.827  33.535  37.400  1.00  0.00     0.022 A 
BRANCH  63  67
ATOM     67  S   UNL A   1      37.648  32.051  38.206  1.00  0.00     0.124 S 
ATOM     68  O   UNL A   1      37.314  30.669  37.869  1.00  0.00    -0.237 OA
ATOM     69  O   UNL A   1      38.144  32.260  39.562  1.00  0.00    -0.237 OA
ATOM     70  O   UNL A   1      36.706  33.051  37.715  1.00  0.00    -0.744 OA
ENDBRANCH  63  67
ENDBRANCH  46  60
BRANCH  47  71
ATOM     71  C   UNL A   1      42.444  26.007  27.367  1.00  0.00     0.023 A 
ATOM     72  C   UNL A   1      41.961  24.687  27.332  1.00  0.00     0.031 A 
ATOM     73  C   UNL A   1      43.233  26.447  26.289  1.00  0.00     0.131 A 
ATOM     74  C   UNL A   1      42.314  23.841  26.270  1.00  0.00     0.055 A 
ATOM     75  C   UNL A   1      43.524  25.625  25.199  1.00  0.00     0.041 A 
ATOM     76  F   UNL A   1      43.735  27.692  26.282  1.00  0.00    -0.206 F 
ATOM     77  C   UNL A   1      43.077  24.308  25.195  1.00  0.00     0.022 A 
BRANCH  74  78
ATOM     78  S   UNL A   1      41.912  22.072  26.315  1.00  0.00     0.124 S 
ATOM     79  O   UNL A   1      42.758  21.541  25.252  1.00  0.00    -0.237 OA
ATOM     80  O   UNL A   1      42.303  21.709  27.675  1.00  0.00    -0.237 OA
ATOM     81  O   UNL A   1      40.475  22.040  26.058  1.00  0.00    -0.744 OA
ENDBRANCH  74  78
ENDBRANCH  47  71
BRANCH  59  82
ATOM     82  C   UNL A   1      45.455  26.673  33.686  1.00  0.00     0.023 A 
ATOM     83  C   UNL A   1      45.259  25.475  34.403  1.00  0.00     0.031 A 
ATOM     84  C   UNL A   1      46.708  27.301  33.773  1.00  0.00     0.131 A 
ATOM     85  C   UNL A   1      46.286  24.971  35.212  1.00  0.00     0.055 A 
ATOM     86  C   UNL A   1      47.744  26.767  34.538  1.00  0.00     0.041 A 
ATOM     87  F   UNL A   1      46.940  28.452  33.119  1.00  0.00    -0.206 F 
ATOM     88  C   UNL A   1      47.531  25.606  35.276  1.00  0.00     0.022 A 
BRANCH  85  89
ATOM     89  S   UNL A   1      46.014  23.534  36.285  1.00  0.00     0.124 S 
ATOM     90  O   UNL A   1      47.039  22.606  35.813  1.00  0.00    -0.237 OA
ATOM     91  O   UNL A   1      46.245  24.094  37.614  1.00  0.00    -0.237 OA
ATOM     92  O   UNL A   1      44.639  23.137  36.002  1.00  0.00    -0.744 OA
ENDBRANCH  85  89
ENDBRANCH  59  82
ENDBRANCH  33  34
ENDBRANCH  26  28
ENDBRANCH  25  26
ENDBRANCH   1  25
TORSDOF 16
ENDMDL
MODEL 2
REMARK VINA RESULT:     -12.6      4.812     10.049
REMARK SMILES C[C@@H]1Cc2ccccc2N1S(=O)(=O)c1cccc(C(=O)OCCOC(=O)c2ccc(-c3c4nc(c(-c5cc(S(=O)(=O)[O-])ccc5F)c5ccc([nH]5)c(-c5cc(S(=O)(=O)[O-])ccc5F)c5nc(c(-c6cc(S(=O)(=O)[O-])ccc6F)c6ccc3[nH]6)C=C5)C=C4)cc2)c1
REMARK SMILES IDX 23 1 22 2 21 3 19 4 20 5 18 6 14 7 15 8 90 9 16 10 17 11
REMARK SMILES IDX 11 12 12 13 13 14 10 15 1 16 2 17 3 18 4 19 9 20 5 21 8 22
REMARK SMILES IDX 6 23 7 24 24 25 25 26 26 27 27 28 28 29 89 30 29 31 88 32
REMARK SMILES IDX 30 33 31 34 32 35 82 36 33 37 87 38 81 39 83 40 34 41 86 42
REMARK SMILES IDX 80 43 79 44 35 46 67 47 47 48 66 49 48 50 51 51 65 52 84 53
REMARK SMILES IDX 49 54 50 55 64 57 85 58 52 59 36 60 37 61 45 62 38 63 44 64
REMARK SMILES IDX 46 65 43 66 39 67 40 68 41 69 42 70 68 71 69 72 77 73 70 74
REMARK SMILES IDX 76 75 78 76 75 77 71 78 72 79 73 80 74 81 53 82 54 83 62 84
REMARK SMILES IDX 55 85 61 86 63 87 60 88 56 89 57 90 58 91 59 92
REMARK H PARENT 83 45 51 56
REMARK Flexibility Score: inf
ROOT
ATOM      1  C   UNL A   1      36.530  20.128  24.952  1.00  0.00     0.275 C 
ENDROOT
BRANCH   1   2
ATOM      2  C   UNL A   1      35.040  20.440  25.129  1.00  0.00     0.275 C 
BRANCH   2   3
ATOM      3  O   UNL A   1      34.209  19.402  24.572  1.00  0.00    -0.458 OA
BRANCH   3   4
ATOM      4  C   UNL A   1      32.876  19.529  24.799  1.00  0.00     0.338 C 
ATOM      5  O   UNL A   1      32.145  18.682  25.269  1.00  0.00    -0.246 OA
BRANCH   4   6
ATOM      6  C   UNL A   1      32.412  20.910  24.488  1.00  0.00     0.061 A 
ATOM      7  C   UNL A   1      31.596  23.102  25.074  1.00  0.00     0.088 A 
ATOM      8  C   UNL A   1      31.437  23.419  23.716  1.00  0.00     0.022 A 
ATOM      9  C   UNL A   1      32.091  21.853  25.472  1.00  0.00     0.038 A 
ATOM     10  C   UNL A   1      31.774  22.487  22.743  1.00  0.00     0.002 A 
ATOM     11  C   UNL A   1      32.282  21.250  23.128  1.00  0.00     0.016 A 
BRANCH   7  12
ATOM     12  S   UNL A   1      31.289  24.383  26.259  1.00  0.00     0.264 S 
ATOM     13  O   UNL A   1      31.275  23.738  27.560  1.00  0.00    -0.201 OA
ATOM     14  O   UNL A   1      30.105  25.100  25.819  1.00  0.00    -0.201 OA
BRANCH  12  15
ATOM     15  N   UNL A   1      32.585  25.498  26.229  1.00  0.00    -0.263 N 
ATOM     16  C   UNL A   1      34.580  24.229  25.400  1.00  0.00     0.032 C 
ATOM     17  C   UNL A   1      33.513  25.250  25.044  1.00  0.00     0.101 C 
ATOM     18  C   UNL A   1      34.101  26.619  24.651  1.00  0.00     0.063 C 
ATOM     19  C   UNL A   1      33.219  27.575  25.379  1.00  0.00    -0.021 A 
ATOM     20  C   UNL A   1      32.380  26.919  26.278  1.00  0.00     0.055 A 
ATOM     21  C   UNL A   1      33.268  28.962  25.302  1.00  0.00     0.006 A 
ATOM     22  C   UNL A   1      31.679  27.659  27.217  1.00  0.00     0.027 A 
ATOM     23  C   UNL A   1      32.486  29.705  26.183  1.00  0.00     0.000 A 
ATOM     24  C   UNL A   1      31.709  29.056  27.147  1.00  0.00     0.002 A 
ENDBRANCH  12  15
ENDBRANCH   7  12
ENDBRANCH   4   6
ENDBRANCH   3   4
ENDBRANCH   2   3
ENDBRANCH   1   2
BRANCH   1  25
ATOM     25  O   UNL A   1      37.358  21.215  25.403  1.00  0.00    -0.458 OA
BRANCH  25  26
ATOM     26  C   UNL A   1      38.602  20.868  25.810  1.00  0.00     0.338 C 
ATOM     27  O   UNL A   1      39.155  19.791  25.656  1.00  0.00    -0.246 OA
BRANCH  26  28
ATOM     28  C   UNL A   1      39.287  22.056  26.342  1.00  0.00     0.060 A 
ATOM     29  C   UNL A   1      40.424  21.970  27.144  1.00  0.00     0.016 A 
ATOM     30  C   UNL A   1      38.793  23.301  25.958  1.00  0.00     0.016 A 
ATOM     31  C   UNL A   1      41.046  23.149  27.577  1.00  0.00     0.010 A 
ATOM     32  C   UNL A   1      39.421  24.473  26.369  1.00  0.00     0.010 A 
ATOM     33  C   UNL A   1      40.551  24.413  27.193  1.00  0.00    -0.014 A 
BRANCH  33  34
ATOM     34  C   UNL A   1      41.230  25.674  27.602  1.00  0.00     0.031 A 
ATOM     35  C   UNL A   1      42.656  25.951  27.201  1.00  0.00     0.074 A 
ATOM     36  C   UNL A   1      40.573  26.550  28.390  1.00  0.00     0.049 A 
ATOM     37  N   UNL A   1      43.392  27.003  27.453  1.00  0.00    -0.248 NA
ATOM     38  C   UNL A   1      43.357  24.904  26.438  1.00  0.00     0.031 C 
ATOM     39  C   UNL A   1      39.220  26.353  28.910  1.00  0.00     0.029 A 
ATOM     40  N   UNL A   1      40.943  27.776  28.886  1.00  0.00    -0.354 N 
ATOM     41  C   UNL A   1      44.636  26.748  26.883  1.00  0.00     0.074 A 
ATOM     42  C   UNL A   1      44.576  25.415  26.327  1.00  0.00     0.031 C 
ATOM     43  C   UNL A   1      38.853  27.441  29.604  1.00  0.00     0.029 A 
ATOM     44  C   UNL A   1      39.954  28.402  29.612  1.00  0.00     0.049 A 
ATOM     45  H   UNL A   1      41.833  28.171  28.737  1.00  0.00     0.167 HD
ATOM     46  C   UNL A   1      45.713  27.567  26.801  1.00  0.00     0.034 A 
ATOM     47  C   UNL A   1      39.928  29.616  30.200  1.00  0.00     0.034 A 
ATOM     48  C   UNL A   1      45.744  28.907  27.330  1.00  0.00     0.049 A 
ATOM     49  C   UNL A   1      41.133  30.516  30.070  1.00  0.00     0.074 A 
ATOM     50  C   UNL A   1      46.766  29.837  27.239  1.00  0.00     0.029 A 
ATOM     51  N   UNL A   1      44.715  29.515  28.033  1.00  0.00    -0.354 N 
ATOM     52  N   UNL A   1      42.258  30.301  29.431  1.00  0.00    -0.248 NA
ATOM     53  C   UNL A   1      41.064  31.830  30.729  1.00  0.00     0.031 C 
ATOM     54  C   UNL A   1      46.377  30.984  27.929  1.00  0.00     0.029 A 
ATOM     55  C   UNL A   1      45.085  30.800  28.393  1.00  0.00     0.049 A 
ATOM     56  H   UNL A   1      43.850  29.095  28.245  1.00  0.00     0.167 HD
ATOM     57  C   UNL A   1      43.013  31.463  29.578  1.00  0.00     0.074 A 
ATOM     58  C   UNL A   1      42.206  32.386  30.346  1.00  0.00     0.031 C 
ATOM     59  C   UNL A   1      44.261  31.733  29.124  1.00  0.00     0.034 A 
BRANCH  46  60
ATOM     60  C   UNL A   1      46.942  27.092  26.061  1.00  0.00     0.023 A 
ATOM     61  C   UNL A   1      47.977  26.433  26.751  1.00  0.00     0.031 A 
ATOM     62  C   UNL A   1      47.163  27.456  24.721  1.00  0.00     0.131 A 
ATOM     63  C   UNL A   1      49.204  26.204  26.113  1.00  0.00     0.055 A 
ATOM     64  C   UNL A   1      48.370  27.183  24.075  1.00  0.00     0.041 A 
ATOM     65  F   UNL A   1      46.211  28.094  24.021  1.00  0.00    -0.206 F 
ATOM     66  C   UNL A   1      49.403  26.570  24.777  1.00  0.00     0.022 A 
BRANCH  63  67
ATOM     67  S   UNL A   1      50.614  25.497  27.009  1.00  0.00     0.124 S 
ATOM     68  O   UNL A   1      51.535  25.177  25.920  1.00  0.00    -0.237 OA
ATOM     69  O   UNL A   1      51.021  26.608  27.863  1.00  0.00    -0.237 OA
ATOM     70  O   UNL A   1      50.048  24.342  27.698  1.00  0.00    -0.744 OA
ENDBRANCH  63  67
ENDBRANCH  46  60
BRANCH  47  71
ATOM     71  C   UNL A   1      38.678  30.085  30.870  1.00  0.00     0.023 A 
ATOM     72  C   UNL A   1      37.668  30.757  30.159  1.00  0.00     0.031 A 
ATOM     73  C   UNL A   1      38.514  29.933  32.259  1.00  0.00     0.131 A 
ATOM     74  C   UNL A   1      36.570  31.295  30.846  1.00  0.00     0.055 A 
ATOM     75  C   UNL A   1      37.386  30.408  32.928  1.00  0.00     0.041 A 
ATOM     76  F   UNL A   1      39.458  29.316  32.987  1.00  0.00    -0.206 F 
ATOM     77  C   UNL A   1      36.414  31.109  32.222  1.00  0.00     0.022 A 
BRANCH  74  78
ATOM     78  S   UNL A   1      35.379  32.372  29.998  1.00  0.00     0.124 S 
ATOM     79  O   UNL A   1      34.369  32.578  31.029  1.00  0.00    -0.237 OA
ATOM     80  O   UNL A   1      36.201  33.536  29.677  1.00  0.00    -0.237 OA
ATOM     81  O   UNL A   1      34.958  31.579  28.847  1.00  0.00    -0.744 OA
ENDBRANCH  74  78
ENDBRANCH  47  71
BRANCH  59  82
ATOM     82  C   UNL A   1      44.865  33.089  29.407  1.00  0.00     0.023 A 
ATOM     83  C   UNL A   1      44.768  34.113  28.444  1.00  0.00     0.031 A 
ATOM     84  C   UNL A   1      45.672  33.311  30.534  1.00  0.00     0.131 A 
ATOM     85  C   UNL A   1      45.505  35.293  28.605  1.00  0.00     0.055 A 
ATOM     86  C   UNL A   1      46.363  34.509  30.716  1.00  0.00     0.041 A 
ATOM     87  F   UNL A   1      45.807  32.360  31.474  1.00  0.00    -0.206 F 
ATOM     88  C   UNL A   1      46.295  35.500  29.741  1.00  0.00     0.022 A 
BRANCH  85  89
ATOM     89  S   UNL A   1      45.547  36.558  27.305  1.00  0.00     0.124 S 
ATOM     90  O   UNL A   1      46.153  35.829  26.193  1.00  0.00    -0.237 OA
ATOM     91  O   UNL A   1      44.131  36.878  27.142  1.00  0.00    -0.237 OA
ATOM     92  O   UNL A   1      46.369  37.621  27.873  1.00  0.00    -0.744 OA
ENDBRANCH  85  89
ENDBRANCH  59  82
ENDBRANCH  33  34
ENDBRANCH  26  28
ENDBRANCH  25  26
ENDBRANCH   1  25
TORSDOF 16
ENDMDL
MODEL 3
REMARK VINA RESULT:     -12.5      4.852     10.252
REMARK SMILES C[C@@H]1Cc2ccccc2N1S(=O)(=O)c1cccc(C(=O)OCCOC(=O)c2ccc(-c3c4nc(c(-c5cc(S(=O)(=O)[O-])ccc5F)c5ccc([nH]5)c(-c5cc(S(=O)(=O)[O-])ccc5F)c5nc(c(-c6cc(S(=O)(=O)[O-])ccc6F)c6ccc3[nH]6)C=C5)C=C4)cc2)c1
REMARK SMILES IDX 23 1 22 2 21 3 19 4 20 5 18 6 14 7 15 8 90 9 16 10 17 11
REMARK SMILES IDX 11 12 12 13 13 14 10 15 1 16 2 17 3 18 4 19 9 20 5 21 8 22
REMARK SMILES IDX 6 23 7 24 24 25 25 26 26 27 27 28 28 29 89 30 29 31 88 32
REMARK SMILES IDX 30 33 31 34 32 35 82 36 33 37 87 38 81 39 83 40 34 41 86 42
REMARK SMILES IDX 80 43 79 44 35 46 67 47 47 48 66 49 48 50 51 51 65 52 84 53
REMARK SMILES IDX 49 54 50 55 64 57 85 58 52 59 36 60 37 61 45 62 38 63 44 64
REMARK SMILES IDX 46 65 43 66 39 67 40 68 41 69 42 70 68 71 69 72 77 73 70 74
REMARK SMILES IDX 76 75 78 76 75 77 71 78 72 79 73 80 74 81 53 82 54 83 62 84
REMARK SMILES IDX 55 85 61 86 63 87 60 88 56 89 57 90 58 91 59 92
REMARK H PARENT 83 45 51 56
REMARK Flexibility Score: inf
ROOT
ATOM      1  C   UNL A   1      37.131  20.667  25.049  1.00  0.00     0.275 C 
ENDROOT
BRANCH   1   2
ATOM      2  C   UNL A   1      35.611  20.851  25.114  1.00  0.00     0.275 C 
BRANCH   2   3
ATOM      3  O   UNL A   1      35.253  22.112  25.716  1.00  0.00    -0.458 OA
BRANCH   3   4
ATOM      4  C   UNL A   1      34.236  22.067  26.615  1.00  0.00     0.338 C 
ATOM      5  O   UNL A   1      34.153  21.319  27.567  1.00  0.00    -0.246 OA
BRANCH   4   6
ATOM      6  C   UNL A   1      33.243  23.146  26.351  1.00  0.00     0.061 A 
ATOM      7  C   UNL A   1      32.584  25.350  25.627  1.00  0.00     0.088 A 
ATOM      8  C   UNL A   1      31.266  25.104  26.044  1.00  0.00     0.022 A 
ATOM      9  C   UNL A   1      33.580  24.373  25.768  1.00  0.00     0.038 A 
ATOM     10  C   UNL A   1      30.933  23.878  26.605  1.00  0.00     0.002 A 
ATOM     11  C   UNL A   1      31.912  22.897  26.734  1.00  0.00     0.016 A 
BRANCH   7  12
ATOM     12  S   UNL A   1      32.911  26.875  24.787  1.00  0.00     0.264 S 
ATOM     13  O   UNL A   1      32.803  26.587  23.368  1.00  0.00    -0.201 OA
ATOM     14  O   UNL A   1      34.165  27.391  25.306  1.00  0.00    -0.201 OA
BRANCH  12  15
ATOM     15  N   UNL A   1      31.699  28.011  25.195  1.00  0.00    -0.263 N 
ATOM     16  C   UNL A   1      32.489  29.158  27.278  1.00  0.00     0.032 C 
ATOM     17  C   UNL A   1      32.298  29.288  25.777  1.00  0.00     0.101 C 
ATOM     18  C   UNL A   1      31.346  30.437  25.391  1.00  0.00     0.063 C 
ATOM     19  C   UNL A   1      30.490  29.813  24.341  1.00  0.00    -0.021 A 
ATOM     20  C   UNL A   1      30.696  28.437  24.259  1.00  0.00     0.055 A 
ATOM     21  C   UNL A   1      29.507  30.452  23.595  1.00  0.00     0.006 A 
ATOM     22  C   UNL A   1      29.814  27.661  23.525  1.00  0.00     0.027 A 
ATOM     23  C   UNL A   1      28.684  29.679  22.780  1.00  0.00     0.000 A 
ATOM     24  C   UNL A   1      28.825  28.288  22.759  1.00  0.00     0.002 A 
ENDBRANCH  12  15
ENDBRANCH   7  12
ENDBRANCH   4   6
ENDBRANCH   3   4
ENDBRANCH   2   3
ENDBRANCH   1   2
BRANCH   1  25
ATOM     25  O   UNL A   1      37.829  21.797  25.606  1.00  0.00    -0.458 OA
BRANCH  25  26
ATOM     26  C   UNL A   1      39.051  21.527  26.122  1.00  0.00     0.338 C 
ATOM     27  O   UNL A   1      39.670  20.478  26.046  1.00  0.00    -0.246 OA
BRANCH  26  28
ATOM     28  C   UNL A   1      39.628  22.765  26.670  1.00  0.00     0.060 A 
ATOM     29  C   UNL A   1      40.640  22.759  27.629  1.00  0.00     0.016 A 
ATOM     30  C   UNL A   1      39.168  23.970  26.143  1.00  0.00     0.016 A 
ATOM     31  C   UNL A   1      41.170  23.980  28.071  1.00  0.00     0.010 A 
ATOM     32  C   UNL A   1      39.707  25.182  26.566  1.00  0.00     0.010 A 
ATOM     33  C   UNL A   1      40.708  25.204  27.544  1.00  0.00    -0.014 A 
BRANCH  33  34
ATOM     34  C   UNL A   1      41.296  26.506  27.965  1.00  0.00     0.031 A 
ATOM     35  C   UNL A   1      42.731  26.844  27.655  1.00  0.00     0.074 A 
ATOM     36  C   UNL A   1      40.544  27.365  28.683  1.00  0.00     0.049 A 
ATOM     37  N   UNL A   1      43.397  27.938  27.930  1.00  0.00    -0.248 NA
ATOM     38  C   UNL A   1      43.533  25.816  26.970  1.00  0.00     0.031 C 
ATOM     39  C   UNL A   1      39.169  27.112  29.115  1.00  0.00     0.029 A 
ATOM     40  N   UNL A   1      40.819  28.619  29.172  1.00  0.00    -0.354 N 
ATOM     41  C   UNL A   1      44.687  27.732  27.453  1.00  0.00     0.074 A 
ATOM     42  C   UNL A   1      44.731  26.386  26.929  1.00  0.00     0.031 C 
ATOM     43  C   UNL A   1      38.703  28.196  29.754  1.00  0.00     0.029 A 
ATOM     44  C   UNL A   1      39.753  29.211  29.812  1.00  0.00     0.049 A 
ATOM     45  H   UNL A   1      41.697  29.054  29.073  1.00  0.00     0.167 HD
ATOM     46  C   UNL A   1      45.727  28.601  27.424  1.00  0.00     0.034 A 
ATOM     47  C   UNL A   1      39.627  30.435  30.366  1.00  0.00     0.034 A 
ATOM     48  C   UNL A   1      45.657  29.953  27.919  1.00  0.00     0.049 A 
ATOM     49  C   UNL A   1      40.794  31.391  30.295  1.00  0.00     0.074 A 
ATOM     50  C   UNL A   1      46.636  30.930  27.874  1.00  0.00     0.029 A 
ATOM     51  N   UNL A   1      44.552  30.525  28.534  1.00  0.00    -0.354 N 
ATOM     52  N   UNL A   1      41.970  31.218  29.740  1.00  0.00    -0.248 NA
ATOM     53  C   UNL A   1      40.616  32.714  30.913  1.00  0.00     0.031 C 
ATOM     54  C   UNL A   1      46.146  32.072  28.506  1.00  0.00     0.029 A 
ATOM     55  C   UNL A   1      44.834  31.834  28.885  1.00  0.00     0.049 A 
ATOM     56  H   UNL A   1      43.696  30.066  28.697  1.00  0.00     0.167 HD
ATOM     57  C   UNL A   1      42.656  32.419  29.908  1.00  0.00     0.074 A 
ATOM     58  C   UNL A   1      41.754  33.318  30.595  1.00  0.00     0.031 C 
ATOM     59  C   UNL A   1      43.918  32.741  29.534  1.00  0.00     0.034 A 
BRANCH  46  60
ATOM     60  C   UNL A   1      47.026  28.172  26.782  1.00  0.00     0.023 A 
ATOM     61  C   UNL A   1      47.173  28.208  25.382  1.00  0.00     0.031 A 
ATOM     62  C   UNL A   1      48.039  27.558  27.541  1.00  0.00     0.131 A 
ATOM     63  C   UNL A   1      48.281  27.596  24.782  1.00  0.00     0.055 A 
ATOM     64  C   UNL A   1      49.164  26.992  26.941  1.00  0.00     0.041 A 
ATOM     65  F   UNL A   1      47.942  27.490  28.879  1.00  0.00    -0.206 F 
ATOM     66  C   UNL A   1      49.281  26.995  25.555  1.00  0.00     0.022 A 
BRANCH  63  67
ATOM     67  S   UNL A   1      48.435  27.485  22.978  1.00  0.00     0.124 S 
ATOM     68  O   UNL A   1      49.747  28.087  22.749  1.00  0.00    -0.237 OA
ATOM     69  O   UNL A   1      48.362  26.046  22.754  1.00  0.00    -0.237 OA
ATOM     70  O   UNL A   1      47.304  28.263  22.482  1.00  0.00    -0.744 OA
ENDBRANCH  63  67
ENDBRANCH  46  60
BRANCH  47  71
ATOM     71  C   UNL A   1      38.312  30.855  30.936  1.00  0.00     0.023 A 
ATOM     72  C   UNL A   1      37.330  31.476  30.144  1.00  0.00     0.031 A 
ATOM     73  C   UNL A   1      38.054  30.710  32.311  1.00  0.00     0.131 A 
ATOM     74  C   UNL A   1      36.163  31.974  30.742  1.00  0.00     0.055 A 
ATOM     75  C   UNL A   1      36.860  31.143  32.890  1.00  0.00     0.041 A 
ATOM     76  F   UNL A   1      38.966  30.142  33.114  1.00  0.00    -0.206 F 
ATOM     77  C   UNL A   1      35.914  31.794  32.106  1.00  0.00     0.022 A 
BRANCH  74  78
ATOM     78  S   UNL A   1      34.993  32.990  29.796  1.00  0.00     0.124 S 
ATOM     79  O   UNL A   1      35.877  33.972  29.178  1.00  0.00    -0.237 OA
ATOM     80  O   UNL A   1      34.406  32.008  28.888  1.00  0.00    -0.237 OA
ATOM     81  O   UNL A   1      34.085  33.507  30.816  1.00  0.00    -0.744 OA
ENDBRANCH  74  78
ENDBRANCH  47  71
BRANCH  59  82
ATOM     82  C   UNL A   1      44.434  34.131  29.822  1.00  0.00     0.023 A 
ATOM     83  C   UNL A   1      44.316  35.139  28.844  1.00  0.00     0.031 A 
ATOM     84  C   UNL A   1      45.185  34.410  30.976  1.00  0.00     0.131 A 
ATOM     85  C   UNL A   1      44.980  36.359  29.018  1.00  0.00     0.055 A 
ATOM     86  C   UNL A   1      45.802  35.646  31.168  1.00  0.00     0.041 A 
ATOM     87  F   UNL A   1      45.339  33.477  31.931  1.00  0.00    -0.206 F 
ATOM     88  C   UNL A   1      45.715  36.622  30.179  1.00  0.00     0.022 A 
BRANCH  85  89
ATOM     89  S   UNL A   1      44.999  37.612  27.705  1.00  0.00     0.124 S 
ATOM     90  O   UNL A   1      43.768  37.308  26.979  1.00  0.00    -0.237 OA
ATOM     91  O   UNL A   1      44.982  38.857  28.468  1.00  0.00    -0.237 OA
ATOM     92  O   UNL A   1      46.233  37.340  26.975  1.00  0.00    -0.744 OA
ENDBRANCH  85  89
ENDBRANCH  59  82
ENDBRANCH  33  34
ENDBRANCH  26  28
ENDBRANCH  25  26
ENDBRANCH   1  25
TORSDOF 16
ENDMDL
