MODEL 1
REMARK VINA RESULT:     -12.1      0.000      0.000
REMARK SMILES CCc1ccc2[nH]c(C(=O)c3cc(C)ccn3)c(CC(=O)OCCOC(=O)c3ccc(-c4c5nc(c(-c6cc(S(=O)(=O)[O-])ccc6F)c6ccc([nH]6)c(-c6cc(S(=O)(=O)[O-])ccc6F)c6nc(c(-c7cc(S(=O)(=O)[O-])ccc7F)c7ccc4[nH]7)C=C6)C=C5)cc3)c2c1
REMARK SMILES IDX 23 1 22 2 20 3 21 4 19 5 18 6 3 7 4 8 92 9 5 10 91 11 6 12
REMARK SMILES IDX 7 13 8 14 2 16 1 17 9 18 10 19 11 20 12 21 17 22 13 23 16 24
REMARK SMILES IDX 14 25 15 26 24 27 25 28 26 29 27 30 28 31 29 32 90 33 30 34
REMARK SMILES IDX 89 35 31 36 32 37 33 38 83 39 34 40 88 41 82 42 84 43 35 44
REMARK SMILES IDX 87 45 81 46 80 47 36 49 68 50 48 51 67 52 49 53 52 54 66 55
REMARK SMILES IDX 85 56 50 57 51 58 65 60 86 61 53 62 37 63 38 64 46 65 39 66
REMARK SMILES IDX 45 67 47 68 44 69 40 70 41 71 42 72 43 73 69 74 70 75 78 76
REMARK SMILES IDX 71 77 77 78 79 79 76 80 72 81 73 82 74 83 75 84 54 85 55 86
REMARK SMILES IDX 63 87 56 88 62 89 64 90 61 91 57 92 58 93 59 94 60 95
REMARK H PARENT 7 15 84 48 52 59
REMARK Flexibility Score: inf
ROOT
ATOM      1  C   UNL A   1      31.698  28.314  27.279  1.00  0.00     0.274 C 
ENDROOT
BRANCH   1   2
ATOM      2  O   UNL A   1      31.048  27.142  26.748  1.00  0.00    -0.462 OA
BRANCH   2   3
ATOM      3  C   UNL A   1      31.845  26.050  26.584  1.00  0.00     0.310 C 
ATOM      4  O   UNL A   1      31.536  24.917  26.944  1.00  0.00    -0.252 OA
BRANCH   3   5
ATOM      5  C   UNL A   1      33.150  26.320  25.865  1.00  0.00     0.161 C 
BRANCH   5   6
ATOM      6  C   UNL A   1      33.458  25.441  24.690  1.00  0.00     0.000 A 
ATOM      7  C   UNL A   1      36.634  23.345  25.113  1.00  0.00    -0.048 A 
ATOM      8  C   UNL A   1      36.516  22.681  23.886  1.00  0.00     0.006 A 
ATOM      9  C   UNL A   1      35.716  24.362  25.428  1.00  0.00     0.014 A 
ATOM     10  C   UNL A   1      35.474  22.965  22.991  1.00  0.00     0.027 A 
ATOM     11  C   UNL A   1      34.625  24.623  24.573  1.00  0.00     0.004 A 
ATOM     12  C   UNL A   1      34.531  23.921  23.379  1.00  0.00     0.046 A 
ATOM     13  N   UNL A   1      33.380  24.343  22.758  1.00  0.00    -0.352 N 
ATOM     14  C   UNL A   1      32.623  25.105  23.623  1.00  0.00     0.093 A 
ATOM     15  H   UNL A   1      33.131  24.131  21.829  1.00  0.00     0.167 HD
BRANCH   7  16
ATOM     16  C   UNL A   1      37.716  23.021  26.116  1.00  0.00     0.032 C 
ATOM     17  C   UNL A   1      38.435  24.230  26.701  1.00  0.00     0.009 C 
ENDBRANCH   7  16
BRANCH  14  18
ATOM     18  C   UNL A   1      31.205  25.378  23.450  1.00  0.00     0.227 C 
ATOM     19  O   UNL A   1      30.352  24.496  23.422  1.00  0.00    -0.285 OA
BRANCH  18  20
ATOM     20  C   UNL A   1      30.766  26.764  23.163  1.00  0.00     0.113 A 
ATOM     21  C   UNL A   1      29.422  27.092  23.298  1.00  0.00     0.036 A 
ATOM     22  N   UNL A   1      31.732  27.635  22.785  1.00  0.00    -0.253 NA
ATOM     23  C   UNL A   1      29.038  28.410  23.042  1.00  0.00    -0.047 A 
ATOM     24  C   UNL A   1      31.347  28.917  22.629  1.00  0.00     0.112 A 
ATOM     25  C   UNL A   1      27.602  28.832  23.126  1.00  0.00     0.044 C 
ATOM     26  C   UNL A   1      30.031  29.345  22.735  1.00  0.00     0.023 A 
ENDBRANCH  18  20
ENDBRANCH  14  18
ENDBRANCH   5   6
ENDBRANCH   3   5
ENDBRANCH   2   3
ENDBRANCH   1   2
BRANCH   1  27
ATOM     27  C   UNL A   1      31.580  29.475  26.296  1.00  0.00     0.275 C 
BRANCH  27  28
ATOM     28  O   UNL A   1      32.877  30.055  26.090  1.00  0.00    -0.458 OA
BRANCH  28  29
ATOM     29  C   UNL A   1      33.189  31.090  26.903  1.00  0.00     0.338 C 
ATOM     30  O   UNL A   1      32.566  32.142  27.011  1.00  0.00    -0.246 OA
BRANCH  29  31
ATOM     31  C   UNL A   1      34.455  30.819  27.610  1.00  0.00     0.060 A 
ATOM     32  C   UNL A   1      34.817  29.526  27.996  1.00  0.00     0.016 A 
ATOM     33  C   UNL A   1      35.275  31.897  27.947  1.00  0.00     0.016 A 
ATOM     34  C   UNL A   1      35.955  29.320  28.776  1.00  0.00     0.010 A 
ATOM     35  C   UNL A   1      36.472  31.675  28.633  1.00  0.00     0.010 A 
ATOM     36  C   UNL A   1      36.821  30.385  29.067  1.00  0.00    -0.014 A 
BRANCH  36  37
ATOM     37  C   UNL A   1      38.113  30.158  29.774  1.00  0.00     0.031 A 
ATOM     38  C   UNL A   1      39.157  29.243  29.190  1.00  0.00     0.074 A 
ATOM     39  C   UNL A   1      38.321  30.731  30.977  1.00  0.00     0.049 A 
ATOM     40  N   UNL A   1      40.226  28.738  29.755  1.00  0.00    -0.248 NA
ATOM     41  C   UNL A   1      38.962  28.825  27.793  1.00  0.00     0.031 C 
ATOM     42  C   UNL A   1      37.402  31.657  31.644  1.00  0.00     0.029 A 
ATOM     43  N   UNL A   1      39.360  30.603  31.865  1.00  0.00    -0.354 N 
ATOM     44  C   UNL A   1      40.807  27.910  28.801  1.00  0.00     0.074 A 
ATOM     45  C   UNL A   1      39.964  27.972  27.624  1.00  0.00     0.031 C 
ATOM     46  C   UNL A   1      37.924  32.027  32.821  1.00  0.00     0.029 A 
ATOM     47  C   UNL A   1      39.163  31.292  33.040  1.00  0.00     0.049 A 
ATOM     48  H   UNL A   1      40.168  30.072  31.679  1.00  0.00     0.167 HD
ATOM     49  C   UNL A   1      41.938  27.165  28.905  1.00  0.00     0.034 A 
ATOM     50  C   UNL A   1      39.860  31.290  34.193  1.00  0.00     0.034 A 
ATOM     51  C   UNL A   1      42.782  27.142  30.079  1.00  0.00     0.049 A 
ATOM     52  C   UNL A   1      41.076  30.415  34.304  1.00  0.00     0.074 A 
ATOM     53  C   UNL A   1      43.972  26.460  30.273  1.00  0.00     0.029 A 
ATOM     54  N   UNL A   1      42.526  27.829  31.259  1.00  0.00    -0.354 N 
ATOM     55  N   UNL A   1      41.593  29.605  33.410  1.00  0.00    -0.248 NA
ATOM     56  C   UNL A   1      41.792  30.441  35.585  1.00  0.00     0.031 C 
ATOM     57  C   UNL A   1      44.402  26.685  31.587  1.00  0.00     0.029 A 
ATOM     58  C   UNL A   1      43.516  27.560  32.195  1.00  0.00     0.049 A 
ATOM     59  H   UNL A   1      41.753  28.420  31.412  1.00  0.00     0.167 HD
ATOM     60  C   UNL A   1      42.703  29.031  34.021  1.00  0.00     0.074 A 
ATOM     61  C   UNL A   1      42.791  29.603  35.349  1.00  0.00     0.031 C 
ATOM     62  C   UNL A   1      43.572  28.114  33.527  1.00  0.00     0.034 A 
BRANCH  49  63
ATOM     63  C   UNL A   1      42.299  26.270  27.743  1.00  0.00     0.023 A 
ATOM     64  C   UNL A   1      41.970  24.904  27.716  1.00  0.00     0.031 A 
ATOM     65  C   UNL A   1      42.990  26.803  26.639  1.00  0.00     0.131 A 
ATOM     66  C   UNL A   1      42.379  24.107  26.634  1.00  0.00     0.055 A 
ATOM     67  C   UNL A   1      43.331  26.020  25.534  1.00  0.00     0.041 A 
ATOM     68  F   UNL A   1      43.350  28.095  26.617  1.00  0.00    -0.206 F 
ATOM     69  C   UNL A   1      43.036  24.661  25.532  1.00  0.00     0.022 A 
BRANCH  66  70
ATOM     70  S   UNL A   1      42.138  22.310  26.731  1.00  0.00     0.124 S 
ATOM     71  O   UNL A   1      41.074  22.096  25.752  1.00  0.00    -0.237 OA
ATOM     72  O   UNL A   1      43.453  21.793  26.368  1.00  0.00    -0.237 OA
ATOM     73  O   UNL A   1      41.744  22.091  28.121  1.00  0.00    -0.744 OA
ENDBRANCH  66  70
ENDBRANCH  49  63
BRANCH  50  74
ATOM     74  C   UNL A   1      39.375  32.081  35.358  1.00  0.00     0.023 A 
ATOM     75  C   UNL A   1      39.785  33.408  35.555  1.00  0.00     0.031 A 
ATOM     76  C   UNL A   1      38.505  31.509  36.305  1.00  0.00     0.131 A 
ATOM     77  C   UNL A   1      39.347  34.112  36.687  1.00  0.00     0.055 A 
ATOM     78  C   UNL A   1      38.032  32.229  37.401  1.00  0.00     0.041 A 
ATOM     79  F   UNL A   1      38.084  30.243  36.162  1.00  0.00    -0.206 F 
ATOM     80  C   UNL A   1      38.461  33.537  37.603  1.00  0.00     0.022 A 
BRANCH  77  81
ATOM     81  S   UNL A   1      40.011  35.772  36.988  1.00  0.00     0.124 S 
ATOM     82  O   UNL A   1      39.650  36.467  35.758  1.00  0.00    -0.237 OA
ATOM     83  O   UNL A   1      39.286  36.175  38.189  1.00  0.00    -0.237 OA
ATOM     84  O   UNL A   1      41.441  35.538  37.177  1.00  0.00    -0.744 OA
ENDBRANCH  77  81
ENDBRANCH  50  74
BRANCH  62  85
ATOM     85  C   UNL A   1      44.702  27.704  34.435  1.00  0.00     0.023 A 
ATOM     86  C   UNL A   1      44.552  26.666  35.372  1.00  0.00     0.031 A 
ATOM     87  C   UNL A   1      45.929  28.388  34.391  1.00  0.00     0.131 A 
ATOM     88  C   UNL A   1      45.594  26.377  36.266  1.00  0.00     0.055 A 
ATOM     89  C   UNL A   1      46.981  28.061  35.248  1.00  0.00     0.041 A 
ATOM     90  F   UNL A   1      46.122  29.389  33.518  1.00  0.00    -0.206 F 
ATOM     91  C   UNL A   1      46.813  27.060  36.200  1.00  0.00     0.022 A 
BRANCH  88  92
ATOM     92  S   UNL A   1      45.310  25.152  37.572  1.00  0.00     0.124 S 
ATOM     93  O   UNL A   1      44.710  24.049  36.828  1.00  0.00    -0.237 OA
ATOM     94  O   UNL A   1      46.657  24.918  38.081  1.00  0.00    -0.237 OA
ATOM     95  O   UNL A   1      44.411  25.838  38.497  1.00  0.00    -0.744 OA
ENDBRANCH  88  92
ENDBRANCH  62  85
ENDBRANCH  36  37
ENDBRANCH  29  31
ENDBRANCH  28  29
ENDBRANCH  27  28
ENDBRANCH   1  27
TORSDOF 18
ENDMDL
MODEL 2
REMARK VINA RESULT:     -12.0      5.068      9.966
REMARK SMILES CCc1ccc2[nH]c(C(=O)c3cc(C)ccn3)c(CC(=O)OCCOC(=O)c3ccc(-c4c5nc(c(-c6cc(S(=O)(=O)[O-])ccc6F)c6ccc([nH]6)c(-c6cc(S(=O)(=O)[O-])ccc6F)c6nc(c(-c7cc(S(=O)(=O)[O-])ccc7F)c7ccc4[nH]7)C=C6)C=C5)cc3)c2c1
REMARK SMILES IDX 23 1 22 2 20 3 21 4 19 5 18 6 3 7 4 8 92 9 5 10 91 11 6 12
REMARK SMILES IDX 7 13 8 14 2 16 1 17 9 18 10 19 11 20 12 21 17 22 13 23 16 24
REMARK SMILES IDX 14 25 15 26 24 27 25 28 26 29 27 30 28 31 29 32 90 33 30 34
REMARK SMILES IDX 89 35 31 36 32 37 33 38 83 39 34 40 88 41 82 42 84 43 35 44
REMARK SMILES IDX 87 45 81 46 80 47 36 49 68 50 48 51 67 52 49 53 52 54 66 55
REMARK SMILES IDX 85 56 50 57 51 58 65 60 86 61 53 62 37 63 38 64 46 65 39 66
REMARK SMILES IDX 45 67 47 68 44 69 40 70 41 71 42 72 43 73 69 74 70 75 78 76
REMARK SMILES IDX 71 77 77 78 79 79 76 80 72 81 73 82 74 83 75 84 54 85 55 86
REMARK SMILES IDX 63 87 56 88 62 89 64 90 61 91 57 92 58 93 59 94 60 95
REMARK H PARENT 7 15 84 48 52 59
REMARK Flexibility Score: inf
ROOT
ATOM      1  C   UNL A   1      36.785  22.220  23.798  1.00  0.00     0.274 C 
ENDROOT
BRANCH   1   2
ATOM      2  O   UNL A   1      35.408  22.563  23.548  1.00  0.00    -0.462 OA
BRANCH   2   3
ATOM      3  C   UNL A   1      35.082  23.870  23.744  1.00  0.00     0.310 C 
ATOM      4  O   UNL A   1      34.862  24.666  22.834  1.00  0.00    -0.252 OA
BRANCH   3   5
ATOM      5  C   UNL A   1      34.954  24.280  25.197  1.00  0.00     0.161 C 
BRANCH   5   6
ATOM      6  C   UNL A   1      33.572  24.253  25.778  1.00  0.00     0.000 A 
ATOM      7  C   UNL A   1      31.365  27.175  24.661  1.00  0.00    -0.048 A 
ATOM      8  C   UNL A   1      30.225  26.749  25.355  1.00  0.00     0.006 A 
ATOM      9  C   UNL A   1      32.565  26.462  24.823  1.00  0.00     0.014 A 
ATOM     10  C   UNL A   1      30.237  25.600  26.159  1.00  0.00     0.027 A 
ATOM     11  C   UNL A   1      32.587  25.270  25.575  1.00  0.00     0.004 A 
ATOM     12  C   UNL A   1      31.427  24.870  26.224  1.00  0.00     0.046 A 
ATOM     13  N   UNL A   1      31.712  23.682  26.854  1.00  0.00    -0.352 N 
ATOM     14  C   UNL A   1      32.933  23.199  26.432  1.00  0.00     0.093 A 
ATOM     15  H   UNL A   1      31.129  23.240  27.513  1.00  0.00     0.167 HD
BRANCH   7  16
ATOM     16  C   UNL A   1      31.363  28.379  23.748  1.00  0.00     0.032 C 
ATOM     17  C   UNL A   1      29.988  28.970  23.464  1.00  0.00     0.009 C 
ENDBRANCH   7  16
BRANCH  14  18
ATOM     18  C   UNL A   1      33.363  21.817  26.577  1.00  0.00     0.227 C 
ATOM     19  O   UNL A   1      34.111  21.440  27.475  1.00  0.00    -0.285 OA
BRANCH  18  20
ATOM     20  C   UNL A   1      32.999  20.832  25.532  1.00  0.00     0.113 A 
ATOM     21  C   UNL A   1      32.621  21.286  24.274  1.00  0.00     0.036 A 
ATOM     22  N   UNL A   1      33.067  19.526  25.886  1.00  0.00    -0.253 NA
ATOM     23  C   UNL A   1      32.302  20.337  23.301  1.00  0.00    -0.047 A 
ATOM     24  C   UNL A   1      32.839  18.633  24.903  1.00  0.00     0.112 A 
ATOM     25  C   UNL A   1      31.846  20.748  21.933  1.00  0.00     0.044 C 
ATOM     26  C   UNL A   1      32.450  18.983  23.618  1.00  0.00     0.023 A 
ENDBRANCH  18  20
ENDBRANCH  14  18
ENDBRANCH   5   6
ENDBRANCH   3   5
ENDBRANCH   2   3
ENDBRANCH   1   2
BRANCH   1  27
ATOM     27  C   UNL A   1      36.872  21.138  24.871  1.00  0.00     0.275 C 
BRANCH  27  28
ATOM     28  O   UNL A   1      37.537  21.670  26.027  1.00  0.00    -0.458 OA
BRANCH  28  29
ATOM     29  C   UNL A   1      38.868  21.439  26.093  1.00  0.00     0.338 C 
ATOM     30  O   UNL A   1      39.435  20.380  25.841  1.00  0.00    -0.246 OA
BRANCH  29  31
ATOM     31  C   UNL A   1      39.569  22.636  26.596  1.00  0.00     0.060 A 
ATOM     32  C   UNL A   1      40.590  22.543  27.545  1.00  0.00     0.016 A 
ATOM     33  C   UNL A   1      39.154  23.891  26.148  1.00  0.00     0.016 A 
ATOM     34  C   UNL A   1      41.142  23.700  28.095  1.00  0.00     0.010 A 
ATOM     35  C   UNL A   1      39.785  25.044  26.619  1.00  0.00     0.010 A 
ATOM     36  C   UNL A   1      40.779  24.965  27.608  1.00  0.00    -0.014 A 
BRANCH  36  37
ATOM     37  C   UNL A   1      41.463  26.200  28.082  1.00  0.00     0.031 A 
ATOM     38  C   UNL A   1      40.701  27.260  28.832  1.00  0.00     0.074 A 
ATOM     39  C   UNL A   1      42.763  26.396  27.779  1.00  0.00     0.049 A 
ATOM     40  N   UNL A   1      41.053  28.490  29.114  1.00  0.00    -0.248 NA
ATOM     41  C   UNL A   1      39.359  26.895  29.310  1.00  0.00     0.031 C 
ATOM     42  C   UNL A   1      43.624  25.438  27.079  1.00  0.00     0.029 A 
ATOM     43  N   UNL A   1      43.585  27.473  28.002  1.00  0.00    -0.354 N 
ATOM     44  C   UNL A   1      39.963  29.061  29.763  1.00  0.00     0.074 A 
ATOM     45  C   UNL A   1      38.933  28.044  29.821  1.00  0.00     0.031 C 
ATOM     46  C   UNL A   1      44.850  25.960  26.946  1.00  0.00     0.029 A 
ATOM     47  C   UNL A   1      44.842  27.324  27.461  1.00  0.00     0.049 A 
ATOM     48  H   UNL A   1      43.303  28.274  28.501  1.00  0.00     0.167 HD
ATOM     49  C   UNL A   1      39.838  30.319  30.258  1.00  0.00     0.034 A 
ATOM     50  C   UNL A   1      45.857  28.199  27.330  1.00  0.00     0.034 A 
ATOM     51  C   UNL A   1      40.890  31.310  30.216  1.00  0.00     0.049 A 
ATOM     52  C   UNL A   1      45.675  29.602  27.835  1.00  0.00     0.074 A 
ATOM     53  C   UNL A   1      40.886  32.597  30.728  1.00  0.00     0.029 A 
ATOM     54  N   UNL A   1      42.136  31.127  29.628  1.00  0.00    -0.354 N 
ATOM     55  N   UNL A   1      44.626  30.142  28.410  1.00  0.00    -0.248 NA
ATOM     56  C   UNL A   1      46.808  30.518  27.657  1.00  0.00     0.031 C 
ATOM     57  C   UNL A   1      42.100  33.210  30.397  1.00  0.00     0.029 A 
ATOM     58  C   UNL A   1      42.892  32.286  29.734  1.00  0.00     0.049 A 
ATOM     59  H   UNL A   1      42.439  30.295  29.196  1.00  0.00     0.167 HD
ATOM     60  C   UNL A   1      44.977  31.462  28.670  1.00  0.00     0.074 A 
ATOM     61  C   UNL A   1      46.341  31.629  28.210  1.00  0.00     0.031 C 
ATOM     62  C   UNL A   1      44.239  32.447  29.241  1.00  0.00     0.034 A 
BRANCH  49  63
ATOM     63  C   UNL A   1      38.500  30.717  30.835  1.00  0.00     0.023 A 
ATOM     64  C   UNL A   1      37.497  31.325  30.059  1.00  0.00     0.031 A 
ATOM     65  C   UNL A   1      38.226  30.479  32.194  1.00  0.00     0.131 A 
ATOM     66  C   UNL A   1      36.292  31.724  30.661  1.00  0.00     0.055 A 
ATOM     67  C   UNL A   1      36.999  30.814  32.770  1.00  0.00     0.041 A 
ATOM     68  F   UNL A   1      39.152  29.921  32.990  1.00  0.00    -0.206 F 
ATOM     69  C   UNL A   1      36.027  31.450  32.005  1.00  0.00     0.022 A 
BRANCH  66  70
ATOM     70  S   UNL A   1      35.113  32.705  29.690  1.00  0.00     0.124 S 
ATOM     71  O   UNL A   1      35.968  33.765  29.159  1.00  0.00    -0.237 OA
ATOM     72  O   UNL A   1      34.618  31.736  28.718  1.00  0.00    -0.237 OA
ATOM     73  O   UNL A   1      34.135  33.147  30.682  1.00  0.00    -0.744 OA
ENDBRANCH  66  70
ENDBRANCH  49  63
BRANCH  50  74
ATOM     74  C   UNL A   1      47.103  27.795  26.621  1.00  0.00     0.023 A 
ATOM     75  C   UNL A   1      47.220  27.927  25.229  1.00  0.00     0.031 A 
ATOM     76  C   UNL A   1      48.191  27.251  27.328  1.00  0.00     0.131 A 
ATOM     77  C   UNL A   1      48.388  27.495  24.584  1.00  0.00     0.055 A 
ATOM     78  C   UNL A   1      49.370  26.871  26.688  1.00  0.00     0.041 A 
ATOM     79  F   UNL A   1      48.129  27.104  28.661  1.00  0.00    -0.206 F 
ATOM     80  C   UNL A   1      49.470  26.982  25.306  1.00  0.00     0.022 A 
BRANCH  77  81
ATOM     81  S   UNL A   1      48.449  27.543  22.772  1.00  0.00     0.124 S 
ATOM     82  O   UNL A   1      47.229  28.275  22.452  1.00  0.00    -0.237 OA
ATOM     83  O   UNL A   1      49.703  28.250  22.529  1.00  0.00    -0.237 OA
ATOM     84  O   UNL A   1      48.449  26.132  22.394  1.00  0.00    -0.744 OA
ENDBRANCH  77  81
ENDBRANCH  50  74
BRANCH  62  85
ATOM     85  C   UNL A   1      44.920  33.780  29.413  1.00  0.00     0.023 A 
ATOM     86  C   UNL A   1      44.830  34.783  28.430  1.00  0.00     0.031 A 
ATOM     87  C   UNL A   1      45.700  34.035  30.554  1.00  0.00     0.131 A 
ATOM     88  C   UNL A   1      45.555  35.974  28.581  1.00  0.00     0.055 A 
ATOM     89  C   UNL A   1      46.378  35.243  30.722  1.00  0.00     0.041 A 
ATOM     90  F   UNL A   1      45.821  33.110  31.518  1.00  0.00    -0.206 F 
ATOM     91  C   UNL A   1      46.318  36.215  29.728  1.00  0.00     0.022 A 
BRANCH  88  92
ATOM     92  S   UNL A   1      45.556  37.174  27.222  1.00  0.00     0.124 S 
ATOM     93  O   UNL A   1      44.133  37.294  26.922  1.00  0.00    -0.237 OA
ATOM     94  O   UNL A   1      46.179  38.342  27.835  1.00  0.00    -0.237 OA
ATOM     95  O   UNL A   1      46.355  36.520  26.187  1.00  0.00    -0.744 OA
ENDBRANCH  88  92
ENDBRANCH  62  85
ENDBRANCH  36  37
ENDBRANCH  29  31
ENDBRANCH  28  29
ENDBRANCH  27  28
ENDBRANCH   1  27
TORSDOF 18
ENDMDL
MODEL 3
REMARK VINA RESULT:     -12.0      1.671      2.142
REMARK SMILES CCc1ccc2[nH]c(C(=O)c3cc(C)ccn3)c(CC(=O)OCCOC(=O)c3ccc(-c4c5nc(c(-c6cc(S(=O)(=O)[O-])ccc6F)c6ccc([nH]6)c(-c6cc(S(=O)(=O)[O-])ccc6F)c6nc(c(-c7cc(S(=O)(=O)[O-])ccc7F)c7ccc4[nH]7)C=C6)C=C5)cc3)c2c1
REMARK SMILES IDX 23 1 22 2 20 3 21 4 19 5 18 6 3 7 4 8 92 9 5 10 91 11 6 12
REMARK SMILES IDX 7 13 8 14 2 16 1 17 9 18 10 19 11 20 12 21 17 22 13 23 16 24
REMARK SMILES IDX 14 25 15 26 24 27 25 28 26 29 27 30 28 31 29 32 90 33 30 34
REMARK SMILES IDX 89 35 31 36 32 37 33 38 83 39 34 40 88 41 82 42 84 43 35 44
REMARK SMILES IDX 87 45 81 46 80 47 36 49 68 50 48 51 67 52 49 53 52 54 66 55
REMARK SMILES IDX 85 56 50 57 51 58 65 60 86 61 53 62 37 63 38 64 46 65 39 66
REMARK SMILES IDX 45 67 47 68 44 69 40 70 41 71 42 72 43 73 69 74 70 75 78 76
REMARK SMILES IDX 71 77 77 78 79 79 76 80 72 81 73 82 74 83 75 84 54 85 55 86
REMARK SMILES IDX 63 87 56 88 62 89 64 90 61 91 57 92 58 93 59 94 60 95
REMARK H PARENT 7 15 84 48 52 59
REMARK Flexibility Score: inf
ROOT
ATOM      1  C   UNL A   1      31.401  28.940  26.547  1.00  0.00     0.274 C 
ENDROOT
BRANCH   1   2
ATOM      2  O   UNL A   1      32.479  28.153  27.089  1.00  0.00    -0.462 OA
BRANCH   2   3
ATOM      3  C   UNL A   1      32.684  26.945  26.494  1.00  0.00     0.310 C 
ATOM      4  O   UNL A   1      31.946  25.974  26.643  1.00  0.00    -0.252 OA
BRANCH   3   5
ATOM      5  C   UNL A   1      33.884  26.888  25.573  1.00  0.00     0.161 C 
BRANCH   5   6
ATOM      6  C   UNL A   1      33.651  26.314  24.207  1.00  0.00     0.000 A 
ATOM      7  C   UNL A   1      33.695  22.487  24.108  1.00  0.00    -0.048 A 
ATOM      8  C   UNL A   1      33.403  22.390  22.742  1.00  0.00     0.006 A 
ATOM      9  C   UNL A   1      33.901  23.758  24.671  1.00  0.00     0.014 A 
ATOM     10  C   UNL A   1      33.253  23.527  21.936  1.00  0.00     0.027 A 
ATOM     11  C   UNL A   1      33.696  24.919  23.896  1.00  0.00     0.004 A 
ATOM     12  C   UNL A   1      33.379  24.776  22.552  1.00  0.00     0.046 A 
ATOM     13  N   UNL A   1      33.210  26.042  22.045  1.00  0.00    -0.352 N 
ATOM     14  C   UNL A   1      33.173  26.965  23.070  1.00  0.00     0.093 A 
ATOM     15  H   UNL A   1      33.128  26.260  21.088  1.00  0.00     0.167 HD
BRANCH   7  16
ATOM     16  C   UNL A   1      33.810  21.279  25.008  1.00  0.00     0.032 C 
ATOM     17  C   UNL A   1      35.180  21.075  25.641  1.00  0.00     0.009 C 
ENDBRANCH   7  16
BRANCH  14  18
ATOM     18  C   UNL A   1      32.627  28.308  22.945  1.00  0.00     0.227 C 
ATOM     19  O   UNL A   1      33.317  29.320  23.022  1.00  0.00    -0.285 OA
BRANCH  18  20
ATOM     20  C   UNL A   1      31.160  28.486  22.850  1.00  0.00     0.113 A 
ATOM     21  C   UNL A   1      30.322  27.531  23.413  1.00  0.00     0.036 A 
ATOM     22  N   UNL A   1      30.729  29.599  22.210  1.00  0.00    -0.253 NA
ATOM     23  C   UNL A   1      28.943  27.733  23.328  1.00  0.00    -0.047 A 
ATOM     24  C   UNL A   1      29.398  29.812  22.220  1.00  0.00     0.112 A 
ATOM     25  C   UNL A   1      27.974  26.727  23.874  1.00  0.00     0.044 C 
ATOM     26  C   UNL A   1      28.479  28.917  22.748  1.00  0.00     0.023 A 
ENDBRANCH  18  20
ENDBRANCH  14  18
ENDBRANCH   5   6
ENDBRANCH   3   5
ENDBRANCH   2   3
ENDBRANCH   1   2
BRANCH   1  27
ATOM     27  C   UNL A   1      31.889  30.348  26.220  1.00  0.00     0.275 C 
BRANCH  27  28
ATOM     28  O   UNL A   1      33.297  30.434  26.484  1.00  0.00    -0.458 OA
BRANCH  28  29
ATOM     29  C   UNL A   1      33.684  31.477  27.255  1.00  0.00     0.338 C 
ATOM     30  O   UNL A   1      33.103  32.552  27.366  1.00  0.00    -0.246 OA
BRANCH  29  31
ATOM     31  C   UNL A   1      34.973  31.178  27.907  1.00  0.00     0.060 A 
ATOM     32  C   UNL A   1      35.971  32.148  28.037  1.00  0.00     0.016 A 
ATOM     33  C   UNL A   1      35.213  29.876  28.348  1.00  0.00     0.016 A 
ATOM     34  C   UNL A   1      37.224  31.799  28.541  1.00  0.00     0.010 A 
ATOM     35  C   UNL A   1      36.431  29.556  28.953  1.00  0.00     0.010 A 
ATOM     36  C   UNL A   1      37.457  30.511  29.046  1.00  0.00    -0.014 A 
BRANCH  36  37
ATOM     37  C   UNL A   1      38.741  30.165  29.718  1.00  0.00     0.031 A 
ATOM     38  C   UNL A   1      39.678  29.155  29.110  1.00  0.00     0.074 A 
ATOM     39  C   UNL A   1      39.034  30.719  30.912  1.00  0.00     0.049 A 
ATOM     40  N   UNL A   1      40.709  28.553  29.649  1.00  0.00    -0.248 NA
ATOM     41  C   UNL A   1      39.406  28.754  27.721  1.00  0.00     0.031 C 
ATOM     42  C   UNL A   1      38.225  31.729  31.599  1.00  0.00     0.029 A 
ATOM     43  N   UNL A   1      40.081  30.496  31.773  1.00  0.00    -0.354 N 
ATOM     44  C   UNL A   1      41.184  27.671  28.684  1.00  0.00     0.074 A 
ATOM     45  C   UNL A   1      40.319  27.809  27.530  1.00  0.00     0.031 C 
ATOM     46  C   UNL A   1      38.811  32.051  32.760  1.00  0.00     0.029 A 
ATOM     47  C   UNL A   1      39.982  31.203  32.949  1.00  0.00     0.049 A 
ATOM     48  H   UNL A   1      40.830  29.890  31.568  1.00  0.00     0.167 HD
ATOM     49  C   UNL A   1      42.243  26.824  28.761  1.00  0.00     0.034 A 
ATOM     50  C   UNL A   1      40.706  31.139  34.083  1.00  0.00     0.034 A 
ATOM     51  C   UNL A   1      43.112  26.724  29.911  1.00  0.00     0.049 A 
ATOM     52  C   UNL A   1      41.838  30.153  34.165  1.00  0.00     0.074 A 
ATOM     53  C   UNL A   1      44.238  25.934  30.077  1.00  0.00     0.029 A 
ATOM     54  N   UNL A   1      42.954  27.435  31.095  1.00  0.00    -0.354 N 
ATOM     55  N   UNL A   1      42.252  29.296  33.262  1.00  0.00    -0.248 NA
ATOM     56  C   UNL A   1      42.587  30.115  35.426  1.00  0.00     0.031 C 
ATOM     57  C   UNL A   1      44.723  26.120  31.378  1.00  0.00     0.029 A 
ATOM     58  C   UNL A   1      43.940  27.077  32.004  1.00  0.00     0.049 A 
ATOM     59  H   UNL A   1      42.245  28.096  31.266  1.00  0.00     0.167 HD
ATOM     60  C   UNL A   1      43.319  28.622  33.845  1.00  0.00     0.074 A 
ATOM     61  C   UNL A   1      43.496  29.186  35.167  1.00  0.00     0.031 C 
ATOM     62  C   UNL A   1      44.084  27.626  33.332  1.00  0.00     0.034 A 
BRANCH  49  63
ATOM     63  C   UNL A   1      42.486  25.896  27.593  1.00  0.00     0.023 A 
ATOM     64  C   UNL A   1      41.949  24.598  27.541  1.00  0.00     0.031 A 
ATOM     65  C   UNL A   1      43.275  26.327  26.511  1.00  0.00     0.131 A 
ATOM     66  C   UNL A   1      42.253  23.759  26.456  1.00  0.00     0.055 A 
ATOM     67  C   UNL A   1      43.515  25.512  25.403  1.00  0.00     0.041 A 
ATOM     68  F   UNL A   1      43.832  27.548  26.515  1.00  0.00    -0.206 F 
ATOM     69  C   UNL A   1      43.013  24.216  25.376  1.00  0.00     0.022 A 
BRANCH  66  70
ATOM     70  S   UNL A   1      41.735  22.020  26.523  1.00  0.00     0.124 S 
ATOM     71  O   UNL A   1      42.238  21.606  27.831  1.00  0.00    -0.237 OA
ATOM     72  O   UNL A   1      40.284  22.117  26.398  1.00  0.00    -0.237 OA
ATOM     73  O   UNL A   1      42.419  21.413  25.383  1.00  0.00    -0.744 OA
ENDBRANCH  66  70
ENDBRANCH  49  63
BRANCH  50  74
ATOM     74  C   UNL A   1      40.330  31.974  35.257  1.00  0.00     0.023 A 
ATOM     75  C   UNL A   1      39.341  31.554  36.158  1.00  0.00     0.031 A 
ATOM     76  C   UNL A   1      40.946  33.219  35.482  1.00  0.00     0.131 A 
ATOM     77  C   UNL A   1      38.976  32.384  37.229  1.00  0.00     0.055 A 
ATOM     78  C   UNL A   1      40.617  34.017  36.577  1.00  0.00     0.041 A 
ATOM     79  F   UNL A   1      41.899  33.665  34.648  1.00  0.00    -0.206 F 
ATOM     80  C   UNL A   1      39.618  33.606  37.453  1.00  0.00     0.022 A 
BRANCH  77  81
ATOM     81  S   UNL A   1      37.594  31.879  38.289  1.00  0.00     0.124 S 
ATOM     82  O   UNL A   1      36.586  32.882  37.963  1.00  0.00    -0.237 OA
ATOM     83  O   UNL A   1      37.327  30.525  37.814  1.00  0.00    -0.237 OA
ATOM     84  O   UNL A   1      38.149  31.966  39.637  1.00  0.00    -0.744 OA
ENDBRANCH  77  81
ENDBRANCH  50  74
BRANCH  62  85
ATOM     85  C   UNL A   1      45.195  27.113  34.212  1.00  0.00     0.023 A 
ATOM     86  C   UNL A   1      44.995  26.040  35.098  1.00  0.00     0.031 A 
ATOM     87  C   UNL A   1      46.456  27.733  34.192  1.00  0.00     0.131 A 
ATOM     88  C   UNL A   1      46.024  25.654  35.969  1.00  0.00     0.055 A 
ATOM     89  C   UNL A   1      47.493  27.311  35.025  1.00  0.00     0.041 A 
ATOM     90  F   UNL A   1      46.698  28.764  33.367  1.00  0.00    -0.206 F 
ATOM     91  C   UNL A   1      47.277  26.275  35.929  1.00  0.00     0.022 A 
BRANCH  88  92
ATOM     92  S   UNL A   1      45.682  24.383  37.216  1.00  0.00     0.124 S 
ATOM     93  O   UNL A   1      44.397  24.820  37.751  1.00  0.00    -0.237 OA
ATOM     94  O   UNL A   1      45.658  23.160  36.420  1.00  0.00    -0.237 OA
ATOM     95  O   UNL A   1      46.809  24.495  38.140  1.00  0.00    -0.744 OA
ENDBRANCH  88  92
ENDBRANCH  62  85
ENDBRANCH  36  37
ENDBRANCH  29  31
ENDBRANCH  28  29
ENDBRANCH  27  28
ENDBRANCH   1  27
TORSDOF 18
ENDMDL
