MODEL 1
REMARK VINA RESULT:     -12.3      0.000      0.000
REMARK SMILES O=C(OCCOC(=O)c1ccc(-c2c3nc(c(-c4cc(S(=O)(=O)[O-])ccc4F)c4ccc([nH]4)c(-c4cc(S(=O)(=O)[O-])ccc4F)c4nc(c(-c5cc(S(=O)(=O)[O-])ccc5F)c5ccc2[nH]5)C=C4)C=C3)cc1)C1=Cc2cc(S(F)(F)(F)(F)F)ccc2O[C@@H]1C(F)(F)F
REMARK SMILES IDX 5 1 4 2 3 3 2 4 1 5 72 6 73 7 87 8 74 9 86 10 75 11 85 12
REMARK SMILES IDX 76 13 84 14 83 15 88 16 89 17 90 18 91 19 77 20 78 21 79 22
REMARK SMILES IDX 80 23 81 24 82 25 6 26 7 27 8 28 9 29 10 30 71 31 11 32
REMARK SMILES IDX 70 33 12 34 13 35 14 36 64 37 15 38 69 39 63 40 65 41 16 42
REMARK SMILES IDX 68 43 62 44 61 45 17 47 49 48 29 49 48 50 30 51 33 52 47 53
REMARK SMILES IDX 66 54 31 55 32 56 46 58 67 59 34 60 18 61 19 62 27 63 20 64
REMARK SMILES IDX 26 65 28 66 25 67 21 68 22 69 23 70 24 71 50 72 51 73 59 74
REMARK SMILES IDX 52 75 58 76 60 77 57 78 53 79 54 80 55 81 56 82 35 83 36 84
REMARK SMILES IDX 44 85 37 86 43 87 45 88 42 89 38 90 39 91 40 92 41 93
REMARK H PARENT 65 46 33 57
REMARK Flexibility Score: inf
ROOT
ATOM      1  C   UNL A   1      31.866  30.101  26.402  1.00  0.00     0.275 C 
ENDROOT
BRANCH   1   2
ATOM      2  C   UNL A   1      31.827  28.770  27.139  1.00  0.00     0.275 C 
BRANCH   2   3
ATOM      3  O   UNL A   1      31.799  27.708  26.196  1.00  0.00    -0.459 OA
BRANCH   3   4
ATOM      4  C   UNL A   1      33.003  27.272  25.582  1.00  0.00     0.338 C 
ATOM      5  O   UNL A   1      34.093  27.291  26.235  1.00  0.00    -0.246 OA
BRANCH   4   6
ATOM      6  C   UNL A   1      32.987  26.783  24.143  1.00  0.00     0.087 C 
ATOM      7  C   UNL A   1      33.422  25.528  23.846  1.00  0.00     0.027 C 
ATOM      8  C   UNL A   1      32.486  27.695  23.035  1.00  0.00     0.316 C 
ATOM      9  C   UNL A   1      33.923  24.615  24.953  1.00  0.00     0.019 A 
ATOM     10  O   UNL A   1      32.184  25.426  26.356  1.00  0.00    -0.475 OA
ATOM     11  C   UNL A   1      35.055  23.851  24.726  1.00  0.00     0.036 A 
ATOM     12  C   UNL A   1      33.242  24.517  26.088  1.00  0.00     0.128 A 
ATOM     13  C   UNL A   1      35.226  22.791  25.648  1.00  0.00     0.107 A 
ATOM     14  C   UNL A   1      33.551  23.543  27.007  1.00  0.00     0.048 A 
ATOM     15  C   UNL A   1      34.621  22.713  26.819  1.00  0.00     0.028 A 
BRANCH   8  16
ATOM     16  C   UNL A   1      31.295  27.048  22.345  1.00  0.00     0.430 C 
ATOM     17  F   UNL A   1      30.461  27.993  21.923  1.00  0.00    -0.167 F 
ATOM     18  F   UNL A   1      31.720  26.335  21.306  1.00  0.00    -0.167 F 
ATOM     19  F   UNL A   1      30.665  26.251  23.203  1.00  0.00    -0.167 F 
ENDBRANCH   8  16
BRANCH  13  20
ATOM     20  S   UNL A   1      36.353  21.451  25.190  1.00  0.00     0.310 S 
ATOM     21  F   UNL A   1      36.829  22.216  23.884  1.00  0.00    -0.094 F 
ATOM     22  F   UNL A   1      35.201  20.822  24.318  1.00  0.00    -0.094 F 
ATOM     23  F   UNL A   1      37.320  20.299  24.795  1.00  0.00    -0.094 F 
ATOM     24  F   UNL A   1      37.536  22.169  25.953  1.00  0.00    -0.094 F 
ATOM     25  F   UNL A   1      35.418  22.685  25.507  1.00  0.00    -0.094 F 
ENDBRANCH  13  20
ENDBRANCH   4   6
ENDBRANCH   3   4
ENDBRANCH   2   3
ENDBRANCH   1   2
BRANCH   1  26
ATOM     26  O   UNL A   1      33.212  30.537  26.286  1.00  0.00    -0.458 OA
BRANCH  26  27
ATOM     27  C   UNL A   1      33.777  31.370  27.290  1.00  0.00     0.338 C 
ATOM     28  O   UNL A   1      33.186  32.439  27.634  1.00  0.00    -0.246 OA
BRANCH  27  29
ATOM     29  C   UNL A   1      35.089  30.978  27.951  1.00  0.00     0.060 A 
ATOM     30  C   UNL A   1      35.208  29.684  28.429  1.00  0.00     0.016 A 
ATOM     31  C   UNL A   1      36.114  31.822  27.984  1.00  0.00     0.016 A 
ATOM     32  C   UNL A   1      36.377  29.460  29.193  1.00  0.00     0.010 A 
ATOM     33  C   UNL A   1      37.276  31.485  28.633  1.00  0.00     0.010 A 
ATOM     34  C   UNL A   1      37.441  30.243  29.181  1.00  0.00    -0.014 A 
BRANCH  34  35
ATOM     35  C   UNL A   1      38.777  29.787  29.744  1.00  0.00     0.031 A 
ATOM     36  C   UNL A   1      39.502  28.804  29.069  1.00  0.00     0.074 A 
ATOM     37  C   UNL A   1      39.134  30.299  30.980  1.00  0.00     0.049 A 
ATOM     38  N   UNL A   1      40.641  28.224  29.453  1.00  0.00    -0.248 NA
ATOM     39  C   UNL A   1      39.107  28.234  27.772  1.00  0.00     0.031 C 
ATOM     40  C   UNL A   1      38.412  31.297  31.664  1.00  0.00     0.029 A 
ATOM     41  N   UNL A   1      40.216  29.953  31.759  1.00  0.00    -0.354 N 
ATOM     42  C   UNL A   1      41.043  27.344  28.533  1.00  0.00     0.074 A 
ATOM     43  C   UNL A   1      40.059  27.333  27.442  1.00  0.00     0.031 C 
ATOM     44  C   UNL A   1      39.044  31.541  32.842  1.00  0.00     0.029 A 
ATOM     45  C   UNL A   1      40.171  30.700  32.915  1.00  0.00     0.049 A 
ATOM     46  H   UNL A   1      40.903  29.287  31.528  1.00  0.00     0.167 HD
ATOM     47  C   UNL A   1      42.192  26.552  28.562  1.00  0.00     0.034 A 
ATOM     48  C   UNL A   1      41.052  30.663  33.984  1.00  0.00     0.034 A 
ATOM     49  C   UNL A   1      43.096  26.547  29.611  1.00  0.00     0.049 A 
ATOM     50  C   UNL A   1      42.171  29.828  34.038  1.00  0.00     0.074 A 
ATOM     51  C   UNL A   1      44.263  25.760  29.651  1.00  0.00     0.029 A 
ATOM     52  N   UNL A   1      43.038  27.276  30.779  1.00  0.00    -0.354 N 
ATOM     53  N   UNL A   1      42.593  28.978  33.101  1.00  0.00    -0.248 NA
ATOM     54  C   UNL A   1      43.093  29.757  35.179  1.00  0.00     0.031 C 
ATOM     55  C   UNL A   1      44.895  26.004  30.831  1.00  0.00     0.029 A 
ATOM     56  C   UNL A   1      44.132  26.946  31.547  1.00  0.00     0.049 A 
ATOM     57  H   UNL A   1      42.335  27.921  31.022  1.00  0.00     0.167 HD
ATOM     58  C   UNL A   1      43.709  28.368  33.505  1.00  0.00     0.074 A 
ATOM     59  C   UNL A   1      44.043  28.855  34.850  1.00  0.00     0.031 C 
ATOM     60  C   UNL A   1      44.466  27.427  32.803  1.00  0.00     0.034 A 
BRANCH  47  61
ATOM     61  C   UNL A   1      42.466  25.643  27.374  1.00  0.00     0.023 A 
ATOM     62  C   UNL A   1      41.889  24.391  27.238  1.00  0.00     0.031 A 
ATOM     63  C   UNL A   1      43.262  26.141  26.436  1.00  0.00     0.131 A 
ATOM     64  C   UNL A   1      42.448  23.612  26.197  1.00  0.00     0.055 A 
ATOM     65  C   UNL A   1      43.660  25.364  25.373  1.00  0.00     0.041 A 
ATOM     66  F   UNL A   1      43.678  27.401  26.524  1.00  0.00    -0.206 F 
ATOM     67  C   UNL A   1      43.176  24.097  25.208  1.00  0.00     0.022 A 
BRANCH  64  68
ATOM     68  S   UNL A   1      42.145  21.829  26.224  1.00  0.00     0.124 S 
ATOM     69  O   UNL A   1      40.699  21.550  25.808  1.00  0.00    -0.237 OA
ATOM     70  O   UNL A   1      43.099  21.134  25.249  1.00  0.00    -0.237 OA
ATOM     71  O   UNL A   1      42.409  21.230  27.804  1.00  0.00    -0.744 OA
ENDBRANCH  64  68
ENDBRANCH  47  61
BRANCH  48  72
ATOM     72  C   UNL A   1      40.786  31.583  35.164  1.00  0.00     0.023 A 
ATOM     73  C   UNL A   1      39.874  31.244  36.149  1.00  0.00     0.031 A 
ATOM     74  C   UNL A   1      41.401  32.760  35.171  1.00  0.00     0.131 A 
ATOM     75  C   UNL A   1      39.457  32.337  36.946  1.00  0.00     0.055 A 
ATOM     76  C   UNL A   1      41.035  33.736  36.067  1.00  0.00     0.041 A 
ATOM     77  F   UNL A   1      42.380  32.997  34.302  1.00  0.00    -0.206 F 
ATOM     78  C   UNL A   1      40.097  33.489  37.030  1.00  0.00     0.022 A 
BRANCH  75  79
ATOM     79  S   UNL A   1      37.942  32.142  37.917  1.00  0.00     0.124 S 
ATOM     80  O   UNL A   1      37.390  30.728  37.723  1.00  0.00    -0.237 OA
ATOM     81  O   UNL A   1      38.252  32.370  39.398  1.00  0.00    -0.237 OA
ATOM     82  O   UNL A   1      36.780  33.284  37.396  1.00  0.00    -0.744 OA
ENDBRANCH  75  79
ENDBRANCH  48  72
BRANCH  60  83
ATOM     83  C   UNL A   1      45.732  26.898  33.457  1.00  0.00     0.023 A 
ATOM     84  C   UNL A   1      45.622  25.721  34.179  1.00  0.00     0.031 A 
ATOM     85  C   UNL A   1      46.911  27.473  33.251  1.00  0.00     0.131 A 
ATOM     86  C   UNL A   1      46.794  25.375  34.893  1.00  0.00     0.055 A 
ATOM     87  C   UNL A   1      48.039  26.998  33.876  1.00  0.00     0.041 A 
ATOM     88  F   UNL A   1      47.002  28.516  32.431  1.00  0.00    -0.206 F 
ATOM     89  C   UNL A   1      47.992  25.873  34.652  1.00  0.00     0.022 A 
BRANCH  86  90
ATOM     90  S   UNL A   1      46.638  24.167  36.232  1.00  0.00     0.124 S 
ATOM     91  O   UNL A   1      47.195  24.764  37.526  1.00  0.00    -0.237 OA
ATOM     92  O   UNL A   1      45.162  23.811  36.427  1.00  0.00    -0.237 OA
ATOM     93  O   UNL A   1      47.516  22.755  35.831  1.00  0.00    -0.744 OA
ENDBRANCH  86  90
ENDBRANCH  60  83
ENDBRANCH  34  35
ENDBRANCH  27  29
ENDBRANCH  26  27
ENDBRANCH   1  26
TORSDOF 16
ENDMDL
MODEL 2
REMARK VINA RESULT:     -12.2      1.774      2.215
REMARK SMILES O=C(OCCOC(=O)c1ccc(-c2c3nc(c(-c4cc(S(=O)(=O)[O-])ccc4F)c4ccc([nH]4)c(-c4cc(S(=O)(=O)[O-])ccc4F)c4nc(c(-c5cc(S(=O)(=O)[O-])ccc5F)c5ccc2[nH]5)C=C4)C=C3)cc1)C1=Cc2cc(S(F)(F)(F)(F)F)ccc2O[C@@H]1C(F)(F)F
REMARK SMILES IDX 5 1 4 2 3 3 2 4 1 5 72 6 73 7 87 8 74 9 86 10 75 11 85 12
REMARK SMILES IDX 76 13 84 14 83 15 88 16 89 17 90 18 91 19 77 20 78 21 79 22
REMARK SMILES IDX 80 23 81 24 82 25 6 26 7 27 8 28 9 29 10 30 71 31 11 32
REMARK SMILES IDX 70 33 12 34 13 35 14 36 64 37 15 38 69 39 63 40 65 41 16 42
REMARK SMILES IDX 68 43 62 44 61 45 17 47 49 48 29 49 48 50 30 51 33 52 47 53
REMARK SMILES IDX 66 54 31 55 32 56 46 58 67 59 34 60 18 61 19 62 27 63 20 64
REMARK SMILES IDX 26 65 28 66 25 67 21 68 22 69 23 70 24 71 50 72 51 73 59 74
REMARK SMILES IDX 52 75 58 76 60 77 57 78 53 79 54 80 55 81 56 82 35 83 36 84
REMARK SMILES IDX 44 85 37 86 43 87 45 88 42 89 38 90 39 91 40 92 41 93
REMARK H PARENT 65 46 33 57
REMARK Flexibility Score: inf
ROOT
ATOM      1  C   UNL A   1      33.029  30.206  26.391  1.00  0.00     0.275 C 
ENDROOT
BRANCH   1   2
ATOM      2  C   UNL A   1      33.768  28.879  26.305  1.00  0.00     0.275 C 
BRANCH   2   3
ATOM      3  O   UNL A   1      32.995  27.866  26.933  1.00  0.00    -0.459 OA
BRANCH   3   4
ATOM      4  C   UNL A   1      31.860  27.326  26.272  1.00  0.00     0.338 C 
ATOM      5  O   UNL A   1      30.824  27.014  26.940  1.00  0.00    -0.246 OA
BRANCH   4   6
ATOM      6  C   UNL A   1      31.884  27.123  24.766  1.00  0.00     0.087 C 
ATOM      7  C   UNL A   1      32.592  26.091  24.230  1.00  0.00     0.027 C 
ATOM      8  C   UNL A   1      31.116  28.071  23.859  1.00  0.00     0.316 C 
ATOM      9  C   UNL A   1      33.359  25.144  25.137  1.00  0.00     0.019 A 
ATOM     10  O   UNL A   1      31.556  25.225  26.683  1.00  0.00    -0.475 OA
ATOM     11  C   UNL A   1      34.628  24.739  24.757  1.00  0.00     0.036 A 
ATOM     12  C   UNL A   1      32.785  24.671  26.237  1.00  0.00     0.128 A 
ATOM     13  C   UNL A   1      35.101  23.604  25.457  1.00  0.00     0.107 A 
ATOM     14  C   UNL A   1      33.371  23.652  26.949  1.00  0.00     0.048 A 
ATOM     15  C   UNL A   1      34.598  23.162  26.595  1.00  0.00     0.028 A 
BRANCH   8  16
ATOM     16  C   UNL A   1      30.081  27.288  23.066  1.00  0.00     0.430 C 
ATOM     17  F   UNL A   1      29.709  26.217  23.761  1.00  0.00    -0.167 F 
ATOM     18  F   UNL A   1      29.022  28.059  22.837  1.00  0.00    -0.167 F 
ATOM     19  F   UNL A   1      30.609  26.903  21.908  1.00  0.00    -0.167 F 
ENDBRANCH   8  16
BRANCH  13  20
ATOM     20  S   UNL A   1      36.491  22.692  24.741  1.00  0.00     0.310 S 
ATOM     21  F   UNL A   1      36.407  23.510  23.384  1.00  0.00    -0.094 F 
ATOM     22  F   UNL A   1      35.462  21.678  24.113  1.00  0.00    -0.094 F 
ATOM     23  F   UNL A   1      37.684  21.909  24.123  1.00  0.00    -0.094 F 
ATOM     24  F   UNL A   1      37.496  23.796  25.258  1.00  0.00    -0.094 F 
ATOM     25  F   UNL A   1      35.284  23.560  25.277  1.00  0.00    -0.094 F 
ENDBRANCH  13  20
ENDBRANCH   4   6
ENDBRANCH   3   4
ENDBRANCH   2   3
ENDBRANCH   1   2
BRANCH   1  26
ATOM     26  O   UNL A   1      33.303  30.820  27.641  1.00  0.00    -0.458 OA
BRANCH  26  27
ATOM     27  C   UNL A   1      34.487  31.587  27.811  1.00  0.00     0.338 C 
ATOM     28  O   UNL A   1      34.467  32.840  27.602  1.00  0.00    -0.246 OA
BRANCH  27  29
ATOM     29  C   UNL A   1      35.777  30.908  28.245  1.00  0.00     0.060 A 
ATOM     30  C   UNL A   1      36.971  31.540  27.941  1.00  0.00     0.016 A 
ATOM     31  C   UNL A   1      35.750  29.795  28.968  1.00  0.00     0.016 A 
ATOM     32  C   UNL A   1      38.118  30.757  28.207  1.00  0.00     0.010 A 
ATOM     33  C   UNL A   1      36.917  29.154  29.307  1.00  0.00     0.010 A 
ATOM     34  C   UNL A   1      38.133  29.692  28.989  1.00  0.00    -0.014 A 
BRANCH  34  35
ATOM     35  C   UNL A   1      39.432  29.096  29.506  1.00  0.00     0.031 A 
ATOM     36  C   UNL A   1      39.975  27.983  28.862  1.00  0.00     0.074 A 
ATOM     37  C   UNL A   1      39.935  29.634  30.678  1.00  0.00     0.049 A 
ATOM     38  N   UNL A   1      41.051  27.281  29.221  1.00  0.00    -0.248 NA
ATOM     39  C   UNL A   1      39.423  27.389  27.635  1.00  0.00     0.031 C 
ATOM     40  C   UNL A   1      39.398  30.762  31.329  1.00  0.00     0.029 A 
ATOM     41  N   UNL A   1      41.012  29.196  31.416  1.00  0.00    -0.354 N 
ATOM     42  C   UNL A   1      41.272  26.297  28.346  1.00  0.00     0.074 A 
ATOM     43  C   UNL A   1      40.224  26.349  27.317  1.00  0.00     0.031 C 
ATOM     44  C   UNL A   1      40.133  30.994  32.448  1.00  0.00     0.029 A 
ATOM     45  C   UNL A   1      41.143  30.014  32.515  1.00  0.00     0.049 A 
ATOM     46  H   UNL A   1      41.589  28.429  31.195  1.00  0.00     0.167 HD
ATOM     47  C   UNL A   1      42.307  25.360  28.365  1.00  0.00     0.034 A 
ATOM     48  C   UNL A   1      42.081  29.927  33.532  1.00  0.00     0.034 A 
ATOM     49  C   UNL A   1      43.271  25.300  29.358  1.00  0.00     0.049 A 
ATOM     50  C   UNL A   1      43.082  28.953  33.582  1.00  0.00     0.074 A 
ATOM     51  C   UNL A   1      44.325  24.367  29.388  1.00  0.00     0.029 A 
ATOM     52  N   UNL A   1      43.387  26.104  30.472  1.00  0.00    -0.354 N 
ATOM     53  N   UNL A   1      43.325  27.995  32.687  1.00  0.00    -0.248 NA
ATOM     54  C   UNL A   1      44.061  28.832  34.670  1.00  0.00     0.031 C 
ATOM     55  C   UNL A   1      45.061  24.598  30.508  1.00  0.00     0.029 A 
ATOM     56  C   UNL A   1      44.478  25.679  31.197  1.00  0.00     0.049 A 
ATOM     57  H   UNL A   1      42.792  26.852  30.707  1.00  0.00     0.167 HD
ATOM     58  C   UNL A   1      44.377  27.268  33.068  1.00  0.00     0.074 A 
ATOM     59  C   UNL A   1      44.860  27.790  34.353  1.00  0.00     0.031 C 
ATOM     60  C   UNL A   1      44.955  26.190  32.394  1.00  0.00     0.034 A 
BRANCH  47  61
ATOM     61  C   UNL A   1      42.379  24.348  27.233  1.00  0.00     0.023 A 
ATOM     62  C   UNL A   1      41.659  23.164  27.236  1.00  0.00     0.031 A 
ATOM     63  C   UNL A   1      43.144  24.687  26.202  1.00  0.00     0.131 A 
ATOM     64  C   UNL A   1      42.041  22.259  26.218  1.00  0.00     0.055 A 
ATOM     65  C   UNL A   1      43.364  23.801  25.174  1.00  0.00     0.041 A 
ATOM     66  F   UNL A   1      43.701  25.894  26.162  1.00  0.00    -0.206 F 
ATOM     67  C   UNL A   1      42.732  22.589  25.143  1.00  0.00     0.022 A 
BRANCH  64  68
ATOM     68  S   UNL A   1      41.548  20.528  26.404  1.00  0.00     0.124 S 
ATOM     69  O   UNL A   1      41.881  20.051  27.819  1.00  0.00    -0.237 OA
ATOM     70  O   UNL A   1      40.042  20.397  26.163  1.00  0.00    -0.237 OA
ATOM     71  O   UNL A   1      42.391  19.570  25.265  1.00  0.00    -0.744 OA
ENDBRANCH  64  68
ENDBRANCH  47  61
BRANCH  48  72
ATOM     72  C   UNL A   1      42.018  30.948  34.656  1.00  0.00     0.023 A 
ATOM     73  C   UNL A   1      41.020  30.901  35.616  1.00  0.00     0.031 A 
ATOM     74  C   UNL A   1      42.906  31.935  34.634  1.00  0.00     0.131 A 
ATOM     75  C   UNL A   1      40.865  32.105  36.342  1.00  0.00     0.055 A 
ATOM     76  C   UNL A   1      42.768  33.019  35.468  1.00  0.00     0.041 A 
ATOM     77  F   UNL A   1      43.938  31.874  33.798  1.00  0.00    -0.206 F 
ATOM     78  C   UNL A   1      41.769  33.067  36.400  1.00  0.00     0.022 A 
BRANCH  75  79
ATOM     79  S   UNL A   1      39.321  32.346  37.255  1.00  0.00     0.124 S 
ATOM     80  O   UNL A   1      39.626  32.467  38.749  1.00  0.00    -0.237 OA
ATOM     81  O   UNL A   1      38.636  33.626  36.769  1.00  0.00    -0.237 OA
ATOM     82  O   UNL A   1      38.287  31.010  36.990  1.00  0.00    -0.744 OA
ENDBRANCH  75  79
ENDBRANCH  48  72
BRANCH  60  83
ATOM     83  C   UNL A   1      46.182  25.537  33.010  1.00  0.00     0.023 A 
ATOM     84  C   UNL A   1      47.418  26.009  32.599  1.00  0.00     0.031 A 
ATOM     85  C   UNL A   1      46.075  24.639  33.982  1.00  0.00     0.131 A 
ATOM     86  C   UNL A   1      48.510  25.251  33.085  1.00  0.00     0.055 A 
ATOM     87  C   UNL A   1      47.194  24.037  34.504  1.00  0.00     0.041 A 
ATOM     88  F   UNL A   1      44.874  24.319  34.455  1.00  0.00    -0.206 F 
ATOM     89  C   UNL A   1      48.446  24.412  34.102  1.00  0.00     0.022 A 
BRANCH  86  90
ATOM     90  S   UNL A   1      50.106  25.446  32.252  1.00  0.00     0.124 S 
ATOM     91  O   UNL A   1      50.660  26.844  32.532  1.00  0.00    -0.237 OA
ATOM     92  O   UNL A   1      51.085  24.393  32.776  1.00  0.00    -0.237 OA
ATOM     93  O   UNL A   1      49.897  25.241  30.567  1.00  0.00    -0.744 OA
ENDBRANCH  86  90
ENDBRANCH  60  83
ENDBRANCH  34  35
ENDBRANCH  27  29
ENDBRANCH  26  27
ENDBRANCH   1  26
TORSDOF 16
ENDMDL
MODEL 3
REMARK VINA RESULT:     -12.1      4.650      9.492
REMARK SMILES O=C(OCCOC(=O)c1ccc(-c2c3nc(c(-c4cc(S(=O)(=O)[O-])ccc4F)c4ccc([nH]4)c(-c4cc(S(=O)(=O)[O-])ccc4F)c4nc(c(-c5cc(S(=O)(=O)[O-])ccc5F)c5ccc2[nH]5)C=C4)C=C3)cc1)C1=Cc2cc(S(F)(F)(F)(F)F)ccc2O[C@@H]1C(F)(F)F
REMARK SMILES IDX 5 1 4 2 3 3 2 4 1 5 72 6 73 7 87 8 74 9 86 10 75 11 85 12
REMARK SMILES IDX 76 13 84 14 83 15 88 16 89 17 90 18 91 19 77 20 78 21 79 22
REMARK SMILES IDX 80 23 81 24 82 25 6 26 7 27 8 28 9 29 10 30 71 31 11 32
REMARK SMILES IDX 70 33 12 34 13 35 14 36 64 37 15 38 69 39 63 40 65 41 16 42
REMARK SMILES IDX 68 43 62 44 61 45 17 47 49 48 29 49 48 50 30 51 33 52 47 53
REMARK SMILES IDX 66 54 31 55 32 56 46 58 67 59 34 60 18 61 19 62 27 63 20 64
REMARK SMILES IDX 26 65 28 66 25 67 21 68 22 69 23 70 24 71 50 72 51 73 59 74
REMARK SMILES IDX 52 75 58 76 60 77 57 78 53 79 54 80 55 81 56 82 35 83 36 84
REMARK SMILES IDX 44 85 37 86 43 87 45 88 42 89 38 90 39 91 40 92 41 93
REMARK H PARENT 65 46 33 57
REMARK Flexibility Score: inf
ROOT
ATOM      1  C   UNL A   1      38.080  21.879  25.279  1.00  0.00     0.275 C 
ENDROOT
BRANCH   1   2
ATOM      2  C   UNL A   1      36.996  22.835  25.752  1.00  0.00     0.275 C 
BRANCH   2   3
ATOM      3  O   UNL A   1      36.463  23.536  24.638  1.00  0.00    -0.459 OA
BRANCH   3   4
ATOM      4  C   UNL A   1      35.437  22.946  23.853  1.00  0.00     0.338 C 
ATOM      5  O   UNL A   1      35.537  22.928  22.586  1.00  0.00    -0.246 OA
BRANCH   4   6
ATOM      6  C   UNL A   1      34.219  22.337  24.528  1.00  0.00     0.087 C 
ATOM      7  C   UNL A   1      33.269  23.144  25.074  1.00  0.00     0.027 C 
ATOM      8  C   UNL A   1      34.063  20.826  24.593  1.00  0.00     0.316 C 
ATOM      9  C   UNL A   1      33.425  24.654  25.008  1.00  0.00     0.019 A 
ATOM     10  O   UNL A   1      34.272  24.432  22.799  1.00  0.00    -0.475 OA
ATOM     11  C   UNL A   1      33.107  25.406  26.127  1.00  0.00     0.036 A 
ATOM     12  C   UNL A   1      33.799  25.232  23.873  1.00  0.00     0.128 A 
ATOM     13  C   UNL A   1      32.935  26.785  25.861  1.00  0.00     0.107 A 
ATOM     14  C   UNL A   1      33.734  26.596  23.729  1.00  0.00     0.048 A 
ATOM     15  C   UNL A   1      33.370  27.398  24.776  1.00  0.00     0.028 A 
BRANCH   8  16
ATOM     16  C   UNL A   1      32.782  20.417  23.882  1.00  0.00     0.430 C 
ATOM     17  F   UNL A   1      32.893  19.162  23.459  1.00  0.00    -0.167 F 
ATOM     18  F   UNL A   1      31.758  20.513  24.725  1.00  0.00    -0.167 F 
ATOM     19  F   UNL A   1      32.578  21.221  22.842  1.00  0.00    -0.167 F 
ENDBRANCH   8  16
BRANCH  13  20
ATOM     20  S   UNL A   1      32.057  27.777  27.094  1.00  0.00     0.310 S 
ATOM     21  F   UNL A   1      31.827  28.962  26.065  1.00  0.00    -0.094 F 
ATOM     22  F   UNL A   1      33.425  28.462  27.472  1.00  0.00    -0.094 F 
ATOM     23  F   UNL A   1      31.304  28.631  28.153  1.00  0.00    -0.094 F 
ATOM     24  F   UNL A   1      30.677  27.183  26.605  1.00  0.00    -0.094 F 
ATOM     25  F   UNL A   1      32.790  26.986  25.938  1.00  0.00    -0.094 F 
ENDBRANCH  13  20
ENDBRANCH   4   6
ENDBRANCH   3   4
ENDBRANCH   2   3
ENDBRANCH   1   2
BRANCH   1  26
ATOM     26  O   UNL A   1      38.936  21.561  26.366  1.00  0.00    -0.458 OA
BRANCH  26  27
ATOM     27  C   UNL A   1      40.252  22.095  26.413  1.00  0.00     0.338 C 
ATOM     28  O   UNL A   1      41.232  21.408  25.987  1.00  0.00    -0.246 OA
BRANCH  27  29
ATOM     29  C   UNL A   1      40.486  23.490  26.972  1.00  0.00     0.060 A 
ATOM     30  C   UNL A   1      41.258  23.603  28.116  1.00  0.00     0.016 A 
ATOM     31  C   UNL A   1      40.040  24.564  26.331  1.00  0.00     0.016 A 
ATOM     32  C   UNL A   1      41.267  24.904  28.674  1.00  0.00     0.010 A 
ATOM     33  C   UNL A   1      40.202  25.817  26.870  1.00  0.00     0.010 A 
ATOM     34  C   UNL A   1      40.905  25.998  28.029  1.00  0.00    -0.014 A 
BRANCH  34  35
ATOM     35  C   UNL A   1      41.250  27.384  28.548  1.00  0.00     0.031 A 
ATOM     36  C   UNL A   1      40.219  28.260  28.890  1.00  0.00     0.074 A 
ATOM     37  C   UNL A   1      42.589  27.736  28.529  1.00  0.00     0.049 A 
ATOM     38  N   UNL A   1      40.326  29.532  29.278  1.00  0.00    -0.248 NA
ATOM     39  C   UNL A   1      38.793  27.899  28.877  1.00  0.00     0.031 C 
ATOM     40  C   UNL A   1      43.637  26.855  28.194  1.00  0.00     0.029 A 
ATOM     41  N   UNL A   1      43.146  28.961  28.821  1.00  0.00    -0.354 N 
ATOM     42  C   UNL A   1      39.119  30.039  29.538  1.00  0.00     0.074 A 
ATOM     43  C   UNL A   1      38.115  28.998  29.278  1.00  0.00     0.031 C 
ATOM     44  C   UNL A   1      44.806  27.543  28.271  1.00  0.00     0.029 A 
ATOM     45  C   UNL A   1      44.510  28.864  28.656  1.00  0.00     0.049 A 
ATOM     46  H   UNL A   1      42.654  29.767  29.098  1.00  0.00     0.167 HD
ATOM     47  C   UNL A   1      38.816  31.327  29.984  1.00  0.00     0.034 A 
ATOM     48  C   UNL A   1      45.458  29.861  28.825  1.00  0.00     0.034 A 
ATOM     49  C   UNL A   1      39.769  32.310  30.195  1.00  0.00     0.049 A 
ATOM     50  C   UNL A   1      45.149  31.167  29.215  1.00  0.00     0.074 A 
ATOM     51  C   UNL A   1      39.481  33.611  30.652  1.00  0.00     0.029 A 
ATOM     52  N   UNL A   1      41.131  32.221  30.006  1.00  0.00    -0.354 N 
ATOM     53  N   UNL A   1      43.947  31.660  29.512  1.00  0.00    -0.248 NA
ATOM     54  C   UNL A   1      46.142  32.239  29.366  1.00  0.00     0.031 C 
ATOM     55  C   UNL A   1      40.651  34.299  30.727  1.00  0.00     0.029 A 
ATOM     56  C   UNL A   1      41.689  33.439  30.320  1.00  0.00     0.049 A 
ATOM     57  H   UNL A   1      41.619  31.423  29.700  1.00  0.00     0.167 HD
ATOM     58  C   UNL A   1      44.052  32.944  29.861  1.00  0.00     0.074 A 
ATOM     59  C   UNL A   1      45.464  33.337  29.764  1.00  0.00     0.031 C 
ATOM     60  C   UNL A   1      43.025  33.804  30.259  1.00  0.00     0.034 A 
BRANCH  47  61
ATOM     61  C   UNL A   1      37.359  31.669  30.252  1.00  0.00     0.023 A 
ATOM     62  C   UNL A   1      36.457  31.956  29.240  1.00  0.00     0.031 A 
ATOM     63  C   UNL A   1      36.980  31.630  31.523  1.00  0.00     0.131 A 
ATOM     64  C   UNL A   1      35.225  32.477  29.702  1.00  0.00     0.055 A 
ATOM     65  C   UNL A   1      35.714  32.025  31.887  1.00  0.00     0.041 A 
ATOM     66  F   UNL A   1      37.831  31.206  32.453  1.00  0.00    -0.206 F 
ATOM     67  C   UNL A   1      34.790  32.379  30.944  1.00  0.00     0.022 A 
BRANCH  64  68
ATOM     68  S   UNL A   1      34.174  33.336  28.506  1.00  0.00     0.124 S 
ATOM     69  O   UNL A   1      33.235  34.292  29.246  1.00  0.00    -0.237 OA
ATOM     70  O   UNL A   1      35.050  34.132  27.535  1.00  0.00    -0.237 OA
ATOM     71  O   UNL A   1      33.251  32.192  27.633  1.00  0.00    -0.744 OA
ENDBRANCH  64  68
ENDBRANCH  47  61
BRANCH  48  72
ATOM     72  C   UNL A   1      46.916  29.514  28.572  1.00  0.00     0.023 A 
ATOM     73  C   UNL A   1      47.413  29.391  27.285  1.00  0.00     0.031 A 
ATOM     74  C   UNL A   1      47.673  29.252  29.631  1.00  0.00     0.131 A 
ATOM     75  C   UNL A   1      48.646  28.701  27.211  1.00  0.00     0.055 A 
ATOM     76  C   UNL A   1      48.925  28.704  29.479  1.00  0.00     0.041 A 
ATOM     77  F   UNL A   1      47.217  29.524  30.851  1.00  0.00    -0.206 F 
ATOM     78  C   UNL A   1      49.455  28.499  28.236  1.00  0.00     0.022 A 
BRANCH  75  79
ATOM     79  S   UNL A   1      49.151  28.050  25.599  1.00  0.00     0.124 S 
ATOM     80  O   UNL A   1      49.473  26.559  25.729  1.00  0.00    -0.237 OA
ATOM     81  O   UNL A   1      48.014  28.240  24.593  1.00  0.00    -0.237 OA
ATOM     82  O   UNL A   1      50.540  28.887  25.055  1.00  0.00    -0.744 OA
ENDBRANCH  75  79
ENDBRANCH  48  72
BRANCH  60  83
ATOM     83  C   UNL A   1      43.396  35.225  30.650  1.00  0.00     0.023 A 
ATOM     84  C   UNL A   1      43.652  35.463  31.990  1.00  0.00     0.031 A 
ATOM     85  C   UNL A   1      43.581  36.170  29.735  1.00  0.00     0.131 A 
ATOM     86  C   UNL A   1      43.828  36.831  32.306  1.00  0.00     0.055 A 
ATOM     87  C   UNL A   1      43.884  37.456  30.110  1.00  0.00     0.041 A 
ATOM     88  F   UNL A   1      43.471  35.869  28.444  1.00  0.00    -0.206 F 
ATOM     89  C   UNL A   1      44.093  37.775  31.423  1.00  0.00     0.022 A 
BRANCH  86  90
ATOM     90  S   UNL A   1      43.678  37.320  34.043  1.00  0.00     0.124 S 
ATOM     91  O   UNL A   1      42.765  38.543  34.152  1.00  0.00    -0.237 OA
ATOM     92  O   UNL A   1      43.081  36.162  34.848  1.00  0.00    -0.237 OA
ATOM     93  O   UNL A   1      45.225  37.706  34.662  1.00  0.00    -0.744 OA
ENDBRANCH  86  90
ENDBRANCH  60  83
ENDBRANCH  34  35
ENDBRANCH  27  29
ENDBRANCH  26  27
ENDBRANCH   1  26
TORSDOF 16
ENDMDL
