MODEL 1
REMARK VINA RESULT:     -10.8      0.000      0.000
REMARK SMILES CCC(CC)(C(=O)OCCOC(=O)c1ccc(-c2c3nc(c(-c4cc(S(=O)(=O)[O-])ccc4F)c4ccc([nH]4)c(-c4cc(S(=O)(=O)[O-])ccc4F)c4nc(c(-c5cc(S(=O)(=O)[O-])ccc5F)c5ccc2[nH]5)C=C4)C=C3)cc1)n1nnnc1C[C@@H](C)C(C)(C)C
REMARK SMILES IDX 9 1 8 2 6 3 7 4 3 5 2 6 1 7 4 8 5 9 77 10 78 11 81 12 79 13
REMARK SMILES IDX 80 14 82 15 83 16 84 17 85 18 86 19 87 20 88 21 10 22 11 23
REMARK SMILES IDX 12 24 13 25 14 26 15 27 76 28 16 29 75 30 17 31 18 32 19 33
REMARK SMILES IDX 69 34 20 35 74 36 68 37 70 38 21 39 73 40 67 41 66 42 22 44
REMARK SMILES IDX 54 45 34 46 53 47 35 48 38 49 52 50 71 51 36 52 37 53 51 55
REMARK SMILES IDX 72 56 39 57 23 58 24 59 32 60 25 61 31 62 33 63 30 64 26 65
REMARK SMILES IDX 27 66 28 67 29 68 55 69 56 70 64 71 57 72 63 73 65 74 62 75
REMARK SMILES IDX 58 76 59 77 60 78 61 79 40 80 41 81 49 82 42 83 48 84 50 85
REMARK SMILES IDX 47 86 43 87 44 88 45 89 46 90
REMARK H PARENT 70 43 38 54
REMARK Flexibility Score: inf
ROOT
ATOM      1  C   UNL A   1      36.360  22.493  23.641  1.00  0.00     0.274 C 
ENDROOT
BRANCH   1   2
ATOM      2  O   UNL A   1      34.991  22.777  23.298  1.00  0.00    -0.460 OA
BRANCH   2   3
ATOM      3  C   UNL A   1      34.282  23.552  24.170  1.00  0.00     0.334 C 
ATOM      4  O   UNL A   1      34.817  24.288  24.992  1.00  0.00    -0.249 OA
BRANCH   3   5
ATOM      5  C   UNL A   1      32.731  23.300  24.068  1.00  0.00     0.163 C 
BRANCH   5   6
ATOM      6  C   UNL A   1      32.200  24.112  22.832  1.00  0.00     0.039 C 
ATOM      7  C   UNL A   1      33.126  25.026  22.044  1.00  0.00     0.007 C 
ENDBRANCH   5   6
BRANCH   5   8
ATOM      8  C   UNL A   1      32.596  21.761  23.905  1.00  0.00     0.039 C 
ATOM      9  C   UNL A   1      32.032  21.304  22.561  1.00  0.00     0.007 C 
ENDBRANCH   5   8
BRANCH   5  10
ATOM     10  N   UNL A   1      32.112  23.706  25.343  1.00  0.00    -0.212 N 
ATOM     11  N   UNL A   1      31.768  22.746  26.231  1.00  0.00    -0.044 NA
ATOM     12  C   UNL A   1      31.723  24.927  25.870  1.00  0.00     0.152 A 
ATOM     13  N   UNL A   1      31.291  23.367  27.291  1.00  0.00    -0.024 NA
ATOM     14  N   UNL A   1      31.303  24.710  27.102  1.00  0.00    -0.114 NA
BRANCH  12  15
ATOM     15  C   UNL A   1      31.701  26.271  25.218  1.00  0.00     0.083 C 
BRANCH  15  16
ATOM     16  C   UNL A   1      32.864  27.184  25.697  1.00  0.00    -0.001 C 
ATOM     17  C   UNL A   1      33.809  27.500  24.519  1.00  0.00     0.008 C 
BRANCH  16  18
ATOM     18  C   UNL A   1      32.379  28.491  26.443  1.00  0.00    -0.035 C 
ATOM     19  C   UNL A   1      33.577  29.370  26.869  1.00  0.00     0.011 C 
ATOM     20  C   UNL A   1      31.521  29.351  25.486  1.00  0.00     0.011 C 
ATOM     21  C   UNL A   1      31.546  28.173  27.697  1.00  0.00     0.011 C 
ENDBRANCH  16  18
ENDBRANCH  15  16
ENDBRANCH  12  15
ENDBRANCH   5  10
ENDBRANCH   3   5
ENDBRANCH   2   3
ENDBRANCH   1   2
BRANCH   1  22
ATOM     22  C   UNL A   1      36.399  21.276  24.566  1.00  0.00     0.275 C 
BRANCH  22  23
ATOM     23  O   UNL A   1      37.044  21.633  25.804  1.00  0.00    -0.458 OA
BRANCH  23  24
ATOM     24  C   UNL A   1      38.353  21.293  25.886  1.00  0.00     0.338 C 
ATOM     25  O   UNL A   1      38.890  20.299  25.414  1.00  0.00    -0.246 OA
BRANCH  24  26
ATOM     26  C   UNL A   1      39.103  22.419  26.456  1.00  0.00     0.060 A 
ATOM     27  C   UNL A   1      38.681  23.699  26.107  1.00  0.00     0.016 A 
ATOM     28  C   UNL A   1      40.232  22.244  27.254  1.00  0.00     0.016 A 
ATOM     29  C   UNL A   1      39.372  24.821  26.555  1.00  0.00     0.010 A 
ATOM     30  C   UNL A   1      40.926  23.375  27.710  1.00  0.00     0.010 A 
ATOM     31  C   UNL A   1      40.501  24.672  27.361  1.00  0.00    -0.014 A 
BRANCH  31  32
ATOM     32  C   UNL A   1      41.284  25.878  27.735  1.00  0.00     0.031 A 
ATOM     33  C   UNL A   1      40.635  26.936  28.579  1.00  0.00     0.074 A 
ATOM     34  C   UNL A   1      42.584  25.991  27.400  1.00  0.00     0.049 A 
ATOM     35  N   UNL A   1      41.078  28.119  28.920  1.00  0.00    -0.248 NA
ATOM     36  C   UNL A   1      39.307  26.610  29.118  1.00  0.00     0.031 C 
ATOM     37  C   UNL A   1      43.369  24.973  26.700  1.00  0.00     0.029 A 
ATOM     38  N   UNL A   1      43.479  27.012  27.615  1.00  0.00    -0.354 N 
ATOM     39  C   UNL A   1      40.072  28.691  29.689  1.00  0.00     0.074 A 
ATOM     40  C   UNL A   1      38.993  27.728  29.754  1.00  0.00     0.031 C 
ATOM     41  C   UNL A   1      44.627  25.419  26.550  1.00  0.00     0.029 A 
ATOM     42  C   UNL A   1      44.723  26.778  27.077  1.00  0.00     0.049 A 
ATOM     43  H   UNL A   1      43.251  27.833  28.108  1.00  0.00     0.167 HD
ATOM     44  C   UNL A   1      40.053  29.912  30.281  1.00  0.00     0.034 A 
ATOM     45  C   UNL A   1      45.802  27.583  26.983  1.00  0.00     0.034 A 
ATOM     46  C   UNL A   1      41.142  30.856  30.210  1.00  0.00     0.049 A 
ATOM     47  C   UNL A   1      45.713  28.984  27.539  1.00  0.00     0.074 A 
ATOM     48  C   UNL A   1      41.214  32.133  30.737  1.00  0.00     0.029 A 
ATOM     49  N   UNL A   1      42.354  30.622  29.572  1.00  0.00    -0.354 N 
ATOM     50  N   UNL A   1      44.721  29.558  28.182  1.00  0.00    -0.248 NA
ATOM     51  C   UNL A   1      46.883  29.851  27.343  1.00  0.00     0.031 C 
ATOM     52  C   UNL A   1      42.442  32.694  30.365  1.00  0.00     0.029 A 
ATOM     53  C   UNL A   1      43.167  31.743  29.666  1.00  0.00     0.049 A 
ATOM     54  H   UNL A   1      42.601  29.784  29.118  1.00  0.00     0.167 HD
ATOM     55  C   UNL A   1      45.158  30.846  28.482  1.00  0.00     0.074 A 
ATOM     56  C   UNL A   1      46.505  30.959  27.964  1.00  0.00     0.031 C 
ATOM     57  C   UNL A   1      44.505  31.845  29.129  1.00  0.00     0.034 A 
BRANCH  44  58
ATOM     58  C   UNL A   1      38.773  30.316  30.971  1.00  0.00     0.023 A 
ATOM     59  C   UNL A   1      37.734  30.977  30.293  1.00  0.00     0.031 A 
ATOM     60  C   UNL A   1      38.622  30.088  32.350  1.00  0.00     0.131 A 
ATOM     61  C   UNL A   1      36.624  31.450  31.012  1.00  0.00     0.055 A 
ATOM     62  C   UNL A   1      37.481  30.494  33.044  1.00  0.00     0.041 A 
ATOM     63  F   UNL A   1      39.594  29.485  33.054  1.00  0.00    -0.206 F 
ATOM     64  C   UNL A   1      36.480  31.193  32.377  1.00  0.00     0.022 A 
BRANCH  61  65
ATOM     65  S   UNL A   1      35.441  32.539  30.168  1.00  0.00     0.124 S 
ATOM     66  O   UNL A   1      36.267  33.711  29.883  1.00  0.00    -0.237 OA
ATOM     67  O   UNL A   1      35.044  31.740  29.014  1.00  0.00    -0.237 OA
ATOM     68  O   UNL A   1      34.397  32.751  31.169  1.00  0.00    -0.744 OA
ENDBRANCH  61  65
ENDBRANCH  44  58
BRANCH  45  69
ATOM     69  C   UNL A   1      47.029  27.131  26.262  1.00  0.00     0.023 A 
ATOM     70  C   UNL A   1      48.049  26.425  26.921  1.00  0.00     0.031 A 
ATOM     71  C   UNL A   1      47.228  27.464  24.909  1.00  0.00     0.131 A 
ATOM     72  C   UNL A   1      49.236  26.110  26.238  1.00  0.00     0.055 A 
ATOM     73  C   UNL A   1      48.385  27.099  24.219  1.00  0.00     0.041 A 
ATOM     74  F   UNL A   1      46.295  28.153  24.233  1.00  0.00    -0.206 F 
ATOM     75  C   UNL A   1      49.403  26.428  24.888  1.00  0.00     0.022 A 
BRANCH  72  76
ATOM     76  S   UNL A   1      50.605  25.358  27.162  1.00  0.00     0.124 S 
ATOM     77  O   UNL A   1      51.511  24.969  26.088  1.00  0.00    -0.237 OA
ATOM     78  O   UNL A   1      51.048  26.463  28.006  1.00  0.00    -0.237 OA
ATOM     79  O   UNL A   1      49.971  24.250  27.873  1.00  0.00    -0.744 OA
ENDBRANCH  72  76
ENDBRANCH  45  69
BRANCH  57  80
ATOM     80  C   UNL A   1      45.263  33.132  29.341  1.00  0.00     0.023 A 
ATOM     81  C   UNL A   1      46.060  33.343  30.480  1.00  0.00     0.031 A 
ATOM     82  C   UNL A   1      45.176  34.166  28.392  1.00  0.00     0.131 A 
ATOM     83  C   UNL A   1      46.700  34.578  30.666  1.00  0.00     0.055 A 
ATOM     84  C   UNL A   1      45.856  35.373  28.556  1.00  0.00     0.041 A 
ATOM     85  F   UNL A   1      44.429  34.018  27.286  1.00  0.00    -0.206 F 
ATOM     86  C   UNL A   1      46.615  35.590  29.704  1.00  0.00     0.022 A 
BRANCH  83  87
ATOM     87  S   UNL A   1      47.587  34.878  32.219  1.00  0.00     0.124 S 
ATOM     88  O   UNL A   1      48.202  36.178  31.974  1.00  0.00    -0.237 OA
ATOM     89  O   UNL A   1      46.510  34.858  33.204  1.00  0.00    -0.237 OA
ATOM     90  O   UNL A   1      48.522  33.757  32.304  1.00  0.00    -0.744 OA
ENDBRANCH  83  87
ENDBRANCH  57  80
ENDBRANCH  31  32
ENDBRANCH  24  26
ENDBRANCH  23  24
ENDBRANCH  22  23
ENDBRANCH   1  22
TORSDOF 20
ENDMDL
MODEL 2
REMARK VINA RESULT:     -10.7      2.200      8.013
REMARK SMILES CCC(CC)(C(=O)OCCOC(=O)c1ccc(-c2c3nc(c(-c4cc(S(=O)(=O)[O-])ccc4F)c4ccc([nH]4)c(-c4cc(S(=O)(=O)[O-])ccc4F)c4nc(c(-c5cc(S(=O)(=O)[O-])ccc5F)c5ccc2[nH]5)C=C4)C=C3)cc1)n1nnnc1C[C@@H](C)C(C)(C)C
REMARK SMILES IDX 9 1 8 2 6 3 7 4 3 5 2 6 1 7 4 8 5 9 77 10 78 11 81 12 79 13
REMARK SMILES IDX 80 14 82 15 83 16 84 17 85 18 86 19 87 20 88 21 10 22 11 23
REMARK SMILES IDX 12 24 13 25 14 26 15 27 76 28 16 29 75 30 17 31 18 32 19 33
REMARK SMILES IDX 69 34 20 35 74 36 68 37 70 38 21 39 73 40 67 41 66 42 22 44
REMARK SMILES IDX 54 45 34 46 53 47 35 48 38 49 52 50 71 51 36 52 37 53 51 55
REMARK SMILES IDX 72 56 39 57 23 58 24 59 32 60 25 61 31 62 33 63 30 64 26 65
REMARK SMILES IDX 27 66 28 67 29 68 55 69 56 70 64 71 57 72 63 73 65 74 62 75
REMARK SMILES IDX 58 76 59 77 60 78 61 79 40 80 41 81 49 82 42 83 48 84 50 85
REMARK SMILES IDX 47 86 43 87 44 88 45 89 46 90
REMARK H PARENT 70 43 38 54
REMARK Flexibility Score: inf
ROOT
ATOM      1  C   UNL A   1      36.249  19.987  24.990  1.00  0.00     0.274 C 
ENDROOT
BRANCH   1   2
ATOM      2  O   UNL A   1      35.621  21.263  24.768  1.00  0.00    -0.460 OA
BRANCH   2   3
ATOM      3  C   UNL A   1      34.259  21.276  24.686  1.00  0.00     0.334 C 
ATOM      4  O   UNL A   1      33.608  20.323  24.271  1.00  0.00    -0.249 OA
BRANCH   3   5
ATOM      5  C   UNL A   1      33.651  22.677  25.071  1.00  0.00     0.163 C 
BRANCH   5   6
ATOM      6  C   UNL A   1      32.185  22.432  25.582  1.00  0.00     0.039 C 
ATOM      7  C   UNL A   1      31.013  23.187  24.974  1.00  0.00     0.007 C 
ENDBRANCH   5   6
BRANCH   5   8
ATOM      8  C   UNL A   1      34.606  23.228  26.165  1.00  0.00     0.039 C 
ATOM      9  C   UNL A   1      34.260  22.808  27.592  1.00  0.00     0.007 C 
ENDBRANCH   5   8
BRANCH   5  10
ATOM     10  N   UNL A   1      33.718  23.552  23.886  1.00  0.00    -0.212 N 
ATOM     11  N   UNL A   1      33.742  22.981  22.660  1.00  0.00    -0.044 NA
ATOM     12  C   UNL A   1      33.819  24.923  23.715  1.00  0.00     0.152 A 
ATOM     13  N   UNL A   1      33.750  23.968  21.786  1.00  0.00    -0.024 NA
ATOM     14  N   UNL A   1      33.748  25.166  22.421  1.00  0.00    -0.114 NA
BRANCH  12  15
ATOM     15  C   UNL A   1      34.024  25.988  24.743  1.00  0.00     0.083 C 
BRANCH  15  16
ATOM     16  C   UNL A   1      32.720  26.772  25.056  1.00  0.00    -0.001 C 
ATOM     17  C   UNL A   1      32.190  26.383  26.453  1.00  0.00     0.008 C 
BRANCH  16  18
ATOM     18  C   UNL A   1      32.863  28.337  24.886  1.00  0.00    -0.035 C 
ATOM     19  C   UNL A   1      33.716  28.949  26.022  1.00  0.00     0.011 C 
ATOM     20  C   UNL A   1      33.600  28.654  23.564  1.00  0.00     0.011 C 
ATOM     21  C   UNL A   1      31.500  29.051  24.872  1.00  0.00     0.011 C 
ENDBRANCH  16  18
ENDBRANCH  15  16
ENDBRANCH  12  15
ENDBRANCH   5  10
ENDBRANCH   3   5
ENDBRANCH   2   3
ENDBRANCH   1   2
BRANCH   1  22
ATOM     22  C   UNL A   1      37.762  20.141  24.827  1.00  0.00     0.275 C 
BRANCH  22  23
ATOM     23  O   UNL A   1      38.216  21.273  25.593  1.00  0.00    -0.458 OA
BRANCH  23  24
ATOM     24  C   UNL A   1      39.403  21.099  26.223  1.00  0.00     0.338 C 
ATOM     25  O   UNL A   1      40.102  20.094  26.218  1.00  0.00    -0.246 OA
BRANCH  24  26
ATOM     26  C   UNL A   1      39.852  22.390  26.758  1.00  0.00     0.060 A 
ATOM     27  C   UNL A   1      39.277  23.534  26.212  1.00  0.00     0.016 A 
ATOM     28  C   UNL A   1      40.858  22.497  27.717  1.00  0.00     0.016 A 
ATOM     29  C   UNL A   1      39.688  24.799  26.620  1.00  0.00     0.010 A 
ATOM     30  C   UNL A   1      41.269  23.773  28.132  1.00  0.00     0.010 A 
ATOM     31  C   UNL A   1      40.688  24.933  27.584  1.00  0.00    -0.014 A 
BRANCH  31  32
ATOM     32  C   UNL A   1      41.187  26.291  27.922  1.00  0.00     0.031 A 
ATOM     33  C   UNL A   1      42.590  26.668  27.543  1.00  0.00     0.074 A 
ATOM     34  C   UNL A   1      40.374  27.208  28.482  1.00  0.00     0.049 A 
ATOM     35  N   UNL A   1      43.275  27.741  27.843  1.00  0.00    -0.248 NA
ATOM     36  C   UNL A   1      43.315  25.703  26.704  1.00  0.00     0.031 C 
ATOM     37  C   UNL A   1      38.954  27.014  28.773  1.00  0.00     0.029 A 
ATOM     38  N   UNL A   1      40.626  28.495  28.894  1.00  0.00    -0.354 N 
ATOM     39  C   UNL A   1      44.522  27.569  27.255  1.00  0.00     0.074 A 
ATOM     40  C   UNL A   1      44.500  26.282  26.591  1.00  0.00     0.031 C 
ATOM     41  C   UNL A   1      38.460  28.141  29.312  1.00  0.00     0.029 A 
ATOM     42  C   UNL A   1      39.539  29.113  29.469  1.00  0.00     0.049 A 
ATOM     43  H   UNL A   1      41.501  28.933  28.788  1.00  0.00     0.167 HD
ATOM     44  C   UNL A   1      45.588  28.408  27.274  1.00  0.00     0.034 A 
ATOM     45  C   UNL A   1      39.437  30.308  30.088  1.00  0.00     0.034 A 
ATOM     46  C   UNL A   1      45.588  29.690  27.937  1.00  0.00     0.049 A 
ATOM     47  C   UNL A   1      40.671  31.170  30.208  1.00  0.00     0.074 A 
ATOM     48  C   UNL A   1      46.622  30.602  28.054  1.00  0.00     0.029 A 
ATOM     49  N   UNL A   1      44.496  30.244  28.594  1.00  0.00    -0.354 N 
ATOM     50  N   UNL A   1      41.878  30.960  29.734  1.00  0.00    -0.248 NA
ATOM     51  C   UNL A   1      40.532  32.425  30.960  1.00  0.00     0.031 C 
ATOM     52  C   UNL A   1      46.176  31.676  28.834  1.00  0.00     0.029 A 
ATOM     53  C   UNL A   1      44.842  31.469  29.145  1.00  0.00     0.049 A 
ATOM     54  H   UNL A   1      43.607  29.827  28.661  1.00  0.00     0.167 HD
ATOM     55  C   UNL A   1      42.634  32.065  30.116  1.00  0.00     0.074 A 
ATOM     56  C   UNL A   1      41.745  32.946  30.844  1.00  0.00     0.031 C 
ATOM     57  C   UNL A   1      43.946  32.329  29.884  1.00  0.00     0.034 A 
BRANCH  44  58
ATOM     58  C   UNL A   1      46.861  27.910  26.636  1.00  0.00     0.023 A 
ATOM     59  C   UNL A   1      47.130  28.086  25.267  1.00  0.00     0.031 A 
ATOM     60  C   UNL A   1      47.793  27.191  27.405  1.00  0.00     0.131 A 
ATOM     61  C   UNL A   1      48.265  27.486  24.698  1.00  0.00     0.055 A 
ATOM     62  C   UNL A   1      48.959  26.663  26.848  1.00  0.00     0.041 A 
ATOM     63  F   UNL A   1      47.575  26.969  28.711  1.00  0.00    -0.206 F 
ATOM     64  C   UNL A   1      49.192  26.796  25.483  1.00  0.00     0.022 A 
BRANCH  61  65
ATOM     65  S   UNL A   1      48.438  27.491  22.891  1.00  0.00     0.124 S 
ATOM     66  O   UNL A   1      49.742  28.129  22.719  1.00  0.00    -0.237 OA
ATOM     67  O   UNL A   1      48.373  26.072  22.563  1.00  0.00    -0.237 OA
ATOM     68  O   UNL A   1      47.300  28.288  22.440  1.00  0.00    -0.744 OA
ENDBRANCH  61  65
ENDBRANCH  44  58
BRANCH  45  69
ATOM     69  C   UNL A   1      38.154  30.729  30.724  1.00  0.00     0.023 A 
ATOM     70  C   UNL A   1      37.205  31.493  30.025  1.00  0.00     0.031 A 
ATOM     71  C   UNL A   1      37.890  30.428  32.074  1.00  0.00     0.131 A 
ATOM     72  C   UNL A   1      36.058  31.962  30.688  1.00  0.00     0.055 A 
ATOM     73  C   UNL A   1      36.722  30.848  32.711  1.00  0.00     0.041 A 
ATOM     74  F   UNL A   1      38.769  29.715  32.796  1.00  0.00    -0.206 F 
ATOM     75  C   UNL A   1      35.804  31.631  32.021  1.00  0.00     0.022 A 
BRANCH  72  76
ATOM     76  S   UNL A   1      34.942  33.095  29.812  1.00  0.00     0.124 S 
ATOM     77  O   UNL A   1      35.868  34.118  29.339  1.00  0.00    -0.237 OA
ATOM     78  O   UNL A   1      34.366  32.228  28.790  1.00  0.00    -0.237 OA
ATOM     79  O   UNL A   1      34.013  33.531  30.852  1.00  0.00    -0.744 OA
ENDBRANCH  72  76
ENDBRANCH  45  69
BRANCH  57  80
ATOM     80  C   UNL A   1      44.478  33.645  30.395  1.00  0.00     0.023 A 
ATOM     81  C   UNL A   1      44.374  34.829  29.643  1.00  0.00     0.031 A 
ATOM     82  C   UNL A   1      45.109  33.711  31.651  1.00  0.00     0.131 A 
ATOM     83  C   UNL A   1      44.937  36.018  30.131  1.00  0.00     0.055 A 
ATOM     84  C   UNL A   1      45.621  34.907  32.154  1.00  0.00     0.041 A 
ATOM     85  F   UNL A   1      45.236  32.610  32.410  1.00  0.00    -0.206 F 
ATOM     86  C   UNL A   1      45.547  36.068  31.389  1.00  0.00     0.022 A 
BRANCH  83  87
ATOM     87  S   UNL A   1      44.930  37.489  29.070  1.00  0.00     0.124 S 
ATOM     88  O   UNL A   1      43.673  38.129  29.442  1.00  0.00    -0.237 OA
ATOM     89  O   UNL A   1      46.145  38.181  29.486  1.00  0.00    -0.237 OA
ATOM     90  O   UNL A   1      44.967  36.937  27.716  1.00  0.00    -0.744 OA
ENDBRANCH  83  87
ENDBRANCH  57  80
ENDBRANCH  31  32
ENDBRANCH  24  26
ENDBRANCH  23  24
ENDBRANCH  22  23
ENDBRANCH   1  22
TORSDOF 20
ENDMDL
MODEL 3
REMARK VINA RESULT:     -10.6      4.750      9.623
REMARK SMILES CCC(CC)(C(=O)OCCOC(=O)c1ccc(-c2c3nc(c(-c4cc(S(=O)(=O)[O-])ccc4F)c4ccc([nH]4)c(-c4cc(S(=O)(=O)[O-])ccc4F)c4nc(c(-c5cc(S(=O)(=O)[O-])ccc5F)c5ccc2[nH]5)C=C4)C=C3)cc1)n1nnnc1C[C@@H](C)C(C)(C)C
REMARK SMILES IDX 9 1 8 2 6 3 7 4 3 5 2 6 1 7 4 8 5 9 77 10 78 11 81 12 79 13
REMARK SMILES IDX 80 14 82 15 83 16 84 17 85 18 86 19 87 20 88 21 10 22 11 23
REMARK SMILES IDX 12 24 13 25 14 26 15 27 76 28 16 29 75 30 17 31 18 32 19 33
REMARK SMILES IDX 69 34 20 35 74 36 68 37 70 38 21 39 73 40 67 41 66 42 22 44
REMARK SMILES IDX 54 45 34 46 53 47 35 48 38 49 52 50 71 51 36 52 37 53 51 55
REMARK SMILES IDX 72 56 39 57 23 58 24 59 32 60 25 61 31 62 33 63 30 64 26 65
REMARK SMILES IDX 27 66 28 67 29 68 55 69 56 70 64 71 57 72 63 73 65 74 62 75
REMARK SMILES IDX 58 76 59 77 60 78 61 79 40 80 41 81 49 82 42 83 48 84 50 85
REMARK SMILES IDX 47 86 43 87 44 88 45 89 46 90
REMARK H PARENT 70 43 38 54
REMARK Flexibility Score: inf
ROOT
ATOM      1  C   UNL A   1      31.529  28.745  26.557  1.00  0.00     0.274 C 
ENDROOT
BRANCH   1   2
ATOM      2  O   UNL A   1      31.931  28.143  25.313  1.00  0.00    -0.460 OA
BRANCH   2   3
ATOM      3  C   UNL A   1      32.614  26.964  25.388  1.00  0.00     0.334 C 
ATOM      4  O   UNL A   1      33.648  26.833  26.036  1.00  0.00    -0.249 OA
BRANCH   3   5
ATOM      5  C   UNL A   1      31.988  25.851  24.467  1.00  0.00     0.163 C 
BRANCH   5   6
ATOM      6  C   UNL A   1      30.856  26.526  23.610  1.00  0.00     0.039 C 
ATOM      7  C   UNL A   1      29.390  26.227  23.882  1.00  0.00     0.007 C 
ENDBRANCH   5   6
BRANCH   5   8
ATOM      8  C   UNL A   1      33.181  25.328  23.620  1.00  0.00     0.039 C 
ATOM      9  C   UNL A   1      33.306  25.954  22.233  1.00  0.00     0.007 C 
ENDBRANCH   5   8
BRANCH   5  10
ATOM     10  N   UNL A   1      31.495  24.761  25.330  1.00  0.00    -0.212 N 
ATOM     11  N   UNL A   1      30.966  25.077  26.534  1.00  0.00    -0.044 NA
ATOM     12  C   UNL A   1      31.487  23.380  25.215  1.00  0.00     0.152 A 
ATOM     13  N   UNL A   1      30.560  23.946  27.075  1.00  0.00    -0.024 NA
ATOM     14  N   UNL A   1      30.830  22.901  26.253  1.00  0.00    -0.114 NA
BRANCH  12  15
ATOM     15  C   UNL A   1      32.123  22.518  24.174  1.00  0.00     0.083 C 
BRANCH  15  16
ATOM     16  C   UNL A   1      32.827  21.273  24.780  1.00  0.00    -0.001 C 
ATOM     17  C   UNL A   1      32.527  20.024  23.924  1.00  0.00     0.008 C 
BRANCH  16  18
ATOM     18  C   UNL A   1      34.377  21.474  25.021  1.00  0.00    -0.035 C 
ATOM     19  C   UNL A   1      34.652  22.086  26.414  1.00  0.00     0.011 C 
ATOM     20  C   UNL A   1      35.093  20.105  24.993  1.00  0.00     0.011 C 
ATOM     21  C   UNL A   1      35.019  22.386  23.961  1.00  0.00     0.011 C 
ENDBRANCH  16  18
ENDBRANCH  15  16
ENDBRANCH  12  15
ENDBRANCH   5  10
ENDBRANCH   3   5
ENDBRANCH   2   3
ENDBRANCH   1   2
BRANCH   1  22
ATOM     22  C   UNL A   1      31.790  30.250  26.489  1.00  0.00     0.275 C 
BRANCH  22  23
ATOM     23  O   UNL A   1      33.210  30.493  26.483  1.00  0.00    -0.458 OA
BRANCH  23  24
ATOM     24  C   UNL A   1      33.617  31.527  27.257  1.00  0.00     0.338 C 
ATOM     25  O   UNL A   1      32.964  32.511  27.580  1.00  0.00    -0.246 OA
BRANCH  24  26
ATOM     26  C   UNL A   1      34.921  31.197  27.847  1.00  0.00     0.060 A 
ATOM     27  C   UNL A   1      35.087  29.900  28.323  1.00  0.00     0.016 A 
ATOM     28  C   UNL A   1      35.936  32.138  28.001  1.00  0.00     0.016 A 
ATOM     29  C   UNL A   1      36.270  29.520  28.949  1.00  0.00     0.010 A 
ATOM     30  C   UNL A   1      37.132  31.754  28.628  1.00  0.00     0.010 A 
ATOM     31  C   UNL A   1      37.305  30.442  29.109  1.00  0.00    -0.014 A 
BRANCH  31  32
ATOM     32  C   UNL A   1      38.512  30.044  29.878  1.00  0.00     0.031 A 
ATOM     33  C   UNL A   1      39.490  29.089  29.258  1.00  0.00     0.074 A 
ATOM     34  C   UNL A   1      38.780  30.593  31.079  1.00  0.00     0.049 A 
ATOM     35  N   UNL A   1      40.538  28.509  29.785  1.00  0.00    -0.248 NA
ATOM     36  C   UNL A   1      39.256  28.747  27.848  1.00  0.00     0.031 C 
ATOM     37  C   UNL A   1      37.984  31.633  31.730  1.00  0.00     0.029 A 
ATOM     38  N   UNL A   1      39.808  30.358  31.961  1.00  0.00    -0.354 N 
ATOM     39  C   UNL A   1      41.073  27.711  28.780  1.00  0.00     0.074 A 
ATOM     40  C   UNL A   1      40.224  27.875  27.618  1.00  0.00     0.031 C 
ATOM     41  C   UNL A   1      38.555  31.950  32.904  1.00  0.00     0.029 A 
ATOM     42  C   UNL A   1      39.715  31.090  33.123  1.00  0.00     0.049 A 
ATOM     43  H   UNL A   1      40.541  29.727  31.779  1.00  0.00     0.167 HD
ATOM     44  C   UNL A   1      42.168  26.912  28.830  1.00  0.00     0.034 A 
ATOM     45  C   UNL A   1      40.457  31.042  34.249  1.00  0.00     0.034 A 
ATOM     46  C   UNL A   1      43.005  26.768  29.997  1.00  0.00     0.049 A 
ATOM     47  C   UNL A   1      41.595  30.054  34.327  1.00  0.00     0.074 A 
ATOM     48  C   UNL A   1      44.113  25.958  30.171  1.00  0.00     0.029 A 
ATOM     49  N   UNL A   1      42.824  27.454  31.192  1.00  0.00    -0.354 N 
ATOM     50  N   UNL A   1      42.039  29.227  33.407  1.00  0.00    -0.248 NA
ATOM     51  C   UNL A   1      42.324  29.979  35.601  1.00  0.00     0.031 C 
ATOM     52  C   UNL A   1      44.564  26.107  31.489  1.00  0.00     0.029 A 
ATOM     53  C   UNL A   1      43.781  27.062  32.117  1.00  0.00     0.049 A 
ATOM     54  H   UNL A   1      42.119  28.120  31.359  1.00  0.00     0.167 HD
ATOM     55  C   UNL A   1      43.109  28.551  33.988  1.00  0.00     0.074 A 
ATOM     56  C   UNL A   1      43.254  29.076  35.329  1.00  0.00     0.031 C 
ATOM     57  C   UNL A   1      43.902  27.584  33.458  1.00  0.00     0.034 A 
BRANCH  44  58
ATOM     58  C   UNL A   1      42.455  26.070  27.611  1.00  0.00     0.023 A 
ATOM     59  C   UNL A   1      42.083  24.717  27.533  1.00  0.00     0.031 A 
ATOM     60  C   UNL A   1      43.170  26.622  26.534  1.00  0.00     0.131 A 
ATOM     61  C   UNL A   1      42.492  23.944  26.434  1.00  0.00     0.055 A 
ATOM     62  C   UNL A   1      43.508  25.868  25.409  1.00  0.00     0.041 A 
ATOM     63  F   UNL A   1      43.575  27.902  26.566  1.00  0.00    -0.206 F 
ATOM     64  C   UNL A   1      43.182  24.516  25.362  1.00  0.00     0.022 A 
BRANCH  61  65
ATOM     65  S   UNL A   1      42.244  22.147  26.492  1.00  0.00     0.124 S 
ATOM     66  O   UNL A   1      42.276  21.889  27.930  1.00  0.00    -0.237 OA
ATOM     67  O   UNL A   1      40.947  21.986  25.843  1.00  0.00    -0.237 OA
ATOM     68  O   UNL A   1      43.384  21.619  25.746  1.00  0.00    -0.744 OA
ENDBRANCH  61  65
ENDBRANCH  44  58
BRANCH  45  69
ATOM     69  C   UNL A   1      40.102  31.883  35.431  1.00  0.00     0.023 A 
ATOM     70  C   UNL A   1      39.147  31.463  36.371  1.00  0.00     0.031 A 
ATOM     71  C   UNL A   1      40.672  33.160  35.599  1.00  0.00     0.131 A 
ATOM     72  C   UNL A   1      38.760  32.325  37.410  1.00  0.00     0.055 A 
ATOM     73  C   UNL A   1      40.326  33.990  36.666  1.00  0.00     0.041 A 
ATOM     74  F   UNL A   1      41.578  33.621  34.723  1.00  0.00    -0.206 F 
ATOM     75  C   UNL A   1      39.355  33.579  37.573  1.00  0.00     0.022 A 
BRANCH  72  76
ATOM     76  S   UNL A   1      37.397  31.827  38.500  1.00  0.00     0.124 S 
ATOM     77  O   UNL A   1      38.003  31.970  39.819  1.00  0.00    -0.237 OA
ATOM     78  O   UNL A   1      36.362  32.798  38.160  1.00  0.00    -0.237 OA
ATOM     79  O   UNL A   1      37.116  30.452  38.091  1.00  0.00    -0.744 OA
ENDBRANCH  72  76
ENDBRANCH  45  69
BRANCH  57  80
ATOM     80  C   UNL A   1      45.020  27.065  34.330  1.00  0.00     0.023 A 
ATOM     81  C   UNL A   1      44.841  25.965  35.186  1.00  0.00     0.031 A 
ATOM     82  C   UNL A   1      46.279  27.692  34.308  1.00  0.00     0.131 A 
ATOM     83  C   UNL A   1      45.890  25.554  36.023  1.00  0.00     0.055 A 
ATOM     84  C   UNL A   1      47.334  27.247  35.105  1.00  0.00     0.041 A 
ATOM     85  F   UNL A   1      46.504  28.747  33.509  1.00  0.00    -0.206 F 
ATOM     86  C   UNL A   1      47.140  26.179  35.977  1.00  0.00     0.022 A 
BRANCH  83  87
ATOM     87  S   UNL A   1      45.580  24.238  37.232  1.00  0.00     0.124 S 
ATOM     88  O   UNL A   1      44.443  24.768  37.977  1.00  0.00    -0.237 OA
ATOM     89  O   UNL A   1      45.303  23.088  36.379  1.00  0.00    -0.237 OA
ATOM     90  O   UNL A   1      46.831  24.161  37.986  1.00  0.00    -0.744 OA
ENDBRANCH  83  87
ENDBRANCH  57  80
ENDBRANCH  31  32
ENDBRANCH  24  26
ENDBRANCH  23  24
ENDBRANCH  22  23
ENDBRANCH   1  22
TORSDOF 20
ENDMDL
