MODEL 1
REMARK VINA RESULT:     -10.8      0.000      0.000
REMARK SMILES O=C(COc1csc(C(=O)OCCOC(=O)c2ccc(-c3c4nc(c(-c5cc(S(=O)(=O)[O-])ccc5F)c5ccc([nH]5)c(-c5cc(S(=O)(=O)[O-])ccc5F)c5nc(c(-c6cc(S(=O)(=O)[O-])ccc6F)c6ccc3[nH]6)C=C5)C=C4)cc2)c1)Nc1nccs1
REMARK SMILES IDX 12 1 11 2 9 3 10 4 8 5 5 6 6 7 80 8 7 9 4 10 3 11 2 12 1 13
REMARK SMILES IDX 81 14 82 16 83 17 86 18 84 19 85 20 13 21 14 22 15 23 16 24
REMARK SMILES IDX 17 25 18 26 79 27 19 28 78 29 20 30 21 31 22 32 72 33 23 34
REMARK SMILES IDX 77 35 71 36 73 37 24 38 76 39 70 40 69 41 25 43 57 44 37 45
REMARK SMILES IDX 56 46 38 47 41 48 55 49 74 50 39 51 40 52 54 54 75 55 42 56
REMARK SMILES IDX 26 57 27 58 35 59 28 60 34 61 36 62 33 63 29 64 30 65 31 66
REMARK SMILES IDX 32 67 58 68 59 69 67 70 60 71 66 72 68 73 65 74 61 75 62 76
REMARK SMILES IDX 63 77 64 78 43 79 44 80 52 81 45 82 51 83 53 84 50 85 46 86
REMARK SMILES IDX 47 87 48 88 49 89
REMARK H PARENT 81 15 73 42 41 53
REMARK Flexibility Score: inf
ROOT
ATOM      1  C   UNL A   1      35.682  21.083  25.576  1.00  0.00     0.275 C 
ENDROOT
BRANCH   1   2
ATOM      2  O   UNL A   1      34.760  21.720  24.665  1.00  0.00    -0.458 OA
BRANCH   2   3
ATOM      3  C   UNL A   1      33.523  21.986  25.187  1.00  0.00     0.348 C 
ATOM      4  O   UNL A   1      32.823  21.140  25.730  1.00  0.00    -0.245 OA
BRANCH   3   5
ATOM      5  C   UNL A   1      33.186  23.395  25.056  1.00  0.00     0.116 A 
ATOM      6  C   UNL A   1      33.180  25.731  24.882  1.00  0.00     0.131 A 
ATOM      7  C   UNL A   1      31.853  25.472  25.127  1.00  0.00     0.112 A 
ATOM      8  C   UNL A   1      33.964  24.532  24.885  1.00  0.00     0.074 A 
ATOM      9  S   UNL A   1      31.515  23.809  25.047  1.00  0.00    -0.133 S 
BRANCH   6  10
ATOM     10  O   UNL A   1      33.656  26.956  24.540  1.00  0.00    -0.483 OA
BRANCH  10  11
ATOM     11  C   UNL A   1      33.183  27.457  23.296  1.00  0.00     0.329 C 
BRANCH  11  12
ATOM     12  C   UNL A   1      32.021  28.465  23.264  1.00  0.00     0.264 C 
ATOM     13  O   UNL A   1      31.944  29.329  24.132  1.00  0.00    -0.271 OA
ATOM     14  N   UNL A   1      31.170  28.295  22.193  1.00  0.00    -0.299 N 
ATOM     15  H   UNL A   1      31.435  27.694  21.461  1.00  0.00     0.172 HD
BRANCH  14  16
ATOM     16  C   UNL A   1      29.965  28.943  22.121  1.00  0.00     0.189 A 
ATOM     17  N   UNL A   1      29.654  30.047  21.497  1.00  0.00    -0.229 NA
ATOM     18  S   UNL A   1      28.726  28.230  23.059  1.00  0.00    -0.105 S 
ATOM     19  C   UNL A   1      28.363  30.411  21.819  1.00  0.00     0.125 A 
ATOM     20  C   UNL A   1      27.701  29.555  22.674  1.00  0.00     0.088 A 
ENDBRANCH  14  16
ENDBRANCH  11  12
ENDBRANCH  10  11
ENDBRANCH   6  10
ENDBRANCH   3   5
ENDBRANCH   2   3
ENDBRANCH   1   2
BRANCH   1  21
ATOM     21  C   UNL A   1      37.001  20.681  24.902  1.00  0.00     0.275 C 
BRANCH  21  22
ATOM     22  O   UNL A   1      38.031  21.676  25.057  1.00  0.00    -0.458 OA
BRANCH  22  23
ATOM     23  C   UNL A   1      39.007  21.340  25.933  1.00  0.00     0.338 C 
ATOM     24  O   UNL A   1      39.501  20.232  26.079  1.00  0.00    -0.246 OA
BRANCH  23  25
ATOM     25  C   UNL A   1      39.532  22.533  26.617  1.00  0.00     0.060 A 
ATOM     26  C   UNL A   1      39.079  23.765  26.158  1.00  0.00     0.016 A 
ATOM     27  C   UNL A   1      40.557  22.476  27.559  1.00  0.00     0.016 A 
ATOM     28  C   UNL A   1      39.673  24.949  26.577  1.00  0.00     0.010 A 
ATOM     29  C   UNL A   1      41.129  23.674  28.022  1.00  0.00     0.010 A 
ATOM     30  C   UNL A   1      40.713  24.921  27.512  1.00  0.00    -0.014 A 
BRANCH  30  31
ATOM     31  C   UNL A   1      41.400  26.191  27.879  1.00  0.00     0.031 A 
ATOM     32  C   UNL A   1      40.664  27.238  28.677  1.00  0.00     0.074 A 
ATOM     33  C   UNL A   1      42.695  26.388  27.555  1.00  0.00     0.049 A 
ATOM     34  N   UNL A   1      41.035  28.452  28.998  1.00  0.00    -0.248 NA
ATOM     35  C   UNL A   1      39.331  26.867  29.174  1.00  0.00     0.031 C 
ATOM     36  C   UNL A   1      43.545  25.422  26.855  1.00  0.00     0.029 A 
ATOM     37  N   UNL A   1      43.527  27.457  27.777  1.00  0.00    -0.354 N 
ATOM     38  C   UNL A   1      39.970  29.002  29.704  1.00  0.00     0.074 A 
ATOM     39  C   UNL A   1      38.928  27.996  29.738  1.00  0.00     0.031 C 
ATOM     40  C   UNL A   1      44.778  25.934  26.725  1.00  0.00     0.029 A 
ATOM     41  C   UNL A   1      44.790  27.293  27.254  1.00  0.00     0.049 A 
ATOM     42  H   UNL A   1      43.247  28.265  28.264  1.00  0.00     0.167 HD
ATOM     43  C   UNL A   1      39.874  30.230  30.275  1.00  0.00     0.034 A 
ATOM     44  C   UNL A   1      45.827  28.152  27.168  1.00  0.00     0.034 A 
ATOM     45  C   UNL A   1      40.933  31.211  30.251  1.00  0.00     0.049 A 
ATOM     46  C   UNL A   1      45.663  29.544  27.731  1.00  0.00     0.074 A 
ATOM     47  C   UNL A   1      40.940  32.486  30.791  1.00  0.00     0.029 A 
ATOM     48  N   UNL A   1      42.179  31.026  29.662  1.00  0.00    -0.354 N 
ATOM     49  N   UNL A   1      44.630  30.071  28.346  1.00  0.00    -0.248 NA
ATOM     50  C   UNL A   1      46.804  30.456  27.585  1.00  0.00     0.031 C 
ATOM     51  C   UNL A   1      42.155  33.097  30.465  1.00  0.00     0.029 A 
ATOM     52  C   UNL A   1      42.946  32.173  29.801  1.00  0.00     0.049 A 
ATOM     53  H   UNL A   1      42.472  30.202  29.211  1.00  0.00     0.167 HD
ATOM     54  C   UNL A   1      45.014  31.363  28.694  1.00  0.00     0.074 A 
ATOM     55  C   UNL A   1      46.377  31.528  28.233  1.00  0.00     0.031 C 
ATOM     56  C   UNL A   1      44.307  32.325  29.339  1.00  0.00     0.034 A 
BRANCH  43  57
ATOM     57  C   UNL A   1      38.557  30.602  30.918  1.00  0.00     0.023 A 
ATOM     58  C   UNL A   1      37.522  31.226  30.201  1.00  0.00     0.031 A 
ATOM     59  C   UNL A   1      38.342  30.336  32.283  1.00  0.00     0.131 A 
ATOM     60  C   UNL A   1      36.350  31.622  30.865  1.00  0.00     0.055 A 
ATOM     61  C   UNL A   1      37.141  30.659  32.919  1.00  0.00     0.041 A 
ATOM     62  F   UNL A   1      39.301  29.764  33.029  1.00  0.00    -0.206 F 
ATOM     63  C   UNL A   1      36.141  31.318  32.213  1.00  0.00     0.022 A 
BRANCH  60  64
ATOM     64  S   UNL A   1      35.158  32.665  29.980  1.00  0.00     0.124 S 
ATOM     65  O   UNL A   1      36.008  33.764  29.529  1.00  0.00    -0.237 OA
ATOM     66  O   UNL A   1      34.664  31.768  28.942  1.00  0.00    -0.237 OA
ATOM     67  O   UNL A   1      34.184  33.023  31.010  1.00  0.00    -0.744 OA
ENDBRANCH  60  64
ENDBRANCH  43  57
BRANCH  44  68
ATOM     68  C   UNL A   1      47.090  27.760  26.475  1.00  0.00     0.023 A 
ATOM     69  C   UNL A   1      47.254  27.958  25.094  1.00  0.00     0.031 A 
ATOM     70  C   UNL A   1      48.127  27.110  27.170  1.00  0.00     0.131 A 
ATOM     71  C   UNL A   1      48.394  27.459  24.445  1.00  0.00     0.055 A 
ATOM     72  C   UNL A   1      49.291  26.679  26.532  1.00  0.00     0.041 A 
ATOM     73  F   UNL A   1      48.023  26.884  28.490  1.00  0.00    -0.206 F 
ATOM     74  C   UNL A   1      49.422  26.837  25.158  1.00  0.00     0.022 A 
BRANCH  71  75
ATOM     75  S   UNL A   1      48.463  27.529  22.633  1.00  0.00     0.124 S 
ATOM     76  O   UNL A   1      49.713  28.247  22.412  1.00  0.00    -0.237 OA
ATOM     77  O   UNL A   1      48.462  26.115  22.274  1.00  0.00    -0.237 OA
ATOM     78  O   UNL A   1      47.250  28.262  22.275  1.00  0.00    -0.744 OA
ENDBRANCH  71  75
ENDBRANCH  44  68
BRANCH  56  79
ATOM     79  C   UNL A   1      45.025  33.618  29.647  1.00  0.00     0.023 A 
ATOM     80  C   UNL A   1      44.973  34.725  28.782  1.00  0.00     0.031 A 
ATOM     81  C   UNL A   1      45.789  33.735  30.823  1.00  0.00     0.131 A 
ATOM     82  C   UNL A   1      45.722  35.876  29.073  1.00  0.00     0.055 A 
ATOM     83  C   UNL A   1      46.475  34.906  31.142  1.00  0.00     0.041 A 
ATOM     84  F   UNL A   1      45.878  32.708  31.685  1.00  0.00    -0.206 F 
ATOM     85  C   UNL A   1      46.457  35.981  30.257  1.00  0.00     0.022 A 
BRANCH  82  86
ATOM     86  S   UNL A   1      45.809  37.197  27.834  1.00  0.00     0.124 S 
ATOM     87  O   UNL A   1      46.262  38.332  28.630  1.00  0.00    -0.237 OA
ATOM     88  O   UNL A   1      46.774  36.665  26.877  1.00  0.00    -0.237 OA
ATOM     89  O   UNL A   1      44.437  37.295  27.339  1.00  0.00    -0.744 OA
ENDBRANCH  82  86
ENDBRANCH  56  79
ENDBRANCH  30  31
ENDBRANCH  23  25
ENDBRANCH  22  23
ENDBRANCH  21  22
ENDBRANCH   1  21
TORSDOF 18
ENDMDL
MODEL 2
REMARK VINA RESULT:     -10.8      0.904      7.669
REMARK SMILES O=C(COc1csc(C(=O)OCCOC(=O)c2ccc(-c3c4nc(c(-c5cc(S(=O)(=O)[O-])ccc5F)c5ccc([nH]5)c(-c5cc(S(=O)(=O)[O-])ccc5F)c5nc(c(-c6cc(S(=O)(=O)[O-])ccc6F)c6ccc3[nH]6)C=C5)C=C4)cc2)c1)Nc1nccs1
REMARK SMILES IDX 12 1 11 2 9 3 10 4 8 5 5 6 6 7 80 8 7 9 4 10 3 11 2 12 1 13
REMARK SMILES IDX 81 14 82 16 83 17 86 18 84 19 85 20 13 21 14 22 15 23 16 24
REMARK SMILES IDX 17 25 18 26 79 27 19 28 78 29 20 30 21 31 22 32 72 33 23 34
REMARK SMILES IDX 77 35 71 36 73 37 24 38 76 39 70 40 69 41 25 43 57 44 37 45
REMARK SMILES IDX 56 46 38 47 41 48 55 49 74 50 39 51 40 52 54 54 75 55 42 56
REMARK SMILES IDX 26 57 27 58 35 59 28 60 34 61 36 62 33 63 29 64 30 65 31 66
REMARK SMILES IDX 32 67 58 68 59 69 67 70 60 71 66 72 68 73 65 74 61 75 62 76
REMARK SMILES IDX 63 77 64 78 43 79 44 80 52 81 45 82 51 83 53 84 50 85 46 86
REMARK SMILES IDX 47 87 48 88 49 89
REMARK H PARENT 81 15 73 42 41 53
REMARK Flexibility Score: inf
ROOT
ATOM      1  C   UNL A   1      35.481  21.360  25.925  1.00  0.00     0.275 C 
ENDROOT
BRANCH   1   2
ATOM      2  O   UNL A   1      34.357  21.893  25.191  1.00  0.00    -0.458 OA
BRANCH   2   3
ATOM      3  C   UNL A   1      33.764  22.989  25.757  1.00  0.00     0.348 C 
ATOM      4  O   UNL A   1      33.332  23.007  26.903  1.00  0.00    -0.245 OA
BRANCH   3   5
ATOM      5  C   UNL A   1      33.767  24.122  24.844  1.00  0.00     0.116 A 
ATOM      6  C   UNL A   1      33.705  26.232  23.830  1.00  0.00     0.131 A 
ATOM      7  C   UNL A   1      33.543  25.404  22.746  1.00  0.00     0.112 A 
ATOM      8  C   UNL A   1      33.789  25.493  25.055  1.00  0.00     0.074 A 
ATOM      9  S   UNL A   1      33.804  23.776  23.158  1.00  0.00    -0.133 S 
BRANCH   6  10
ATOM     10  O   UNL A   1      33.901  27.572  23.730  1.00  0.00    -0.483 OA
BRANCH  10  11
ATOM     11  C   UNL A   1      33.190  28.355  24.680  1.00  0.00     0.329 C 
BRANCH  11  12
ATOM     12  C   UNL A   1      31.861  29.024  24.287  1.00  0.00     0.264 C 
ATOM     13  O   UNL A   1      31.406  29.925  24.984  1.00  0.00    -0.271 OA
ATOM     14  N   UNL A   1      31.317  28.530  23.121  1.00  0.00    -0.299 N 
ATOM     15  H   UNL A   1      31.861  27.943  22.549  1.00  0.00     0.172 HD
BRANCH  14  16
ATOM     16  C   UNL A   1      30.039  28.836  22.736  1.00  0.00     0.189 A 
ATOM     17  N   UNL A   1      29.610  29.822  21.994  1.00  0.00    -0.229 NA
ATOM     18  S   UNL A   1      28.839  27.818  23.406  1.00  0.00    -0.105 S 
ATOM     19  C   UNL A   1      28.230  29.831  21.989  1.00  0.00     0.125 A 
ATOM     20  C   UNL A   1      27.629  28.827  22.719  1.00  0.00     0.088 A 
ENDBRANCH  14  16
ENDBRANCH  11  12
ENDBRANCH  10  11
ENDBRANCH   6  10
ENDBRANCH   3   5
ENDBRANCH   2   3
ENDBRANCH   1   2
BRANCH   1  21
ATOM     21  C   UNL A   1      36.501  20.654  25.022  1.00  0.00     0.275 C 
BRANCH  21  22
ATOM     22  O   UNL A   1      37.701  21.427  24.829  1.00  0.00    -0.458 OA
BRANCH  22  23
ATOM     23  C   UNL A   1      38.718  21.098  25.660  1.00  0.00     0.338 C 
ATOM     24  O   UNL A   1      39.214  19.991  25.796  1.00  0.00    -0.246 OA
BRANCH  23  25
ATOM     25  C   UNL A   1      39.280  22.298  26.301  1.00  0.00     0.060 A 
ATOM     26  C   UNL A   1      38.594  23.491  26.103  1.00  0.00     0.016 A 
ATOM     27  C   UNL A   1      40.521  22.307  26.934  1.00  0.00     0.016 A 
ATOM     28  C   UNL A   1      39.152  24.709  26.471  1.00  0.00     0.010 A 
ATOM     29  C   UNL A   1      41.069  23.532  27.351  1.00  0.00     0.010 A 
ATOM     30  C   UNL A   1      40.403  24.749  27.096  1.00  0.00    -0.014 A 
BRANCH  30  31
ATOM     31  C   UNL A   1      41.027  26.068  27.399  1.00  0.00     0.031 A 
ATOM     32  C   UNL A   1      42.387  26.399  26.841  1.00  0.00     0.074 A 
ATOM     33  C   UNL A   1      40.358  26.992  28.119  1.00  0.00     0.049 A 
ATOM     34  N   UNL A   1      43.153  27.434  27.077  1.00  0.00    -0.248 NA
ATOM     35  C   UNL A   1      42.962  25.431  25.895  1.00  0.00     0.031 C 
ATOM     36  C   UNL A   1      39.002  26.830  28.649  1.00  0.00     0.029 A 
ATOM     37  N   UNL A   1      40.719  28.255  28.523  1.00  0.00    -0.354 N 
ATOM     38  C   UNL A   1      44.314  27.227  26.338  1.00  0.00     0.074 A 
ATOM     39  C   UNL A   1      44.159  25.952  25.668  1.00  0.00     0.031 C 
ATOM     40  C   UNL A   1      38.641  27.953  29.287  1.00  0.00     0.029 A 
ATOM     41  C   UNL A   1      39.763  28.885  29.287  1.00  0.00     0.049 A 
ATOM     42  H   UNL A   1      41.580  28.669  28.288  1.00  0.00     0.167 HD
ATOM     43  C   UNL A   1      45.403  28.029  26.225  1.00  0.00     0.034 A 
ATOM     44  C   UNL A   1      39.800  30.059  29.951  1.00  0.00     0.034 A 
ATOM     45  C   UNL A   1      45.528  29.309  26.881  1.00  0.00     0.049 A 
ATOM     46  C   UNL A   1      41.057  30.891  29.882  1.00  0.00     0.074 A 
ATOM     47  C   UNL A   1      46.589  30.198  26.841  1.00  0.00     0.029 A 
ATOM     48  N   UNL A   1      44.560  29.888  27.693  1.00  0.00    -0.354 N 
ATOM     49  N   UNL A   1      42.170  30.657  29.225  1.00  0.00    -0.248 NA
ATOM     50  C   UNL A   1      41.065  32.144  30.647  1.00  0.00     0.031 C 
ATOM     51  C   UNL A   1      46.294  31.275  27.684  1.00  0.00     0.029 A 
ATOM     52  C   UNL A   1      45.012  31.106  28.179  1.00  0.00     0.049 A 
ATOM     53  H   UNL A   1      43.682  29.490  27.894  1.00  0.00     0.167 HD
ATOM     54  C   UNL A   1      42.992  31.754  29.469  1.00  0.00     0.074 A 
ATOM     55  C   UNL A   1      42.242  32.654  30.319  1.00  0.00     0.031 C 
ATOM     56  C   UNL A   1      44.252  31.997  29.026  1.00  0.00     0.034 A 
BRANCH  43  57
ATOM     57  C   UNL A   1      46.568  27.516  25.409  1.00  0.00     0.023 A 
ATOM     58  C   UNL A   1      46.852  28.000  24.121  1.00  0.00     0.031 A 
ATOM     59  C   UNL A   1      47.403  26.510  25.931  1.00  0.00     0.131 A 
ATOM     60  C   UNL A   1      47.899  27.433  23.375  1.00  0.00     0.055 A 
ATOM     61  C   UNL A   1      48.492  26.009  25.215  1.00  0.00     0.041 A 
ATOM     62  F   UNL A   1      47.169  25.990  27.146  1.00  0.00    -0.206 F 
ATOM     63  C   UNL A   1      48.737  26.460  23.924  1.00  0.00     0.022 A 
BRANCH  60  64
ATOM     64  S   UNL A   1      48.063  27.884  21.625  1.00  0.00     0.124 S 
ATOM     65  O   UNL A   1      48.291  26.580  21.006  1.00  0.00    -0.237 OA
ATOM     66  O   UNL A   1      46.779  28.514  21.339  1.00  0.00    -0.237 OA
ATOM     67  O   UNL A   1      49.216  28.782  21.609  1.00  0.00    -0.744 OA
ENDBRANCH  60  64
ENDBRANCH  43  57
BRANCH  44  68
ATOM     68  C   UNL A   1      38.645  30.500  30.789  1.00  0.00     0.023 A 
ATOM     69  C   UNL A   1      37.544  31.162  30.220  1.00  0.00     0.031 A 
ATOM     70  C   UNL A   1      38.657  30.332  32.186  1.00  0.00     0.131 A 
ATOM     71  C   UNL A   1      36.536  31.682  31.047  1.00  0.00     0.055 A 
ATOM     72  C   UNL A   1      37.617  30.789  32.997  1.00  0.00     0.041 A 
ATOM     73  F   UNL A   1      39.687  29.714  32.788  1.00  0.00    -0.206 F 
ATOM     74  C   UNL A   1      36.556  31.485  32.429  1.00  0.00     0.022 A 
BRANCH  71  75
ATOM     75  S   UNL A   1      35.254  32.728  30.301  1.00  0.00     0.124 S 
ATOM     76  O   UNL A   1      34.283  32.824  31.385  1.00  0.00    -0.237 OA
ATOM     77  O   UNL A   1      35.997  33.946  29.994  1.00  0.00    -0.237 OA
ATOM     78  O   UNL A   1      34.820  31.956  29.138  1.00  0.00    -0.744 OA
ENDBRANCH  71  75
ENDBRANCH  44  68
BRANCH  56  79
ATOM     79  C   UNL A   1      44.868  33.325  29.398  1.00  0.00     0.023 A 
ATOM     80  C   UNL A   1      44.692  34.477  28.611  1.00  0.00     0.031 A 
ATOM     81  C   UNL A   1      45.661  33.432  30.556  1.00  0.00     0.131 A 
ATOM     82  C   UNL A   1      45.351  35.667  28.956  1.00  0.00     0.055 A 
ATOM     83  C   UNL A   1      46.256  34.636  30.932  1.00  0.00     0.041 A 
ATOM     84  F   UNL A   1      45.867  32.364  31.344  1.00  0.00    -0.206 F 
ATOM     85  C   UNL A   1      46.115  35.759  30.122  1.00  0.00     0.022 A 
BRANCH  82  86
ATOM     86  S   UNL A   1      45.281  37.068  27.806  1.00  0.00     0.124 S 
ATOM     87  O   UNL A   1      46.630  37.072  27.251  1.00  0.00    -0.237 OA
ATOM     88  O   UNL A   1      44.217  36.668  26.891  1.00  0.00    -0.237 OA
ATOM     89  O   UNL A   1      44.962  38.205  28.668  1.00  0.00    -0.744 OA
ENDBRANCH  82  86
ENDBRANCH  56  79
ENDBRANCH  30  31
ENDBRANCH  23  25
ENDBRANCH  22  23
ENDBRANCH  21  22
ENDBRANCH   1  21
TORSDOF 18
ENDMDL
MODEL 3
REMARK VINA RESULT:     -10.8      5.077      7.894
REMARK SMILES O=C(COc1csc(C(=O)OCCOC(=O)c2ccc(-c3c4nc(c(-c5cc(S(=O)(=O)[O-])ccc5F)c5ccc([nH]5)c(-c5cc(S(=O)(=O)[O-])ccc5F)c5nc(c(-c6cc(S(=O)(=O)[O-])ccc6F)c6ccc3[nH]6)C=C5)C=C4)cc2)c1)Nc1nccs1
REMARK SMILES IDX 12 1 11 2 9 3 10 4 8 5 5 6 6 7 80 8 7 9 4 10 3 11 2 12 1 13
REMARK SMILES IDX 81 14 82 16 83 17 86 18 84 19 85 20 13 21 14 22 15 23 16 24
REMARK SMILES IDX 17 25 18 26 79 27 19 28 78 29 20 30 21 31 22 32 72 33 23 34
REMARK SMILES IDX 77 35 71 36 73 37 24 38 76 39 70 40 69 41 25 43 57 44 37 45
REMARK SMILES IDX 56 46 38 47 41 48 55 49 74 50 39 51 40 52 54 54 75 55 42 56
REMARK SMILES IDX 26 57 27 58 35 59 28 60 34 61 36 62 33 63 29 64 30 65 31 66
REMARK SMILES IDX 32 67 58 68 59 69 67 70 60 71 66 72 68 73 65 74 61 75 62 76
REMARK SMILES IDX 63 77 64 78 43 79 44 80 52 81 45 82 51 83 53 84 50 85 46 86
REMARK SMILES IDX 47 87 48 88 49 89
REMARK H PARENT 81 15 73 42 41 53
REMARK Flexibility Score: inf
ROOT
ATOM      1  C   UNL A   1      31.736  30.903  26.108  1.00  0.00     0.275 C 
ENDROOT
BRANCH   1   2
ATOM      2  O   UNL A   1      32.992  30.222  26.314  1.00  0.00    -0.458 OA
BRANCH   2   3
ATOM      3  C   UNL A   1      32.884  28.934  26.764  1.00  0.00     0.348 C 
ATOM      4  O   UNL A   1      33.149  28.596  27.912  1.00  0.00    -0.245 OA
BRANCH   3   5
ATOM      5  C   UNL A   1      32.371  28.052  25.727  1.00  0.00     0.116 A 
ATOM      6  C   UNL A   1      31.112  26.606  24.382  1.00  0.00     0.131 A 
ATOM      7  C   UNL A   1      32.359  26.487  23.819  1.00  0.00     0.112 A 
ATOM      8  C   UNL A   1      31.125  27.479  25.519  1.00  0.00     0.074 A 
ATOM      9  S   UNL A   1      33.442  27.636  24.446  1.00  0.00    -0.133 S 
BRANCH   6  10
ATOM     10  O   UNL A   1      29.987  26.073  23.840  1.00  0.00    -0.483 OA
BRANCH  10  11
ATOM     11  C   UNL A   1      28.907  26.985  23.684  1.00  0.00     0.329 C 
BRANCH  11  12
ATOM     12  C   UNL A   1      29.047  28.190  22.737  1.00  0.00     0.264 C 
ATOM     13  O   UNL A   1      30.028  28.275  22.005  1.00  0.00    -0.271 OA
ATOM     14  N   UNL A   1      27.986  29.068  22.798  1.00  0.00    -0.299 N 
ATOM     15  H   UNL A   1      27.170  28.802  23.280  1.00  0.00     0.172 HD
BRANCH  14  16
ATOM     16  C   UNL A   1      28.037  30.301  22.205  1.00  0.00     0.189 A 
ATOM     17  N   UNL A   1      28.021  30.612  20.936  1.00  0.00    -0.229 NA
ATOM     18  S   UNL A   1      28.235  31.601  23.298  1.00  0.00    -0.105 S 
ATOM     19  C   UNL A   1      28.243  31.966  20.789  1.00  0.00     0.125 A 
ATOM     20  C   UNL A   1      28.403  32.671  21.964  1.00  0.00     0.088 A 
ENDBRANCH  14  16
ENDBRANCH  11  12
ENDBRANCH  10  11
ENDBRANCH   6  10
ENDBRANCH   3   5
ENDBRANCH   2   3
ENDBRANCH   1   2
BRANCH   1  21
ATOM     21  C   UNL A   1      31.598  32.170  26.962  1.00  0.00     0.275 C 
BRANCH  21  22
ATOM     22  O   UNL A   1      32.631  33.137  26.694  1.00  0.00    -0.458 OA
BRANCH  22  23
ATOM     23  C   UNL A   1      33.185  33.687  27.801  1.00  0.00     0.338 C 
ATOM     24  O   UNL A   1      32.692  34.556  28.503  1.00  0.00    -0.246 OA
BRANCH  23  25
ATOM     25  C   UNL A   1      34.431  32.993  28.163  1.00  0.00     0.060 A 
ATOM     26  C   UNL A   1      34.299  31.746  28.765  1.00  0.00     0.016 A 
ATOM     27  C   UNL A   1      35.684  33.595  28.081  1.00  0.00     0.016 A 
ATOM     28  C   UNL A   1      35.390  31.110  29.345  1.00  0.00     0.010 A 
ATOM     29  C   UNL A   1      36.799  32.934  28.624  1.00  0.00     0.010 A 
ATOM     30  C   UNL A   1      36.657  31.698  29.289  1.00  0.00    -0.014 A 
BRANCH  30  31
ATOM     31  C   UNL A   1      37.797  31.048  29.996  1.00  0.00     0.031 A 
ATOM     32  C   UNL A   1      38.096  31.412  31.428  1.00  0.00     0.074 A 
ATOM     33  C   UNL A   1      38.526  30.092  29.384  1.00  0.00     0.049 A 
ATOM     34  N   UNL A   1      39.104  31.055  32.184  1.00  0.00    -0.248 NA
ATOM     35  C   UNL A   1      37.133  32.303  32.093  1.00  0.00     0.031 C 
ATOM     36  C   UNL A   1      38.291  29.589  28.029  1.00  0.00     0.029 A 
ATOM     37  N   UNL A   1      39.606  29.364  29.821  1.00  0.00    -0.354 N 
ATOM     38  C   UNL A   1      38.916  31.702  33.401  1.00  0.00     0.074 A 
ATOM     39  C   UNL A   1      37.712  32.496  33.270  1.00  0.00     0.031 C 
ATOM     40  C   UNL A   1      39.182  28.624  27.756  1.00  0.00     0.029 A 
ATOM     41  C   UNL A   1      40.106  28.495  28.878  1.00  0.00     0.049 A 
ATOM     42  H   UNL A   1      39.987  29.456  30.724  1.00  0.00     0.167 HD
ATOM     43  C   UNL A   1      39.675  31.634  34.524  1.00  0.00     0.034 A 
ATOM     44  C   UNL A   1      41.207  27.716  28.894  1.00  0.00     0.034 A 
ATOM     45  C   UNL A   1      40.859  30.817  34.644  1.00  0.00     0.049 A 
ATOM     46  C   UNL A   1      42.085  27.727  30.122  1.00  0.00     0.074 A 
ATOM     47  C   UNL A   1      41.706  30.680  35.732  1.00  0.00     0.029 A 
ATOM     48  N   UNL A   1      41.365  29.993  33.645  1.00  0.00    -0.354 N 
ATOM     49  N   UNL A   1      41.927  28.387  31.246  1.00  0.00    -0.248 NA
ATOM     50  C   UNL A   1      43.291  26.890  30.082  1.00  0.00     0.031 C 
ATOM     51  C   UNL A   1      42.758  29.834  35.367  1.00  0.00     0.029 A 
ATOM     52  C   UNL A   1      42.524  29.369  34.083  1.00  0.00     0.049 A 
ATOM     53  H   UNL A   1      40.959  29.872  32.757  1.00  0.00     0.167 HD
ATOM     54  C   UNL A   1      42.993  28.013  32.059  1.00  0.00     0.074 A 
ATOM     55  C   UNL A   1      43.777  27.060  31.302  1.00  0.00     0.031 C 
ATOM     56  C   UNL A   1      43.296  28.417  33.319  1.00  0.00     0.034 A 
BRANCH  43  57
ATOM     57  C   UNL A   1      39.281  32.513  35.689  1.00  0.00     0.023 A 
ATOM     58  C   UNL A   1      39.706  33.848  35.799  1.00  0.00     0.031 A 
ATOM     59  C   UNL A   1      38.471  31.996  36.719  1.00  0.00     0.131 A 
ATOM     60  C   UNL A   1      39.377  34.596  36.941  1.00  0.00     0.055 A 
ATOM     61  C   UNL A   1      38.080  32.772  37.812  1.00  0.00     0.041 A 
ATOM     62  F   UNL A   1      38.053  30.721  36.684  1.00  0.00    -0.206 F 
ATOM     63  C   UNL A   1      38.545  34.076  37.935  1.00  0.00     0.022 A 
BRANCH  60  64
ATOM     64  S   UNL A   1      40.168  36.212  37.181  1.00  0.00     0.124 S 
ATOM     65  O   UNL A   1      41.519  35.823  37.575  1.00  0.00    -0.237 OA
ATOM     66  O   UNL A   1      40.035  36.826  35.865  1.00  0.00    -0.237 OA
ATOM     67  O   UNL A   1      39.372  36.830  38.240  1.00  0.00    -0.744 OA
ENDBRANCH  60  64
ENDBRANCH  43  57
BRANCH  44  68
ATOM     68  C   UNL A   1      41.587  26.905  27.698  1.00  0.00     0.023 A 
ATOM     69  C   UNL A   1      41.435  25.509  27.687  1.00  0.00     0.031 A 
ATOM     70  C   UNL A   1      42.180  27.508  26.573  1.00  0.00     0.131 A 
ATOM     71  C   UNL A   1      41.923  24.760  26.605  1.00  0.00     0.055 A 
ATOM     72  C   UNL A   1      42.599  26.765  25.469  1.00  0.00     0.041 A 
ATOM     73  F   UNL A   1      42.360  28.838  26.530  1.00  0.00    -0.206 F 
ATOM     74  C   UNL A   1      42.487  25.380  25.488  1.00  0.00     0.022 A 
BRANCH  71  75
ATOM     75  S   UNL A   1      41.917  22.949  26.730  1.00  0.00     0.124 S 
ATOM     76  O   UNL A   1      40.632  22.616  26.124  1.00  0.00    -0.237 OA
ATOM     77  O   UNL A   1      43.103  22.588  25.959  1.00  0.00    -0.237 OA
ATOM     78  O   UNL A   1      42.012  22.707  28.168  1.00  0.00    -0.744 OA
ENDBRANCH  71  75
ENDBRANCH  44  68
BRANCH  56  79
ATOM     79  C   UNL A   1      44.490  27.770  33.982  1.00  0.00     0.023 A 
ATOM     80  C   UNL A   1      44.382  26.572  34.708  1.00  0.00     0.031 A 
ATOM     81  C   UNL A   1      45.756  28.378  33.896  1.00  0.00     0.131 A 
ATOM     82  C   UNL A   1      45.505  26.053  35.372  1.00  0.00     0.055 A 
ATOM     83  C   UNL A   1      46.882  27.821  34.500  1.00  0.00     0.041 A 
ATOM     84  F   UNL A   1      45.918  29.527  33.218  1.00  0.00    -0.206 F 
ATOM     85  C   UNL A   1      46.758  26.660  35.256  1.00  0.00     0.022 A 
BRANCH  82  86
ATOM     86  S   UNL A   1      45.285  24.632  36.477  1.00  0.00     0.124 S 
ATOM     87  O   UNL A   1      45.228  25.271  37.787  1.00  0.00    -0.237 OA
ATOM     88  O   UNL A   1      44.035  24.052  35.996  1.00  0.00    -0.237 OA
ATOM     89  O   UNL A   1      46.477  23.820  36.235  1.00  0.00    -0.744 OA
ENDBRANCH  82  86
ENDBRANCH  56  79
ENDBRANCH  30  31
ENDBRANCH  23  25
ENDBRANCH  22  23
ENDBRANCH  21  22
ENDBRANCH   1  21
TORSDOF 18
ENDMDL
