MODEL 1
REMARK VINA RESULT:     -11.2      0.000      0.000
REMARK SMILES CC(C)Cc1ccc([C@H](C)C(=O)OCCOC(=O)c2ccc(-c3c4nc(c(-c5cc(S(=O)(=O)[O-])ccc5F)c5ccc([nH]5)c(-c5cc(S(=O)(=O)[O-])ccc5F)c5nc(c(-c6cc(S(=O)(=O)[O-])ccc6F)c6ccc3[nH]6)C=C5)C=C4)cc2)cc1
REMARK SMILES IDX 14 1 13 2 11 3 12 4 9 5 10 6 8 7 5 8 6 9 83 10 7 11 82 12
REMARK SMILES IDX 4 13 2 14 1 15 3 16 15 17 16 18 17 19 18 20 19 21 20 22
REMARK SMILES IDX 81 23 21 24 80 25 22 26 23 27 24 28 74 29 25 30 79 31 73 32
REMARK SMILES IDX 75 33 26 34 78 35 72 36 71 37 27 39 59 40 39 41 58 42 40 43
REMARK SMILES IDX 43 44 57 45 76 46 41 47 42 48 56 50 77 51 44 52 28 53 29 54
REMARK SMILES IDX 37 55 30 56 36 57 38 58 35 59 31 60 32 61 33 62 34 63 60 64
REMARK SMILES IDX 61 65 69 66 62 67 68 68 70 69 67 70 63 71 64 72 65 73 66 74
REMARK SMILES IDX 45 75 46 76 54 77 47 78 53 79 55 80 52 81 48 82 49 83 50 84
REMARK SMILES IDX 51 85
REMARK H PARENT 75 38 43 49
REMARK Flexibility Score: inf
ROOT
ATOM      1  C   UNL A   1      35.622  23.097  24.021  1.00  0.00     0.274 C 
ENDROOT
BRANCH   1   2
ATOM      2  O   UNL A   1      34.960  22.947  22.751  1.00  0.00    -0.462 OA
BRANCH   2   3
ATOM      3  C   UNL A   1      33.654  23.326  22.713  1.00  0.00     0.313 C 
ATOM      4  O   UNL A   1      33.178  24.067  21.858  1.00  0.00    -0.252 OA
BRANCH   3   5
ATOM      5  C   UNL A   1      32.841  22.781  23.883  1.00  0.00     0.126 C 
ATOM      6  C   UNL A   1      31.492  23.465  24.087  1.00  0.00     0.025 C 
BRANCH   5   7
ATOM      7  C   UNL A   1      32.730  21.267  23.883  1.00  0.00    -0.034 A 
ATOM      8  C   UNL A   1      32.848  18.454  23.850  1.00  0.00    -0.048 A 
ATOM      9  C   UNL A   1      32.307  19.154  22.766  1.00  0.00     0.004 A 
ATOM     10  C   UNL A   1      33.254  19.165  24.984  1.00  0.00     0.004 A 
ATOM     11  C   UNL A   1      32.234  20.547  22.788  1.00  0.00     0.005 A 
ATOM     12  C   UNL A   1      33.203  20.557  24.997  1.00  0.00     0.005 A 
BRANCH   8  13
ATOM     13  C   UNL A   1      33.087  16.967  23.759  1.00  0.00     0.038 C 
BRANCH  13  14
ATOM     14  C   UNL A   1      33.468  16.345  25.121  1.00  0.00    -0.013 C 
ATOM     15  C   UNL A   1      32.530  15.204  25.530  1.00  0.00     0.008 C 
ATOM     16  C   UNL A   1      34.907  15.829  25.072  1.00  0.00     0.008 C 
ENDBRANCH  13  14
ENDBRANCH   8  13
ENDBRANCH   5   7
ENDBRANCH   3   5
ENDBRANCH   2   3
ENDBRANCH   1   2
BRANCH   1  17
ATOM     17  C   UNL A   1      36.499  21.885  24.348  1.00  0.00     0.275 C 
BRANCH  17  18
ATOM     18  O   UNL A   1      37.010  21.941  25.692  1.00  0.00    -0.458 OA
BRANCH  18  19
ATOM     19  C   UNL A   1      38.313  21.597  25.827  1.00  0.00     0.338 C 
ATOM     20  O   UNL A   1      38.841  20.559  25.468  1.00  0.00    -0.246 OA
BRANCH  19  21
ATOM     21  C   UNL A   1      39.064  22.734  26.378  1.00  0.00     0.060 A 
ATOM     22  C   UNL A   1      38.660  24.026  26.037  1.00  0.00     0.016 A 
ATOM     23  C   UNL A   1      40.199  22.528  27.162  1.00  0.00     0.016 A 
ATOM     24  C   UNL A   1      39.381  25.128  26.484  1.00  0.00     0.010 A 
ATOM     25  C   UNL A   1      40.921  23.635  27.616  1.00  0.00     0.010 A 
ATOM     26  C   UNL A   1      40.517  24.940  27.277  1.00  0.00    -0.014 A 
BRANCH  26  27
ATOM     27  C   UNL A   1      41.306  26.110  27.732  1.00  0.00     0.031 A 
ATOM     28  C   UNL A   1      40.640  27.182  28.543  1.00  0.00     0.074 A 
ATOM     29  C   UNL A   1      42.610  26.201  27.410  1.00  0.00     0.049 A 
ATOM     30  N   UNL A   1      41.098  28.351  28.903  1.00  0.00    -0.248 NA
ATOM     31  C   UNL A   1      39.274  26.898  29.007  1.00  0.00     0.031 C 
ATOM     32  C   UNL A   1      43.374  25.181  26.689  1.00  0.00     0.029 A 
ATOM     33  N   UNL A   1      43.520  27.201  27.638  1.00  0.00    -0.354 N 
ATOM     34  C   UNL A   1      40.070  28.958  29.615  1.00  0.00     0.074 A 
ATOM     35  C   UNL A   1      38.959  28.028  29.624  1.00  0.00     0.031 C 
ATOM     36  C   UNL A   1      44.635  25.613  26.527  1.00  0.00     0.029 A 
ATOM     37  C   UNL A   1      44.750  26.963  27.069  1.00  0.00     0.049 A 
ATOM     38  H   UNL A   1      43.313  28.010  28.159  1.00  0.00     0.167 HD
ATOM     39  C   UNL A   1      40.058  30.182  30.197  1.00  0.00     0.034 A 
ATOM     40  C   UNL A   1      45.828  27.763  26.957  1.00  0.00     0.034 A 
ATOM     41  C   UNL A   1      41.180  31.089  30.175  1.00  0.00     0.049 A 
ATOM     42  C   UNL A   1      45.754  29.157  27.527  1.00  0.00     0.074 A 
ATOM     43  C   UNL A   1      41.286  32.346  30.743  1.00  0.00     0.029 A 
ATOM     44  N   UNL A   1      42.392  30.838  29.541  1.00  0.00    -0.354 N 
ATOM     45  N   UNL A   1      44.766  29.736  28.170  1.00  0.00    -0.248 NA
ATOM     46  C   UNL A   1      46.936  30.008  27.346  1.00  0.00     0.031 C 
ATOM     47  C   UNL A   1      42.533  32.882  30.397  1.00  0.00     0.029 A 
ATOM     48  C   UNL A   1      43.236  31.932  29.672  1.00  0.00     0.049 A 
ATOM     49  H   UNL A   1      42.618  30.006  29.067  1.00  0.00     0.167 HD
ATOM     50  C   UNL A   1      45.217  31.013  28.489  1.00  0.00     0.074 A 
ATOM     51  C   UNL A   1      46.572  31.111  27.983  1.00  0.00     0.031 C 
ATOM     52  C   UNL A   1      44.575  32.015  29.143  1.00  0.00     0.034 A 
BRANCH  39  53
ATOM     53  C   UNL A   1      38.770  30.634  30.839  1.00  0.00     0.023 A 
ATOM     54  C   UNL A   1      37.836  31.435  30.159  1.00  0.00     0.031 A 
ATOM     55  C   UNL A   1      38.483  30.271  32.168  1.00  0.00     0.131 A 
ATOM     56  C   UNL A   1      36.690  31.895  30.829  1.00  0.00     0.055 A 
ATOM     57  C   UNL A   1      37.309  30.674  32.805  1.00  0.00     0.041 A 
ATOM     58  F   UNL A   1      39.350  29.528  32.874  1.00  0.00    -0.206 F 
ATOM     59  C   UNL A   1      36.410  31.501  32.139  1.00  0.00     0.022 A 
BRANCH  56  60
ATOM     60  S   UNL A   1      35.629  33.113  30.003  1.00  0.00     0.124 S 
ATOM     61  O   UNL A   1      36.420  33.442  28.820  1.00  0.00    -0.237 OA
ATOM     62  O   UNL A   1      34.405  32.357  29.764  1.00  0.00    -0.237 OA
ATOM     63  O   UNL A   1      35.516  34.190  30.985  1.00  0.00    -0.744 OA
ENDBRANCH  56  60
ENDBRANCH  39  53
BRANCH  40  64
ATOM     64  C   UNL A   1      47.039  27.306  26.217  1.00  0.00     0.023 A 
ATOM     65  C   UNL A   1      47.257  27.681  24.882  1.00  0.00     0.031 A 
ATOM     66  C   UNL A   1      47.969  26.438  26.819  1.00  0.00     0.131 A 
ATOM     67  C   UNL A   1      48.354  27.157  24.180  1.00  0.00     0.055 A 
ATOM     68  C   UNL A   1      49.088  25.964  26.133  1.00  0.00     0.041 A 
ATOM     69  F   UNL A   1      47.806  26.043  28.092  1.00  0.00    -0.206 F 
ATOM     70  C   UNL A   1      49.278  26.312  24.800  1.00  0.00     0.022 A 
BRANCH  67  71
ATOM     71  S   UNL A   1      48.506  27.522  22.410  1.00  0.00     0.124 S 
ATOM     72  O   UNL A   1      48.653  26.187  21.841  1.00  0.00    -0.237 OA
ATOM     73  O   UNL A   1      47.246  28.203  22.132  1.00  0.00    -0.237 OA
ATOM     74  O   UNL A   1      49.697  28.367  22.338  1.00  0.00    -0.744 OA
ENDBRANCH  67  71
ENDBRANCH  40  64
BRANCH  52  75
ATOM     75  C   UNL A   1      45.358  33.284  29.371  1.00  0.00     0.023 A 
ATOM     76  C   UNL A   1      45.353  34.332  28.433  1.00  0.00     0.031 A 
ATOM     77  C   UNL A   1      46.136  33.436  30.532  1.00  0.00     0.131 A 
ATOM     78  C   UNL A   1      46.157  35.462  28.646  1.00  0.00     0.055 A 
ATOM     79  C   UNL A   1      46.888  34.587  30.766  1.00  0.00     0.041 A 
ATOM     80  F   UNL A   1      46.177  32.465  31.459  1.00  0.00    -0.206 F 
ATOM     81  C   UNL A   1      46.912  35.603  29.814  1.00  0.00     0.022 A 
BRANCH  78  82
ATOM     82  S   UNL A   1      46.272  36.708  27.334  1.00  0.00     0.124 S 
ATOM     83  O   UNL A   1      45.210  37.639  27.704  1.00  0.00    -0.237 OA
ATOM     84  O   UNL A   1      47.636  37.203  27.490  1.00  0.00    -0.237 OA
ATOM     85  O   UNL A   1      46.028  35.944  26.112  1.00  0.00    -0.744 OA
ENDBRANCH  78  82
ENDBRANCH  52  75
ENDBRANCH  26  27
ENDBRANCH  19  21
ENDBRANCH  18  19
ENDBRANCH  17  18
ENDBRANCH   1  17
TORSDOF 17
ENDMDL
MODEL 2
REMARK VINA RESULT:     -11.0      1.388      3.069
REMARK SMILES CC(C)Cc1ccc([C@H](C)C(=O)OCCOC(=O)c2ccc(-c3c4nc(c(-c5cc(S(=O)(=O)[O-])ccc5F)c5ccc([nH]5)c(-c5cc(S(=O)(=O)[O-])ccc5F)c5nc(c(-c6cc(S(=O)(=O)[O-])ccc6F)c6ccc3[nH]6)C=C5)C=C4)cc2)cc1
REMARK SMILES IDX 14 1 13 2 11 3 12 4 9 5 10 6 8 7 5 8 6 9 83 10 7 11 82 12
REMARK SMILES IDX 4 13 2 14 1 15 3 16 15 17 16 18 17 19 18 20 19 21 20 22
REMARK SMILES IDX 81 23 21 24 80 25 22 26 23 27 24 28 74 29 25 30 79 31 73 32
REMARK SMILES IDX 75 33 26 34 78 35 72 36 71 37 27 39 59 40 39 41 58 42 40 43
REMARK SMILES IDX 43 44 57 45 76 46 41 47 42 48 56 50 77 51 44 52 28 53 29 54
REMARK SMILES IDX 37 55 30 56 36 57 38 58 35 59 31 60 32 61 33 62 34 63 60 64
REMARK SMILES IDX 61 65 69 66 62 67 68 68 70 69 67 70 63 71 64 72 65 73 66 74
REMARK SMILES IDX 45 75 46 76 54 77 47 78 53 79 55 80 52 81 48 82 49 83 50 84
REMARK SMILES IDX 51 85
REMARK H PARENT 75 38 43 49
REMARK Flexibility Score: inf
ROOT
ATOM      1  C   UNL A   1      35.154  21.223  24.677  1.00  0.00     0.274 C 
ENDROOT
BRANCH   1   2
ATOM      2  O   UNL A   1      34.183  20.575  25.520  1.00  0.00    -0.462 OA
BRANCH   2   3
ATOM      3  C   UNL A   1      32.951  20.389  24.973  1.00  0.00     0.313 C 
ATOM      4  O   UNL A   1      32.164  19.519  25.332  1.00  0.00    -0.252 OA
BRANCH   3   5
ATOM      5  C   UNL A   1      32.663  21.343  23.816  1.00  0.00     0.126 C 
ATOM      6  C   UNL A   1      32.136  20.663  22.556  1.00  0.00     0.025 C 
BRANCH   5   7
ATOM      7  C   UNL A   1      31.827  22.542  24.222  1.00  0.00    -0.034 A 
ATOM      8  C   UNL A   1      30.521  24.953  24.865  1.00  0.00    -0.048 A 
ATOM      9  C   UNL A   1      31.014  24.121  25.876  1.00  0.00     0.004 A 
ATOM     10  C   UNL A   1      30.614  24.533  23.534  1.00  0.00     0.004 A 
ATOM     11  C   UNL A   1      31.647  22.919  25.560  1.00  0.00     0.005 A 
ATOM     12  C   UNL A   1      31.267  23.345  23.216  1.00  0.00     0.005 A 
BRANCH   8  13
ATOM     13  C   UNL A   1      29.994  26.328  25.194  1.00  0.00     0.038 C 
BRANCH  13  14
ATOM     14  C   UNL A   1      31.125  27.352  25.434  1.00  0.00    -0.013 C 
ATOM     15  C   UNL A   1      31.884  27.096  26.741  1.00  0.00     0.008 C 
ATOM     16  C   UNL A   1      32.106  27.327  24.261  1.00  0.00     0.008 C 
ENDBRANCH  13  14
ENDBRANCH   8  13
ENDBRANCH   5   7
ENDBRANCH   3   5
ENDBRANCH   2   3
ENDBRANCH   1   2
BRANCH   1  17
ATOM     17  C   UNL A   1      36.577  20.750  24.988  1.00  0.00     0.275 C 
BRANCH  17  18
ATOM     18  O   UNL A   1      37.314  21.729  25.743  1.00  0.00    -0.458 OA
BRANCH  18  19
ATOM     19  C   UNL A   1      38.612  21.420  25.975  1.00  0.00     0.338 C 
ATOM     20  O   UNL A   1      39.183  20.380  25.695  1.00  0.00    -0.246 OA
BRANCH  19  21
ATOM     21  C   UNL A   1      39.305  22.596  26.520  1.00  0.00     0.060 A 
ATOM     22  C   UNL A   1      38.898  23.862  26.098  1.00  0.00     0.016 A 
ATOM     23  C   UNL A   1      40.390  22.449  27.383  1.00  0.00     0.016 A 
ATOM     24  C   UNL A   1      39.568  24.999  26.540  1.00  0.00     0.010 A 
ATOM     25  C   UNL A   1      41.061  23.590  27.832  1.00  0.00     0.010 A 
ATOM     26  C   UNL A   1      40.655  24.870  27.411  1.00  0.00    -0.014 A 
BRANCH  26  27
ATOM     27  C   UNL A   1      41.390  26.076  27.862  1.00  0.00     0.031 A 
ATOM     28  C   UNL A   1      40.674  27.124  28.663  1.00  0.00     0.074 A 
ATOM     29  C   UNL A   1      42.690  26.221  27.546  1.00  0.00     0.049 A 
ATOM     30  N   UNL A   1      41.080  28.313  29.018  1.00  0.00    -0.248 NA
ATOM     31  C   UNL A   1      39.319  26.784  29.121  1.00  0.00     0.031 C 
ATOM     32  C   UNL A   1      43.501  25.230  26.835  1.00  0.00     0.029 A 
ATOM     33  N   UNL A   1      43.555  27.260  27.772  1.00  0.00    -0.354 N 
ATOM     34  C   UNL A   1      40.022  28.880  29.720  1.00  0.00     0.074 A 
ATOM     35  C   UNL A   1      38.953  27.903  29.729  1.00  0.00     0.031 C 
ATOM     36  C   UNL A   1      44.744  25.715  26.676  1.00  0.00     0.029 A 
ATOM     37  C   UNL A   1      44.797  27.072  27.211  1.00  0.00     0.049 A 
ATOM     38  H   UNL A   1      43.311  28.063  28.287  1.00  0.00     0.167 HD
ATOM     39  C   UNL A   1      39.955  30.106  30.295  1.00  0.00     0.034 A 
ATOM     40  C   UNL A   1      45.840  27.917  27.098  1.00  0.00     0.034 A 
ATOM     41  C   UNL A   1      41.037  31.060  30.272  1.00  0.00     0.049 A 
ATOM     42  C   UNL A   1      45.704  29.310  27.660  1.00  0.00     0.074 A 
ATOM     43  C   UNL A   1      41.086  32.324  30.833  1.00  0.00     0.029 A 
ATOM     44  N   UNL A   1      42.262  30.858  29.646  1.00  0.00    -0.354 N 
ATOM     45  N   UNL A   1      44.688  29.850  28.294  1.00  0.00    -0.248 NA
ATOM     46  C   UNL A   1      46.849  30.210  27.479  1.00  0.00     0.031 C 
ATOM     47  C   UNL A   1      42.310  32.911  30.489  1.00  0.00     0.029 A 
ATOM     48  C   UNL A   1      43.057  31.987  29.774  1.00  0.00     0.049 A 
ATOM     49  H   UNL A   1      42.526  30.033  29.179  1.00  0.00     0.167 HD
ATOM     50  C   UNL A   1      45.083  31.148  28.607  1.00  0.00     0.074 A 
ATOM     51  C   UNL A   1      46.435  31.300  28.107  1.00  0.00     0.031 C 
ATOM     52  C   UNL A   1      44.395  32.125  29.251  1.00  0.00     0.034 A 
BRANCH  39  53
ATOM     53  C   UNL A   1      38.645  30.506  30.927  1.00  0.00     0.023 A 
ATOM     54  C   UNL A   1      37.627  31.144  30.198  1.00  0.00     0.031 A 
ATOM     55  C   UNL A   1      38.423  30.261  32.295  1.00  0.00     0.131 A 
ATOM     56  C   UNL A   1      36.458  31.568  30.853  1.00  0.00     0.055 A 
ATOM     57  C   UNL A   1      37.231  30.622  32.924  1.00  0.00     0.041 A 
ATOM     58  F   UNL A   1      39.370  29.677  33.046  1.00  0.00    -0.206 F 
ATOM     59  C   UNL A   1      36.245  31.291  32.205  1.00  0.00     0.022 A 
BRANCH  56  60
ATOM     60  S   UNL A   1      35.271  32.592  29.940  1.00  0.00     0.124 S 
ATOM     61  O   UNL A   1      36.071  33.777  29.641  1.00  0.00    -0.237 OA
ATOM     62  O   UNL A   1      34.932  31.746  28.802  1.00  0.00    -0.237 OA
ATOM     63  O   UNL A   1      34.192  32.805  30.903  1.00  0.00    -0.744 OA
ENDBRANCH  56  60
ENDBRANCH  39  53
BRANCH  40  64
ATOM     64  C   UNL A   1      47.074  27.508  26.368  1.00  0.00     0.023 A 
ATOM     65  C   UNL A   1      47.232  27.785  25.001  1.00  0.00     0.031 A 
ATOM     66  C   UNL A   1      48.090  26.781  27.015  1.00  0.00     0.131 A 
ATOM     67  C   UNL A   1      48.359  27.302  24.317  1.00  0.00     0.055 A 
ATOM     68  C   UNL A   1      49.235  26.351  26.342  1.00  0.00     0.041 A 
ATOM     69  F   UNL A   1      47.987  26.483  28.321  1.00  0.00    -0.206 F 
ATOM     70  C   UNL A   1      49.367  26.599  24.981  1.00  0.00     0.022 A 
BRANCH  67  71
ATOM     71  S   UNL A   1      48.443  27.527  22.518  1.00  0.00     0.124 S 
ATOM     72  O   UNL A   1      49.709  28.235  22.366  1.00  0.00    -0.237 OA
ATOM     73  O   UNL A   1      48.416  26.149  22.040  1.00  0.00    -0.237 OA
ATOM     74  O   UNL A   1      47.248  28.312  22.217  1.00  0.00    -0.744 OA
ENDBRANCH  67  71
ENDBRANCH  40  64
BRANCH  52  75
ATOM     75  C   UNL A   1      45.121  33.428  29.475  1.00  0.00     0.023 A 
ATOM     76  C   UNL A   1      45.017  34.495  28.566  1.00  0.00     0.031 A 
ATOM     77  C   UNL A   1      45.945  33.593  30.602  1.00  0.00     0.131 A 
ATOM     78  C   UNL A   1      45.771  35.660  28.770  1.00  0.00     0.055 A 
ATOM     79  C   UNL A   1      46.647  34.777  30.830  1.00  0.00     0.041 A 
ATOM     80  F   UNL A   1      46.080  32.604  31.501  1.00  0.00    -0.206 F 
ATOM     81  C   UNL A   1      46.572  35.814  29.904  1.00  0.00     0.022 A 
BRANCH  78  82
ATOM     82  S   UNL A   1      45.759  36.942  27.486  1.00  0.00     0.124 S 
ATOM     83  O   UNL A   1      46.318  38.088  28.195  1.00  0.00    -0.237 OA
ATOM     84  O   UNL A   1      46.606  36.357  26.452  1.00  0.00    -0.237 OA
ATOM     85  O   UNL A   1      44.345  37.061  27.133  1.00  0.00    -0.744 OA
ENDBRANCH  78  82
ENDBRANCH  52  75
ENDBRANCH  26  27
ENDBRANCH  19  21
ENDBRANCH  18  19
ENDBRANCH  17  18
ENDBRANCH   1  17
TORSDOF 17
ENDMDL
MODEL 3
REMARK VINA RESULT:     -11.0      4.169     10.013
REMARK SMILES CC(C)Cc1ccc([C@H](C)C(=O)OCCOC(=O)c2ccc(-c3c4nc(c(-c5cc(S(=O)(=O)[O-])ccc5F)c5ccc([nH]5)c(-c5cc(S(=O)(=O)[O-])ccc5F)c5nc(c(-c6cc(S(=O)(=O)[O-])ccc6F)c6ccc3[nH]6)C=C5)C=C4)cc2)cc1
REMARK SMILES IDX 14 1 13 2 11 3 12 4 9 5 10 6 8 7 5 8 6 9 83 10 7 11 82 12
REMARK SMILES IDX 4 13 2 14 1 15 3 16 15 17 16 18 17 19 18 20 19 21 20 22
REMARK SMILES IDX 81 23 21 24 80 25 22 26 23 27 24 28 74 29 25 30 79 31 73 32
REMARK SMILES IDX 75 33 26 34 78 35 72 36 71 37 27 39 59 40 39 41 58 42 40 43
REMARK SMILES IDX 43 44 57 45 76 46 41 47 42 48 56 50 77 51 44 52 28 53 29 54
REMARK SMILES IDX 37 55 30 56 36 57 38 58 35 59 31 60 32 61 33 62 34 63 60 64
REMARK SMILES IDX 61 65 69 66 62 67 68 68 70 69 67 70 63 71 64 72 65 73 66 74
REMARK SMILES IDX 45 75 46 76 54 77 47 78 53 79 55 80 52 81 48 82 49 83 50 84
REMARK SMILES IDX 51 85
REMARK H PARENT 75 38 43 49
REMARK Flexibility Score: inf
ROOT
ATOM      1  C   UNL A   1      41.910  20.394  26.262  1.00  0.00     0.274 C 
ENDROOT
BRANCH   1   2
ATOM      2  O   UNL A   1      42.495  21.405  25.420  1.00  0.00    -0.462 OA
BRANCH   2   3
ATOM      3  C   UNL A   1      43.829  21.617  25.586  1.00  0.00     0.313 C 
ATOM      4  O   UNL A   1      44.653  20.721  25.742  1.00  0.00    -0.252 OA
BRANCH   3   5
ATOM      5  C   UNL A   1      44.198  23.098  25.617  1.00  0.00     0.126 C 
ATOM      6  C   UNL A   1      43.420  23.961  24.628  1.00  0.00     0.025 C 
BRANCH   5   7
ATOM      7  C   UNL A   1      44.208  23.684  27.016  1.00  0.00    -0.034 A 
ATOM      8  C   UNL A   1      44.392  24.505  29.704  1.00  0.00    -0.048 A 
ATOM      9  C   UNL A   1      43.162  24.111  29.164  1.00  0.00     0.004 A 
ATOM     10  C   UNL A   1      45.512  24.564  28.869  1.00  0.00     0.004 A 
ATOM     11  C   UNL A   1      43.067  23.719  27.829  1.00  0.00     0.005 A 
ATOM     12  C   UNL A   1      45.424  24.150  27.542  1.00  0.00     0.005 A 
BRANCH   8  13
ATOM     13  C   UNL A   1      44.531  24.762  31.184  1.00  0.00     0.038 C 
BRANCH  13  14
ATOM     14  C   UNL A   1      44.889  26.232  31.497  1.00  0.00    -0.013 C 
ATOM     15  C   UNL A   1      43.657  27.143  31.530  1.00  0.00     0.008 C 
ATOM     16  C   UNL A   1      45.621  26.314  32.837  1.00  0.00     0.008 C 
ENDBRANCH  13  14
ENDBRANCH   8  13
ENDBRANCH   5   7
ENDBRANCH   3   5
ENDBRANCH   2   3
ENDBRANCH   1   2
BRANCH   1  17
ATOM     17  C   UNL A   1      40.395  20.575  26.392  1.00  0.00     0.275 C 
BRANCH  17  18
ATOM     18  O   UNL A   1      40.060  21.750  27.153  1.00  0.00    -0.458 OA
BRANCH  18  19
ATOM     19  C   UNL A   1      39.212  22.610  26.541  1.00  0.00     0.338 C 
ATOM     20  O   UNL A   1      38.267  22.329  25.825  1.00  0.00    -0.246 OA
BRANCH  19  21
ATOM     21  C   UNL A   1      39.518  23.984  26.967  1.00  0.00     0.060 A 
ATOM     22  C   UNL A   1      40.073  24.861  26.035  1.00  0.00     0.016 A 
ATOM     23  C   UNL A   1      39.327  24.380  28.290  1.00  0.00     0.016 A 
ATOM     24  C   UNL A   1      40.436  26.150  26.413  1.00  0.00     0.010 A 
ATOM     25  C   UNL A   1      39.687  25.676  28.670  1.00  0.00     0.010 A 
ATOM     26  C   UNL A   1      40.245  26.567  27.734  1.00  0.00    -0.014 A 
BRANCH  26  27
ATOM     27  C   UNL A   1      40.657  27.929  28.148  1.00  0.00     0.031 A 
ATOM     28  C   UNL A   1      42.112  28.297  28.143  1.00  0.00     0.074 A 
ATOM     29  C   UNL A   1      39.724  28.821  28.529  1.00  0.00     0.049 A 
ATOM     30  N   UNL A   1      42.695  29.367  28.612  1.00  0.00    -0.248 NA
ATOM     31  C   UNL A   1      43.029  27.327  27.528  1.00  0.00     0.031 C 
ATOM     32  C   UNL A   1      38.277  28.591  28.503  1.00  0.00     0.029 A 
ATOM     33  N   UNL A   1      39.851  30.094  29.022  1.00  0.00    -0.354 N 
ATOM     34  C   UNL A   1      44.054  29.191  28.375  1.00  0.00     0.074 A 
ATOM     35  C   UNL A   1      44.205  27.904  27.729  1.00  0.00     0.031 C 
ATOM     36  C   UNL A   1      37.653  29.686  28.968  1.00  0.00     0.029 A 
ATOM     37  C   UNL A   1      38.653  30.662  29.388  1.00  0.00     0.049 A 
ATOM     38  H   UNL A   1      40.716  30.556  29.106  1.00  0.00     0.167 HD
ATOM     39  C   UNL A   1      45.076  30.029  28.679  1.00  0.00     0.034 A 
ATOM     40  C   UNL A   1      38.396  31.817  30.033  1.00  0.00     0.034 A 
ATOM     41  C   UNL A   1      44.897  31.309  29.322  1.00  0.00     0.049 A 
ATOM     42  C   UNL A   1      39.558  32.684  30.448  1.00  0.00     0.074 A 
ATOM     43  C   UNL A   1      45.857  32.245  29.664  1.00  0.00     0.029 A 
ATOM     44  N   UNL A   1      43.674  31.829  29.729  1.00  0.00    -0.354 N 
ATOM     45  N   UNL A   1      40.843  32.496  30.250  1.00  0.00    -0.248 NA
ATOM     46  C   UNL A   1      39.236  33.913  31.184  1.00  0.00     0.031 C 
ATOM     47  C   UNL A   1      45.224  33.297  30.337  1.00  0.00     0.029 A 
ATOM     48  C   UNL A   1      43.859  33.054  30.353  1.00  0.00     0.049 A 
ATOM     49  H   UNL A   1      42.803  31.391  29.596  1.00  0.00     0.167 HD
ATOM     50  C   UNL A   1      41.480  33.596  30.818  1.00  0.00     0.074 A 
ATOM     51  C   UNL A   1      40.436  34.448  31.350  1.00  0.00     0.031 C 
ATOM     52  C   UNL A   1      42.806  33.879  30.893  1.00  0.00     0.034 A 
BRANCH  39  53
ATOM     53  C   UNL A   1      46.476  29.551  28.386  1.00  0.00     0.023 A 
ATOM     54  C   UNL A   1      47.219  28.798  29.312  1.00  0.00     0.031 A 
ATOM     55  C   UNL A   1      47.087  29.877  27.160  1.00  0.00     0.131 A 
ATOM     56  C   UNL A   1      48.548  28.446  29.021  1.00  0.00     0.055 A 
ATOM     57  C   UNL A   1      48.383  29.465  26.850  1.00  0.00     0.041 A 
ATOM     58  F   UNL A   1      46.434  30.615  26.248  1.00  0.00    -0.206 F 
ATOM     59  C   UNL A   1      49.126  28.756  27.788  1.00  0.00     0.022 A 
BRANCH  56  60
ATOM     60  S   UNL A   1      49.551  27.682  30.326  1.00  0.00     0.124 S 
ATOM     61  O   UNL A   1      50.633  27.079  29.553  1.00  0.00    -0.237 OA
ATOM     62  O   UNL A   1      49.917  28.825  31.154  1.00  0.00    -0.237 OA
ATOM     63  O   UNL A   1      48.634  26.729  30.948  1.00  0.00    -0.744 OA
ENDBRANCH  56  60
ENDBRANCH  39  53
BRANCH  40  64
ATOM     64  C   UNL A   1      37.000  32.191  30.395  1.00  0.00     0.023 A 
ATOM     65  C   UNL A   1      36.156  32.826  29.469  1.00  0.00     0.031 A 
ATOM     66  C   UNL A   1      36.506  31.971  31.693  1.00  0.00     0.131 A 
ATOM     67  C   UNL A   1      34.881  33.256  29.867  1.00  0.00     0.055 A 
ATOM     68  C   UNL A   1      35.216  32.351  32.068  1.00  0.00     0.041 A 
ATOM     69  F   UNL A   1      37.272  31.373  32.621  1.00  0.00    -0.206 F 
ATOM     70  C   UNL A   1      34.400  33.011  31.156  1.00  0.00     0.022 A 
BRANCH  67  71
ATOM     71  S   UNL A   1      33.889  34.228  28.699  1.00  0.00     0.124 S 
ATOM     72  O   UNL A   1      32.755  34.622  29.527  1.00  0.00    -0.237 OA
ATOM     73  O   UNL A   1      34.815  35.293  28.329  1.00  0.00    -0.237 OA
ATOM     74  O   UNL A   1      33.584  33.272  27.635  1.00  0.00    -0.744 OA
ENDBRANCH  67  71
ENDBRANCH  40  64
BRANCH  52  75
ATOM     75  C   UNL A   1      43.182  35.185  31.546  1.00  0.00     0.023 A 
ATOM     76  C   UNL A   1      43.488  36.327  30.786  1.00  0.00     0.031 A 
ATOM     77  C   UNL A   1      43.257  35.281  32.947  1.00  0.00     0.131 A 
ATOM     78  C   UNL A   1      43.910  37.501  31.428  1.00  0.00     0.055 A 
ATOM     79  C   UNL A   1      43.622  36.467  33.583  1.00  0.00     0.041 A 
ATOM     80  F   UNL A   1      42.977  34.218  33.720  1.00  0.00    -0.206 F 
ATOM     81  C   UNL A   1      43.964  37.582  32.822  1.00  0.00     0.022 A 
BRANCH  78  82
ATOM     82  S   UNL A   1      44.474  38.895  30.415  1.00  0.00     0.124 S 
ATOM     83  O   UNL A   1      43.214  39.436  29.915  1.00  0.00    -0.237 OA
ATOM     84  O   UNL A   1      45.183  39.722  31.385  1.00  0.00    -0.237 OA
ATOM     85  O   UNL A   1      45.322  38.264  29.404  1.00  0.00    -0.744 OA
ENDBRANCH  78  82
ENDBRANCH  52  75
ENDBRANCH  26  27
ENDBRANCH  19  21
ENDBRANCH  18  19
ENDBRANCH  17  18
ENDBRANCH   1  17
TORSDOF 17
ENDMDL
