MODEL 1
REMARK VINA RESULT:     -11.2      0.000      0.000
REMARK SMILES CCC(CC)(C(=O)OCCOC(=O)c1ccc(-c2c3nc(c(-c4cc(S(=O)(=O)[O-])ccc4F)c4ccc([nH]4)c(-c4cc(S(=O)(=O)[O-])ccc4F)c4nc(c(-c5cc(S(=O)(=O)[O-])ccc5F)c5ccc2[nH]5)C=C4)C=C3)cc1)n1nnnc1CC[C@@H]1CCCO1
REMARK SMILES IDX 9 1 8 2 6 3 7 4 3 5 2 6 1 7 4 8 5 9 77 10 78 11 81 12 79 13
REMARK SMILES IDX 80 14 82 15 83 16 84 17 85 18 88 19 86 20 87 21 10 22 11 23
REMARK SMILES IDX 12 24 13 25 14 26 15 27 76 28 16 29 75 30 17 31 18 32 19 33
REMARK SMILES IDX 69 34 20 35 74 36 68 37 70 38 21 39 73 40 67 41 66 42 22 44
REMARK SMILES IDX 54 45 34 46 53 47 35 48 38 49 52 50 71 51 36 52 37 53 51 55
REMARK SMILES IDX 72 56 39 57 23 58 24 59 32 60 25 61 31 62 33 63 30 64 26 65
REMARK SMILES IDX 27 66 28 67 29 68 55 69 56 70 64 71 57 72 63 73 65 74 62 75
REMARK SMILES IDX 58 76 59 77 60 78 61 79 40 80 41 81 49 82 42 83 48 84 50 85
REMARK SMILES IDX 47 86 43 87 44 88 45 89 46 90
REMARK H PARENT 70 43 38 54
REMARK Flexibility Score: inf
ROOT
ATOM      1  C   UNL A   1      34.928  20.606  24.953  1.00  0.00     0.274 C 
ENDROOT
BRANCH   1   2
ATOM      2  O   UNL A   1      34.568  21.778  24.194  1.00  0.00    -0.460 OA
BRANCH   2   3
ATOM      3  C   UNL A   1      33.234  22.015  24.045  1.00  0.00     0.334 C 
ATOM      4  O   UNL A   1      32.445  21.141  23.710  1.00  0.00    -0.249 OA
BRANCH   3   5
ATOM      5  C   UNL A   1      32.848  23.499  24.209  1.00  0.00     0.163 C 
BRANCH   5   6
ATOM      6  C   UNL A   1      34.153  24.383  24.204  1.00  0.00     0.039 C 
ATOM      7  C   UNL A   1      34.432  25.185  25.478  1.00  0.00     0.007 C 
ENDBRANCH   5   6
BRANCH   5   8
ATOM      8  C   UNL A   1      31.932  23.883  23.009  1.00  0.00     0.039 C 
ATOM      9  C   UNL A   1      32.326  25.136  22.226  1.00  0.00     0.007 C 
ENDBRANCH   5   8
BRANCH   5  10
ATOM     10  N   UNL A   1      32.124  23.619  25.499  1.00  0.00    -0.212 N 
ATOM     11  N   UNL A   1      32.364  22.691  26.456  1.00  0.00    -0.044 NA
ATOM     12  C   UNL A   1      31.125  24.461  25.975  1.00  0.00     0.152 A 
ATOM     13  N   UNL A   1      31.576  22.978  27.472  1.00  0.00    -0.024 NA
ATOM     14  N   UNL A   1      30.801  24.056  27.189  1.00  0.00    -0.114 NA
BRANCH  12  15
ATOM     15  C   UNL A   1      30.530  25.676  25.355  1.00  0.00     0.082 C 
BRANCH  15  16
ATOM     16  C   UNL A   1      31.216  26.998  25.694  1.00  0.00     0.040 C 
BRANCH  16  17
ATOM     17  C   UNL A   1      30.962  28.145  24.717  1.00  0.00     0.118 C 
ATOM     18  C   UNL A   1      30.045  27.784  23.563  1.00  0.00     0.034 C 
ATOM     19  O   UNL A   1      32.233  28.474  24.114  1.00  0.00    -0.378 OA
ATOM     20  C   UNL A   1      30.557  28.655  22.445  1.00  0.00     0.031 C 
ATOM     21  C   UNL A   1      32.023  28.828  22.746  1.00  0.00     0.160 C 
ENDBRANCH  16  17
ENDBRANCH  15  16
ENDBRANCH  12  15
ENDBRANCH   5  10
ENDBRANCH   3   5
ENDBRANCH   2   3
ENDBRANCH   1   2
BRANCH   1  22
ATOM     22  C   UNL A   1      36.436  20.372  24.932  1.00  0.00     0.275 C 
BRANCH  22  23
ATOM     23  O   UNL A   1      37.115  21.371  25.713  1.00  0.00    -0.458 OA
BRANCH  23  24
ATOM     24  C   UNL A   1      38.450  21.194  25.845  1.00  0.00     0.338 C 
ATOM     25  O   UNL A   1      39.091  20.193  25.554  1.00  0.00    -0.246 OA
BRANCH  24  26
ATOM     26  C   UNL A   1      39.060  22.413  26.393  1.00  0.00     0.060 A 
ATOM     27  C   UNL A   1      38.510  23.648  26.064  1.00  0.00     0.016 A 
ATOM     28  C   UNL A   1      40.247  22.340  27.124  1.00  0.00     0.016 A 
ATOM     29  C   UNL A   1      39.182  24.820  26.405  1.00  0.00     0.010 A 
ATOM     30  C   UNL A   1      40.887  23.520  27.523  1.00  0.00     0.010 A 
ATOM     31  C   UNL A   1      40.377  24.772  27.138  1.00  0.00    -0.014 A 
BRANCH  31  32
ATOM     32  C   UNL A   1      41.098  26.038  27.444  1.00  0.00     0.031 A 
ATOM     33  C   UNL A   1      40.541  27.008  28.444  1.00  0.00     0.074 A 
ATOM     34  C   UNL A   1      42.282  26.296  26.855  1.00  0.00     0.049 A 
ATOM     35  N   UNL A   1      40.991  28.188  28.786  1.00  0.00    -0.248 NA
ATOM     36  C   UNL A   1      39.297  26.617  29.120  1.00  0.00     0.031 C 
ATOM     37  C   UNL A   1      42.912  25.441  25.854  1.00  0.00     0.029 A 
ATOM     38  N   UNL A   1      43.183  27.317  27.035  1.00  0.00    -0.354 N 
ATOM     39  C   UNL A   1      40.041  28.722  29.647  1.00  0.00     0.074 A 
ATOM     40  C   UNL A   1      39.008  27.717  29.801  1.00  0.00     0.031 C 
ATOM     41  C   UNL A   1      44.135  25.923  25.584  1.00  0.00     0.029 A 
ATOM     42  C   UNL A   1      44.368  27.130  26.360  1.00  0.00     0.049 A 
ATOM     43  H   UNL A   1      42.999  28.107  27.593  1.00  0.00     0.167 HD
ATOM     44  C   UNL A   1      40.023  29.954  30.217  1.00  0.00     0.034 A 
ATOM     45  C   UNL A   1      45.516  27.837  26.372  1.00  0.00     0.034 A 
ATOM     46  C   UNL A   1      41.088  30.921  30.074  1.00  0.00     0.049 A 
ATOM     47  C   UNL A   1      45.532  29.135  27.132  1.00  0.00     0.074 A 
ATOM     48  C   UNL A   1      41.155  32.217  30.557  1.00  0.00     0.029 A 
ATOM     49  N   UNL A   1      42.287  30.688  29.411  1.00  0.00    -0.354 N 
ATOM     50  N   UNL A   1      44.578  29.675  27.856  1.00  0.00    -0.248 NA
ATOM     51  C   UNL A   1      46.751  29.946  27.035  1.00  0.00     0.031 C 
ATOM     52  C   UNL A   1      42.371  32.780  30.149  1.00  0.00     0.029 A 
ATOM     53  C   UNL A   1      43.093  31.816  29.463  1.00  0.00     0.049 A 
ATOM     54  H   UNL A   1      42.530  29.844  28.966  1.00  0.00     0.167 HD
ATOM     55  C   UNL A   1      45.064  30.914  28.252  1.00  0.00     0.074 A 
ATOM     56  C   UNL A   1      46.425  31.005  27.762  1.00  0.00     0.031 C 
ATOM     57  C   UNL A   1      44.427  31.908  28.920  1.00  0.00     0.034 A 
BRANCH  44  58
ATOM     58  C   UNL A   1      38.756  30.351  30.935  1.00  0.00     0.023 A 
ATOM     59  C   UNL A   1      37.673  30.962  30.280  1.00  0.00     0.031 A 
ATOM     60  C   UNL A   1      38.672  30.181  32.330  1.00  0.00     0.131 A 
ATOM     61  C   UNL A   1      36.591  31.450  31.031  1.00  0.00     0.055 A 
ATOM     62  C   UNL A   1      37.558  30.598  33.059  1.00  0.00     0.041 A 
ATOM     63  F   UNL A   1      39.687  29.628  33.014  1.00  0.00    -0.206 F 
ATOM     64  C   UNL A   1      36.516  31.253  32.412  1.00  0.00     0.022 A 
BRANCH  61  65
ATOM     65  S   UNL A   1      35.351  32.485  30.202  1.00  0.00     0.124 S 
ATOM     66  O   UNL A   1      36.132  33.674  29.873  1.00  0.00    -0.237 OA
ATOM     67  O   UNL A   1      34.946  31.652  29.076  1.00  0.00    -0.237 OA
ATOM     68  O   UNL A   1      34.330  32.685  31.228  1.00  0.00    -0.744 OA
ENDBRANCH  61  65
ENDBRANCH  44  58
BRANCH  45  69
ATOM     69  C   UNL A   1      46.732  27.363  25.642  1.00  0.00     0.023 A 
ATOM     70  C   UNL A   1      46.987  27.791  24.327  1.00  0.00     0.031 A 
ATOM     71  C   UNL A   1      47.641  26.460  26.220  1.00  0.00     0.131 A 
ATOM     72  C   UNL A   1      48.099  27.294  23.626  1.00  0.00     0.055 A 
ATOM     73  C   UNL A   1      48.781  26.021  25.544  1.00  0.00     0.041 A 
ATOM     74  F   UNL A   1      47.445  26.003  27.467  1.00  0.00    -0.206 F 
ATOM     75  C   UNL A   1      49.010  26.429  24.235  1.00  0.00     0.022 A 
BRANCH  72  76
ATOM     76  S   UNL A   1      48.289  27.718  21.872  1.00  0.00     0.124 S 
ATOM     77  O   UNL A   1      49.429  28.627  21.907  1.00  0.00    -0.237 OA
ATOM     78  O   UNL A   1      48.527  26.412  21.266  1.00  0.00    -0.237 OA
ATOM     79  O   UNL A   1      47.010  28.336  21.531  1.00  0.00    -0.744 OA
ENDBRANCH  72  76
ENDBRANCH  45  69
BRANCH  57  80
ATOM     80  C   UNL A   1      45.198  33.189  29.097  1.00  0.00     0.023 A 
ATOM     81  C   UNL A   1      45.237  34.155  28.072  1.00  0.00     0.031 A 
ATOM     82  C   UNL A   1      45.930  33.432  30.269  1.00  0.00     0.131 A 
ATOM     83  C   UNL A   1      46.039  35.295  28.218  1.00  0.00     0.055 A 
ATOM     84  C   UNL A   1      46.689  34.594  30.427  1.00  0.00     0.041 A 
ATOM     85  F   UNL A   1      45.929  32.542  31.273  1.00  0.00    -0.206 F 
ATOM     86  C   UNL A   1      46.757  35.526  29.394  1.00  0.00     0.022 A 
BRANCH  83  87
ATOM     87  S   UNL A   1      46.196  36.435  26.815  1.00  0.00     0.124 S 
ATOM     88  O   UNL A   1      45.060  37.329  27.019  1.00  0.00    -0.237 OA
ATOM     89  O   UNL A   1      47.514  37.021  27.033  1.00  0.00    -0.237 OA
ATOM     90  O   UNL A   1      46.094  35.561  25.648  1.00  0.00    -0.744 OA
ENDBRANCH  83  87
ENDBRANCH  57  80
ENDBRANCH  31  32
ENDBRANCH  24  26
ENDBRANCH  23  24
ENDBRANCH  22  23
ENDBRANCH   1  22
TORSDOF 20
ENDMDL
MODEL 2
REMARK VINA RESULT:     -10.7      1.168      2.988
REMARK SMILES CCC(CC)(C(=O)OCCOC(=O)c1ccc(-c2c3nc(c(-c4cc(S(=O)(=O)[O-])ccc4F)c4ccc([nH]4)c(-c4cc(S(=O)(=O)[O-])ccc4F)c4nc(c(-c5cc(S(=O)(=O)[O-])ccc5F)c5ccc2[nH]5)C=C4)C=C3)cc1)n1nnnc1CC[C@@H]1CCCO1
REMARK SMILES IDX 9 1 8 2 6 3 7 4 3 5 2 6 1 7 4 8 5 9 77 10 78 11 81 12 79 13
REMARK SMILES IDX 80 14 82 15 83 16 84 17 85 18 88 19 86 20 87 21 10 22 11 23
REMARK SMILES IDX 12 24 13 25 14 26 15 27 76 28 16 29 75 30 17 31 18 32 19 33
REMARK SMILES IDX 69 34 20 35 74 36 68 37 70 38 21 39 73 40 67 41 66 42 22 44
REMARK SMILES IDX 54 45 34 46 53 47 35 48 38 49 52 50 71 51 36 52 37 53 51 55
REMARK SMILES IDX 72 56 39 57 23 58 24 59 32 60 25 61 31 62 33 63 30 64 26 65
REMARK SMILES IDX 27 66 28 67 29 68 55 69 56 70 64 71 57 72 63 73 65 74 62 75
REMARK SMILES IDX 58 76 59 77 60 78 61 79 40 80 41 81 49 82 42 83 48 84 50 85
REMARK SMILES IDX 47 86 43 87 44 88 45 89 46 90
REMARK H PARENT 70 43 38 54
REMARK Flexibility Score: inf
ROOT
ATOM      1  C   UNL A   1      36.228  23.018  23.716  1.00  0.00     0.274 C 
ENDROOT
BRANCH   1   2
ATOM      2  O   UNL A   1      34.829  23.367  23.760  1.00  0.00    -0.460 OA
BRANCH   2   3
ATOM      3  C   UNL A   1      34.453  24.228  24.748  1.00  0.00     0.334 C 
ATOM      4  O   UNL A   1      35.185  24.511  25.687  1.00  0.00    -0.249 OA
BRANCH   3   5
ATOM      5  C   UNL A   1      32.989  24.697  24.633  1.00  0.00     0.163 C 
BRANCH   5   6
ATOM      6  C   UNL A   1      32.904  26.237  24.959  1.00  0.00     0.039 C 
ATOM      7  C   UNL A   1      33.845  27.149  24.167  1.00  0.00     0.007 C 
ENDBRANCH   5   6
BRANCH   5   8
ATOM      8  C   UNL A   1      32.522  24.430  23.171  1.00  0.00     0.039 C 
ATOM      9  C   UNL A   1      31.188  25.052  22.758  1.00  0.00     0.007 C 
ENDBRANCH   5   8
BRANCH   5  10
ATOM     10  N   UNL A   1      32.199  23.899  25.604  1.00  0.00    -0.212 N 
ATOM     11  N   UNL A   1      31.707  24.528  26.698  1.00  0.00    -0.044 NA
ATOM     12  C   UNL A   1      31.886  22.550  25.722  1.00  0.00     0.152 A 
ATOM     13  N   UNL A   1      31.097  23.613  27.423  1.00  0.00    -0.024 NA
ATOM     14  N   UNL A   1      31.206  22.391  26.843  1.00  0.00    -0.114 NA
BRANCH  12  15
ATOM     15  C   UNL A   1      32.135  21.429  24.776  1.00  0.00     0.082 C 
BRANCH  15  16
ATOM     16  C   UNL A   1      33.014  20.297  25.305  1.00  0.00     0.040 C 
BRANCH  16  17
ATOM     17  C   UNL A   1      33.213  19.115  24.358  1.00  0.00     0.118 C 
ATOM     18  C   UNL A   1      32.375  17.897  24.704  1.00  0.00     0.034 C 
ATOM     19  O   UNL A   1      34.588  18.691  24.496  1.00  0.00    -0.378 OA
ATOM     20  C   UNL A   1      33.241  16.753  24.242  1.00  0.00     0.031 C 
ATOM     21  C   UNL A   1      34.650  17.267  24.391  1.00  0.00     0.160 C 
ENDBRANCH  16  17
ENDBRANCH  15  16
ENDBRANCH  12  15
ENDBRANCH   5  10
ENDBRANCH   3   5
ENDBRANCH   2   3
ENDBRANCH   1   2
BRANCH   1  22
ATOM     22  C   UNL A   1      36.474  21.638  24.321  1.00  0.00     0.275 C 
BRANCH  22  23
ATOM     23  O   UNL A   1      36.980  21.756  25.662  1.00  0.00    -0.458 OA
BRANCH  23  24
ATOM     24  C   UNL A   1      38.300  21.495  25.808  1.00  0.00     0.338 C 
ATOM     25  O   UNL A   1      38.881  20.459  25.517  1.00  0.00    -0.246 OA
BRANCH  24  26
ATOM     26  C   UNL A   1      38.978  22.670  26.374  1.00  0.00     0.060 A 
ATOM     27  C   UNL A   1      38.408  23.927  26.198  1.00  0.00     0.016 A 
ATOM     28  C   UNL A   1      40.237  22.541  26.963  1.00  0.00     0.016 A 
ATOM     29  C   UNL A   1      39.124  25.070  26.547  1.00  0.00     0.010 A 
ATOM     30  C   UNL A   1      40.928  23.688  27.374  1.00  0.00     0.010 A 
ATOM     31  C   UNL A   1      40.392  24.966  27.139  1.00  0.00    -0.014 A 
BRANCH  31  32
ATOM     32  C   UNL A   1      41.154  26.204  27.456  1.00  0.00     0.031 A 
ATOM     33  C   UNL A   1      40.653  27.161  28.498  1.00  0.00     0.074 A 
ATOM     34  C   UNL A   1      42.326  26.448  26.838  1.00  0.00     0.049 A 
ATOM     35  N   UNL A   1      41.143  28.319  28.857  1.00  0.00    -0.248 NA
ATOM     36  C   UNL A   1      39.419  26.784  29.201  1.00  0.00     0.031 C 
ATOM     37  C   UNL A   1      42.904  25.605  25.796  1.00  0.00     0.029 A 
ATOM     38  N   UNL A   1      43.258  27.441  27.017  1.00  0.00    -0.354 N 
ATOM     39  C   UNL A   1      40.234  28.855  29.760  1.00  0.00     0.074 A 
ATOM     40  C   UNL A   1      39.180  27.872  29.919  1.00  0.00     0.031 C 
ATOM     41  C   UNL A   1      44.129  26.063  25.502  1.00  0.00     0.029 A 
ATOM     42  C   UNL A   1      44.417  27.243  26.301  1.00  0.00     0.049 A 
ATOM     43  H   UNL A   1      43.111  28.220  27.600  1.00  0.00     0.167 HD
ATOM     44  C   UNL A   1      40.264  30.071  30.362  1.00  0.00     0.034 A 
ATOM     45  C   UNL A   1      45.583  27.920  26.296  1.00  0.00     0.034 A 
ATOM     46  C   UNL A   1      41.349  31.014  30.211  1.00  0.00     0.049 A 
ATOM     47  C   UNL A   1      45.655  29.197  27.089  1.00  0.00     0.074 A 
ATOM     48  C   UNL A   1      41.464  32.295  30.725  1.00  0.00     0.029 A 
ATOM     49  N   UNL A   1      42.521  30.769  29.506  1.00  0.00    -0.354 N 
ATOM     50  N   UNL A   1      44.738  29.740  27.856  1.00  0.00    -0.248 NA
ATOM     51  C   UNL A   1      46.892  29.979  26.976  1.00  0.00     0.031 C 
ATOM     52  C   UNL A   1      42.682  32.837  30.295  1.00  0.00     0.029 A 
ATOM     53  C   UNL A   1      43.357  31.875  29.562  1.00  0.00     0.049 A 
ATOM     54  H   UNL A   1      42.729  29.931  29.032  1.00  0.00     0.167 HD
ATOM     55  C   UNL A   1      45.267  30.956  28.269  1.00  0.00     0.074 A 
ATOM     56  C   UNL A   1      46.615  31.026  27.740  1.00  0.00     0.031 C 
ATOM     57  C   UNL A   1      44.677  31.948  28.982  1.00  0.00     0.034 A 
BRANCH  44  58
ATOM     58  C   UNL A   1      39.030  30.480  31.128  1.00  0.00     0.023 A 
ATOM     59  C   UNL A   1      37.988  31.221  30.546  1.00  0.00     0.031 A 
ATOM     60  C   UNL A   1      38.941  30.182  32.501  1.00  0.00     0.131 A 
ATOM     61  C   UNL A   1      36.944  31.706  31.352  1.00  0.00     0.055 A 
ATOM     62  C   UNL A   1      37.861  30.601  33.279  1.00  0.00     0.041 A 
ATOM     63  F   UNL A   1      39.921  29.501  33.118  1.00  0.00    -0.206 F 
ATOM     64  C   UNL A   1      36.862  31.383  32.709  1.00  0.00     0.022 A 
BRANCH  61  65
ATOM     65  S   UNL A   1      35.771  32.894  30.639  1.00  0.00     0.124 S 
ATOM     66  O   UNL A   1      36.051  32.761  29.212  1.00  0.00    -0.237 OA
ATOM     67  O   UNL A   1      34.485  32.379  31.091  1.00  0.00    -0.237 OA
ATOM     68  O   UNL A   1      36.175  34.169  31.228  1.00  0.00    -0.744 OA
ENDBRANCH  61  65
ENDBRANCH  44  58
BRANCH  45  69
ATOM     69  C   UNL A   1      46.764  27.436  25.518  1.00  0.00     0.023 A 
ATOM     70  C   UNL A   1      46.981  27.879  24.200  1.00  0.00     0.031 A 
ATOM     71  C   UNL A   1      47.675  26.507  26.050  1.00  0.00     0.131 A 
ATOM     72  C   UNL A   1      48.059  27.373  23.454  1.00  0.00     0.055 A 
ATOM     73  C   UNL A   1      48.782  26.058  25.328  1.00  0.00     0.041 A 
ATOM     74  F   UNL A   1      47.514  26.034  27.296  1.00  0.00    -0.206 F 
ATOM     75  C   UNL A   1      48.974  26.482  24.018  1.00  0.00     0.022 A 
BRANCH  72  76
ATOM     76  S   UNL A   1      48.196  27.821  21.701  1.00  0.00     0.124 S 
ATOM     77  O   UNL A   1      46.903  28.447  21.451  1.00  0.00    -0.237 OA
ATOM     78  O   UNL A   1      49.352  28.712  21.703  1.00  0.00    -0.237 OA
ATOM     79  O   UNL A   1      48.405  26.536  21.037  1.00  0.00    -0.744 OA
ENDBRANCH  72  76
ENDBRANCH  45  69
BRANCH  57  80
ATOM     80  C   UNL A   1      45.486  33.204  29.168  1.00  0.00     0.023 A 
ATOM     81  C   UNL A   1      45.435  34.242  28.217  1.00  0.00     0.031 A 
ATOM     82  C   UNL A   1      46.341  33.352  30.270  1.00  0.00     0.131 A 
ATOM     83  C   UNL A   1      46.268  35.359  28.359  1.00  0.00     0.055 A 
ATOM     84  C   UNL A   1      47.133  34.490  30.431  1.00  0.00     0.041 A 
ATOM     85  F   UNL A   1      46.428  32.390  31.202  1.00  0.00    -0.206 F 
ATOM     86  C   UNL A   1      47.110  35.496  29.466  1.00  0.00     0.022 A 
BRANCH  83  87
ATOM     87  S   UNL A   1      46.298  36.598  27.034  1.00  0.00     0.124 S 
ATOM     88  O   UNL A   1      46.778  35.818  25.897  1.00  0.00    -0.237 OA
ATOM     89  O   UNL A   1      44.904  37.025  26.971  1.00  0.00    -0.237 OA
ATOM     90  O   UNL A   1      47.231  37.609  27.529  1.00  0.00    -0.744 OA
ENDBRANCH  83  87
ENDBRANCH  57  80
ENDBRANCH  31  32
ENDBRANCH  24  26
ENDBRANCH  23  24
ENDBRANCH  22  23
ENDBRANCH   1  22
TORSDOF 20
ENDMDL
MODEL 3
REMARK VINA RESULT:     -10.6      5.016     10.291
REMARK SMILES CCC(CC)(C(=O)OCCOC(=O)c1ccc(-c2c3nc(c(-c4cc(S(=O)(=O)[O-])ccc4F)c4ccc([nH]4)c(-c4cc(S(=O)(=O)[O-])ccc4F)c4nc(c(-c5cc(S(=O)(=O)[O-])ccc5F)c5ccc2[nH]5)C=C4)C=C3)cc1)n1nnnc1CC[C@@H]1CCCO1
REMARK SMILES IDX 9 1 8 2 6 3 7 4 3 5 2 6 1 7 4 8 5 9 77 10 78 11 81 12 79 13
REMARK SMILES IDX 80 14 82 15 83 16 84 17 85 18 88 19 86 20 87 21 10 22 11 23
REMARK SMILES IDX 12 24 13 25 14 26 15 27 76 28 16 29 75 30 17 31 18 32 19 33
REMARK SMILES IDX 69 34 20 35 74 36 68 37 70 38 21 39 73 40 67 41 66 42 22 44
REMARK SMILES IDX 54 45 34 46 53 47 35 48 38 49 52 50 71 51 36 52 37 53 51 55
REMARK SMILES IDX 72 56 39 57 23 58 24 59 32 60 25 61 31 62 33 63 30 64 26 65
REMARK SMILES IDX 27 66 28 67 29 68 55 69 56 70 64 71 57 72 63 73 65 74 62 75
REMARK SMILES IDX 58 76 59 77 60 78 61 79 40 80 41 81 49 82 42 83 48 84 50 85
REMARK SMILES IDX 47 86 43 87 44 88 45 89 46 90
REMARK H PARENT 70 43 38 54
REMARK Flexibility Score: inf
ROOT
ATOM      1  C   UNL A   1      32.744  29.592  24.626  1.00  0.00     0.274 C 
ENDROOT
BRANCH   1   2
ATOM      2  O   UNL A   1      32.248  28.509  23.812  1.00  0.00    -0.460 OA
BRANCH   2   3
ATOM      3  C   UNL A   1      32.770  27.275  24.068  1.00  0.00     0.334 C 
ATOM      4  O   UNL A   1      33.960  27.097  24.289  1.00  0.00    -0.249 OA
BRANCH   3   5
ATOM      5  C   UNL A   1      31.746  26.131  23.921  1.00  0.00     0.163 C 
BRANCH   5   6
ATOM      6  C   UNL A   1      31.114  25.810  25.329  1.00  0.00     0.039 C 
ATOM      7  C   UNL A   1      31.671  26.599  26.517  1.00  0.00     0.007 C 
ENDBRANCH   5   6
BRANCH   5   8
ATOM      8  C   UNL A   1      30.642  26.610  22.932  1.00  0.00     0.039 C 
ATOM      9  C   UNL A   1      29.336  27.103  23.555  1.00  0.00     0.007 C 
ENDBRANCH   5   8
BRANCH   5  10
ATOM     10  N   UNL A   1      32.480  24.958  23.383  1.00  0.00    -0.212 N 
ATOM     11  N   UNL A   1      32.704  24.902  22.049  1.00  0.00    -0.044 NA
ATOM     12  C   UNL A   1      32.956  23.775  23.937  1.00  0.00     0.152 A 
ATOM     13  N   UNL A   1      33.316  23.760  21.811  1.00  0.00    -0.024 NA
ATOM     14  N   UNL A   1      33.470  23.052  22.959  1.00  0.00    -0.114 NA
BRANCH  12  15
ATOM     15  C   UNL A   1      33.015  23.347  25.360  1.00  0.00     0.082 C 
BRANCH  15  16
ATOM     16  C   UNL A   1      34.373  22.842  25.846  1.00  0.00     0.040 C 
BRANCH  16  17
ATOM     17  C   UNL A   1      34.499  21.327  26.003  1.00  0.00     0.118 C 
ATOM     18  C   UNL A   1      35.203  20.642  24.846  1.00  0.00     0.034 C 
ATOM     19  O   UNL A   1      33.157  20.792  26.011  1.00  0.00    -0.378 OA
ATOM     20  C   UNL A   1      34.543  19.288  24.807  1.00  0.00     0.031 C 
ATOM     21  C   UNL A   1      33.151  19.536  25.330  1.00  0.00     0.160 C 
ENDBRANCH  16  17
ENDBRANCH  15  16
ENDBRANCH  12  15
ENDBRANCH   5  10
ENDBRANCH   3   5
ENDBRANCH   2   3
ENDBRANCH   1   2
BRANCH   1  22
ATOM     22  C   UNL A   1      31.633  30.194  25.482  1.00  0.00     0.275 C 
BRANCH  22  23
ATOM     23  O   UNL A   1      32.069  30.347  26.844  1.00  0.00    -0.458 OA
BRANCH  23  24
ATOM     24  C   UNL A   1      32.747  31.487  27.112  1.00  0.00     0.338 C 
ATOM     25  O   UNL A   1      32.351  32.633  26.947  1.00  0.00    -0.246 OA
BRANCH  24  26
ATOM     26  C   UNL A   1      34.070  31.160  27.661  1.00  0.00     0.060 A 
ATOM     27  C   UNL A   1      34.419  29.824  27.830  1.00  0.00     0.016 A 
ATOM     28  C   UNL A   1      34.911  32.174  28.125  1.00  0.00     0.016 A 
ATOM     29  C   UNL A   1      35.578  29.491  28.528  1.00  0.00     0.010 A 
ATOM     30  C   UNL A   1      36.108  31.838  28.769  1.00  0.00     0.010 A 
ATOM     31  C   UNL A   1      36.437  30.492  29.006  1.00  0.00    -0.014 A 
BRANCH  31  32
ATOM     32  C   UNL A   1      37.642  30.107  29.790  1.00  0.00     0.031 A 
ATOM     33  C   UNL A   1      38.797  29.420  29.124  1.00  0.00     0.074 A 
ATOM     34  C   UNL A   1      37.718  30.418  31.099  1.00  0.00     0.049 A 
ATOM     35  N   UNL A   1      39.895  28.949  29.657  1.00  0.00    -0.248 NA
ATOM     36  C   UNL A   1      38.686  29.199  27.676  1.00  0.00     0.031 C 
ATOM     37  C   UNL A   1      36.654  31.066  31.860  1.00  0.00     0.029 A 
ATOM     38  N   UNL A   1      38.737  30.274  32.009  1.00  0.00    -0.354 N 
ATOM     39  C   UNL A   1      40.567  28.296  28.632  1.00  0.00     0.074 A 
ATOM     40  C   UNL A   1      39.765  28.466  27.436  1.00  0.00     0.031 C 
ATOM     41  C   UNL A   1      37.113  31.348  33.088  1.00  0.00     0.029 A 
ATOM     42  C   UNL A   1      38.483  30.880  33.219  1.00  0.00     0.049 A 
ATOM     43  H   UNL A   1      39.569  29.786  31.814  1.00  0.00     0.167 HD
ATOM     44  C   UNL A   1      41.723  27.589  28.702  1.00  0.00     0.034 A 
ATOM     45  C   UNL A   1      39.263  31.052  34.305  1.00  0.00     0.034 A 
ATOM     46  C   UNL A   1      42.519  27.469  29.902  1.00  0.00     0.049 A 
ATOM     47  C   UNL A   1      40.611  30.383  34.313  1.00  0.00     0.074 A 
ATOM     48  C   UNL A   1      43.676  26.736  30.108  1.00  0.00     0.029 A 
ATOM     49  N   UNL A   1      42.251  28.120  31.101  1.00  0.00    -0.354 N 
ATOM     50  N   UNL A   1      41.183  29.677  33.366  1.00  0.00    -0.248 NA
ATOM     51  C   UNL A   1      41.394  30.484  35.551  1.00  0.00     0.031 C 
ATOM     52  C   UNL A   1      44.079  26.908  31.438  1.00  0.00     0.029 A 
ATOM     53  C   UNL A   1      43.210  27.798  32.049  1.00  0.00     0.049 A 
ATOM     54  H   UNL A   1      41.488  28.723  31.255  1.00  0.00     0.167 HD
ATOM     55  C   UNL A   1      42.367  29.203  33.915  1.00  0.00     0.074 A 
ATOM     56  C   UNL A   1      42.470  29.775  35.243  1.00  0.00     0.031 C 
ATOM     57  C   UNL A   1      43.267  28.335  33.388  1.00  0.00     0.034 A 
BRANCH  44  58
ATOM     58  C   UNL A   1      42.110  26.798  27.477  1.00  0.00     0.023 A 
ATOM     59  C   UNL A   1      41.814  25.432  27.331  1.00  0.00     0.031 A 
ATOM     60  C   UNL A   1      42.866  27.420  26.465  1.00  0.00     0.131 A 
ATOM     61  C   UNL A   1      42.340  24.718  26.242  1.00  0.00     0.055 A 
ATOM     62  C   UNL A   1      43.319  26.721  25.346  1.00  0.00     0.041 A 
ATOM     63  F   UNL A   1      43.204  28.716  26.563  1.00  0.00    -0.206 F 
ATOM     64  C   UNL A   1      43.071  25.357  25.237  1.00  0.00     0.022 A 
BRANCH  61  65
ATOM     65  S   UNL A   1      42.187  22.909  26.229  1.00  0.00     0.124 S 
ATOM     66  O   UNL A   1      42.771  22.574  24.933  1.00  0.00    -0.237 OA
ATOM     67  O   UNL A   1      42.960  22.517  27.401  1.00  0.00    -0.237 OA
ATOM     68  O   UNL A   1      40.746  22.685  26.329  1.00  0.00    -0.744 OA
ENDBRANCH  61  65
ENDBRANCH  44  58
BRANCH  45  69
ATOM     69  C   UNL A   1      38.805  31.865  35.474  1.00  0.00     0.023 A 
ATOM     70  C   UNL A   1      38.248  31.239  36.604  1.00  0.00     0.031 A 
ATOM     71  C   UNL A   1      38.883  33.268  35.479  1.00  0.00     0.131 A 
ATOM     72  C   UNL A   1      37.765  32.013  37.673  1.00  0.00     0.055 A 
ATOM     73  C   UNL A   1      38.463  34.030  36.571  1.00  0.00     0.041 A 
ATOM     74  F   UNL A   1      39.390  33.925  34.424  1.00  0.00    -0.206 F 
ATOM     75  C   UNL A   1      37.889  33.404  37.673  1.00  0.00     0.022 A 
BRANCH  72  76
ATOM     76  S   UNL A   1      36.882  31.185  39.024  1.00  0.00     0.124 S 
ATOM     77  O   UNL A   1      35.681  32.004  39.143  1.00  0.00    -0.237 OA
ATOM     78  O   UNL A   1      36.693  29.841  38.487  1.00  0.00    -0.237 OA
ATOM     79  O   UNL A   1      37.813  31.279  40.147  1.00  0.00    -0.744 OA
ENDBRANCH  72  76
ENDBRANCH  45  69
BRANCH  57  80
ATOM     80  C   UNL A   1      44.400  27.924  34.290  1.00  0.00     0.023 A 
ATOM     81  C   UNL A   1      44.328  26.736  35.043  1.00  0.00     0.031 A 
ATOM     82  C   UNL A   1      45.535  28.736  34.434  1.00  0.00     0.131 A 
ATOM     83  C   UNL A   1      45.349  26.421  35.949  1.00  0.00     0.055 A 
ATOM     84  C   UNL A   1      46.572  28.392  35.303  1.00  0.00     0.041 A 
ATOM     85  F   UNL A   1      45.650  29.879  33.742  1.00  0.00    -0.206 F 
ATOM     86  C   UNL A   1      46.477  27.236  36.077  1.00  0.00     0.022 A 
BRANCH  83  87
ATOM     87  S   UNL A   1      45.147  24.971  37.022  1.00  0.00     0.124 S 
ATOM     88  O   UNL A   1      46.492  24.403  37.022  1.00  0.00    -0.237 OA
ATOM     89  O   UNL A   1      44.708  25.569  38.278  1.00  0.00    -0.237 OA
ATOM     90  O   UNL A   1      44.137  24.172  36.331  1.00  0.00    -0.744 OA
ENDBRANCH  83  87
ENDBRANCH  57  80
ENDBRANCH  31  32
ENDBRANCH  24  26
ENDBRANCH  23  24
ENDBRANCH  22  23
ENDBRANCH   1  22
TORSDOF 20
ENDMDL
