MODEL 1
REMARK VINA RESULT:     -10.8      0.000      0.000
REMARK SMILES CN(CC(C)(C)O)C(=O)N[C@H]1CC[C@H](C(=O)OCCOC(=O)c2ccc(-c3c4nc(c(-c5cc(S(=O)(=O)[O-])ccc5F)c5ccc([nH]5)c(-c5cc(S(=O)(=O)[O-])ccc5F)c5nc(c(-c6cc(S(=O)(=O)[O-])ccc6F)c6ccc3[nH]6)C=C5)C=C4)cc2)C1
REMARK SMILES IDX 18 1 17 2 15 3 16 4 14 5 11 6 12 7 86 8 13 9 10 10 8 11 9 12
REMARK SMILES IDX 2 14 1 15 3 16 4 17 5 18 6 19 7 20 19 22 20 23 21 24 22 25
REMARK SMILES IDX 23 26 24 27 85 28 25 29 84 30 26 31 27 32 28 33 78 34 29 35
REMARK SMILES IDX 83 36 77 37 79 38 30 39 82 40 76 41 75 42 31 44 63 45 43 46
REMARK SMILES IDX 62 47 44 48 47 49 61 50 80 51 45 52 46 53 60 55 81 56 48 57
REMARK SMILES IDX 32 58 33 59 41 60 34 61 40 62 42 63 39 64 35 65 36 66 37 67
REMARK SMILES IDX 38 68 64 69 65 70 73 71 66 72 72 73 74 74 71 75 67 76 68 77
REMARK SMILES IDX 69 78 70 79 49 80 50 81 58 82 51 83 57 84 59 85 56 86 52 87
REMARK SMILES IDX 53 88 54 89 55 90
REMARK H PARENT 10 13 7 21 79 43 47 54
REMARK Flexibility Score: inf
ROOT
ATOM      1  C   UNL A   1      37.060  19.635  24.735  1.00  0.00     0.274 C 
ENDROOT
BRANCH   1   2
ATOM      2  O   UNL A   1      36.261  20.648  25.374  1.00  0.00    -0.462 OA
BRANCH   2   3
ATOM      3  C   UNL A   1      34.976  20.696  24.957  1.00  0.00     0.309 C 
ATOM      4  O   UNL A   1      34.268  19.713  24.757  1.00  0.00    -0.252 OA
BRANCH   3   5
ATOM      5  C   UNL A   1      34.465  22.084  24.700  1.00  0.00     0.101 C 
ATOM      6  C   UNL A   1      32.933  23.556  23.725  1.00  0.00     0.084 C 
ATOM      7  C   UNL A   1      34.342  24.180  23.504  1.00  0.00     0.026 C 
ATOM      8  C   UNL A   1      33.310  22.088  23.722  1.00  0.00     0.040 C 
ATOM      9  C   UNL A   1      35.351  23.178  24.116  1.00  0.00     0.017 C 
BRANCH   6  10
ATOM     10  N   UNL A   1      32.347  24.143  24.949  1.00  0.00    -0.335 N 
ATOM     11  C   UNL A   1      32.223  25.201  25.750  1.00  0.00     0.317 C 
ATOM     12  O   UNL A   1      31.684  24.898  26.824  1.00  0.00    -0.249 OA
ATOM     13  H   UNL A   1      31.803  23.431  25.356  1.00  0.00     0.165 HD
BRANCH  11  14
ATOM     14  N   UNL A   1      32.592  26.486  25.503  1.00  0.00    -0.325 N 
ATOM     15  C   UNL A   1      32.049  27.082  24.276  1.00  0.00     0.148 C 
BRANCH  14  16
ATOM     16  C   UNL A   1      33.530  27.354  26.213  1.00  0.00     0.155 C 
BRANCH  16  17
ATOM     17  C   UNL A   1      32.932  28.596  26.932  1.00  0.00     0.077 C 
ATOM     18  C   UNL A   1      32.651  29.819  26.061  1.00  0.00     0.043 C 
ATOM     19  C   UNL A   1      31.644  28.189  27.661  1.00  0.00     0.043 C 
BRANCH  17  20
ATOM     20  O   UNL A   1      33.855  29.025  27.949  1.00  0.00    -0.389 OA
ATOM     21  H   UNL A   1      34.228  29.885  27.705  1.00  0.00     0.211 HD
ENDBRANCH  17  20
ENDBRANCH  16  17
ENDBRANCH  14  16
ENDBRANCH  11  14
ENDBRANCH   6  10
ENDBRANCH   3   5
ENDBRANCH   2   3
ENDBRANCH   1   2
BRANCH   1  22
ATOM     22  C   UNL A   1      38.454  19.546  25.358  1.00  0.00     0.275 C 
BRANCH  22  23
ATOM     23  O   UNL A   1      39.000  20.840  25.678  1.00  0.00    -0.458 OA
BRANCH  23  24
ATOM     24  C   UNL A   1      40.028  20.814  26.559  1.00  0.00     0.338 C 
ATOM     25  O   UNL A   1      40.710  19.845  26.863  1.00  0.00    -0.246 OA
BRANCH  24  26
ATOM     26  C   UNL A   1      40.291  22.157  27.091  1.00  0.00     0.060 A 
ATOM     27  C   UNL A   1      39.643  23.246  26.507  1.00  0.00     0.016 A 
ATOM     28  C   UNL A   1      41.296  22.358  28.039  1.00  0.00     0.016 A 
ATOM     29  C   UNL A   1      40.028  24.545  26.826  1.00  0.00     0.010 A 
ATOM     30  C   UNL A   1      41.662  23.665  28.381  1.00  0.00     0.010 A 
ATOM     31  C   UNL A   1      41.054  24.768  27.753  1.00  0.00    -0.014 A 
BRANCH  31  32
ATOM     32  C   UNL A   1      41.545  26.150  27.991  1.00  0.00     0.031 A 
ATOM     33  C   UNL A   1      42.909  26.553  27.496  1.00  0.00     0.074 A 
ATOM     34  C   UNL A   1      40.761  27.050  28.615  1.00  0.00     0.049 A 
ATOM     35  N   UNL A   1      43.568  27.667  27.688  1.00  0.00    -0.248 NA
ATOM     36  C   UNL A   1      43.629  25.560  26.685  1.00  0.00     0.031 C 
ATOM     37  C   UNL A   1      39.401  26.795  29.093  1.00  0.00     0.029 A 
ATOM     38  N   UNL A   1      40.995  28.359  28.952  1.00  0.00    -0.354 N 
ATOM     39  C   UNL A   1      44.792  27.500  27.049  1.00  0.00     0.074 A 
ATOM     40  C   UNL A   1      44.789  26.167  26.483  1.00  0.00     0.031 C 
ATOM     41  C   UNL A   1      38.919  27.916  29.654  1.00  0.00     0.029 A 
ATOM     42  C   UNL A   1      39.951  28.948  29.625  1.00  0.00     0.049 A 
ATOM     43  H   UNL A   1      41.830  28.832  28.732  1.00  0.00     0.167 HD
ATOM     44  C   UNL A   1      45.821  28.379  26.943  1.00  0.00     0.034 A 
ATOM     45  C   UNL A   1      39.848  30.171  30.184  1.00  0.00     0.034 A 
ATOM     46  C   UNL A   1      45.799  29.712  27.497  1.00  0.00     0.049 A 
ATOM     47  C   UNL A   1      41.018  31.115  30.090  1.00  0.00     0.074 A 
ATOM     48  C   UNL A   1      46.785  30.684  27.451  1.00  0.00     0.029 A 
ATOM     49  N   UNL A   1      44.733  30.265  28.197  1.00  0.00    -0.354 N 
ATOM     50  N   UNL A   1      42.189  30.927  29.525  1.00  0.00    -0.248 NA
ATOM     51  C   UNL A   1      40.852  32.435  30.711  1.00  0.00     0.031 C 
ATOM     52  C   UNL A   1      46.335  31.802  28.166  1.00  0.00     0.029 A 
ATOM     53  C   UNL A   1      45.045  31.554  28.605  1.00  0.00     0.049 A 
ATOM     54  H   UNL A   1      43.880  29.807  28.377  1.00  0.00     0.167 HD
ATOM     55  C   UNL A   1      42.893  32.113  29.712  1.00  0.00     0.074 A 
ATOM     56  C   UNL A   1      42.008  33.015  30.422  1.00  0.00     0.031 C 
ATOM     57  C   UNL A   1      44.157  32.430  29.331  1.00  0.00     0.034 A 
BRANCH  44  58
ATOM     58  C   UNL A   1      47.075  27.894  26.256  1.00  0.00     0.023 A 
ATOM     59  C   UNL A   1      47.291  28.078  24.879  1.00  0.00     0.031 A 
ATOM     60  C   UNL A   1      48.053  27.195  26.988  1.00  0.00     0.131 A 
ATOM     61  C   UNL A   1      48.418  27.508  24.266  1.00  0.00     0.055 A 
ATOM     62  C   UNL A   1      49.209  26.696  26.385  1.00  0.00     0.041 A 
ATOM     63  F   UNL A   1      47.891  26.970  28.301  1.00  0.00    -0.206 F 
ATOM     64  C   UNL A   1      49.389  26.838  25.013  1.00  0.00     0.022 A 
BRANCH  61  65
ATOM     65  S   UNL A   1      48.528  27.532  22.454  1.00  0.00     0.124 S 
ATOM     66  O   UNL A   1      49.792  28.234  22.244  1.00  0.00    -0.237 OA
ATOM     67  O   UNL A   1      48.521  26.113  22.118  1.00  0.00    -0.237 OA
ATOM     68  O   UNL A   1      47.336  28.274  22.047  1.00  0.00    -0.744 OA
ENDBRANCH  61  65
ENDBRANCH  44  58
BRANCH  45  69
ATOM     69  C   UNL A   1      38.618  30.553  30.931  1.00  0.00     0.023 A 
ATOM     70  C   UNL A   1      37.552  31.207  30.294  1.00  0.00     0.031 A 
ATOM     71  C   UNL A   1      38.509  30.299  32.310  1.00  0.00     0.131 A 
ATOM     72  C   UNL A   1      36.438  31.617  31.043  1.00  0.00     0.055 A 
ATOM     73  C   UNL A   1      37.379  30.666  33.041  1.00  0.00     0.041 A 
ATOM     74  F   UNL A   1      39.500  29.674  32.966  1.00  0.00    -0.206 F 
ATOM     75  C   UNL A   1      36.339  31.340  32.409  1.00  0.00     0.022 A 
BRANCH  72  76
ATOM     76  S   UNL A   1      35.142  32.584  30.219  1.00  0.00     0.124 S 
ATOM     77  O   UNL A   1      35.875  33.778  29.812  1.00  0.00    -0.237 OA
ATOM     78  O   UNL A   1      34.732  31.686  29.145  1.00  0.00    -0.237 OA
ATOM     79  O   UNL A   1      34.150  32.789  31.271  1.00  0.00    -0.744 OA
ENDBRANCH  72  76
ENDBRANCH  45  69
BRANCH  57  80
ATOM     80  C   UNL A   1      44.629  33.826  29.653  1.00  0.00     0.023 A 
ATOM     81  C   UNL A   1      44.448  34.891  28.753  1.00  0.00     0.031 A 
ATOM     82  C   UNL A   1      45.300  34.084  30.861  1.00  0.00     0.131 A 
ATOM     83  C   UNL A   1      44.981  36.154  29.050  1.00  0.00     0.055 A 
ATOM     84  C   UNL A   1      45.784  35.355  31.175  1.00  0.00     0.041 A 
ATOM     85  F   UNL A   1      45.500  33.102  31.754  1.00  0.00    -0.206 F 
ATOM     86  C   UNL A   1      45.638  36.395  30.261  1.00  0.00     0.022 A 
BRANCH  83  87
ATOM     87  S   UNL A   1      44.890  37.458  27.792  1.00  0.00     0.124 S 
ATOM     88  O   UNL A   1      46.082  37.195  26.994  1.00  0.00    -0.237 OA
ATOM     89  O   UNL A   1      43.612  37.176  27.144  1.00  0.00    -0.237 OA
ATOM     90  O   UNL A   1      44.928  38.693  28.574  1.00  0.00    -0.744 OA
ENDBRANCH  83  87
ENDBRANCH  57  80
ENDBRANCH  31  32
ENDBRANCH  24  26
ENDBRANCH  23  24
ENDBRANCH  22  23
ENDBRANCH   1  22
TORSDOF 19
ENDMDL
MODEL 2
REMARK VINA RESULT:     -10.7      4.842      7.860
REMARK SMILES CN(CC(C)(C)O)C(=O)N[C@H]1CC[C@H](C(=O)OCCOC(=O)c2ccc(-c3c4nc(c(-c5cc(S(=O)(=O)[O-])ccc5F)c5ccc([nH]5)c(-c5cc(S(=O)(=O)[O-])ccc5F)c5nc(c(-c6cc(S(=O)(=O)[O-])ccc6F)c6ccc3[nH]6)C=C5)C=C4)cc2)C1
REMARK SMILES IDX 18 1 17 2 15 3 16 4 14 5 11 6 12 7 86 8 13 9 10 10 8 11 9 12
REMARK SMILES IDX 2 14 1 15 3 16 4 17 5 18 6 19 7 20 19 22 20 23 21 24 22 25
REMARK SMILES IDX 23 26 24 27 85 28 25 29 84 30 26 31 27 32 28 33 78 34 29 35
REMARK SMILES IDX 83 36 77 37 79 38 30 39 82 40 76 41 75 42 31 44 63 45 43 46
REMARK SMILES IDX 62 47 44 48 47 49 61 50 80 51 45 52 46 53 60 55 81 56 48 57
REMARK SMILES IDX 32 58 33 59 41 60 34 61 40 62 42 63 39 64 35 65 36 66 37 67
REMARK SMILES IDX 38 68 64 69 65 70 73 71 66 72 72 73 74 74 71 75 67 76 68 77
REMARK SMILES IDX 69 78 70 79 49 80 50 81 58 82 51 83 57 84 59 85 56 86 52 87
REMARK SMILES IDX 53 88 54 89 55 90
REMARK H PARENT 10 13 7 21 79 43 47 54
REMARK Flexibility Score: inf
ROOT
ATOM      1  C   UNL A   1      32.212  29.394  24.898  1.00  0.00     0.274 C 
ENDROOT
BRANCH   1   2
ATOM      2  O   UNL A   1      31.250  28.352  24.654  1.00  0.00    -0.462 OA
BRANCH   2   3
ATOM      3  C   UNL A   1      31.619  27.130  25.099  1.00  0.00     0.309 C 
ATOM      4  O   UNL A   1      31.604  26.780  26.275  1.00  0.00    -0.252 OA
BRANCH   3   5
ATOM      5  C   UNL A   1      32.113  26.208  24.023  1.00  0.00     0.101 C 
ATOM      6  C   UNL A   1      33.833  25.039  22.955  1.00  0.00     0.084 C 
ATOM      7  C   UNL A   1      32.966  25.670  21.827  1.00  0.00     0.026 C 
ATOM      8  C   UNL A   1      33.621  26.076  24.039  1.00  0.00     0.040 C 
ATOM      9  C   UNL A   1      31.855  26.475  22.545  1.00  0.00     0.017 C 
BRANCH   6  10
ATOM     10  N   UNL A   1      33.367  23.655  23.185  1.00  0.00    -0.335 N 
ATOM     11  C   UNL A   1      33.364  22.576  23.967  1.00  0.00     0.317 C 
ATOM     12  O   UNL A   1      32.876  21.595  23.388  1.00  0.00    -0.249 OA
ATOM     13  H   UNL A   1      32.804  23.428  22.410  1.00  0.00     0.165 HD
BRANCH  11  14
ATOM     14  N   UNL A   1      33.800  22.471  25.250  1.00  0.00    -0.325 N 
ATOM     15  C   UNL A   1      32.988  23.160  26.260  1.00  0.00     0.148 C 
BRANCH  14  16
ATOM     16  C   UNL A   1      35.014  21.859  25.789  1.00  0.00     0.155 C 
BRANCH  16  17
ATOM     17  C   UNL A   1      36.370  22.471  25.337  1.00  0.00     0.077 C 
ATOM     18  C   UNL A   1      36.775  22.234  23.883  1.00  0.00     0.043 C 
ATOM     19  C   UNL A   1      36.366  23.979  25.621  1.00  0.00     0.043 C 
BRANCH  17  20
ATOM     20  O   UNL A   1      37.418  21.910  26.147  1.00  0.00    -0.389 OA
ATOM     21  H   UNL A   1      37.270  22.145  27.075  1.00  0.00     0.211 HD
ENDBRANCH  17  20
ENDBRANCH  16  17
ENDBRANCH  14  16
ENDBRANCH  11  14
ENDBRANCH   6  10
ENDBRANCH   3   5
ENDBRANCH   2   3
ENDBRANCH   1   2
BRANCH   1  22
ATOM     22  C   UNL A   1      31.636  30.488  25.798  1.00  0.00     0.275 C 
BRANCH  22  23
ATOM     23  O   UNL A   1      32.293  30.555  27.079  1.00  0.00    -0.458 OA
BRANCH  23  24
ATOM     24  C   UNL A   1      33.031  31.673  27.274  1.00  0.00     0.338 C 
ATOM     25  O   UNL A   1      32.649  32.831  27.175  1.00  0.00    -0.246 OA
BRANCH  24  26
ATOM     26  C   UNL A   1      34.393  31.328  27.702  1.00  0.00     0.060 A 
ATOM     27  C   UNL A   1      34.678  29.999  28.017  1.00  0.00     0.016 A 
ATOM     28  C   UNL A   1      35.330  32.331  27.957  1.00  0.00     0.016 A 
ATOM     29  C   UNL A   1      35.880  29.668  28.637  1.00  0.00     0.010 A 
ATOM     30  C   UNL A   1      36.550  31.993  28.553  1.00  0.00     0.010 A 
ATOM     31  C   UNL A   1      36.820  30.664  28.927  1.00  0.00    -0.014 A 
BRANCH  31  32
ATOM     32  C   UNL A   1      38.041  30.321  29.702  1.00  0.00     0.031 A 
ATOM     33  C   UNL A   1      39.071  29.400  29.102  1.00  0.00     0.074 A 
ATOM     34  C   UNL A   1      38.245  30.857  30.919  1.00  0.00     0.049 A 
ATOM     35  N   UNL A   1      40.148  28.890  29.644  1.00  0.00    -0.248 NA
ATOM     36  C   UNL A   1      38.848  28.990  27.707  1.00  0.00     0.031 C 
ATOM     37  C   UNL A   1      37.347  31.803  31.584  1.00  0.00     0.029 A 
ATOM     38  N   UNL A   1      39.271  30.686  31.813  1.00  0.00    -0.354 N 
ATOM     39  C   UNL A   1      40.716  28.077  28.670  1.00  0.00     0.074 A 
ATOM     40  C   UNL A   1      39.850  28.146  27.511  1.00  0.00     0.031 C 
ATOM     41  C   UNL A   1      37.868  32.135  32.777  1.00  0.00     0.029 A 
ATOM     42  C   UNL A   1      39.103  31.386  32.984  1.00  0.00     0.049 A 
ATOM     43  H   UNL A   1      40.054  30.117  31.633  1.00  0.00     0.167 HD
ATOM     44  C   UNL A   1      41.857  27.344  28.736  1.00  0.00     0.034 A 
ATOM     45  C   UNL A   1      39.844  31.398  34.110  1.00  0.00     0.034 A 
ATOM     46  C   UNL A   1      42.720  27.302  29.892  1.00  0.00     0.049 A 
ATOM     47  C   UNL A   1      41.083  30.545  34.178  1.00  0.00     0.074 A 
ATOM     48  C   UNL A   1      43.897  26.594  30.069  1.00  0.00     0.029 A 
ATOM     49  N   UNL A   1      42.502  28.005  31.072  1.00  0.00    -0.354 N 
ATOM     50  N   UNL A   1      41.583  29.741  33.267  1.00  0.00    -0.248 NA
ATOM     51  C   UNL A   1      41.856  30.599  35.425  1.00  0.00     0.031 C 
ATOM     52  C   UNL A   1      44.360  26.826  31.370  1.00  0.00     0.029 A 
ATOM     53  C   UNL A   1      43.509  27.729  31.986  1.00  0.00     0.049 A 
ATOM     54  H   UNL A   1      41.742  28.610  31.235  1.00  0.00     0.167 HD
ATOM     55  C   UNL A   1      42.738  29.205  33.828  1.00  0.00     0.074 A 
ATOM     56  C   UNL A   1      42.871  29.794  35.147  1.00  0.00     0.031 C 
ATOM     57  C   UNL A   1      43.612  28.309  33.304  1.00  0.00     0.034 A 
BRANCH  44  58
ATOM     58  C   UNL A   1      42.192  26.479  27.543  1.00  0.00     0.023 A 
ATOM     59  C   UNL A   1      41.730  25.156  27.428  1.00  0.00     0.031 A 
ATOM     60  C   UNL A   1      43.025  26.977  26.526  1.00  0.00     0.131 A 
ATOM     61  C   UNL A   1      42.163  24.356  26.358  1.00  0.00     0.055 A 
ATOM     62  C   UNL A   1      43.391  26.200  25.425  1.00  0.00     0.041 A 
ATOM     63  F   UNL A   1      43.514  28.226  26.593  1.00  0.00    -0.206 F 
ATOM     64  C   UNL A   1      42.972  24.876  25.345  1.00  0.00     0.022 A 
BRANCH  61  65
ATOM     65  S   UNL A   1      41.769  22.584  26.382  1.00  0.00     0.124 S 
ATOM     66  O   UNL A   1      42.294  22.183  27.686  1.00  0.00    -0.237 OA
ATOM     67  O   UNL A   1      40.317  22.581  26.248  1.00  0.00    -0.237 OA
ATOM     68  O   UNL A   1      42.503  22.054  25.234  1.00  0.00    -0.744 OA
ENDBRANCH  61  65
ENDBRANCH  44  58
BRANCH  45  69
ATOM     69  C   UNL A   1      39.406  32.200  35.288  1.00  0.00     0.023 A 
ATOM     70  C   UNL A   1      39.866  33.510  35.489  1.00  0.00     0.031 A 
ATOM     71  C   UNL A   1      38.544  31.645  36.251  1.00  0.00     0.131 A 
ATOM     72  C   UNL A   1      39.490  34.211  36.645  1.00  0.00     0.055 A 
ATOM     73  C   UNL A   1      38.136  32.363  37.375  1.00  0.00     0.041 A 
ATOM     74  F   UNL A   1      38.074  30.396  36.104  1.00  0.00    -0.206 F 
ATOM     75  C   UNL A   1      38.618  33.651  37.582  1.00  0.00     0.022 A 
BRANCH  72  76
ATOM     76  S   UNL A   1      40.213  35.848  36.945  1.00  0.00     0.124 S 
ATOM     77  O   UNL A   1      41.641  35.552  36.920  1.00  0.00    -0.237 OA
ATOM     78  O   UNL A   1      39.697  36.618  35.819  1.00  0.00    -0.237 OA
ATOM     79  O   UNL A   1      39.676  36.223  38.251  1.00  0.00    -0.744 OA
ENDBRANCH  72  76
ENDBRANCH  45  69
BRANCH  57  80
ATOM     80  C   UNL A   1      44.802  27.946  34.157  1.00  0.00     0.023 A 
ATOM     81  C   UNL A   1      44.765  26.859  35.048  1.00  0.00     0.031 A 
ATOM     82  C   UNL A   1      45.974  28.721  34.101  1.00  0.00     0.131 A 
ATOM     83  C   UNL A   1      45.860  26.609  35.890  1.00  0.00     0.055 A 
ATOM     84  C   UNL A   1      47.080  28.436  34.904  1.00  0.00     0.041 A 
ATOM     85  F   UNL A   1      46.061  29.770  33.270  1.00  0.00    -0.206 F 
ATOM     86  C   UNL A   1      47.021  27.384  35.815  1.00  0.00     0.022 A 
BRANCH  83  87
ATOM     87  S   UNL A   1      45.712  25.315  37.152  1.00  0.00     0.124 S 
ATOM     88  O   UNL A   1      46.383  25.925  38.294  1.00  0.00    -0.237 OA
ATOM     89  O   UNL A   1      44.265  25.159  37.270  1.00  0.00    -0.237 OA
ATOM     90  O   UNL A   1      46.411  24.176  36.559  1.00  0.00    -0.744 OA
ENDBRANCH  83  87
ENDBRANCH  57  80
ENDBRANCH  31  32
ENDBRANCH  24  26
ENDBRANCH  23  24
ENDBRANCH  22  23
ENDBRANCH   1  22
TORSDOF 19
ENDMDL
MODEL 3
REMARK VINA RESULT:     -10.7      1.422      7.860
REMARK SMILES CN(CC(C)(C)O)C(=O)N[C@H]1CC[C@H](C(=O)OCCOC(=O)c2ccc(-c3c4nc(c(-c5cc(S(=O)(=O)[O-])ccc5F)c5ccc([nH]5)c(-c5cc(S(=O)(=O)[O-])ccc5F)c5nc(c(-c6cc(S(=O)(=O)[O-])ccc6F)c6ccc3[nH]6)C=C5)C=C4)cc2)C1
REMARK SMILES IDX 18 1 17 2 15 3 16 4 14 5 11 6 12 7 86 8 13 9 10 10 8 11 9 12
REMARK SMILES IDX 2 14 1 15 3 16 4 17 5 18 6 19 7 20 19 22 20 23 21 24 22 25
REMARK SMILES IDX 23 26 24 27 85 28 25 29 84 30 26 31 27 32 28 33 78 34 29 35
REMARK SMILES IDX 83 36 77 37 79 38 30 39 82 40 76 41 75 42 31 44 63 45 43 46
REMARK SMILES IDX 62 47 44 48 47 49 61 50 80 51 45 52 46 53 60 55 81 56 48 57
REMARK SMILES IDX 32 58 33 59 41 60 34 61 40 62 42 63 39 64 35 65 36 66 37 67
REMARK SMILES IDX 38 68 64 69 65 70 73 71 66 72 72 73 74 74 71 75 67 76 68 77
REMARK SMILES IDX 69 78 70 79 49 80 50 81 58 82 51 83 57 84 59 85 56 86 52 87
REMARK SMILES IDX 53 88 54 89 55 90
REMARK H PARENT 10 13 7 21 79 43 47 54
REMARK Flexibility Score: inf
ROOT
ATOM      1  C   UNL A   1      35.428  21.406  25.639  1.00  0.00     0.274 C 
ENDROOT
BRANCH   1   2
ATOM      2  O   UNL A   1      34.446  21.768  24.651  1.00  0.00    -0.462 OA
BRANCH   2   3
ATOM      3  C   UNL A   1      34.129  23.082  24.629  1.00  0.00     0.309 C 
ATOM      4  O   UNL A   1      34.908  23.985  24.338  1.00  0.00    -0.252 OA
BRANCH   3   5
ATOM      5  C   UNL A   1      32.719  23.381  25.047  1.00  0.00     0.101 C 
ATOM      6  C   UNL A   1      31.178  24.387  26.489  1.00  0.00     0.084 C 
ATOM      7  C   UNL A   1      30.647  22.950  26.214  1.00  0.00     0.026 C 
ATOM      8  C   UNL A   1      32.665  24.130  26.362  1.00  0.00     0.040 C 
ATOM      9  C   UNL A   1      31.695  22.279  25.292  1.00  0.00     0.017 C 
BRANCH   6  10
ATOM     10  N   UNL A   1      30.527  25.315  25.540  1.00  0.00    -0.335 N 
ATOM     11  C   UNL A   1      30.558  26.480  24.892  1.00  0.00     0.317 C 
ATOM     12  O   UNL A   1      29.470  26.732  24.355  1.00  0.00    -0.249 OA
ATOM     13  H   UNL A   1      29.692  24.873  25.259  1.00  0.00     0.165 HD
BRANCH  11  14
ATOM     14  N   UNL A   1      31.604  27.340  24.767  1.00  0.00    -0.325 N 
ATOM     15  C   UNL A   1      31.373  28.703  25.262  1.00  0.00     0.148 C 
BRANCH  14  16
ATOM     16  C   UNL A   1      32.904  27.159  24.124  1.00  0.00     0.155 C 
BRANCH  16  17
ATOM     17  C   UNL A   1      32.948  27.294  22.576  1.00  0.00     0.077 C 
ATOM     18  C   UNL A   1      34.031  28.203  21.999  1.00  0.00     0.043 C 
ATOM     19  C   UNL A   1      33.073  25.899  21.949  1.00  0.00     0.043 C 
BRANCH  17  20
ATOM     20  O   UNL A   1      31.689  27.827  22.128  1.00  0.00    -0.389 OA
ATOM     21  H   UNL A   1      31.745  28.039  21.184  1.00  0.00     0.211 HD
ENDBRANCH  17  20
ENDBRANCH  16  17
ENDBRANCH  14  16
ENDBRANCH  11  14
ENDBRANCH   6  10
ENDBRANCH   3   5
ENDBRANCH   2   3
ENDBRANCH   1   2
BRANCH   1  22
ATOM     22  C   UNL A   1      36.551  20.565  25.030  1.00  0.00     0.275 C 
BRANCH  22  23
ATOM     23  O   UNL A   1      37.770  21.313  24.854  1.00  0.00    -0.458 OA
BRANCH  23  24
ATOM     24  C   UNL A   1      38.764  20.974  25.708  1.00  0.00     0.338 C 
ATOM     25  O   UNL A   1      39.209  19.851  25.908  1.00  0.00    -0.246 OA
BRANCH  24  26
ATOM     26  C   UNL A   1      39.324  22.167  26.354  1.00  0.00     0.060 A 
ATOM     27  C   UNL A   1      38.728  23.404  26.105  1.00  0.00     0.016 A 
ATOM     28  C   UNL A   1      40.528  22.092  27.058  1.00  0.00     0.016 A 
ATOM     29  C   UNL A   1      39.354  24.579  26.511  1.00  0.00     0.010 A 
ATOM     30  C   UNL A   1      41.142  23.273  27.492  1.00  0.00     0.010 A 
ATOM     31  C   UNL A   1      40.576  24.526  27.193  1.00  0.00    -0.014 A 
BRANCH  31  32
ATOM     32  C   UNL A   1      41.298  25.787  27.509  1.00  0.00     0.031 A 
ATOM     33  C   UNL A   1      40.630  26.837  28.356  1.00  0.00     0.074 A 
ATOM     34  C   UNL A   1      42.557  25.975  27.070  1.00  0.00     0.049 A 
ATOM     35  N   UNL A   1      41.037  28.043  28.660  1.00  0.00    -0.248 NA
ATOM     36  C   UNL A   1      39.322  26.482  28.927  1.00  0.00     0.031 C 
ATOM     37  C   UNL A   1      43.329  25.009  26.286  1.00  0.00     0.029 A 
ATOM     38  N   UNL A   1      43.408  27.040  27.222  1.00  0.00    -0.354 N 
ATOM     39  C   UNL A   1      40.025  28.603  29.432  1.00  0.00     0.074 A 
ATOM     40  C   UNL A   1      38.976  27.609  29.529  1.00  0.00     0.031 C 
ATOM     41  C   UNL A   1      44.544  25.524  26.034  1.00  0.00     0.029 A 
ATOM     42  C   UNL A   1      44.616  26.873  26.588  1.00  0.00     0.049 A 
ATOM     43  H   UNL A   1      43.176  27.847  27.735  1.00  0.00     0.167 HD
ATOM     44  C   UNL A   1      39.977  29.832  30.007  1.00  0.00     0.034 A 
ATOM     45  C   UNL A   1      45.653  27.721  26.442  1.00  0.00     0.034 A 
ATOM     46  C   UNL A   1      41.041  30.803  29.917  1.00  0.00     0.049 A 
ATOM     47  C   UNL A   1      45.562  29.095  27.054  1.00  0.00     0.074 A 
ATOM     48  C   UNL A   1      41.099  32.077  30.459  1.00  0.00     0.029 A 
ATOM     49  N   UNL A   1      42.241  30.608  29.242  1.00  0.00    -0.354 N 
ATOM     50  N   UNL A   1      44.578  29.631  27.740  1.00  0.00    -0.248 NA
ATOM     51  C   UNL A   1      46.721  29.978  26.870  1.00  0.00     0.031 C 
ATOM     52  C   UNL A   1      42.307  32.668  30.068  1.00  0.00     0.029 A 
ATOM     53  C   UNL A   1      43.033  31.743  29.336  1.00  0.00     0.049 A 
ATOM     54  H   UNL A   1      42.491  29.783  28.767  1.00  0.00     0.167 HD
ATOM     55  C   UNL A   1      45.007  30.910  28.081  1.00  0.00     0.074 A 
ATOM     56  C   UNL A   1      46.346  31.056  27.543  1.00  0.00     0.031 C 
ATOM     57  C   UNL A   1      44.357  31.877  28.776  1.00  0.00     0.034 A 
BRANCH  44  58
ATOM     58  C   UNL A   1      38.704  30.208  30.727  1.00  0.00     0.023 A 
ATOM     59  C   UNL A   1      37.666  30.910  30.089  1.00  0.00     0.031 A 
ATOM     60  C   UNL A   1      38.547  29.895  32.089  1.00  0.00     0.131 A 
ATOM     61  C   UNL A   1      36.553  31.338  30.831  1.00  0.00     0.055 A 
ATOM     62  C   UNL A   1      37.403  30.257  32.803  1.00  0.00     0.041 A 
ATOM     63  F   UNL A   1      39.514  29.245  32.757  1.00  0.00    -0.206 F 
ATOM     64  C   UNL A   1      36.404  30.997  32.177  1.00  0.00     0.022 A 
BRANCH  61  65
ATOM     65  S   UNL A   1      35.368  32.468  30.048  1.00  0.00     0.124 S 
ATOM     66  O   UNL A   1      34.892  31.665  28.924  1.00  0.00    -0.237 OA
ATOM     67  O   UNL A   1      34.404  32.706  31.116  1.00  0.00    -0.237 OA
ATOM     68  O   UNL A   1      36.186  33.621  29.678  1.00  0.00    -0.744 OA
ENDBRANCH  61  65
ENDBRANCH  44  58
BRANCH  45  69
ATOM     69  C   UNL A   1      46.842  27.323  25.638  1.00  0.00     0.023 A 
ATOM     70  C   UNL A   1      47.016  27.776  24.321  1.00  0.00     0.031 A 
ATOM     71  C   UNL A   1      47.806  26.448  26.170  1.00  0.00     0.131 A 
ATOM     72  C   UNL A   1      48.111  27.325  23.568  1.00  0.00     0.055 A 
ATOM     73  C   UNL A   1      48.918  26.040  25.433  1.00  0.00     0.041 A 
ATOM     74  F   UNL A   1      47.687  25.987  27.425  1.00  0.00    -0.206 F 
ATOM     75  C   UNL A   1      49.069  26.470  24.119  1.00  0.00     0.022 A 
BRANCH  72  76
ATOM     76  S   UNL A   1      48.231  27.817  21.825  1.00  0.00     0.124 S 
ATOM     77  O   UNL A   1      47.001  28.581  21.646  1.00  0.00    -0.237 OA
ATOM     78  O   UNL A   1      49.471  28.585  21.813  1.00  0.00    -0.237 OA
ATOM     79  O   UNL A   1      48.283  26.542  21.114  1.00  0.00    -0.744 OA
ENDBRANCH  72  76
ENDBRANCH  45  69
BRANCH  57  80
ATOM     80  C   UNL A   1      45.111  33.161  29.014  1.00  0.00     0.023 A 
ATOM     81  C   UNL A   1      45.154  34.181  28.047  1.00  0.00     0.031 A 
ATOM     82  C   UNL A   1      45.823  33.351  30.211  1.00  0.00     0.131 A 
ATOM     83  C   UNL A   1      45.940  35.322  28.270  1.00  0.00     0.055 A 
ATOM     84  C   UNL A   1      46.562  34.510  30.449  1.00  0.00     0.041 A 
ATOM     85  F   UNL A   1      45.816  32.408  31.167  1.00  0.00    -0.206 F 
ATOM     86  C   UNL A   1      46.636  35.497  29.470  1.00  0.00     0.022 A 
BRANCH  83  87
ATOM     87  S   UNL A   1      46.120  36.532  26.931  1.00  0.00     0.124 S 
ATOM     88  O   UNL A   1      47.384  37.177  27.270  1.00  0.00    -0.237 OA
ATOM     89  O   UNL A   1      46.135  35.684  25.743  1.00  0.00    -0.237 OA
ATOM     90  O   UNL A   1      44.936  37.378  27.071  1.00  0.00    -0.744 OA
ENDBRANCH  83  87
ENDBRANCH  57  80
ENDBRANCH  31  32
ENDBRANCH  24  26
ENDBRANCH  23  24
ENDBRANCH  22  23
ENDBRANCH   1  22
TORSDOF 19
ENDMDL
