MODEL 1
REMARK VINA RESULT:     -11.1      0.000      0.000
REMARK SMILES Cc1c(Cl)cc2c(c1C)O[C@H](C(F)(F)F)C(C(=O)OCCOC(=O)c1ccc(-c3c4nc(c(-c5cc(S(=O)(=O)[O-])ccc5F)c5ccc([nH]5)c(-c5cc(S(=O)(=O)[O-])ccc5F)c5nc(c(-c6cc(S(=O)(=O)[O-])ccc6F)c6ccc3[nH]6)C=C5)C=C4)cc1)=C2
REMARK SMILES IDX 21 1 20 2 19 3 17 4 18 5 16 6 1 7 2 8 3 9 8 10 4 11 5 12
REMARK SMILES IDX 7 13 9 14 6 15 10 16 88 17 11 18 12 19 13 20 14 21 15 22
REMARK SMILES IDX 22 23 23 24 24 25 25 26 26 27 87 28 27 29 86 30 28 31 29 32
REMARK SMILES IDX 30 33 80 34 31 35 85 36 79 37 81 38 32 39 84 40 78 41 77 42
REMARK SMILES IDX 33 44 65 45 45 46 64 47 46 48 49 49 63 50 82 51 47 52 48 53
REMARK SMILES IDX 62 55 83 56 50 57 34 58 35 59 43 60 36 61 42 62 44 63 41 64
REMARK SMILES IDX 37 65 38 66 39 67 40 68 66 69 67 70 75 71 68 72 74 73 76 74
REMARK SMILES IDX 73 75 69 76 70 77 71 78 72 79 51 80 52 81 60 82 53 83 59 84
REMARK SMILES IDX 61 85 58 86 54 87 55 88 56 89 57 90
REMARK H PARENT 81 43 49 54
REMARK Flexibility Score: inf
ROOT
ATOM      1  C   UNL A   1      40.808  20.114  26.223  1.00  0.00     0.275 C 
ENDROOT
BRANCH   1   2
ATOM      2  C   UNL A   1      42.209  19.931  26.806  1.00  0.00     0.275 C 
BRANCH   2   3
ATOM      3  O   UNL A   1      43.218  20.437  25.907  1.00  0.00    -0.459 OA
BRANCH   3   4
ATOM      4  C   UNL A   1      43.202  21.777  25.718  1.00  0.00     0.338 C 
ATOM      5  O   UNL A   1      42.432  22.402  25.006  1.00  0.00    -0.246 OA
BRANCH   4   6
ATOM      6  C   UNL A   1      44.270  22.426  26.496  1.00  0.00     0.087 C 
ATOM      7  C   UNL A   1      47.693  26.431  30.349  1.00  0.00     0.046 C 
ATOM      8  C   UNL A   1      46.766  25.461  29.661  1.00  0.00    -0.026 A 
ATOM      9  C   UNL A   1      45.481  25.237  30.199  1.00  0.00     0.045 A 
ATOM     10  C   UNL A   1      47.116  24.818  28.443  1.00  0.00    -0.004 A 
ATOM     11  Cl  UNL A   1      44.921  26.043  31.624  1.00  0.00    -0.084 Cl
ATOM     12  C   UNL A   1      44.581  24.374  29.574  1.00  0.00     0.032 A 
ATOM     13  C   UNL A   1      46.189  23.950  27.822  1.00  0.00     0.131 A 
ATOM     14  C   UNL A   1      48.444  25.021  27.759  1.00  0.00     0.049 C 
ATOM     15  C   UNL A   1      44.933  23.737  28.386  1.00  0.00     0.019 A 
ATOM     16  O   UNL A   1      46.587  23.329  26.664  1.00  0.00    -0.475 OA
ATOM     17  C   UNL A   1      43.961  22.908  27.703  1.00  0.00     0.027 C 
ATOM     18  C   UNL A   1      45.594  22.661  25.838  1.00  0.00     0.316 C 
BRANCH  18  19
ATOM     19  C   UNL A   1      45.445  23.426  24.514  1.00  0.00     0.430 C 
ATOM     20  F   UNL A   1      46.626  23.969  24.126  1.00  0.00    -0.167 F 
ATOM     21  F   UNL A   1      45.058  22.605  23.507  1.00  0.00    -0.167 F 
ATOM     22  F   UNL A   1      44.544  24.429  24.591  1.00  0.00    -0.167 F 
ENDBRANCH  18  19
ENDBRANCH   4   6
ENDBRANCH   3   4
ENDBRANCH   2   3
ENDBRANCH   1   2
BRANCH   1  23
ATOM     23  O   UNL A   1      40.031  20.987  27.062  1.00  0.00    -0.458 OA
BRANCH  23  24
ATOM     24  C   UNL A   1      39.360  21.963  26.408  1.00  0.00     0.338 C 
ATOM     25  O   UNL A   1      38.564  21.826  25.495  1.00  0.00    -0.246 OA
BRANCH  24  26
ATOM     26  C   UNL A   1      39.667  23.273  27.004  1.00  0.00     0.060 A 
ATOM     27  C   UNL A   1      39.244  24.421  26.345  1.00  0.00     0.016 A 
ATOM     28  C   UNL A   1      40.535  23.372  28.088  1.00  0.00     0.016 A 
ATOM     29  C   UNL A   1      39.827  25.647  26.645  1.00  0.00     0.010 A 
ATOM     30  C   UNL A   1      40.991  24.634  28.493  1.00  0.00     0.010 A 
ATOM     31  C   UNL A   1      40.694  25.782  27.738  1.00  0.00    -0.014 A 
BRANCH  31  32
ATOM     32  C   UNL A   1      41.310  27.110  28.045  1.00  0.00     0.031 A 
ATOM     33  C   UNL A   1      40.535  28.151  28.819  1.00  0.00     0.074 A 
ATOM     34  C   UNL A   1      42.583  27.372  27.676  1.00  0.00     0.049 A 
ATOM     35  N   UNL A   1      40.836  29.404  29.050  1.00  0.00    -0.248 NA
ATOM     36  C   UNL A   1      39.246  27.736  29.398  1.00  0.00     0.031 C 
ATOM     37  C   UNL A   1      43.471  26.440  26.974  1.00  0.00     0.029 A 
ATOM     38  N   UNL A   1      43.368  28.484  27.866  1.00  0.00    -0.354 N 
ATOM     39  C   UNL A   1      39.757  29.936  29.751  1.00  0.00     0.074 A 
ATOM     40  C   UNL A   1      38.782  28.876  29.888  1.00  0.00     0.031 C 
ATOM     41  C   UNL A   1      44.693  26.982  26.871  1.00  0.00     0.029 A 
ATOM     42  C   UNL A   1      44.650  28.346  27.381  1.00  0.00     0.049 A 
ATOM     43  H   UNL A   1      43.045  29.301  28.307  1.00  0.00     0.167 HD
ATOM     44  C   UNL A   1      39.601  31.188  30.245  1.00  0.00     0.034 A 
ATOM     45  C   UNL A   1      45.670  29.225  27.307  1.00  0.00     0.034 A 
ATOM     46  C   UNL A   1      40.608  32.215  30.160  1.00  0.00     0.049 A 
ATOM     47  C   UNL A   1      45.443  30.632  27.785  1.00  0.00     0.074 A 
ATOM     48  C   UNL A   1      40.558  33.511  30.642  1.00  0.00     0.029 A 
ATOM     49  N   UNL A   1      41.855  32.057  29.571  1.00  0.00    -0.354 N 
ATOM     50  N   UNL A   1      44.384  31.140  28.369  1.00  0.00    -0.248 NA
ATOM     51  C   UNL A   1      46.529  31.596  27.560  1.00  0.00     0.031 C 
ATOM     52  C   UNL A   1      41.748  34.154  30.292  1.00  0.00     0.029 A 
ATOM     53  C   UNL A   1      42.566  33.244  29.645  1.00  0.00     0.049 A 
ATOM     54  H   UNL A   1      42.185  31.225  29.161  1.00  0.00     0.167 HD
ATOM     55  C   UNL A   1      44.675  32.483  28.578  1.00  0.00     0.074 A 
ATOM     56  C   UNL A   1      46.017  32.703  28.079  1.00  0.00     0.031 C 
ATOM     57  C   UNL A   1      43.895  33.448  29.126  1.00  0.00     0.034 A 
BRANCH  44  58
ATOM     58  C   UNL A   1      38.284  31.535  30.891  1.00  0.00     0.023 A 
ATOM     59  C   UNL A   1      37.230  32.116  30.167  1.00  0.00     0.031 A 
ATOM     60  C   UNL A   1      38.074  31.255  32.254  1.00  0.00     0.131 A 
ATOM     61  C   UNL A   1      36.031  32.442  30.819  1.00  0.00     0.055 A 
ATOM     62  C   UNL A   1      36.855  31.521  32.882  1.00  0.00     0.041 A 
ATOM     63  F   UNL A   1      39.052  30.714  32.998  1.00  0.00    -0.206 F 
ATOM     64  C   UNL A   1      35.828  32.126  32.165  1.00  0.00     0.022 A 
BRANCH  61  65
ATOM     65  S   UNL A   1      34.766  33.365  29.906  1.00  0.00     0.124 S 
ATOM     66  O   UNL A   1      34.094  32.295  29.172  1.00  0.00    -0.237 OA
ATOM     67  O   UNL A   1      33.994  33.989  30.974  1.00  0.00    -0.237 OA
ATOM     68  O   UNL A   1      35.543  34.286  29.078  1.00  0.00    -0.744 OA
ENDBRANCH  61  65
ENDBRANCH  44  58
BRANCH  45  69
ATOM     69  C   UNL A   1      46.965  28.820  26.690  1.00  0.00     0.023 A 
ATOM     70  C   UNL A   1      47.045  28.493  25.327  1.00  0.00     0.031 A 
ATOM     71  C   UNL A   1      48.146  28.759  27.454  1.00  0.00     0.131 A 
ATOM     72  C   UNL A   1      48.277  28.111  24.773  1.00  0.00     0.055 A 
ATOM     73  C   UNL A   1      49.377  28.426  26.888  1.00  0.00     0.041 A 
ATOM     74  F   UNL A   1      48.124  29.059  28.762  1.00  0.00    -0.206 F 
ATOM     75  C   UNL A   1      49.447  28.094  25.539  1.00  0.00     0.022 A 
BRANCH  72  76
ATOM     76  S   UNL A   1      48.331  27.599  23.034  1.00  0.00     0.124 S 
ATOM     77  O   UNL A   1      49.601  28.167  22.597  1.00  0.00    -0.237 OA
ATOM     78  O   UNL A   1      48.280  26.145  23.142  1.00  0.00    -0.237 OA
ATOM     79  O   UNL A   1      47.139  28.220  22.459  1.00  0.00    -0.744 OA
ENDBRANCH  72  76
ENDBRANCH  45  69
BRANCH  57  80
ATOM     80  C   UNL A   1      44.468  34.834  29.211  1.00  0.00     0.023 A 
ATOM     81  C   UNL A   1      44.043  35.844  28.333  1.00  0.00     0.031 A 
ATOM     82  C   UNL A   1      45.385  35.166  30.222  1.00  0.00     0.131 A 
ATOM     83  C   UNL A   1      44.545  37.145  28.476  1.00  0.00     0.055 A 
ATOM     84  C   UNL A   1      45.850  36.472  30.386  1.00  0.00     0.041 A 
ATOM     85  F   UNL A   1      45.815  34.234  31.087  1.00  0.00    -0.206 F 
ATOM     86  C   UNL A   1      45.431  37.469  29.509  1.00  0.00     0.022 A 
BRANCH  83  87
ATOM     87  S   UNL A   1      44.030  38.413  27.288  1.00  0.00     0.124 S 
ATOM     88  O   UNL A   1      43.558  39.478  28.168  1.00  0.00    -0.237 OA
ATOM     89  O   UNL A   1      45.266  38.688  26.561  1.00  0.00    -0.237 OA
ATOM     90  O   UNL A   1      42.991  37.748  26.505  1.00  0.00    -0.744 OA
ENDBRANCH  83  87
ENDBRANCH  57  80
ENDBRANCH  31  32
ENDBRANCH  24  26
ENDBRANCH  23  24
ENDBRANCH   1  23
TORSDOF 15
ENDMDL
MODEL 2
REMARK VINA RESULT:     -11.0      0.761      7.573
REMARK SMILES Cc1c(Cl)cc2c(c1C)O[C@H](C(F)(F)F)C(C(=O)OCCOC(=O)c1ccc(-c3c4nc(c(-c5cc(S(=O)(=O)[O-])ccc5F)c5ccc([nH]5)c(-c5cc(S(=O)(=O)[O-])ccc5F)c5nc(c(-c6cc(S(=O)(=O)[O-])ccc6F)c6ccc3[nH]6)C=C5)C=C4)cc1)=C2
REMARK SMILES IDX 21 1 20 2 19 3 17 4 18 5 16 6 1 7 2 8 3 9 8 10 4 11 5 12
REMARK SMILES IDX 7 13 9 14 6 15 10 16 88 17 11 18 12 19 13 20 14 21 15 22
REMARK SMILES IDX 22 23 23 24 24 25 25 26 26 27 87 28 27 29 86 30 28 31 29 32
REMARK SMILES IDX 30 33 80 34 31 35 85 36 79 37 81 38 32 39 84 40 78 41 77 42
REMARK SMILES IDX 33 44 65 45 45 46 64 47 46 48 49 49 63 50 82 51 47 52 48 53
REMARK SMILES IDX 62 55 83 56 50 57 34 58 35 59 43 60 36 61 42 62 44 63 41 64
REMARK SMILES IDX 37 65 38 66 39 67 40 68 66 69 67 70 75 71 68 72 74 73 76 74
REMARK SMILES IDX 73 75 69 76 70 77 71 78 72 79 51 80 52 81 60 82 53 83 59 84
REMARK SMILES IDX 61 85 58 86 54 87 55 88 56 89 57 90
REMARK H PARENT 81 43 49 54
REMARK Flexibility Score: inf
ROOT
ATOM      1  C   UNL A   1      40.963  19.949  26.190  1.00  0.00     0.275 C 
ENDROOT
BRANCH   1   2
ATOM      2  C   UNL A   1      42.449  19.812  26.520  1.00  0.00     0.275 C 
BRANCH   2   3
ATOM      3  O   UNL A   1      43.267  20.480  25.536  1.00  0.00    -0.459 OA
BRANCH   3   4
ATOM      4  C   UNL A   1      43.163  21.829  25.521  1.00  0.00     0.338 C 
ATOM      5  O   UNL A   1      42.311  22.487  24.946  1.00  0.00    -0.246 OA
BRANCH   4   6
ATOM      6  C   UNL A   1      44.248  22.444  26.305  1.00  0.00     0.087 C 
ATOM      7  C   UNL A   1      47.793  26.367  30.131  1.00  0.00     0.046 C 
ATOM      8  C   UNL A   1      46.832  25.427  29.448  1.00  0.00    -0.026 A 
ATOM      9  C   UNL A   1      45.527  25.280  29.964  1.00  0.00     0.045 A 
ATOM     10  C   UNL A   1      47.172  24.739  28.252  1.00  0.00    -0.004 A 
ATOM     11  Cl  UNL A   1      44.982  26.147  31.359  1.00  0.00    -0.084 Cl
ATOM     12  C   UNL A   1      44.598  24.448  29.343  1.00  0.00     0.032 A 
ATOM     13  C   UNL A   1      46.215  23.903  27.633  1.00  0.00     0.131 A 
ATOM     14  C   UNL A   1      48.521  24.859  27.590  1.00  0.00     0.049 C 
ATOM     15  C   UNL A   1      44.940  23.766  28.177  1.00  0.00     0.019 A 
ATOM     16  O   UNL A   1      46.603  23.235  26.498  1.00  0.00    -0.475 OA
ATOM     17  C   UNL A   1      43.941  22.969  27.494  1.00  0.00     0.027 C 
ATOM     18  C   UNL A   1      45.593  22.597  25.668  1.00  0.00     0.316 C 
BRANCH  18  19
ATOM     19  C   UNL A   1      45.508  23.336  24.324  1.00  0.00     0.430 C 
ATOM     20  F   UNL A   1      46.742  23.653  23.859  1.00  0.00    -0.167 F 
ATOM     21  F   UNL A   1      44.932  22.565  23.369  1.00  0.00    -0.167 F 
ATOM     22  F   UNL A   1      44.798  24.482  24.405  1.00  0.00    -0.167 F 
ENDBRANCH  18  19
ENDBRANCH   4   6
ENDBRANCH   3   4
ENDBRANCH   2   3
ENDBRANCH   1   2
BRANCH   1  23
ATOM     23  O   UNL A   1      40.340  20.891  27.082  1.00  0.00    -0.458 OA
BRANCH  23  24
ATOM     24  C   UNL A   1      39.514  21.783  26.488  1.00  0.00     0.338 C 
ATOM     25  O   UNL A   1      38.679  21.556  25.630  1.00  0.00    -0.246 OA
BRANCH  24  26
ATOM     26  C   UNL A   1      39.703  23.117  27.080  1.00  0.00     0.060 A 
ATOM     27  C   UNL A   1      39.080  24.206  26.481  1.00  0.00     0.016 A 
ATOM     28  C   UNL A   1      40.645  23.319  28.085  1.00  0.00     0.016 A 
ATOM     29  C   UNL A   1      39.527  25.495  26.752  1.00  0.00     0.010 A 
ATOM     30  C   UNL A   1      40.971  24.626  28.471  1.00  0.00     0.010 A 
ATOM     31  C   UNL A   1      40.463  25.732  27.767  1.00  0.00    -0.014 A 
BRANCH  31  32
ATOM     32  C   UNL A   1      40.929  27.126  28.044  1.00  0.00     0.031 A 
ATOM     33  C   UNL A   1      42.333  27.548  27.678  1.00  0.00     0.074 A 
ATOM     34  C   UNL A   1      40.084  28.035  28.577  1.00  0.00     0.049 A 
ATOM     35  N   UNL A   1      42.968  28.655  27.972  1.00  0.00    -0.248 NA
ATOM     36  C   UNL A   1      43.136  26.597  26.891  1.00  0.00     0.031 C 
ATOM     37  C   UNL A   1      38.681  27.785  28.927  1.00  0.00     0.029 A 
ATOM     38  N   UNL A   1      40.262  29.361  28.890  1.00  0.00    -0.354 N 
ATOM     39  C   UNL A   1      44.251  28.512  27.455  1.00  0.00     0.074 A 
ATOM     40  C   UNL A   1      44.316  27.201  26.847  1.00  0.00     0.031 C 
ATOM     41  C   UNL A   1      38.110  28.932  29.321  1.00  0.00     0.029 A 
ATOM     42  C   UNL A   1      39.127  29.973  29.376  1.00  0.00     0.049 A 
ATOM     43  H   UNL A   1      41.119  29.829  28.777  1.00  0.00     0.167 HD
ATOM     44  C   UNL A   1      45.277  29.398  27.473  1.00  0.00     0.034 A 
ATOM     45  C   UNL A   1      38.928  31.217  29.859  1.00  0.00     0.034 A 
ATOM     46  C   UNL A   1      45.180  30.726  28.021  1.00  0.00     0.049 A 
ATOM     47  C   UNL A   1      40.102  32.151  29.946  1.00  0.00     0.074 A 
ATOM     48  C   UNL A   1      46.153  31.709  28.076  1.00  0.00     0.029 A 
ATOM     49  N   UNL A   1      44.036  31.267  28.594  1.00  0.00    -0.354 N 
ATOM     50  N   UNL A   1      41.332  31.967  29.528  1.00  0.00    -0.248 NA
ATOM     51  C   UNL A   1      39.875  33.445  30.605  1.00  0.00     0.031 C 
ATOM     52  C   UNL A   1      45.618  32.819  28.733  1.00  0.00     0.029 A 
ATOM     53  C   UNL A   1      44.293  32.554  29.036  1.00  0.00     0.049 A 
ATOM     54  H   UNL A   1      43.171  30.804  28.673  1.00  0.00     0.167 HD
ATOM     55  C   UNL A   1      42.026  33.119  29.877  1.00  0.00     0.074 A 
ATOM     56  C   UNL A   1      41.075  34.003  30.519  1.00  0.00     0.031 C 
ATOM     57  C   UNL A   1      43.337  33.413  29.689  1.00  0.00     0.034 A 
BRANCH  44  58
ATOM     58  C   UNL A   1      46.607  28.953  26.917  1.00  0.00     0.023 A 
ATOM     59  C   UNL A   1      46.773  28.624  25.562  1.00  0.00     0.031 A 
ATOM     60  C   UNL A   1      47.732  28.884  27.758  1.00  0.00     0.131 A 
ATOM     61  C   UNL A   1      48.026  28.194  25.098  1.00  0.00     0.055 A 
ATOM     62  C   UNL A   1      48.991  28.518  27.275  1.00  0.00     0.041 A 
ATOM     63  F   UNL A   1      47.628  29.173  29.065  1.00  0.00    -0.206 F 
ATOM     64  C   UNL A   1      49.141  28.163  25.939  1.00  0.00     0.022 A 
BRANCH  61  65
ATOM     65  S   UNL A   1      48.162  27.592  23.392  1.00  0.00     0.124 S 
ATOM     66  O   UNL A   1      48.076  26.145  23.585  1.00  0.00    -0.237 OA
ATOM     67  O   UNL A   1      47.018  28.219  22.741  1.00  0.00    -0.237 OA
ATOM     68  O   UNL A   1      49.470  28.079  22.960  1.00  0.00    -0.744 OA
ENDBRANCH  61  65
ENDBRANCH  44  58
BRANCH  45  69
ATOM     69  C   UNL A   1      37.584  31.617  30.364  1.00  0.00     0.023 A 
ATOM     70  C   UNL A   1      36.679  32.307  29.543  1.00  0.00     0.031 A 
ATOM     71  C   UNL A   1      37.181  31.309  31.678  1.00  0.00     0.131 A 
ATOM     72  C   UNL A   1      35.421  32.674  30.046  1.00  0.00     0.055 A 
ATOM     73  C   UNL A   1      35.911  31.634  32.158  1.00  0.00     0.041 A 
ATOM     74  F   UNL A   1      38.009  30.653  32.506  1.00  0.00    -0.206 F 
ATOM     75  C   UNL A   1      35.024  32.326  31.341  1.00  0.00     0.022 A 
BRANCH  72  76
ATOM     76  S   UNL A   1      34.312  33.650  28.995  1.00  0.00     0.124 S 
ATOM     77  O   UNL A   1      33.399  34.222  29.978  1.00  0.00    -0.237 OA
ATOM     78  O   UNL A   1      35.236  34.582  28.358  1.00  0.00    -0.237 OA
ATOM     79  O   UNL A   1      33.723  32.653  28.102  1.00  0.00    -0.744 OA
ENDBRANCH  72  76
ENDBRANCH  45  69
BRANCH  57  80
ATOM     80  C   UNL A   1      43.826  34.742  30.189  1.00  0.00     0.023 A 
ATOM     81  C   UNL A   1      43.676  35.902  29.412  1.00  0.00     0.031 A 
ATOM     82  C   UNL A   1      44.373  34.863  31.477  1.00  0.00     0.131 A 
ATOM     83  C   UNL A   1      44.082  37.141  29.929  1.00  0.00     0.055 A 
ATOM     84  C   UNL A   1      44.737  36.104  32.002  1.00  0.00     0.041 A 
ATOM     85  F   UNL A   1      44.530  33.781  32.256  1.00  0.00    -0.206 F 
ATOM     86  C   UNL A   1      44.594  37.251  31.226  1.00  0.00     0.022 A 
BRANCH  83  87
ATOM     87  S   UNL A   1      43.939  38.612  28.880  1.00  0.00     0.124 S 
ATOM     88  O   UNL A   1      44.334  39.677  29.797  1.00  0.00    -0.237 OA
ATOM     89  O   UNL A   1      44.876  38.323  27.798  1.00  0.00    -0.237 OA
ATOM     90  O   UNL A   1      42.530  38.619  28.489  1.00  0.00    -0.744 OA
ENDBRANCH  83  87
ENDBRANCH  57  80
ENDBRANCH  31  32
ENDBRANCH  24  26
ENDBRANCH  23  24
ENDBRANCH   1  23
TORSDOF 15
ENDMDL
MODEL 3
REMARK VINA RESULT:     -10.9      4.383      6.801
REMARK SMILES Cc1c(Cl)cc2c(c1C)O[C@H](C(F)(F)F)C(C(=O)OCCOC(=O)c1ccc(-c3c4nc(c(-c5cc(S(=O)(=O)[O-])ccc5F)c5ccc([nH]5)c(-c5cc(S(=O)(=O)[O-])ccc5F)c5nc(c(-c6cc(S(=O)(=O)[O-])ccc6F)c6ccc3[nH]6)C=C5)C=C4)cc1)=C2
REMARK SMILES IDX 21 1 20 2 19 3 17 4 18 5 16 6 1 7 2 8 3 9 8 10 4 11 5 12
REMARK SMILES IDX 7 13 9 14 6 15 10 16 88 17 11 18 12 19 13 20 14 21 15 22
REMARK SMILES IDX 22 23 23 24 24 25 25 26 26 27 87 28 27 29 86 30 28 31 29 32
REMARK SMILES IDX 30 33 80 34 31 35 85 36 79 37 81 38 32 39 84 40 78 41 77 42
REMARK SMILES IDX 33 44 65 45 45 46 64 47 46 48 49 49 63 50 82 51 47 52 48 53
REMARK SMILES IDX 62 55 83 56 50 57 34 58 35 59 43 60 36 61 42 62 44 63 41 64
REMARK SMILES IDX 37 65 38 66 39 67 40 68 66 69 67 70 75 71 68 72 74 73 76 74
REMARK SMILES IDX 73 75 69 76 70 77 71 78 72 79 51 80 52 81 60 82 53 83 59 84
REMARK SMILES IDX 61 85 58 86 54 87 55 88 56 89 57 90
REMARK H PARENT 81 43 49 54
REMARK Flexibility Score: inf
ROOT
ATOM      1  C   UNL A   1      36.535  20.303  25.025  1.00  0.00     0.275 C 
ENDROOT
BRANCH   1   2
ATOM      2  C   UNL A   1      35.081  20.772  24.985  1.00  0.00     0.275 C 
BRANCH   2   3
ATOM      3  O   UNL A   1      34.998  22.210  24.892  1.00  0.00    -0.459 OA
BRANCH   3   4
ATOM      4  C   UNL A   1      34.149  22.796  25.768  1.00  0.00     0.338 C 
ATOM      5  O   UNL A   1      33.841  22.377  26.873  1.00  0.00    -0.246 OA
BRANCH   4   6
ATOM      6  C   UNL A   1      33.608  24.047  25.212  1.00  0.00     0.087 C 
ATOM      7  C   UNL A   1      30.697  29.836  24.429  1.00  0.00     0.046 C 
ATOM      8  C   UNL A   1      31.522  28.619  24.763  1.00  0.00    -0.026 A 
ATOM      9  C   UNL A   1      32.253  28.593  25.970  1.00  0.00     0.045 A 
ATOM     10  C   UNL A   1      31.529  27.463  23.938  1.00  0.00    -0.004 A 
ATOM     11  Cl  UNL A   1      32.234  29.910  27.091  1.00  0.00    -0.084 Cl
ATOM     12  C   UNL A   1      33.001  27.474  26.333  1.00  0.00     0.032 A 
ATOM     13  C   UNL A   1      32.290  26.336  24.324  1.00  0.00     0.131 A 
ATOM     14  C   UNL A   1      30.750  27.366  22.650  1.00  0.00     0.049 C 
ATOM     15  C   UNL A   1      33.014  26.346  25.514  1.00  0.00     0.019 A 
ATOM     16  O   UNL A   1      32.290  25.255  23.476  1.00  0.00    -0.475 OA
ATOM     17  C   UNL A   1      33.728  25.160  25.940  1.00  0.00     0.027 C 
ATOM     18  C   UNL A   1      32.811  23.982  23.947  1.00  0.00     0.316 C 
BRANCH  18  19
ATOM     19  C   UNL A   1      31.655  22.975  24.051  1.00  0.00     0.430 C 
ATOM     20  F   UNL A   1      30.701  23.225  23.119  1.00  0.00    -0.167 F 
ATOM     21  F   UNL A   1      32.080  21.707  23.827  1.00  0.00    -0.167 F 
ATOM     22  F   UNL A   1      31.055  22.996  25.261  1.00  0.00    -0.167 F 
ENDBRANCH  18  19
ENDBRANCH   4   6
ENDBRANCH   3   4
ENDBRANCH   2   3
ENDBRANCH   1   2
BRANCH   1  23
ATOM     23  O   UNL A   1      37.416  21.430  25.177  1.00  0.00    -0.458 OA
BRANCH  23  24
ATOM     24  C   UNL A   1      38.615  21.150  25.739  1.00  0.00     0.338 C 
ATOM     25  O   UNL A   1      39.245  20.111  25.649  1.00  0.00    -0.246 OA
BRANCH  24  26
ATOM     26  C   UNL A   1      39.127  22.331  26.452  1.00  0.00     0.060 A 
ATOM     27  C   UNL A   1      38.590  23.576  26.151  1.00  0.00     0.016 A 
ATOM     28  C   UNL A   1      40.262  22.236  27.254  1.00  0.00     0.016 A 
ATOM     29  C   UNL A   1      39.284  24.731  26.493  1.00  0.00     0.010 A 
ATOM     30  C   UNL A   1      40.864  23.406  27.736  1.00  0.00     0.010 A 
ATOM     31  C   UNL A   1      40.421  24.671  27.311  1.00  0.00    -0.014 A 
BRANCH  31  32
ATOM     32  C   UNL A   1      41.153  25.925  27.668  1.00  0.00     0.031 A 
ATOM     33  C   UNL A   1      40.493  26.975  28.532  1.00  0.00     0.074 A 
ATOM     34  C   UNL A   1      42.430  26.108  27.264  1.00  0.00     0.049 A 
ATOM     35  N   UNL A   1      40.902  28.185  28.821  1.00  0.00    -0.248 NA
ATOM     36  C   UNL A   1      39.196  26.628  29.137  1.00  0.00     0.031 C 
ATOM     37  C   UNL A   1      43.214  25.153  26.475  1.00  0.00     0.029 A 
ATOM     38  N   UNL A   1      43.308  27.141  27.486  1.00  0.00    -0.354 N 
ATOM     39  C   UNL A   1      39.896  28.756  29.594  1.00  0.00     0.074 A 
ATOM     40  C   UNL A   1      38.844  27.770  29.710  1.00  0.00     0.031 C 
ATOM     41  C   UNL A   1      44.471  25.602  26.354  1.00  0.00     0.029 A 
ATOM     42  C   UNL A   1      44.557  26.932  26.942  1.00  0.00     0.049 A 
ATOM     43  H   UNL A   1      43.068  27.954  27.985  1.00  0.00     0.167 HD
ATOM     44  C   UNL A   1      39.859  29.985  30.165  1.00  0.00     0.034 A 
ATOM     45  C   UNL A   1      45.641  27.732  26.878  1.00  0.00     0.034 A 
ATOM     46  C   UNL A   1      40.942  30.933  30.099  1.00  0.00     0.049 A 
ATOM     47  C   UNL A   1      45.546  29.120  27.445  1.00  0.00     0.074 A 
ATOM     48  C   UNL A   1      41.014  32.197  30.656  1.00  0.00     0.029 A 
ATOM     49  N   UNL A   1      42.150  30.713  29.452  1.00  0.00    -0.354 N 
ATOM     50  N   UNL A   1      44.552  29.674  28.099  1.00  0.00    -0.248 NA
ATOM     51  C   UNL A   1      46.698  30.007  27.232  1.00  0.00     0.031 C 
ATOM     52  C   UNL A   1      42.239  32.765  30.297  1.00  0.00     0.029 A 
ATOM     53  C   UNL A   1      42.957  31.833  29.566  1.00  0.00     0.049 A 
ATOM     54  H   UNL A   1      42.398  29.884  28.983  1.00  0.00     0.167 HD
ATOM     55  C   UNL A   1      44.958  30.975  28.373  1.00  0.00     0.074 A 
ATOM     56  C   UNL A   1      46.295  31.118  27.834  1.00  0.00     0.031 C 
ATOM     57  C   UNL A   1      44.280  31.963  29.006  1.00  0.00     0.034 A 
BRANCH  44  58
ATOM     58  C   UNL A   1      38.598  30.395  30.883  1.00  0.00     0.023 A 
ATOM     59  C   UNL A   1      37.567  31.095  30.234  1.00  0.00     0.031 A 
ATOM     60  C   UNL A   1      38.417  30.055  32.236  1.00  0.00     0.131 A 
ATOM     61  C   UNL A   1      36.423  31.474  30.953  1.00  0.00     0.055 A 
ATOM     62  C   UNL A   1      37.247  30.378  32.927  1.00  0.00     0.041 A 
ATOM     63  F   UNL A   1      39.376  29.400  32.910  1.00  0.00    -0.206 F 
ATOM     64  C   UNL A   1      36.245  31.099  32.287  1.00  0.00     0.022 A 
BRANCH  61  65
ATOM     65  S   UNL A   1      35.201  32.542  30.142  1.00  0.00     0.124 S 
ATOM     66  O   UNL A   1      34.355  32.928  31.270  1.00  0.00    -0.237 OA
ATOM     67  O   UNL A   1      36.029  33.599  29.574  1.00  0.00    -0.237 OA
ATOM     68  O   UNL A   1      34.565  31.658  29.169  1.00  0.00    -0.744 OA
ENDBRANCH  61  65
ENDBRANCH  44  58
BRANCH  45  69
ATOM     69  C   UNL A   1      46.876  27.264  26.187  1.00  0.00     0.023 A 
ATOM     70  C   UNL A   1      47.133  27.611  24.852  1.00  0.00     0.031 A 
ATOM     71  C   UNL A   1      47.823  26.464  26.855  1.00  0.00     0.131 A 
ATOM     72  C   UNL A   1      48.303  27.154  24.225  1.00  0.00     0.055 A 
ATOM     73  C   UNL A   1      49.007  26.052  26.242  1.00  0.00     0.041 A 
ATOM     74  F   UNL A   1      47.625  26.100  28.132  1.00  0.00    -0.206 F 
ATOM     75  C   UNL A   1      49.250  26.393  24.916  1.00  0.00     0.022 A 
BRANCH  72  76
ATOM     76  S   UNL A   1      48.560  27.537  22.471  1.00  0.00     0.124 S 
ATOM     77  O   UNL A   1      48.657  26.204  21.888  1.00  0.00    -0.237 OA
ATOM     78  O   UNL A   1      47.358  28.296  22.144  1.00  0.00    -0.237 OA
ATOM     79  O   UNL A   1      49.801  28.310  22.469  1.00  0.00    -0.744 OA
ENDBRANCH  72  76
ENDBRANCH  45  69
BRANCH  57  80
ATOM     80  C   UNL A   1      44.965  33.292  29.147  1.00  0.00     0.023 A 
ATOM     81  C   UNL A   1      44.721  34.329  28.233  1.00  0.00     0.031 A 
ATOM     82  C   UNL A   1      45.806  33.548  30.243  1.00  0.00     0.131 A 
ATOM     83  C   UNL A   1      45.324  35.581  28.425  1.00  0.00     0.055 A 
ATOM     84  C   UNL A   1      46.370  34.807  30.452  1.00  0.00     0.041 A 
ATOM     85  F   UNL A   1      46.064  32.588  31.145  1.00  0.00    -0.206 F 
ATOM     86  C   UNL A   1      46.131  35.831  29.539  1.00  0.00     0.022 A 
BRANCH  83  87
ATOM     87  S   UNL A   1      45.044  36.880  27.193  1.00  0.00     0.124 S 
ATOM     88  O   UNL A   1      46.136  36.645  26.253  1.00  0.00    -0.237 OA
ATOM     89  O   UNL A   1      43.704  36.571  26.704  1.00  0.00    -0.237 OA
ATOM     90  O   UNL A   1      45.147  38.115  27.968  1.00  0.00    -0.744 OA
ENDBRANCH  83  87
ENDBRANCH  57  80
ENDBRANCH  31  32
ENDBRANCH  24  26
ENDBRANCH  23  24
ENDBRANCH   1  23
TORSDOF 15
ENDMDL
