MODEL 1
REMARK VINA RESULT:     -11.2      0.000      0.000
REMARK SMILES CCOc1ccccc1[C@@H](C(=O)OCCOC(=O)c1ccc(-c2c3nc(c(-c4cc(S(=O)(=O)[O-])ccc4F)c4ccc([nH]4)c(-c4cc(S(=O)(=O)[O-])ccc4F)c4nc(c(-c5cc(S(=O)(=O)[O-])ccc5F)c5ccc2[nH]5)C=C4)C=C3)cc1)[NH+]1CCC(C(=O)N2CCCC2)CC1
REMARK SMILES IDX 14 1 13 2 11 3 12 4 10 5 9 6 4 7 5 8 6 9 8 10 7 11 3 12 2 13
REMARK SMILES IDX 1 14 82 15 83 16 94 17 84 19 93 20 85 21 86 22 87 23 88 24
REMARK SMILES IDX 89 25 92 26 90 27 91 28 15 29 16 30 17 31 18 32 19 33 20 34
REMARK SMILES IDX 81 35 21 36 80 37 22 38 23 39 24 40 74 41 25 42 79 43 73 44
REMARK SMILES IDX 75 45 26 46 78 47 72 48 71 49 27 51 59 52 39 53 58 54 40 55
REMARK SMILES IDX 43 56 57 57 76 58 41 59 42 60 56 62 77 63 44 64 28 65 29 66
REMARK SMILES IDX 37 67 30 68 36 69 38 70 35 71 31 72 32 73 33 74 34 75 60 76
REMARK SMILES IDX 61 77 69 78 62 79 68 80 70 81 67 82 63 83 64 84 65 85 66 86
REMARK SMILES IDX 45 87 46 88 54 89 47 90 53 91 55 92 52 93 48 94 49 95 50 96
REMARK SMILES IDX 51 97
REMARK H PARENT 82 18 75 50 43 61
REMARK Flexibility Score: inf
ROOT
ATOM      1  C   UNL A   1      33.234  30.855  26.582  1.00  0.00     0.274 C 
ENDROOT
BRANCH   1   2
ATOM      2  O   UNL A   1      33.075  29.598  27.267  1.00  0.00    -0.457 OA
BRANCH   2   3
ATOM      3  C   UNL A   1      32.013  28.840  26.867  1.00  0.00     0.370 C 
ATOM      4  O   UNL A   1      31.102  28.506  27.624  1.00  0.00    -0.245 OA
BRANCH   3   5
ATOM      5  C   UNL A   1      32.156  28.286  25.448  1.00  0.00     0.330 C 
BRANCH   5   6
ATOM      6  C   UNL A   1      31.255  28.875  24.373  1.00  0.00     0.063 A 
ATOM      7  C   UNL A   1      31.195  28.278  23.099  1.00  0.00     0.129 A 
ATOM      8  C   UNL A   1      30.272  28.704  22.144  1.00  0.00     0.047 A 
ATOM      9  C   UNL A   1      29.414  29.763  22.437  1.00  0.00     0.004 A 
ATOM     10  C   UNL A   1      30.456  30.005  24.604  1.00  0.00     0.014 A 
ATOM     11  C   UNL A   1      29.528  30.433  23.652  1.00  0.00     0.001 A 
BRANCH   7  12
ATOM     12  O   UNL A   1      32.191  27.418  22.710  1.00  0.00    -0.493 OA
BRANCH  12  13
ATOM     13  C   UNL A   1      31.732  26.300  21.945  1.00  0.00     0.226 C 
ATOM     14  C   UNL A   1      32.892  25.315  21.839  1.00  0.00     0.049 C 
ENDBRANCH  12  13
ENDBRANCH   7  12
ENDBRANCH   5   6
BRANCH   5  15
ATOM     15  N   UNL A   1      32.445  26.811  25.383  1.00  0.00    -0.319 N 
ATOM     16  C   UNL A   1      33.685  26.339  26.016  1.00  0.00     0.264 C 
ATOM     17  C   UNL A   1      31.298  26.052  25.900  1.00  0.00     0.264 C 
ATOM     18  H   UNL A   1      32.602  26.640  24.389  1.00  0.00     0.349 HD
ATOM     19  C   UNL A   1      33.940  24.836  25.767  1.00  0.00     0.075 C 
ATOM     20  C   UNL A   1      31.433  24.581  25.569  1.00  0.00     0.075 C 
ATOM     21  C   UNL A   1      32.723  23.995  26.143  1.00  0.00     0.090 C 
BRANCH  21  22
ATOM     22  C   UNL A   1      32.698  22.494  25.851  1.00  0.00     0.226 C 
ATOM     23  O   UNL A   1      31.648  22.000  25.423  1.00  0.00    -0.275 OA
ATOM     24  N   UNL A   1      33.875  21.786  25.806  1.00  0.00    -0.342 N 
ATOM     25  C   UNL A   1      35.086  21.943  26.582  1.00  0.00     0.119 C 
ATOM     26  C   UNL A   1      33.995  20.640  24.922  1.00  0.00     0.119 C 
ATOM     27  C   UNL A   1      36.170  21.381  25.686  1.00  0.00     0.023 C 
ATOM     28  C   UNL A   1      35.472  20.254  24.935  1.00  0.00     0.023 C 
ENDBRANCH  21  22
ENDBRANCH   5  15
ENDBRANCH   3   5
ENDBRANCH   2   3
ENDBRANCH   1   2
BRANCH   1  29
ATOM     29  C   UNL A   1      32.384  31.944  27.228  1.00  0.00     0.275 C 
BRANCH  29  30
ATOM     30  O   UNL A   1      32.969  33.233  26.981  1.00  0.00    -0.458 OA
BRANCH  30  31
ATOM     31  C   UNL A   1      33.194  33.999  28.072  1.00  0.00     0.338 C 
ATOM     32  O   UNL A   1      32.553  34.986  28.419  1.00  0.00    -0.246 OA
BRANCH  31  33
ATOM     33  C   UNL A   1      34.338  33.477  28.844  1.00  0.00     0.060 A 
ATOM     34  C   UNL A   1      35.630  33.537  28.328  1.00  0.00     0.016 A 
ATOM     35  C   UNL A   1      34.109  32.793  30.039  1.00  0.00     0.016 A 
ATOM     36  C   UNL A   1      36.661  32.828  28.941  1.00  0.00     0.010 A 
ATOM     37  C   UNL A   1      35.174  32.172  30.707  1.00  0.00     0.010 A 
ATOM     38  C   UNL A   1      36.461  32.136  30.143  1.00  0.00    -0.014 A 
BRANCH  38  39
ATOM     39  C   UNL A   1      37.555  31.321  30.767  1.00  0.00     0.031 A 
ATOM     40  C   UNL A   1      37.870  31.474  32.240  1.00  0.00     0.074 A 
ATOM     41  C   UNL A   1      38.244  30.398  30.060  1.00  0.00     0.049 A 
ATOM     42  N   UNL A   1      38.924  31.080  32.908  1.00  0.00    -0.248 NA
ATOM     43  C   UNL A   1      36.871  32.170  33.064  1.00  0.00     0.031 C 
ATOM     44  C   UNL A   1      37.995  30.030  28.665  1.00  0.00     0.029 A 
ATOM     45  N   UNL A   1      39.273  29.565  30.432  1.00  0.00    -0.354 N 
ATOM     46  C   UNL A   1      38.761  31.565  34.204  1.00  0.00     0.074 A 
ATOM     47  C   UNL A   1      37.484  32.245  34.237  1.00  0.00     0.031 C 
ATOM     48  C   UNL A   1      38.776  28.993  28.333  1.00  0.00     0.029 A 
ATOM     49  C   UNL A   1      39.699  28.722  29.429  1.00  0.00     0.049 A 
ATOM     50  H   UNL A   1      39.671  29.571  31.334  1.00  0.00     0.167 HD
ATOM     51  C   UNL A   1      39.617  31.481  35.254  1.00  0.00     0.034 A 
ATOM     52  C   UNL A   1      40.750  27.880  29.361  1.00  0.00     0.034 A 
ATOM     53  C   UNL A   1      40.859  30.746  35.219  1.00  0.00     0.049 A 
ATOM     54  C   UNL A   1      41.719  27.837  30.514  1.00  0.00     0.074 A 
ATOM     55  C   UNL A   1      41.826  30.634  36.204  1.00  0.00     0.029 A 
ATOM     56  N   UNL A   1      41.296  29.976  34.149  1.00  0.00    -0.354 N 
ATOM     57  N   UNL A   1      41.653  28.454  31.669  1.00  0.00    -0.248 NA
ATOM     58  C   UNL A   1      42.931  27.026  30.332  1.00  0.00     0.031 C 
ATOM     59  C   UNL A   1      42.872  29.848  35.707  1.00  0.00     0.029 A 
ATOM     60  C   UNL A   1      42.526  29.408  34.440  1.00  0.00     0.049 A 
ATOM     61  H   UNL A   1      40.802  29.852  33.306  1.00  0.00     0.167 HD
ATOM     62  C   UNL A   1      42.821  28.115  32.346  1.00  0.00     0.074 A 
ATOM     63  C   UNL A   1      43.555  27.210  31.487  1.00  0.00     0.031 C 
ATOM     64  C   UNL A   1      43.257  28.528  33.563  1.00  0.00     0.034 A 
BRANCH  51  65
ATOM     65  C   UNL A   1      39.304  32.303  36.482  1.00  0.00     0.023 A 
ATOM     66  C   UNL A   1      38.446  31.863  37.504  1.00  0.00     0.031 A 
ATOM     67  C   UNL A   1      39.887  33.579  36.617  1.00  0.00     0.131 A 
ATOM     68  C   UNL A   1      38.161  32.711  38.588  1.00  0.00     0.055 A 
ATOM     69  C   UNL A   1      39.655  34.386  37.730  1.00  0.00     0.041 A 
ATOM     70  F   UNL A   1      40.694  34.063  35.658  1.00  0.00    -0.206 F 
ATOM     71  C   UNL A   1      38.778  33.959  38.719  1.00  0.00     0.022 A 
BRANCH  68  72
ATOM     72  S   UNL A   1      36.874  32.223  39.771  1.00  0.00     0.124 S 
ATOM     73  O   UNL A   1      35.663  32.366  38.969  1.00  0.00    -0.237 OA
ATOM     74  O   UNL A   1      37.262  30.861  40.115  1.00  0.00    -0.237 OA
ATOM     75  O   UNL A   1      37.013  33.200  40.851  1.00  0.00    -0.744 OA
ENDBRANCH  68  72
ENDBRANCH  51  65
BRANCH  52  76
ATOM     76  C   UNL A   1      41.012  27.091  28.120  1.00  0.00     0.023 A 
ATOM     77  C   UNL A   1      40.732  25.716  28.065  1.00  0.00     0.031 A 
ATOM     78  C   UNL A   1      41.578  27.691  26.978  1.00  0.00     0.131 A 
ATOM     79  C   UNL A   1      41.034  24.986  26.903  1.00  0.00     0.055 A 
ATOM     80  C   UNL A   1      41.813  26.975  25.804  1.00  0.00     0.041 A 
ATOM     81  F   UNL A   1      41.887  28.997  26.980  1.00  0.00    -0.206 F 
ATOM     82  C   UNL A   1      41.549  25.611  25.765  1.00  0.00     0.022 A 
BRANCH  79  83
ATOM     83  S   UNL A   1      40.814  23.186  26.923  1.00  0.00     0.124 S 
ATOM     84  O   UNL A   1      39.377  23.061  26.714  1.00  0.00    -0.237 OA
ATOM     85  O   UNL A   1      41.664  22.764  25.814  1.00  0.00    -0.237 OA
ATOM     86  O   UNL A   1      41.289  22.801  28.251  1.00  0.00    -0.744 OA
ENDBRANCH  79  83
ENDBRANCH  52  76
BRANCH  64  87
ATOM     87  C   UNL A   1      44.581  27.987  34.035  1.00  0.00     0.023 A 
ATOM     88  C   UNL A   1      44.667  26.782  34.755  1.00  0.00     0.031 A 
ATOM     89  C   UNL A   1      45.770  28.684  33.759  1.00  0.00     0.131 A 
ATOM     90  C   UNL A   1      45.914  26.330  35.211  1.00  0.00     0.055 A 
ATOM     91  C   UNL A   1      47.013  28.206  34.176  1.00  0.00     0.041 A 
ATOM     92  F   UNL A   1      45.741  29.839  33.077  1.00  0.00    -0.206 F 
ATOM     93  C   UNL A   1      47.089  27.028  34.914  1.00  0.00     0.022 A 
BRANCH  90  94
ATOM     94  S   UNL A   1      45.978  24.846  36.253  1.00  0.00     0.124 S 
ATOM     95  O   UNL A   1      45.131  25.229  37.378  1.00  0.00    -0.237 OA
ATOM     96  O   UNL A   1      45.438  23.819  35.370  1.00  0.00    -0.237 OA
ATOM     97  O   UNL A   1      47.399  24.708  36.567  1.00  0.00    -0.744 OA
ENDBRANCH  90  94
ENDBRANCH  64  87
ENDBRANCH  38  39
ENDBRANCH  31  33
ENDBRANCH  30  31
ENDBRANCH  29  30
ENDBRANCH   1  29
TORSDOF 19
ENDMDL
MODEL 2
REMARK VINA RESULT:     -10.7      3.515      4.408
REMARK SMILES CCOc1ccccc1[C@@H](C(=O)OCCOC(=O)c1ccc(-c2c3nc(c(-c4cc(S(=O)(=O)[O-])ccc4F)c4ccc([nH]4)c(-c4cc(S(=O)(=O)[O-])ccc4F)c4nc(c(-c5cc(S(=O)(=O)[O-])ccc5F)c5ccc2[nH]5)C=C4)C=C3)cc1)[NH+]1CCC(C(=O)N2CCCC2)CC1
REMARK SMILES IDX 14 1 13 2 11 3 12 4 10 5 9 6 4 7 5 8 6 9 8 10 7 11 3 12 2 13
REMARK SMILES IDX 1 14 82 15 83 16 94 17 84 19 93 20 85 21 86 22 87 23 88 24
REMARK SMILES IDX 89 25 92 26 90 27 91 28 15 29 16 30 17 31 18 32 19 33 20 34
REMARK SMILES IDX 81 35 21 36 80 37 22 38 23 39 24 40 74 41 25 42 79 43 73 44
REMARK SMILES IDX 75 45 26 46 78 47 72 48 71 49 27 51 59 52 39 53 58 54 40 55
REMARK SMILES IDX 43 56 57 57 76 58 41 59 42 60 56 62 77 63 44 64 28 65 29 66
REMARK SMILES IDX 37 67 30 68 36 69 38 70 35 71 31 72 32 73 33 74 34 75 60 76
REMARK SMILES IDX 61 77 69 78 62 79 68 80 70 81 67 82 63 83 64 84 65 85 66 86
REMARK SMILES IDX 45 87 46 88 54 89 47 90 53 91 55 92 52 93 48 94 49 95 50 96
REMARK SMILES IDX 51 97
REMARK H PARENT 82 18 75 50 43 61
REMARK Flexibility Score: inf
ROOT
ATOM      1  C   UNL A   1      31.773  30.003  26.572  1.00  0.00     0.274 C 
ENDROOT
BRANCH   1   2
ATOM      2  O   UNL A   1      31.729  29.909  25.136  1.00  0.00    -0.457 OA
BRANCH   2   3
ATOM      3  C   UNL A   1      32.679  29.110  24.569  1.00  0.00     0.370 C 
ATOM      4  O   UNL A   1      33.887  29.293  24.715  1.00  0.00    -0.245 OA
BRANCH   3   5
ATOM      5  C   UNL A   1      32.110  28.085  23.586  1.00  0.00     0.330 C 
BRANCH   5   6
ATOM      6  C   UNL A   1      30.628  28.183  23.253  1.00  0.00     0.063 A 
ATOM      7  C   UNL A   1      29.717  27.271  23.820  1.00  0.00     0.129 A 
ATOM      8  C   UNL A   1      28.342  27.425  23.650  1.00  0.00     0.047 A 
ATOM      9  C   UNL A   1      27.854  28.478  22.878  1.00  0.00     0.004 A 
ATOM     10  C   UNL A   1      30.119  29.169  22.394  1.00  0.00     0.014 A 
ATOM     11  C   UNL A   1      28.742  29.329  22.225  1.00  0.00     0.001 A 
BRANCH   7  12
ATOM     12  O   UNL A   1      30.183  26.099  24.361  1.00  0.00    -0.493 OA
BRANCH  12  13
ATOM     13  C   UNL A   1      29.975  24.951  23.536  1.00  0.00     0.226 C 
ATOM     14  C   UNL A   1      30.685  23.777  24.203  1.00  0.00     0.049 C 
ENDBRANCH  12  13
ENDBRANCH   7  12
ENDBRANCH   5   6
BRANCH   5  15
ATOM     15  N   UNL A   1      32.707  26.710  23.707  1.00  0.00    -0.319 N 
ATOM     16  C   UNL A   1      33.597  26.264  22.626  1.00  0.00     0.264 C 
ATOM     17  C   UNL A   1      33.384  26.570  25.004  1.00  0.00     0.264 C 
ATOM     18  H   UNL A   1      31.901  26.088  23.627  1.00  0.00     0.349 HD
ATOM     19  C   UNL A   1      34.038  24.793  22.793  1.00  0.00     0.075 C 
ATOM     20  C   UNL A   1      33.726  25.121  25.280  1.00  0.00     0.075 C 
ATOM     21  C   UNL A   1      34.616  24.538  24.183  1.00  0.00     0.090 C 
BRANCH  21  22
ATOM     22  C   UNL A   1      34.990  23.122  24.619  1.00  0.00     0.226 C 
ATOM     23  O   UNL A   1      34.308  22.181  24.196  1.00  0.00    -0.275 OA
ATOM     24  N   UNL A   1      36.199  22.891  25.231  1.00  0.00    -0.342 N 
ATOM     25  C   UNL A   1      36.952  23.720  26.148  1.00  0.00     0.119 C 
ATOM     26  C   UNL A   1      36.871  21.617  25.045  1.00  0.00     0.119 C 
ATOM     27  C   UNL A   1      38.386  23.277  25.949  1.00  0.00     0.023 C 
ATOM     28  C   UNL A   1      38.266  21.789  25.641  1.00  0.00     0.023 C 
ENDBRANCH  21  22
ENDBRANCH   5  15
ENDBRANCH   3   5
ENDBRANCH   2   3
ENDBRANCH   1   2
BRANCH   1  29
ATOM     29  C   UNL A   1      32.675  31.147  27.022  1.00  0.00     0.275 C 
BRANCH  29  30
ATOM     30  O   UNL A   1      33.762  30.635  27.809  1.00  0.00    -0.458 OA
BRANCH  30  31
ATOM     31  C   UNL A   1      34.898  31.366  27.797  1.00  0.00     0.338 C 
ATOM     32  O   UNL A   1      34.997  32.564  27.552  1.00  0.00    -0.246 OA
BRANCH  31  33
ATOM     33  C   UNL A   1      36.059  30.526  28.152  1.00  0.00     0.060 A 
ATOM     34  C   UNL A   1      35.968  29.587  29.176  1.00  0.00     0.016 A 
ATOM     35  C   UNL A   1      37.295  30.769  27.553  1.00  0.00     0.016 A 
ATOM     36  C   UNL A   1      37.120  28.978  29.671  1.00  0.00     0.010 A 
ATOM     37  C   UNL A   1      38.432  30.071  27.984  1.00  0.00     0.010 A 
ATOM     38  C   UNL A   1      38.374  29.199  29.086  1.00  0.00    -0.014 A 
BRANCH  38  39
ATOM     39  C   UNL A   1      39.621  28.593  29.659  1.00  0.00     0.031 A 
ATOM     40  C   UNL A   1      40.221  29.153  30.931  1.00  0.00     0.074 A 
ATOM     41  C   UNL A   1      40.205  27.510  29.100  1.00  0.00     0.049 A 
ATOM     42  N   UNL A   1      41.412  28.964  31.440  1.00  0.00    -0.248 NA
ATOM     43  C   UNL A   1      39.371  30.050  31.728  1.00  0.00     0.031 C 
ATOM     44  C   UNL A   1      39.699  26.767  27.946  1.00  0.00     0.029 A 
ATOM     45  N   UNL A   1      41.339  26.817  29.457  1.00  0.00    -0.354 N 
ATOM     46  C   UNL A   1      41.488  29.792  32.558  1.00  0.00     0.074 A 
ATOM     47  C   UNL A   1      40.206  30.452  32.676  1.00  0.00     0.031 C 
ATOM     48  C   UNL A   1      40.458  25.679  27.751  1.00  0.00     0.029 A 
ATOM     49  C   UNL A   1      41.601  25.728  28.656  1.00  0.00     0.049 A 
ATOM     50  H   UNL A   1      41.912  27.076  30.216  1.00  0.00     0.167 HD
ATOM     51  C   UNL A   1      42.545  30.007  33.382  1.00  0.00     0.034 A 
ATOM     52  C   UNL A   1      42.665  24.902  28.596  1.00  0.00     0.034 A 
ATOM     53  C   UNL A   1      43.796  29.294  33.284  1.00  0.00     0.049 A 
ATOM     54  C   UNL A   1      43.851  25.185  29.482  1.00  0.00     0.074 A 
ATOM     55  C   UNL A   1      44.950  29.463  34.031  1.00  0.00     0.029 A 
ATOM     56  N   UNL A   1      44.051  28.256  32.398  1.00  0.00    -0.354 N 
ATOM     57  N   UNL A   1      43.985  26.101  30.411  1.00  0.00    -0.248 NA
ATOM     58  C   UNL A   1      45.047  24.358  29.273  1.00  0.00     0.031 C 
ATOM     59  C   UNL A   1      45.918  28.571  33.557  1.00  0.00     0.029 A 
ATOM     60  C   UNL A   1      45.348  27.795  32.562  1.00  0.00     0.049 A 
ATOM     61  H   UNL A   1      43.404  27.899  31.747  1.00  0.00     0.167 HD
ATOM     62  C   UNL A   1      45.286  25.967  30.888  1.00  0.00     0.074 A 
ATOM     63  C   UNL A   1      45.882  24.859  30.172  1.00  0.00     0.031 C 
ATOM     64  C   UNL A   1      45.936  26.705  31.824  1.00  0.00     0.034 A 
BRANCH  51  65
ATOM     65  C   UNL A   1      42.441  31.139  34.377  1.00  0.00     0.023 A 
ATOM     66  C   UNL A   1      42.720  32.478  34.052  1.00  0.00     0.031 A 
ATOM     67  C   UNL A   1      42.057  30.851  35.701  1.00  0.00     0.131 A 
ATOM     68  C   UNL A   1      42.655  33.465  35.049  1.00  0.00     0.055 A 
ATOM     69  C   UNL A   1      41.927  31.846  36.669  1.00  0.00     0.041 A 
ATOM     70  F   UNL A   1      41.805  29.586  36.077  1.00  0.00    -0.206 F 
ATOM     71  C   UNL A   1      42.238  33.162  36.349  1.00  0.00     0.022 A 
BRANCH  68  72
ATOM     72  S   UNL A   1      43.245  35.139  34.669  1.00  0.00     0.124 S 
ATOM     73  O   UNL A   1      43.740  35.582  35.968  1.00  0.00    -0.237 OA
ATOM     74  O   UNL A   1      44.252  34.893  33.644  1.00  0.00    -0.237 OA
ATOM     75  O   UNL A   1      42.041  35.828  34.204  1.00  0.00    -0.744 OA
ENDBRANCH  68  72
ENDBRANCH  51  65
BRANCH  52  76
ATOM     76  C   UNL A   1      42.715  23.797  27.592  1.00  0.00     0.023 A 
ATOM     77  C   UNL A   1      43.697  23.777  26.588  1.00  0.00     0.031 A 
ATOM     78  C   UNL A   1      41.763  22.760  27.598  1.00  0.00     0.131 A 
ATOM     79  C   UNL A   1      43.692  22.754  25.625  1.00  0.00     0.055 A 
ATOM     80  C   UNL A   1      41.804  21.711  26.680  1.00  0.00     0.041 A 
ATOM     81  F   UNL A   1      40.788  22.739  28.521  1.00  0.00    -0.206 F 
ATOM     82  C   UNL A   1      42.768  21.709  25.679  1.00  0.00     0.022 A 
BRANCH  79  83
ATOM     83  S   UNL A   1      44.869  22.849  24.248  1.00  0.00     0.124 S 
ATOM     84  O   UNL A   1      44.064  22.355  23.137  1.00  0.00    -0.237 OA
ATOM     85  O   UNL A   1      45.194  24.271  24.223  1.00  0.00    -0.237 OA
ATOM     86  O   UNL A   1      45.957  21.970  24.670  1.00  0.00    -0.744 OA
ENDBRANCH  79  83
ENDBRANCH  52  76
BRANCH  64  87
ATOM     87  C   UNL A   1      47.359  26.321  32.130  1.00  0.00     0.023 A 
ATOM     88  C   UNL A   1      48.438  26.865  31.411  1.00  0.00     0.031 A 
ATOM     89  C   UNL A   1      47.640  25.401  33.155  1.00  0.00     0.131 A 
ATOM     90  C   UNL A   1      49.747  26.454  31.700  1.00  0.00     0.055 A 
ATOM     91  C   UNL A   1      48.948  25.030  33.469  1.00  0.00     0.041 A 
ATOM     92  F   UNL A   1      46.646  24.852  33.871  1.00  0.00    -0.206 F 
ATOM     93  C   UNL A   1      50.010  25.550  32.733  1.00  0.00     0.022 A 
BRANCH  90  94
ATOM     94  S   UNL A   1      51.105  27.069  30.665  1.00  0.00     0.124 S 
ATOM     95  O   UNL A   1      50.612  26.789  29.320  1.00  0.00    -0.237 OA
ATOM     96  O   UNL A   1      51.171  28.477  31.039  1.00  0.00    -0.237 OA
ATOM     97  O   UNL A   1      52.249  26.263  31.085  1.00  0.00    -0.744 OA
ENDBRANCH  90  94
ENDBRANCH  64  87
ENDBRANCH  38  39
ENDBRANCH  31  33
ENDBRANCH  30  31
ENDBRANCH  29  30
ENDBRANCH   1  29
TORSDOF 19
ENDMDL
MODEL 3
REMARK VINA RESULT:     -10.6      6.149     14.792
REMARK SMILES CCOc1ccccc1[C@@H](C(=O)OCCOC(=O)c1ccc(-c2c3nc(c(-c4cc(S(=O)(=O)[O-])ccc4F)c4ccc([nH]4)c(-c4cc(S(=O)(=O)[O-])ccc4F)c4nc(c(-c5cc(S(=O)(=O)[O-])ccc5F)c5ccc2[nH]5)C=C4)C=C3)cc1)[NH+]1CCC(C(=O)N2CCCC2)CC1
REMARK SMILES IDX 14 1 13 2 11 3 12 4 10 5 9 6 4 7 5 8 6 9 8 10 7 11 3 12 2 13
REMARK SMILES IDX 1 14 82 15 83 16 94 17 84 19 93 20 85 21 86 22 87 23 88 24
REMARK SMILES IDX 89 25 92 26 90 27 91 28 15 29 16 30 17 31 18 32 19 33 20 34
REMARK SMILES IDX 81 35 21 36 80 37 22 38 23 39 24 40 74 41 25 42 79 43 73 44
REMARK SMILES IDX 75 45 26 46 78 47 72 48 71 49 27 51 59 52 39 53 58 54 40 55
REMARK SMILES IDX 43 56 57 57 76 58 41 59 42 60 56 62 77 63 44 64 28 65 29 66
REMARK SMILES IDX 37 67 30 68 36 69 38 70 35 71 31 72 32 73 33 74 34 75 60 76
REMARK SMILES IDX 61 77 69 78 62 79 68 80 70 81 67 82 63 83 64 84 65 85 66 86
REMARK SMILES IDX 45 87 46 88 54 89 47 90 53 91 55 92 52 93 48 94 49 95 50 96
REMARK SMILES IDX 51 97
REMARK H PARENT 82 18 75 50 43 61
REMARK Flexibility Score: inf
ROOT
ATOM      1  C   UNL A   1      45.939  22.227  38.327  1.00  0.00     0.274 C 
ENDROOT
BRANCH   1   2
ATOM      2  O   UNL A   1      46.955  21.222  38.505  1.00  0.00    -0.457 OA
BRANCH   2   3
ATOM      3  C   UNL A   1      47.701  21.334  39.642  1.00  0.00     0.370 C 
ATOM      4  O   UNL A   1      48.323  22.352  39.941  1.00  0.00    -0.245 OA
BRANCH   3   5
ATOM      5  C   UNL A   1      47.846  20.019  40.411  1.00  0.00     0.330 C 
BRANCH   5   6
ATOM      6  C   UNL A   1      49.224  19.375  40.443  1.00  0.00     0.063 A 
ATOM      7  C   UNL A   1      49.821  19.050  41.677  1.00  0.00     0.129 A 
ATOM      8  C   UNL A   1      51.013  18.328  41.734  1.00  0.00     0.047 A 
ATOM      9  C   UNL A   1      51.649  17.949  40.553  1.00  0.00     0.004 A 
ATOM     10  C   UNL A   1      49.937  19.076  39.272  1.00  0.00     0.014 A 
ATOM     11  C   UNL A   1      51.128  18.350  39.325  1.00  0.00     0.001 A 
BRANCH   7  12
ATOM     12  O   UNL A   1      49.350  19.629  42.828  1.00  0.00    -0.493 OA
BRANCH  12  13
ATOM     13  C   UNL A   1      49.926  19.102  44.026  1.00  0.00     0.226 C 
ATOM     14  C   UNL A   1      49.859  20.200  45.083  1.00  0.00     0.049 C 
ENDBRANCH  12  13
ENDBRANCH   7  12
ENDBRANCH   5   6
BRANCH   5  15
ATOM     15  N   UNL A   1      46.653  19.107  40.312  1.00  0.00    -0.319 N 
ATOM     16  C   UNL A   1      46.859  17.794  39.685  1.00  0.00     0.264 C 
ATOM     17  C   UNL A   1      46.040  18.940  41.637  1.00  0.00     0.264 C 
ATOM     18  H   UNL A   1      46.033  19.590  39.661  1.00  0.00     0.349 HD
ATOM     19  C   UNL A   1      45.541  17.006  39.519  1.00  0.00     0.075 C 
ATOM     20  C   UNL A   1      44.680  18.285  41.522  1.00  0.00     0.075 C 
ATOM     21  C   UNL A   1      44.771  16.923  40.834  1.00  0.00     0.090 C 
BRANCH  21  22
ATOM     22  C   UNL A   1      43.372  16.308  40.876  1.00  0.00     0.226 C 
ATOM     23  O   UNL A   1      42.653  16.425  39.877  1.00  0.00    -0.275 OA
ATOM     24  N   UNL A   1      43.041  15.430  41.880  1.00  0.00    -0.342 N 
ATOM     25  C   UNL A   1      43.443  15.408  43.269  1.00  0.00     0.119 C 
ATOM     26  C   UNL A   1      42.090  14.364  41.621  1.00  0.00     0.119 C 
ATOM     27  C   UNL A   1      43.325  13.950  43.662  1.00  0.00     0.023 C 
ATOM     28  C   UNL A   1      42.144  13.449  42.842  1.00  0.00     0.023 C 
ENDBRANCH  21  22
ENDBRANCH   5  15
ENDBRANCH   3   5
ENDBRANCH   2   3
ENDBRANCH   1   2
BRANCH   1  29
ATOM     29  C   UNL A   1      46.433  23.356  37.429  1.00  0.00     0.275 C 
BRANCH  29  30
ATOM     30  O   UNL A   1      45.899  24.611  37.881  1.00  0.00    -0.458 OA
BRANCH  30  31
ATOM     31  C   UNL A   1      46.431  25.718  37.318  1.00  0.00     0.338 C 
ATOM     32  O   UNL A   1      47.485  26.264  37.628  1.00  0.00    -0.246 OA
BRANCH  31  33
ATOM     33  C   UNL A   1      45.571  26.207  36.223  1.00  0.00     0.060 A 
ATOM     34  C   UNL A   1      45.980  27.266  35.417  1.00  0.00     0.016 A 
ATOM     35  C   UNL A   1      44.280  25.697  36.080  1.00  0.00     0.016 A 
ATOM     36  C   UNL A   1      45.073  27.881  34.556  1.00  0.00     0.010 A 
ATOM     37  C   UNL A   1      43.407  26.252  35.134  1.00  0.00     0.010 A 
ATOM     38  C   UNL A   1      43.772  27.388  34.389  1.00  0.00    -0.014 A 
BRANCH  38  39
ATOM     39  C   UNL A   1      42.778  28.089  33.511  1.00  0.00     0.031 A 
ATOM     40  C   UNL A   1      41.868  29.150  34.092  1.00  0.00     0.074 A 
ATOM     41  C   UNL A   1      42.705  27.841  32.185  1.00  0.00     0.049 A 
ATOM     42  N   UNL A   1      40.780  29.676  33.589  1.00  0.00    -0.248 NA
ATOM     43  C   UNL A   1      42.227  29.681  35.415  1.00  0.00     0.031 C 
ATOM     44  C   UNL A   1      43.582  26.943  31.433  1.00  0.00     0.029 A 
ATOM     45  N   UNL A   1      41.873  28.360  31.219  1.00  0.00    -0.354 N 
ATOM     46  C   UNL A   1      40.272  30.521  34.573  1.00  0.00     0.074 A 
ATOM     47  C   UNL A   1      41.197  30.471  35.684  1.00  0.00     0.031 C 
ATOM     48  C   UNL A   1      43.306  27.044  30.125  1.00  0.00     0.029 A 
ATOM     49  C   UNL A   1      42.128  27.885  29.951  1.00  0.00     0.049 A 
ATOM     50  H   UNL A   1      41.160  29.010  31.415  1.00  0.00     0.167 HD
ATOM     51  C   UNL A   1      39.121  31.240  34.560  1.00  0.00     0.034 A 
ATOM     52  C   UNL A   1      41.457  28.040  28.791  1.00  0.00     0.034 A 
ATOM     53  C   UNL A   1      38.242  31.326  33.418  1.00  0.00     0.049 A 
ATOM     54  C   UNL A   1      40.155  28.798  28.804  1.00  0.00     0.074 A 
ATOM     55  C   UNL A   1      37.027  31.982  33.307  1.00  0.00     0.029 A 
ATOM     56  N   UNL A   1      38.494  30.755  32.178  1.00  0.00    -0.354 N 
ATOM     57  N   UNL A   1      39.584  29.438  29.796  1.00  0.00    -0.248 NA
ATOM     58  C   UNL A   1      39.382  28.808  27.555  1.00  0.00     0.031 C 
ATOM     59  C   UNL A   1      36.519  31.757  32.023  1.00  0.00     0.029 A 
ATOM     60  C   UNL A   1      37.449  31.023  31.307  1.00  0.00     0.049 A 
ATOM     61  H   UNL A   1      39.299  30.236  31.950  1.00  0.00     0.167 HD
ATOM     62  C   UNL A   1      38.378  29.916  29.292  1.00  0.00     0.074 A 
ATOM     63  C   UNL A   1      38.321  29.524  27.900  1.00  0.00     0.031 C 
ATOM     64  C   UNL A   1      37.396  30.604  29.929  1.00  0.00     0.034 A 
BRANCH  51  65
ATOM     65  C   UNL A   1      38.682  31.887  35.852  1.00  0.00     0.023 A 
ATOM     66  C   UNL A   1      38.032  31.186  36.882  1.00  0.00     0.031 A 
ATOM     67  C   UNL A   1      38.920  33.263  36.042  1.00  0.00     0.131 A 
ATOM     68  C   UNL A   1      37.603  31.873  38.031  1.00  0.00     0.055 A 
ATOM     69  C   UNL A   1      38.554  33.924  37.215  1.00  0.00     0.041 A 
ATOM     70  F   UNL A   1      39.512  33.991  35.081  1.00  0.00    -0.206 F 
ATOM     71  C   UNL A   1      37.882  33.231  38.214  1.00  0.00     0.022 A 
BRANCH  68  72
ATOM     72  S   UNL A   1      36.563  31.004  39.238  1.00  0.00     0.124 S 
ATOM     73  O   UNL A   1      36.356  29.717  38.580  1.00  0.00    -0.237 OA
ATOM     74  O   UNL A   1      37.405  30.991  40.428  1.00  0.00    -0.237 OA
ATOM     75  O   UNL A   1      35.370  31.845  39.330  1.00  0.00    -0.744 OA
ENDBRANCH  68  72
ENDBRANCH  51  65
BRANCH  52  76
ATOM     76  C   UNL A   1      41.937  27.377  27.541  1.00  0.00     0.023 A 
ATOM     77  C   UNL A   1      41.871  25.983  27.392  1.00  0.00     0.031 A 
ATOM     78  C   UNL A   1      42.500  28.123  26.488  1.00  0.00     0.131 A 
ATOM     79  C   UNL A   1      42.375  25.379  26.227  1.00  0.00     0.055 A 
ATOM     80  C   UNL A   1      42.937  27.525  25.307  1.00  0.00     0.041 A 
ATOM     81  F   UNL A   1      42.610  29.458  26.584  1.00  0.00    -0.206 F 
ATOM     82  C   UNL A   1      42.884  26.142  25.175  1.00  0.00     0.022 A 
BRANCH  79  83
ATOM     83  S   UNL A   1      42.426  23.568  26.137  1.00  0.00     0.124 S 
ATOM     84  O   UNL A   1      42.986  23.354  24.808  1.00  0.00    -0.237 OA
ATOM     85  O   UNL A   1      43.293  23.233  27.262  1.00  0.00    -0.237 OA
ATOM     86  O   UNL A   1      41.026  23.181  26.295  1.00  0.00    -0.744 OA
ENDBRANCH  79  83
ENDBRANCH  52  76
BRANCH  64  87
ATOM     87  C   UNL A   1      36.189  30.985  29.112  1.00  0.00     0.023 A 
ATOM     88  C   UNL A   1      35.750  32.319  29.029  1.00  0.00     0.031 A 
ATOM     89  C   UNL A   1      35.471  30.004  28.408  1.00  0.00     0.131 A 
ATOM     90  C   UNL A   1      34.600  32.630  28.290  1.00  0.00     0.055 A 
ATOM     91  C   UNL A   1      34.353  30.326  27.637  1.00  0.00     0.041 A 
ATOM     92  F   UNL A   1      35.847  28.717  28.456  1.00  0.00    -0.206 F 
ATOM     93  C   UNL A   1      33.906  31.644  27.583  1.00  0.00     0.022 A 
BRANCH  90  94
ATOM     94  S   UNL A   1      33.980  34.335  28.314  1.00  0.00     0.124 S 
ATOM     95  O   UNL A   1      32.546  34.140  28.128  1.00  0.00    -0.237 OA
ATOM     96  O   UNL A   1      34.394  34.801  29.633  1.00  0.00    -0.237 OA
ATOM     97  O   UNL A   1      34.671  34.967  27.191  1.00  0.00    -0.744 OA
ENDBRANCH  90  94
ENDBRANCH  64  87
ENDBRANCH  38  39
ENDBRANCH  31  33
ENDBRANCH  30  31
ENDBRANCH  29  30
ENDBRANCH   1  29
TORSDOF 19
ENDMDL
