MODEL 1
REMARK VINA RESULT:     -11.3      0.000      0.000
REMARK SMILES COc1cc(NC(=O)[C@@H]2CC=CC[C@H]2C(=O)OCCOC(=O)c2ccc(-c3c4nc(c(-c5cc(S(=O)(=O)[O-])ccc5F)c5ccc([nH]5)c(-c5cc(S(=O)(=O)[O-])ccc5F)c5nc(c(-c6cc(S(=O)(=O)[O-])ccc6F)c6ccc3[nH]6)C=C5)C=C4)cc2)c(OC)cc1Cl
REMARK SMILES IDX 18 1 17 2 15 3 16 4 14 5 9 6 10 7 11 8 13 9 12 10 7 11 6 12
REMARK SMILES IDX 8 14 5 15 3 16 4 17 90 18 89 19 91 20 86 21 2 22 1 23 87 24
REMARK SMILES IDX 88 25 19 26 20 27 21 28 22 29 23 30 24 31 85 32 25 33 84 34
REMARK SMILES IDX 26 35 27 36 28 37 78 38 29 39 83 40 77 41 79 42 30 43 82 44
REMARK SMILES IDX 76 45 75 46 31 48 63 49 43 50 62 51 44 52 47 53 61 54 80 55
REMARK SMILES IDX 45 56 46 57 60 59 81 60 48 61 32 62 33 63 41 64 34 65 40 66
REMARK SMILES IDX 42 67 39 68 35 69 36 70 37 71 38 72 64 73 65 74 73 75 66 76
REMARK SMILES IDX 72 77 74 78 71 79 67 80 68 81 69 82 70 83 49 84 50 85 58 86
REMARK SMILES IDX 51 87 57 88 59 89 56 90 52 91 53 92 54 93 55 94
REMARK H PARENT 6 13 79 47 47 58
REMARK Flexibility Score: inf
ROOT
ATOM      1  C   UNL A   1      35.976  21.632  24.398  1.00  0.00     0.274 C 
ENDROOT
BRANCH   1   2
ATOM      2  O   UNL A   1      36.003  23.011  23.976  1.00  0.00    -0.462 OA
BRANCH   2   3
ATOM      3  C   UNL A   1      35.652  23.907  24.936  1.00  0.00     0.310 C 
ATOM      4  O   UNL A   1      36.449  24.430  25.709  1.00  0.00    -0.252 OA
BRANCH   3   5
ATOM      5  C   UNL A   1      34.155  24.076  25.099  1.00  0.00     0.116 C 
ATOM      6  C   UNL A   1      33.603  23.920  26.536  1.00  0.00     0.097 C 
ATOM      7  C   UNL A   1      32.138  24.416  26.608  1.00  0.00     0.041 C 
ATOM      8  C   UNL A   1      31.737  25.537  25.709  1.00  0.00    -0.030 C 
ATOM      9  C   UNL A   1      33.870  25.445  24.456  1.00  0.00     0.043 C 
ATOM     10  C   UNL A   1      32.516  26.001  24.730  1.00  0.00    -0.030 C 
BRANCH   6  11
ATOM     11  C   UNL A   1      33.540  22.442  26.960  1.00  0.00     0.228 C 
ATOM     12  N   UNL A   1      32.443  21.723  26.539  1.00  0.00    -0.323 N 
ATOM     13  H   UNL A   1      31.581  21.903  26.979  1.00  0.00     0.170 HD
ATOM     14  O   UNL A   1      34.461  21.914  27.582  1.00  0.00    -0.274 OA
BRANCH  12  15
ATOM     15  C   UNL A   1      32.472  20.739  25.509  1.00  0.00     0.087 A 
ATOM     16  C   UNL A   1      33.109  18.532  24.697  1.00  0.00     0.139 A 
ATOM     17  C   UNL A   1      32.935  19.441  25.745  1.00  0.00     0.078 A 
ATOM     18  C   UNL A   1      32.718  18.874  23.405  1.00  0.00     0.086 A 
ATOM     19  C   UNL A   1      32.191  20.142  23.161  1.00  0.00     0.073 A 
ATOM     20  Cl  UNL A   1      32.874  17.772  22.087  1.00  0.00    -0.080 Cl
ATOM     21  C   UNL A   1      32.065  21.077  24.203  1.00  0.00     0.144 A 
BRANCH  16  22
ATOM     22  O   UNL A   1      33.642  17.312  25.020  1.00  0.00    -0.495 OA
ATOM     23  C   UNL A   1      32.677  16.486  25.675  1.00  0.00     0.278 C 
ENDBRANCH  16  22
BRANCH  21  24
ATOM     24  O   UNL A   1      31.564  22.344  24.011  1.00  0.00    -0.495 OA
ATOM     25  C   UNL A   1      31.872  22.922  22.740  1.00  0.00     0.278 C 
ENDBRANCH  21  24
ENDBRANCH  12  15
ENDBRANCH   6  11
ENDBRANCH   3   5
ENDBRANCH   2   3
ENDBRANCH   1   2
BRANCH   1  26
ATOM     26  C   UNL A   1      37.373  21.061  24.643  1.00  0.00     0.275 C 
BRANCH  26  27
ATOM     27  O   UNL A   1      37.876  21.407  25.943  1.00  0.00    -0.458 OA
BRANCH  27  28
ATOM     28  C   UNL A   1      39.206  21.228  26.108  1.00  0.00     0.338 C 
ATOM     29  O   UNL A   1      39.870  20.251  25.774  1.00  0.00    -0.246 OA
BRANCH  28  30
ATOM     30  C   UNL A   1      39.778  22.433  26.716  1.00  0.00     0.060 A 
ATOM     31  C   UNL A   1      39.414  23.686  26.218  1.00  0.00     0.016 A 
ATOM     32  C   UNL A   1      40.744  22.320  27.713  1.00  0.00     0.016 A 
ATOM     33  C   UNL A   1      40.045  24.835  26.680  1.00  0.00     0.010 A 
ATOM     34  C   UNL A   1      41.350  23.478  28.205  1.00  0.00     0.010 A 
ATOM     35  C   UNL A   1      41.018  24.740  27.676  1.00  0.00    -0.014 A 
BRANCH  35  36
ATOM     36  C   UNL A   1      41.745  25.945  28.141  1.00  0.00     0.031 A 
ATOM     37  C   UNL A   1      41.002  26.993  28.912  1.00  0.00     0.074 A 
ATOM     38  C   UNL A   1      43.042  26.113  27.829  1.00  0.00     0.049 A 
ATOM     39  N   UNL A   1      41.337  28.230  29.169  1.00  0.00    -0.248 NA
ATOM     40  C   UNL A   1      39.690  26.595  29.443  1.00  0.00     0.031 C 
ATOM     41  C   UNL A   1      43.881  25.130  27.143  1.00  0.00     0.029 A 
ATOM     42  N   UNL A   1      43.869  27.192  28.014  1.00  0.00    -0.354 N 
ATOM     43  C   UNL A   1      40.254  28.779  29.848  1.00  0.00     0.074 A 
ATOM     44  C   UNL A   1      39.253  27.736  29.955  1.00  0.00     0.031 C 
ATOM     45  C   UNL A   1      45.095  25.663  26.935  1.00  0.00     0.029 A 
ATOM     46  C   UNL A   1      45.091  27.046  27.403  1.00  0.00     0.049 A 
ATOM     47  H   UNL A   1      43.614  27.989  28.533  1.00  0.00     0.167 HD
ATOM     48  C   UNL A   1      40.116  30.042  30.321  1.00  0.00     0.034 A 
ATOM     49  C   UNL A   1      46.068  27.946  27.178  1.00  0.00     0.034 A 
ATOM     50  C   UNL A   1      41.149  31.046  30.216  1.00  0.00     0.049 A 
ATOM     51  C   UNL A   1      45.877  29.358  27.657  1.00  0.00     0.074 A 
ATOM     52  C   UNL A   1      41.142  32.347  30.689  1.00  0.00     0.029 A 
ATOM     53  N   UNL A   1      42.375  30.861  29.587  1.00  0.00    -0.354 N 
ATOM     54  N   UNL A   1      44.838  29.892  28.257  1.00  0.00    -0.248 NA
ATOM     55  C   UNL A   1      46.985  30.292  27.423  1.00  0.00     0.031 C 
ATOM     56  C   UNL A   1      42.335  32.964  30.294  1.00  0.00     0.029 A 
ATOM     57  C   UNL A   1      43.118  32.030  29.633  1.00  0.00     0.049 A 
ATOM     58  H   UNL A   1      42.673  30.021  29.171  1.00  0.00     0.167 HD
ATOM     59  C   UNL A   1      45.174  31.221  28.489  1.00  0.00     0.074 A 
ATOM     60  C   UNL A   1      46.514  31.407  27.966  1.00  0.00     0.031 C 
ATOM     61  C   UNL A   1      44.446  32.197  29.089  1.00  0.00     0.034 A 
BRANCH  48  62
ATOM     62  C   UNL A   1      38.777  30.418  30.910  1.00  0.00     0.023 A 
ATOM     63  C   UNL A   1      37.726  30.930  30.127  1.00  0.00     0.031 A 
ATOM     64  C   UNL A   1      38.570  30.313  32.298  1.00  0.00     0.131 A 
ATOM     65  C   UNL A   1      36.555  31.393  30.746  1.00  0.00     0.055 A 
ATOM     66  C   UNL A   1      37.370  30.700  32.897  1.00  0.00     0.041 A 
ATOM     67  F   UNL A   1      39.543  29.855  33.101  1.00  0.00    -0.206 F 
ATOM     68  C   UNL A   1      36.360  31.259  32.123  1.00  0.00     0.022 A 
BRANCH  65  69
ATOM     69  S   UNL A   1      35.353  32.322  29.751  1.00  0.00     0.124 S 
ATOM     70  O   UNL A   1      34.318  32.618  30.738  1.00  0.00    -0.237 OA
ATOM     71  O   UNL A   1      36.140  33.457  29.285  1.00  0.00    -0.237 OA
ATOM     72  O   UNL A   1      34.957  31.369  28.715  1.00  0.00    -0.744 OA
ENDBRANCH  65  69
ENDBRANCH  48  62
BRANCH  49  73
ATOM     73  C   UNL A   1      47.261  27.550  26.382  1.00  0.00     0.023 A 
ATOM     74  C   UNL A   1      47.325  27.779  25.000  1.00  0.00     0.031 A 
ATOM     75  C   UNL A   1      48.368  26.950  27.009  1.00  0.00     0.131 A 
ATOM     76  C   UNL A   1      48.471  27.393  24.285  1.00  0.00     0.055 A 
ATOM     77  C   UNL A   1      49.520  26.605  26.301  1.00  0.00     0.041 A 
ATOM     78  F   UNL A   1      48.356  26.716  28.331  1.00  0.00    -0.206 F 
ATOM     79  C   UNL A   1      49.573  26.822  24.928  1.00  0.00     0.022 A 
BRANCH  76  80
ATOM     80  S   UNL A   1      48.491  27.621  22.486  1.00  0.00     0.124 S 
ATOM     81  O   UNL A   1      47.208  28.274  22.253  1.00  0.00    -0.237 OA
ATOM     82  O   UNL A   1      49.678  28.448  22.296  1.00  0.00    -0.237 OA
ATOM     83  O   UNL A   1      48.600  26.257  21.971  1.00  0.00    -0.744 OA
ENDBRANCH  76  80
ENDBRANCH  49  73
BRANCH  61  84
ATOM     84  C   UNL A   1      45.113  33.538  29.251  1.00  0.00     0.023 A 
ATOM     85  C   UNL A   1      44.858  34.605  28.374  1.00  0.00     0.031 A 
ATOM     86  C   UNL A   1      46.015  33.747  30.310  1.00  0.00     0.131 A 
ATOM     87  C   UNL A   1      45.528  35.825  28.548  1.00  0.00     0.055 A 
ATOM     88  C   UNL A   1      46.644  34.976  30.506  1.00  0.00     0.041 A 
ATOM     89  F   UNL A   1      46.293  32.758  31.174  1.00  0.00    -0.206 F 
ATOM     90  C   UNL A   1      46.408  36.021  29.618  1.00  0.00     0.022 A 
BRANCH  87  91
ATOM     91  S   UNL A   1      45.278  37.144  27.329  1.00  0.00     0.124 S 
ATOM     92  O   UNL A   1      46.460  37.005  26.485  1.00  0.00    -0.237 OA
ATOM     93  O   UNL A   1      44.008  36.769  26.715  1.00  0.00    -0.237 OA
ATOM     94  O   UNL A   1      45.235  38.360  28.142  1.00  0.00    -0.744 OA
ENDBRANCH  87  91
ENDBRANCH  61  84
ENDBRANCH  35  36
ENDBRANCH  28  30
ENDBRANCH  27  28
ENDBRANCH  26  27
ENDBRANCH   1  26
TORSDOF 18
ENDMDL
MODEL 2
REMARK VINA RESULT:     -11.2      1.272      1.590
REMARK SMILES COc1cc(NC(=O)[C@@H]2CC=CC[C@H]2C(=O)OCCOC(=O)c2ccc(-c3c4nc(c(-c5cc(S(=O)(=O)[O-])ccc5F)c5ccc([nH]5)c(-c5cc(S(=O)(=O)[O-])ccc5F)c5nc(c(-c6cc(S(=O)(=O)[O-])ccc6F)c6ccc3[nH]6)C=C5)C=C4)cc2)c(OC)cc1Cl
REMARK SMILES IDX 18 1 17 2 15 3 16 4 14 5 9 6 10 7 11 8 13 9 12 10 7 11 6 12
REMARK SMILES IDX 8 14 5 15 3 16 4 17 90 18 89 19 91 20 86 21 2 22 1 23 87 24
REMARK SMILES IDX 88 25 19 26 20 27 21 28 22 29 23 30 24 31 85 32 25 33 84 34
REMARK SMILES IDX 26 35 27 36 28 37 78 38 29 39 83 40 77 41 79 42 30 43 82 44
REMARK SMILES IDX 76 45 75 46 31 48 63 49 43 50 62 51 44 52 47 53 61 54 80 55
REMARK SMILES IDX 45 56 46 57 60 59 81 60 48 61 32 62 33 63 41 64 34 65 40 66
REMARK SMILES IDX 42 67 39 68 35 69 36 70 37 71 38 72 64 73 65 74 73 75 66 76
REMARK SMILES IDX 72 77 74 78 71 79 67 80 68 81 69 82 70 83 49 84 50 85 58 86
REMARK SMILES IDX 51 87 57 88 59 89 56 90 52 91 53 92 54 93 55 94
REMARK H PARENT 6 13 79 47 47 58
REMARK Flexibility Score: inf
ROOT
ATOM      1  C   UNL A   1      36.083  21.182  24.641  1.00  0.00     0.274 C 
ENDROOT
BRANCH   1   2
ATOM      2  O   UNL A   1      36.053  22.505  24.068  1.00  0.00    -0.462 OA
BRANCH   2   3
ATOM      3  C   UNL A   1      35.586  23.475  24.898  1.00  0.00     0.310 C 
ATOM      4  O   UNL A   1      36.276  24.055  25.730  1.00  0.00    -0.252 OA
BRANCH   3   5
ATOM      5  C   UNL A   1      34.083  23.659  24.841  1.00  0.00     0.116 C 
ATOM      6  C   UNL A   1      33.348  23.709  26.201  1.00  0.00     0.097 C 
ATOM      7  C   UNL A   1      31.894  24.204  26.012  1.00  0.00     0.041 C 
ATOM      8  C   UNL A   1      31.628  25.182  24.918  1.00  0.00    -0.030 C 
ATOM      9  C   UNL A   1      33.903  24.921  23.977  1.00  0.00     0.043 C 
ATOM     10  C   UNL A   1      32.533  25.505  23.992  1.00  0.00    -0.030 C 
BRANCH   6  11
ATOM     11  C   UNL A   1      33.210  22.306  26.821  1.00  0.00     0.228 C 
ATOM     12  N   UNL A   1      32.224  21.495  26.302  1.00  0.00    -0.323 N 
ATOM     13  H   UNL A   1      31.291  21.706  26.532  1.00  0.00     0.170 HD
ATOM     14  O   UNL A   1      33.990  21.907  27.684  1.00  0.00    -0.274 OA
BRANCH  12  15
ATOM     15  C   UNL A   1      32.465  20.374  25.457  1.00  0.00     0.087 A 
ATOM     16  C   UNL A   1      33.246  18.090  25.130  1.00  0.00     0.139 A 
ATOM     17  C   UNL A   1      32.859  19.136  25.973  1.00  0.00     0.078 A 
ATOM     18  C   UNL A   1      33.141  18.232  23.749  1.00  0.00     0.086 A 
ATOM     19  C   UNL A   1      32.686  19.437  23.216  1.00  0.00     0.073 A 
ATOM     20  Cl  UNL A   1      33.567  16.955  22.669  1.00  0.00    -0.080 Cl
ATOM     21  C   UNL A   1      32.348  20.510  24.059  1.00  0.00     0.144 A 
BRANCH  16  22
ATOM     22  O   UNL A   1      33.690  16.942  25.733  1.00  0.00    -0.495 OA
ATOM     23  C   UNL A   1      32.688  15.924  25.702  1.00  0.00     0.278 C 
ENDBRANCH  16  22
BRANCH  21  24
ATOM     24  O   UNL A   1      31.907  21.723  23.583  1.00  0.00    -0.495 OA
ATOM     25  C   UNL A   1      32.121  21.928  22.185  1.00  0.00     0.278 C 
ENDBRANCH  21  24
ENDBRANCH  12  15
ENDBRANCH   6  11
ENDBRANCH   3   5
ENDBRANCH   2   3
ENDBRANCH   1   2
BRANCH   1  26
ATOM     26  C   UNL A   1      37.505  20.690  24.918  1.00  0.00     0.275 C 
BRANCH  26  27
ATOM     27  O   UNL A   1      38.052  21.268  26.113  1.00  0.00    -0.458 OA
BRANCH  27  28
ATOM     28  C   UNL A   1      39.390  21.133  26.254  1.00  0.00     0.338 C 
ATOM     29  O   UNL A   1      40.077  20.173  25.919  1.00  0.00    -0.246 OA
BRANCH  28  30
ATOM     30  C   UNL A   1      39.935  22.363  26.835  1.00  0.00     0.060 A 
ATOM     31  C   UNL A   1      39.493  23.598  26.355  1.00  0.00     0.016 A 
ATOM     32  C   UNL A   1      40.950  22.295  27.786  1.00  0.00     0.016 A 
ATOM     33  C   UNL A   1      40.094  24.775  26.787  1.00  0.00     0.010 A 
ATOM     34  C   UNL A   1      41.527  23.479  28.249  1.00  0.00     0.010 A 
ATOM     35  C   UNL A   1      41.116  24.724  27.736  1.00  0.00    -0.014 A 
BRANCH  35  36
ATOM     36  C   UNL A   1      41.809  25.961  28.167  1.00  0.00     0.031 A 
ATOM     37  C   UNL A   1      41.037  27.009  28.910  1.00  0.00     0.074 A 
ATOM     38  C   UNL A   1      43.101  26.156  27.850  1.00  0.00     0.049 A 
ATOM     39  N   UNL A   1      41.339  28.262  29.132  1.00  0.00    -0.248 NA
ATOM     40  C   UNL A   1      39.737  26.591  29.453  1.00  0.00     0.031 C 
ATOM     41  C   UNL A   1      43.967  25.177  27.191  1.00  0.00     0.029 A 
ATOM     42  N   UNL A   1      43.898  27.262  28.004  1.00  0.00    -0.354 N 
ATOM     43  C   UNL A   1      40.242  28.800  29.796  1.00  0.00     0.074 A 
ATOM     44  C   UNL A   1      39.270  27.733  29.933  1.00  0.00     0.031 C 
ATOM     45  C   UNL A   1      45.166  25.738  26.967  1.00  0.00     0.029 A 
ATOM     46  C   UNL A   1      45.124  27.132  27.396  1.00  0.00     0.049 A 
ATOM     47  H   UNL A   1      43.621  28.065  28.501  1.00  0.00     0.167 HD
ATOM     48  C   UNL A   1      40.069  30.072  30.234  1.00  0.00     0.034 A 
ATOM     49  C   UNL A   1      46.076  28.052  27.146  1.00  0.00     0.034 A 
ATOM     50  C   UNL A   1      41.074  31.100  30.101  1.00  0.00     0.049 A 
ATOM     51  C   UNL A   1      45.846  29.472  27.586  1.00  0.00     0.074 A 
ATOM     52  C   UNL A   1      41.031  32.413  30.538  1.00  0.00     0.029 A 
ATOM     53  N   UNL A   1      42.304  30.931  29.476  1.00  0.00    -0.354 N 
ATOM     54  N   UNL A   1      44.793  29.993  28.172  1.00  0.00    -0.248 NA
ATOM     55  C   UNL A   1      46.929  30.429  27.325  1.00  0.00     0.031 C 
ATOM     56  C   UNL A   1      42.207  33.051  30.125  1.00  0.00     0.029 A 
ATOM     57  C   UNL A   1      43.015  32.121  29.489  1.00  0.00     0.049 A 
ATOM     58  H   UNL A   1      42.625  30.088  29.083  1.00  0.00     0.167 HD
ATOM     59  C   UNL A   1      45.093  31.336  28.367  1.00  0.00     0.074 A 
ATOM     60  C   UNL A   1      46.427  31.544  27.837  1.00  0.00     0.031 C 
ATOM     61  C   UNL A   1      44.339  32.309  28.940  1.00  0.00     0.034 A 
BRANCH  48  62
ATOM     62  C   UNL A   1      38.720  30.427  30.814  1.00  0.00     0.023 A 
ATOM     63  C   UNL A   1      37.682  30.963  30.031  1.00  0.00     0.031 A 
ATOM     64  C   UNL A   1      38.491  30.276  32.194  1.00  0.00     0.131 A 
ATOM     65  C   UNL A   1      36.500  31.405  30.646  1.00  0.00     0.055 A 
ATOM     66  C   UNL A   1      37.281  30.642  32.786  1.00  0.00     0.041 A 
ATOM     67  F   UNL A   1      39.452  29.792  32.997  1.00  0.00    -0.206 F 
ATOM     68  C   UNL A   1      36.283  31.226  32.015  1.00  0.00     0.022 A 
BRANCH  65  69
ATOM     69  S   UNL A   1      35.313  32.365  29.663  1.00  0.00     0.124 S 
ATOM     70  O   UNL A   1      36.140  33.480  29.208  1.00  0.00    -0.237 OA
ATOM     71  O   UNL A   1      34.904  31.410  28.641  1.00  0.00    -0.237 OA
ATOM     72  O   UNL A   1      34.278  32.726  30.631  1.00  0.00    -0.744 OA
ENDBRANCH  65  69
ENDBRANCH  48  62
BRANCH  49  73
ATOM     73  C   UNL A   1      47.279  27.667  26.360  1.00  0.00     0.023 A 
ATOM     74  C   UNL A   1      47.336  27.856  24.972  1.00  0.00     0.031 A 
ATOM     75  C   UNL A   1      48.403  27.118  27.004  1.00  0.00     0.131 A 
ATOM     76  C   UNL A   1      48.491  27.482  24.267  1.00  0.00     0.055 A 
ATOM     77  C   UNL A   1      49.564  26.786  26.304  1.00  0.00     0.041 A 
ATOM     78  F   UNL A   1      48.399  26.924  28.332  1.00  0.00    -0.206 F 
ATOM     79  C   UNL A   1      49.610  26.962  24.925  1.00  0.00     0.022 A 
BRANCH  76  80
ATOM     80  S   UNL A   1      48.504  27.656  22.462  1.00  0.00     0.124 S 
ATOM     81  O   UNL A   1      48.657  26.271  22.030  1.00  0.00    -0.237 OA
ATOM     82  O   UNL A   1      47.206  28.271  22.204  1.00  0.00    -0.237 OA
ATOM     83  O   UNL A   1      49.657  28.519  22.211  1.00  0.00    -0.744 OA
ENDBRANCH  76  80
ENDBRANCH  49  73
BRANCH  61  84
ATOM     84  C   UNL A   1      44.968  33.672  29.065  1.00  0.00     0.023 A 
ATOM     85  C   UNL A   1      45.760  34.025  30.170  1.00  0.00     0.031 A 
ATOM     86  C   UNL A   1      44.772  34.628  28.052  1.00  0.00     0.131 A 
ATOM     87  C   UNL A   1      46.298  35.318  30.255  1.00  0.00     0.055 A 
ATOM     88  C   UNL A   1      45.347  35.896  28.119  1.00  0.00     0.041 A 
ATOM     89  F   UNL A   1      44.021  34.338  26.977  1.00  0.00    -0.206 F 
ATOM     90  C   UNL A   1      46.109  36.250  29.229  1.00  0.00     0.022 A 
BRANCH  87  91
ATOM     91  S   UNL A   1      47.211  35.791  31.749  1.00  0.00     0.124 S 
ATOM     92  O   UNL A   1      47.110  37.247  31.718  1.00  0.00    -0.237 OA
ATOM     93  O   UNL A   1      46.456  35.121  32.804  1.00  0.00    -0.237 OA
ATOM     94  O   UNL A   1      48.552  35.257  31.516  1.00  0.00    -0.744 OA
ENDBRANCH  87  91
ENDBRANCH  61  84
ENDBRANCH  35  36
ENDBRANCH  28  30
ENDBRANCH  27  28
ENDBRANCH  26  27
ENDBRANCH   1  26
TORSDOF 18
ENDMDL
MODEL 3
REMARK VINA RESULT:     -11.2      2.915      4.432
REMARK SMILES COc1cc(NC(=O)[C@@H]2CC=CC[C@H]2C(=O)OCCOC(=O)c2ccc(-c3c4nc(c(-c5cc(S(=O)(=O)[O-])ccc5F)c5ccc([nH]5)c(-c5cc(S(=O)(=O)[O-])ccc5F)c5nc(c(-c6cc(S(=O)(=O)[O-])ccc6F)c6ccc3[nH]6)C=C5)C=C4)cc2)c(OC)cc1Cl
REMARK SMILES IDX 18 1 17 2 15 3 16 4 14 5 9 6 10 7 11 8 13 9 12 10 7 11 6 12
REMARK SMILES IDX 8 14 5 15 3 16 4 17 90 18 89 19 91 20 86 21 2 22 1 23 87 24
REMARK SMILES IDX 88 25 19 26 20 27 21 28 22 29 23 30 24 31 85 32 25 33 84 34
REMARK SMILES IDX 26 35 27 36 28 37 78 38 29 39 83 40 77 41 79 42 30 43 82 44
REMARK SMILES IDX 76 45 75 46 31 48 63 49 43 50 62 51 44 52 47 53 61 54 80 55
REMARK SMILES IDX 45 56 46 57 60 59 81 60 48 61 32 62 33 63 41 64 34 65 40 66
REMARK SMILES IDX 42 67 39 68 35 69 36 70 37 71 38 72 64 73 65 74 73 75 66 76
REMARK SMILES IDX 72 77 74 78 71 79 67 80 68 81 69 82 70 83 49 84 50 85 58 86
REMARK SMILES IDX 51 87 57 88 59 89 56 90 52 91 53 92 54 93 55 94
REMARK H PARENT 6 13 79 47 47 58
REMARK Flexibility Score: inf
ROOT
ATOM      1  C   UNL A   1      35.187  22.258  25.121  1.00  0.00     0.274 C 
ENDROOT
BRANCH   1   2
ATOM      2  O   UNL A   1      34.730  22.237  23.754  1.00  0.00    -0.462 OA
BRANCH   2   3
ATOM      3  C   UNL A   1      33.422  22.562  23.585  1.00  0.00     0.310 C 
ATOM      4  O   UNL A   1      32.864  22.616  22.493  1.00  0.00    -0.252 OA
BRANCH   3   5
ATOM      5  C   UNL A   1      32.739  23.036  24.852  1.00  0.00     0.116 C 
ATOM      6  C   UNL A   1      32.177  24.477  24.828  1.00  0.00     0.097 C 
ATOM      7  C   UNL A   1      31.252  24.716  26.046  1.00  0.00     0.041 C 
ATOM      8  C   UNL A   1      30.470  23.556  26.565  1.00  0.00    -0.030 C 
ATOM      9  C   UNL A   1      31.684  21.949  25.126  1.00  0.00     0.043 C 
ATOM     10  C   UNL A   1      30.667  22.302  26.156  1.00  0.00    -0.030 C 
BRANCH   6  11
ATOM     11  C   UNL A   1      33.298  25.523  24.972  1.00  0.00     0.228 C 
ATOM     12  N   UNL A   1      33.179  26.664  24.210  1.00  0.00    -0.323 N 
ATOM     13  H   UNL A   1      33.351  26.589  23.243  1.00  0.00     0.170 HD
ATOM     14  O   UNL A   1      34.211  25.376  25.781  1.00  0.00    -0.274 OA
BRANCH  12  15
ATOM     15  C   UNL A   1      32.824  27.944  24.725  1.00  0.00     0.087 A 
ATOM     16  C   UNL A   1      33.193  29.785  26.278  1.00  0.00     0.139 A 
ATOM     17  C   UNL A   1      33.625  28.608  25.660  1.00  0.00     0.078 A 
ATOM     18  C   UNL A   1      31.994  30.378  25.890  1.00  0.00     0.086 A 
ATOM     19  C   UNL A   1      31.212  29.765  24.910  1.00  0.00     0.073 A 
ATOM     20  Cl  UNL A   1      31.439  31.852  26.593  1.00  0.00    -0.080 Cl
ATOM     21  C   UNL A   1      31.618  28.553  24.326  1.00  0.00     0.144 A 
BRANCH  16  22
ATOM     22  O   UNL A   1      34.016  30.317  27.236  1.00  0.00    -0.495 OA
ATOM     23  C   UNL A   1      35.258  29.615  27.297  1.00  0.00     0.278 C 
ENDBRANCH  16  22
BRANCH  21  24
ATOM     24  O   UNL A   1      30.877  27.903  23.366  1.00  0.00    -0.495 OA
ATOM     25  C   UNL A   1      29.681  28.582  22.975  1.00  0.00     0.278 C 
ENDBRANCH  21  24
ENDBRANCH  12  15
ENDBRANCH   6  11
ENDBRANCH   3   5
ENDBRANCH   2   3
ENDBRANCH   1   2
BRANCH   1  26
ATOM     26  C   UNL A   1      36.319  21.264  25.382  1.00  0.00     0.275 C 
BRANCH  26  27
ATOM     27  O   UNL A   1      37.598  21.790  24.999  1.00  0.00    -0.458 OA
BRANCH  27  28
ATOM     28  C   UNL A   1      38.644  21.340  25.728  1.00  0.00     0.338 C 
ATOM     29  O   UNL A   1      39.050  20.184  25.806  1.00  0.00    -0.246 OA
BRANCH  28  30
ATOM     30  C   UNL A   1      39.286  22.476  26.395  1.00  0.00     0.060 A 
ATOM     31  C   UNL A   1      38.891  23.774  26.062  1.00  0.00     0.016 A 
ATOM     32  C   UNL A   1      40.341  22.261  27.279  1.00  0.00     0.016 A 
ATOM     33  C   UNL A   1      39.578  24.869  26.573  1.00  0.00     0.010 A 
ATOM     34  C   UNL A   1      41.005  23.362  27.824  1.00  0.00     0.010 A 
ATOM     35  C   UNL A   1      40.640  24.671  27.457  1.00  0.00    -0.014 A 
BRANCH  35  36
ATOM     36  C   UNL A   1      41.422  25.822  27.968  1.00  0.00     0.031 A 
ATOM     37  C   UNL A   1      40.718  26.900  28.734  1.00  0.00     0.074 A 
ATOM     38  C   UNL A   1      42.737  25.916  27.701  1.00  0.00     0.049 A 
ATOM     39  N   UNL A   1      41.119  28.110  29.025  1.00  0.00    -0.248 NA
ATOM     40  C   UNL A   1      39.368  26.575  29.215  1.00  0.00     0.031 C 
ATOM     41  C   UNL A   1      43.538  24.895  27.024  1.00  0.00     0.029 A 
ATOM     42  N   UNL A   1      43.621  26.940  27.934  1.00  0.00    -0.354 N 
ATOM     43  C   UNL A   1      40.049  28.713  29.680  1.00  0.00     0.074 A 
ATOM     44  C   UNL A   1      38.984  27.731  29.734  1.00  0.00     0.031 C 
ATOM     45  C   UNL A   1      44.788  25.357  26.866  1.00  0.00     0.029 A 
ATOM     46  C   UNL A   1      44.851  26.729  27.359  1.00  0.00     0.049 A 
ATOM     47  H   UNL A   1      43.397  27.741  28.459  1.00  0.00     0.167 HD
ATOM     48  C   UNL A   1      39.972  29.974  30.172  1.00  0.00     0.034 A 
ATOM     49  C   UNL A   1      45.888  27.572  27.183  1.00  0.00     0.034 A 
ATOM     50  C   UNL A   1      41.066  30.915  30.119  1.00  0.00     0.049 A 
ATOM     51  C   UNL A   1      45.767  28.985  27.683  1.00  0.00     0.074 A 
ATOM     52  C   UNL A   1      41.122  32.205  30.617  1.00  0.00     0.029 A 
ATOM     53  N   UNL A   1      42.299  30.665  29.527  1.00  0.00    -0.354 N 
ATOM     54  N   UNL A   1      44.743  29.570  28.259  1.00  0.00    -0.248 NA
ATOM     55  C   UNL A   1      46.937  29.853  27.502  1.00  0.00     0.031 C 
ATOM     56  C   UNL A   1      42.363  32.755  30.272  1.00  0.00     0.029 A 
ATOM     57  C   UNL A   1      43.110  31.786  29.618  1.00  0.00     0.049 A 
ATOM     58  H   UNL A   1      42.560  29.816  29.104  1.00  0.00     0.167 HD
ATOM     59  C   UNL A   1      45.150  30.872  28.527  1.00  0.00     0.074 A 
ATOM     60  C   UNL A   1      46.515  30.985  28.050  1.00  0.00     0.031 C 
ATOM     61  C   UNL A   1      44.463  31.881  29.121  1.00  0.00     0.034 A 
BRANCH  48  62
ATOM     62  C   UNL A   1      38.639  30.420  30.724  1.00  0.00     0.023 A 
ATOM     63  C   UNL A   1      37.745  31.216  29.985  1.00  0.00     0.031 A 
ATOM     64  C   UNL A   1      38.282  30.086  32.044  1.00  0.00     0.131 A 
ATOM     65  C   UNL A   1      36.586  31.718  30.596  1.00  0.00     0.055 A 
ATOM     66  C   UNL A   1      37.087  30.522  32.619  1.00  0.00     0.041 A 
ATOM     67  F   UNL A   1      39.105  29.350  32.808  1.00  0.00    -0.206 F 
ATOM     68  C   UNL A   1      36.239  31.357  31.901  1.00  0.00     0.022 A 
BRANCH  65  69
ATOM     69  S   UNL A   1      35.617  32.980  29.722  1.00  0.00     0.124 S 
ATOM     70  O   UNL A   1      35.695  34.107  30.649  1.00  0.00    -0.237 OA
ATOM     71  O   UNL A   1      36.348  33.127  28.470  1.00  0.00    -0.237 OA
ATOM     72  O   UNL A   1      34.292  32.375  29.605  1.00  0.00    -0.744 OA
ENDBRANCH  65  69
ENDBRANCH  48  62
BRANCH  49  73
ATOM     73  C   UNL A   1      47.081  27.118  26.418  1.00  0.00     0.023 A 
ATOM     74  C   UNL A   1      48.159  26.487  27.054  1.00  0.00     0.031 A 
ATOM     75  C   UNL A   1      47.143  27.299  25.024  1.00  0.00     0.131 A 
ATOM     76  C   UNL A   1      49.265  26.071  26.295  1.00  0.00     0.055 A 
ATOM     77  C   UNL A   1      48.226  26.847  24.270  1.00  0.00     0.041 A 
ATOM     78  F   UNL A   1      46.132  27.893  24.370  1.00  0.00    -0.206 F 
ATOM     79  C   UNL A   1      49.300  26.233  24.907  1.00  0.00     0.022 A 
BRANCH  76  80
ATOM     80  S   UNL A   1      50.683  25.335  27.155  1.00  0.00     0.124 S 
ATOM     81  O   UNL A   1      50.035  24.344  28.006  1.00  0.00    -0.237 OA
ATOM     82  O   UNL A   1      51.475  24.812  26.046  1.00  0.00    -0.237 OA
ATOM     83  O   UNL A   1      51.280  26.469  27.859  1.00  0.00    -0.744 OA
ENDBRANCH  76  80
ENDBRANCH  49  73
BRANCH  61  84
ATOM     84  C   UNL A   1      45.204  33.176  29.330  1.00  0.00     0.023 A 
ATOM     85  C   UNL A   1      45.935  33.432  30.502  1.00  0.00     0.031 A 
ATOM     86  C   UNL A   1      45.176  34.166  28.332  1.00  0.00     0.131 A 
ATOM     87  C   UNL A   1      46.582  34.667  30.663  1.00  0.00     0.055 A 
ATOM     88  C   UNL A   1      45.858  35.374  28.477  1.00  0.00     0.041 A 
ATOM     89  F   UNL A   1      44.489  33.970  27.195  1.00  0.00    -0.206 F 
ATOM     90  C   UNL A   1      46.560  35.632  29.651  1.00  0.00     0.022 A 
BRANCH  87  91
ATOM     91  S   UNL A   1      47.414  35.022  32.234  1.00  0.00     0.124 S 
ATOM     92  O   UNL A   1      47.743  33.683  32.712  1.00  0.00    -0.237 OA
ATOM     93  O   UNL A   1      48.544  35.845  31.814  1.00  0.00    -0.237 OA
ATOM     94  O   UNL A   1      46.394  35.725  33.012  1.00  0.00    -0.744 OA
ENDBRANCH  87  91
ENDBRANCH  61  84
ENDBRANCH  35  36
ENDBRANCH  28  30
ENDBRANCH  27  28
ENDBRANCH  26  27
ENDBRANCH   1  26
TORSDOF 18
ENDMDL
