MODEL 1
REMARK VINA RESULT:     -11.3      0.000      0.000
REMARK SMILES O=C(/C=C/c1cc(F)cc(C[N@@H+]2CCC[C@H]2CO)c1)OCCOC(=O)c1ccc(-c2c3nc(c(-c4cc(S(=O)(=O)[O-])ccc4F)c4ccc([nH]4)c(-c4cc(S(=O)(=O)[O-])ccc4F)c4nc(c(-c5cc(S(=O)(=O)[O-])ccc5F)c5ccc2[nH]5)C=C4)C=C3)cc1
REMARK SMILES IDX 21 1 20 2 2 3 1 4 3 5 4 6 5 7 6 8 19 9 7 10 10 11 8 12 9 13
REMARK SMILES IDX 11 14 12 15 13 16 16 17 14 19 15 20 17 21 18 22 22 24 23 25
REMARK SMILES IDX 24 26 25 27 26 28 27 29 88 30 28 31 87 32 29 33 30 34 31 35
REMARK SMILES IDX 81 36 32 37 86 38 80 39 82 40 33 41 85 42 79 43 78 44 34 46
REMARK SMILES IDX 66 47 46 48 65 49 47 50 50 51 64 52 83 53 48 54 49 55 63 57
REMARK SMILES IDX 84 58 51 59 35 60 36 61 44 62 37 63 43 64 45 65 42 66 38 67
REMARK SMILES IDX 39 68 40 69 41 70 67 71 68 72 76 73 69 74 75 75 77 76 74 77
REMARK SMILES IDX 70 78 71 79 72 80 73 81 52 82 53 83 61 84 54 85 60 86 62 87
REMARK SMILES IDX 59 88 55 89 56 90 57 91 58 92
REMARK H PARENT 12 18 18 23 82 45 50 56
REMARK Flexibility Score: inf
ROOT
ATOM      1  C   UNL A   1      42.701  20.706  26.003  1.00  0.00     0.275 C 
ENDROOT
BRANCH   1   2
ATOM      2  O   UNL A   1      41.330  20.957  25.642  1.00  0.00    -0.459 OA
BRANCH   2   3
ATOM      3  C   UNL A   1      40.279  21.266  26.436  1.00  0.00     0.330 C 
ATOM      4  O   UNL A   1      40.458  21.483  27.632  1.00  0.00    -0.247 OA
BRANCH   3   5
ATOM      5  C   UNL A   1      38.887  21.209  25.950  1.00  0.00     0.094 C 
ATOM      6  C   UNL A   1      38.147  22.171  25.386  1.00  0.00     0.016 C 
BRANCH   6   7
ATOM      7  C   UNL A   1      36.802  21.965  24.841  1.00  0.00    -0.022 A 
ATOM      8  C   UNL A   1      35.998  20.906  25.260  1.00  0.00     0.047 A 
ATOM      9  C   UNL A   1      36.276  22.933  23.961  1.00  0.00     0.018 A 
ATOM     10  C   UNL A   1      34.671  20.871  24.861  1.00  0.00     0.124 A 
ATOM     11  C   UNL A   1      34.936  22.891  23.539  1.00  0.00     0.010 A 
ATOM     12  F   UNL A   1      33.877  19.892  25.310  1.00  0.00    -0.207 F 
ATOM     13  C   UNL A   1      34.132  21.864  24.047  1.00  0.00     0.048 A 
BRANCH  11  14
ATOM     14  C   UNL A   1      34.360  24.002  22.681  1.00  0.00     0.299 C 
BRANCH  14  15
ATOM     15  N   UNL A   1      33.698  25.152  23.304  1.00  0.00    -0.327 N 
ATOM     16  C   UNL A   1      34.051  25.433  24.696  1.00  0.00     0.263 C 
ATOM     17  C   UNL A   1      32.231  25.168  23.229  1.00  0.00     0.210 C 
ATOM     18  H   UNL A   1      34.082  25.883  22.706  1.00  0.00     0.348 HD
ATOM     19  C   UNL A   1      32.933  24.861  25.549  1.00  0.00     0.068 C 
ATOM     20  C   UNL A   1      31.748  24.733  24.611  1.00  0.00     0.073 C 
BRANCH  17  21
ATOM     21  C   UNL A   1      31.728  26.586  22.877  1.00  0.00     0.220 C 
BRANCH  21  22
ATOM     22  O   UNL A   1      31.473  26.717  21.481  1.00  0.00    -0.390 OA
ATOM     23  H   UNL A   1      31.087  27.590  21.304  1.00  0.00     0.210 HD
ENDBRANCH  21  22
ENDBRANCH  17  21
ENDBRANCH  14  15
ENDBRANCH  11  14
ENDBRANCH   6   7
ENDBRANCH   3   5
ENDBRANCH   2   3
ENDBRANCH   1   2
BRANCH   1  24
ATOM     24  C   UNL A   1      43.756  21.543  25.270  1.00  0.00     0.275 C 
BRANCH  24  25
ATOM     25  O   UNL A   1      43.243  22.730  24.648  1.00  0.00    -0.458 OA
BRANCH  25  26
ATOM     26  C   UNL A   1      44.005  23.841  24.837  1.00  0.00     0.338 C 
ATOM     27  O   UNL A   1      45.001  24.145  24.201  1.00  0.00    -0.246 OA
BRANCH  26  28
ATOM     28  C   UNL A   1      43.382  24.722  25.851  1.00  0.00     0.060 A 
ATOM     29  C   UNL A   1      43.897  26.013  26.020  1.00  0.00     0.016 A 
ATOM     30  C   UNL A   1      42.328  24.283  26.650  1.00  0.00     0.016 A 
ATOM     31  C   UNL A   1      43.359  26.868  26.990  1.00  0.00     0.010 A 
ATOM     32  C   UNL A   1      41.811  25.138  27.631  1.00  0.00     0.010 A 
ATOM     33  C   UNL A   1      42.315  26.435  27.817  1.00  0.00    -0.014 A 
BRANCH  33  34
ATOM     34  C   UNL A   1      41.797  27.280  28.933  1.00  0.00     0.031 A 
ATOM     35  C   UNL A   1      42.506  27.273  30.264  1.00  0.00     0.074 A 
ATOM     36  C   UNL A   1      40.683  28.027  28.785  1.00  0.00     0.049 A 
ATOM     37  N   UNL A   1      42.197  27.898  31.372  1.00  0.00    -0.248 NA
ATOM     38  C   UNL A   1      43.710  26.433  30.367  1.00  0.00     0.031 C 
ATOM     39  C   UNL A   1      39.876  28.112  27.568  1.00  0.00     0.029 A 
ATOM     40  N   UNL A   1      40.036  28.856  29.672  1.00  0.00    -0.354 N 
ATOM     41  C   UNL A   1      43.161  27.523  32.301  1.00  0.00     0.074 A 
ATOM     42  C   UNL A   1      44.032  26.573  31.644  1.00  0.00     0.031 C 
ATOM     43  C   UNL A   1      38.856  28.962  27.778  1.00  0.00     0.029 A 
ATOM     44  C   UNL A   1      38.913  29.460  29.153  1.00  0.00     0.049 A 
ATOM     45  H   UNL A   1      40.347  29.004  30.594  1.00  0.00     0.167 HD
ATOM     46  C   UNL A   1      43.325  27.948  33.578  1.00  0.00     0.034 A 
ATOM     47  C   UNL A   1      38.027  30.310  29.714  1.00  0.00     0.034 A 
ATOM     48  C   UNL A   1      42.474  28.909  34.231  1.00  0.00     0.049 A 
ATOM     49  C   UNL A   1      38.205  30.742  31.150  1.00  0.00     0.074 A 
ATOM     50  C   UNL A   1      42.607  29.445  35.501  1.00  0.00     0.029 A 
ATOM     51  N   UNL A   1      41.335  29.474  33.679  1.00  0.00    -0.354 N 
ATOM     52  N   UNL A   1      39.141  30.399  32.003  1.00  0.00    -0.248 NA
ATOM     53  C   UNL A   1      37.208  31.675  31.697  1.00  0.00     0.031 C 
ATOM     54  C   UNL A   1      41.511  30.278  35.743  1.00  0.00     0.029 A 
ATOM     55  C   UNL A   1      40.735  30.322  34.595  1.00  0.00     0.049 A 
ATOM     56  H   UNL A   1      41.001  29.297  32.770  1.00  0.00     0.167 HD
ATOM     57  C   UNL A   1      38.858  31.093  33.178  1.00  0.00     0.074 A 
ATOM     58  C   UNL A   1      37.666  31.874  32.928  1.00  0.00     0.031 C 
ATOM     59  C   UNL A   1      39.537  31.090  34.352  1.00  0.00     0.034 A 
BRANCH  46  60
ATOM     60  C   UNL A   1      44.469  27.364  34.366  1.00  0.00     0.023 A 
ATOM     61  C   UNL A   1      44.343  26.142  35.048  1.00  0.00     0.031 A 
ATOM     62  C   UNL A   1      45.710  28.024  34.409  1.00  0.00     0.131 A 
ATOM     63  C   UNL A   1      45.426  25.639  35.784  1.00  0.00     0.055 A 
ATOM     64  C   UNL A   1      46.804  27.485  35.087  1.00  0.00     0.041 A 
ATOM     65  F   UNL A   1      45.880  29.202  33.787  1.00  0.00    -0.206 F 
ATOM     66  C   UNL A   1      46.663  26.290  35.786  1.00  0.00     0.022 A 
BRANCH  63  67
ATOM     67  S   UNL A   1      45.172  24.163  36.804  1.00  0.00     0.124 S 
ATOM     68  O   UNL A   1      43.939  23.623  36.238  1.00  0.00    -0.237 OA
ATOM     69  O   UNL A   1      46.383  23.390  36.551  1.00  0.00    -0.237 OA
ATOM     70  O   UNL A   1      45.047  24.699  38.158  1.00  0.00    -0.744 OA
ENDBRANCH  63  67
ENDBRANCH  46  60
BRANCH  47  71
ATOM     71  C   UNL A   1      36.867  30.806  28.919  1.00  0.00     0.023 A 
ATOM     72  C   UNL A   1      35.903  29.921  28.409  1.00  0.00     0.031 A 
ATOM     73  C   UNL A   1      36.715  32.177  28.651  1.00  0.00     0.131 A 
ATOM     74  C   UNL A   1      34.838  30.417  27.640  1.00  0.00     0.055 A 
ATOM     75  C   UNL A   1      35.633  32.670  27.919  1.00  0.00     0.041 A 
ATOM     76  F   UNL A   1      37.612  33.062  29.116  1.00  0.00    -0.206 F 
ATOM     77  C   UNL A   1      34.689  31.786  27.404  1.00  0.00     0.022 A 
BRANCH  74  78
ATOM     78  S   UNL A   1      33.652  29.244  26.926  1.00  0.00     0.124 S 
ATOM     79  O   UNL A   1      33.377  29.852  25.630  1.00  0.00    -0.237 OA
ATOM     80  O   UNL A   1      34.421  28.004  26.905  1.00  0.00    -0.237 OA
ATOM     81  O   UNL A   1      32.540  29.265  27.875  1.00  0.00    -0.744 OA
ENDBRANCH  74  78
ENDBRANCH  47  71
BRANCH  59  82
ATOM     82  C   UNL A   1      39.040  31.978  35.465  1.00  0.00     0.023 A 
ATOM     83  C   UNL A   1      38.345  31.461  36.570  1.00  0.00     0.031 A 
ATOM     84  C   UNL A   1      39.337  33.354  35.452  1.00  0.00     0.131 A 
ATOM     85  C   UNL A   1      37.955  32.318  37.612  1.00  0.00     0.055 A 
ATOM     86  C   UNL A   1      38.986  34.193  36.510  1.00  0.00     0.041 A 
ATOM     87  F   UNL A   1      40.004  33.897  34.420  1.00  0.00    -0.206 F 
ATOM     88  C   UNL A   1      38.288  33.676  37.597  1.00  0.00     0.022 A 
BRANCH  85  89
ATOM     89  S   UNL A   1      36.986  31.641  38.989  1.00  0.00     0.124 S 
ATOM     90  O   UNL A   1      37.899  31.815  40.115  1.00  0.00    -0.237 OA
ATOM     91  O   UNL A   1      35.801  32.492  38.992  1.00  0.00    -0.237 OA
ATOM     92  O   UNL A   1      36.748  30.254  38.593  1.00  0.00    -0.744 OA
ENDBRANCH  85  89
ENDBRANCH  59  82
ENDBRANCH  33  34
ENDBRANCH  26  28
ENDBRANCH  25  26
ENDBRANCH  24  25
ENDBRANCH   1  24
TORSDOF 19
ENDMDL
MODEL 2
REMARK VINA RESULT:     -11.0      2.065      2.878
REMARK SMILES O=C(/C=C/c1cc(F)cc(C[N@@H+]2CCC[C@H]2CO)c1)OCCOC(=O)c1ccc(-c2c3nc(c(-c4cc(S(=O)(=O)[O-])ccc4F)c4ccc([nH]4)c(-c4cc(S(=O)(=O)[O-])ccc4F)c4nc(c(-c5cc(S(=O)(=O)[O-])ccc5F)c5ccc2[nH]5)C=C4)C=C3)cc1
REMARK SMILES IDX 21 1 20 2 2 3 1 4 3 5 4 6 5 7 6 8 19 9 7 10 10 11 8 12 9 13
REMARK SMILES IDX 11 14 12 15 13 16 16 17 14 19 15 20 17 21 18 22 22 24 23 25
REMARK SMILES IDX 24 26 25 27 26 28 27 29 88 30 28 31 87 32 29 33 30 34 31 35
REMARK SMILES IDX 81 36 32 37 86 38 80 39 82 40 33 41 85 42 79 43 78 44 34 46
REMARK SMILES IDX 66 47 46 48 65 49 47 50 50 51 64 52 83 53 48 54 49 55 63 57
REMARK SMILES IDX 84 58 51 59 35 60 36 61 44 62 37 63 43 64 45 65 42 66 38 67
REMARK SMILES IDX 39 68 40 69 41 70 67 71 68 72 76 73 69 74 75 75 77 76 74 77
REMARK SMILES IDX 70 78 71 79 72 80 73 81 52 82 53 83 61 84 54 85 60 86 62 87
REMARK SMILES IDX 59 88 55 89 56 90 57 91 58 92
REMARK H PARENT 12 18 18 23 82 45 50 56
REMARK Flexibility Score: inf
ROOT
ATOM      1  C   UNL A   1      42.707  20.259  25.756  1.00  0.00     0.275 C 
ENDROOT
BRANCH   1   2
ATOM      2  O   UNL A   1      41.311  20.562  25.573  1.00  0.00    -0.459 OA
BRANCH   2   3
ATOM      3  C   UNL A   1      40.406  21.002  26.476  1.00  0.00     0.330 C 
ATOM      4  O   UNL A   1      40.743  21.177  27.645  1.00  0.00    -0.247 OA
BRANCH   3   5
ATOM      5  C   UNL A   1      38.975  21.144  26.146  1.00  0.00     0.094 C 
ATOM      6  C   UNL A   1      38.363  22.086  25.418  1.00  0.00     0.016 C 
BRANCH   6   7
ATOM      7  C   UNL A   1      36.940  22.062  25.065  1.00  0.00    -0.022 A 
ATOM      8  C   UNL A   1      36.422  22.878  24.062  1.00  0.00     0.047 A 
ATOM      9  C   UNL A   1      36.111  21.101  25.679  1.00  0.00     0.018 A 
ATOM     10  C   UNL A   1      35.119  22.675  23.636  1.00  0.00     0.124 A 
ATOM     11  C   UNL A   1      34.783  20.903  25.263  1.00  0.00     0.010 A 
ATOM     12  F   UNL A   1      34.635  23.414  22.630  1.00  0.00    -0.207 F 
ATOM     13  C   UNL A   1      34.320  21.681  24.195  1.00  0.00     0.048 A 
BRANCH  11  14
ATOM     14  C   UNL A   1      33.942  19.791  25.861  1.00  0.00     0.299 C 
BRANCH  14  15
ATOM     15  N   UNL A   1      32.996  19.047  25.025  1.00  0.00    -0.327 N 
ATOM     16  C   UNL A   1      32.445  17.818  25.598  1.00  0.00     0.263 C 
ATOM     17  C   UNL A   1      33.458  18.711  23.673  1.00  0.00     0.210 C 
ATOM     18  H   UNL A   1      32.261  19.752  24.974  1.00  0.00     0.348 HD
ATOM     19  C   UNL A   1      33.232  16.670  24.995  1.00  0.00     0.068 C 
ATOM     20  C   UNL A   1      33.848  17.235  23.729  1.00  0.00     0.073 C 
BRANCH  17  21
ATOM     21  C   UNL A   1      32.331  18.956  22.645  1.00  0.00     0.220 C 
BRANCH  21  22
ATOM     22  O   UNL A   1      31.956  17.750  21.983  1.00  0.00    -0.390 OA
ATOM     23  H   UNL A   1      32.311  16.991  22.472  1.00  0.00     0.210 HD
ENDBRANCH  21  22
ENDBRANCH  17  21
ENDBRANCH  14  15
ENDBRANCH  11  14
ENDBRANCH   6   7
ENDBRANCH   3   5
ENDBRANCH   2   3
ENDBRANCH   1   2
BRANCH   1  24
ATOM     24  C   UNL A   1      43.691  21.397  25.455  1.00  0.00     0.275 C 
BRANCH  24  25
ATOM     25  O   UNL A   1      43.106  22.524  24.788  1.00  0.00    -0.458 OA
BRANCH  25  26
ATOM     26  C   UNL A   1      43.829  23.672  24.880  1.00  0.00     0.338 C 
ATOM     27  O   UNL A   1      44.776  23.982  24.175  1.00  0.00    -0.246 OA
BRANCH  26  28
ATOM     28  C   UNL A   1      43.225  24.580  25.881  1.00  0.00     0.060 A 
ATOM     29  C   UNL A   1      43.816  25.832  26.090  1.00  0.00     0.016 A 
ATOM     30  C   UNL A   1      42.113  24.201  26.632  1.00  0.00     0.016 A 
ATOM     31  C   UNL A   1      43.296  26.709  27.052  1.00  0.00     0.010 A 
ATOM     32  C   UNL A   1      41.614  25.076  27.604  1.00  0.00     0.010 A 
ATOM     33  C   UNL A   1      42.193  26.335  27.830  1.00  0.00    -0.014 A 
BRANCH  33  34
ATOM     34  C   UNL A   1      41.688  27.197  28.937  1.00  0.00     0.031 A 
ATOM     35  C   UNL A   1      42.417  27.220  30.257  1.00  0.00     0.074 A 
ATOM     36  C   UNL A   1      40.567  27.934  28.792  1.00  0.00     0.049 A 
ATOM     37  N   UNL A   1      42.121  27.865  31.358  1.00  0.00    -0.248 NA
ATOM     38  C   UNL A   1      43.628  26.390  30.358  1.00  0.00     0.031 C 
ATOM     39  C   UNL A   1      39.740  27.991  27.587  1.00  0.00     0.029 A 
ATOM     40  N   UNL A   1      39.928  28.777  29.674  1.00  0.00    -0.354 N 
ATOM     41  C   UNL A   1      43.102  27.515  32.279  1.00  0.00     0.074 A 
ATOM     42  C   UNL A   1      43.969  26.557  31.626  1.00  0.00     0.031 C 
ATOM     43  C   UNL A   1      38.718  28.839  27.797  1.00  0.00     0.029 A 
ATOM     44  C   UNL A   1      38.793  29.364  29.160  1.00  0.00     0.049 A 
ATOM     45  H   UNL A   1      40.252  28.944  30.587  1.00  0.00     0.167 HD
ATOM     46  C   UNL A   1      43.283  27.965  33.545  1.00  0.00     0.034 A 
ATOM     47  C   UNL A   1      37.910  30.218  29.719  1.00  0.00     0.034 A 
ATOM     48  C   UNL A   1      42.436  28.933  34.192  1.00  0.00     0.049 A 
ATOM     49  C   UNL A   1      38.107  30.679  31.143  1.00  0.00     0.074 A 
ATOM     50  C   UNL A   1      42.585  29.494  35.449  1.00  0.00     0.029 A 
ATOM     51  N   UNL A   1      41.285  29.480  33.647  1.00  0.00    -0.354 N 
ATOM     52  N   UNL A   1      39.059  30.359  31.988  1.00  0.00    -0.248 NA
ATOM     53  C   UNL A   1      37.113  31.616  31.688  1.00  0.00     0.031 C 
ATOM     54  C   UNL A   1      41.487  30.324  35.692  1.00  0.00     0.029 A 
ATOM     55  C   UNL A   1      40.694  30.341  34.556  1.00  0.00     0.049 A 
ATOM     56  H   UNL A   1      40.938  29.283  32.747  1.00  0.00     0.167 HD
ATOM     57  C   UNL A   1      38.790  31.074  33.154  1.00  0.00     0.074 A 
ATOM     58  C   UNL A   1      37.589  31.842  32.907  1.00  0.00     0.031 C 
ATOM     59  C   UNL A   1      39.487  31.097  34.317  1.00  0.00     0.034 A 
BRANCH  46  60
ATOM     60  C   UNL A   1      44.443  27.403  34.326  1.00  0.00     0.023 A 
ATOM     61  C   UNL A   1      45.700  28.030  34.326  1.00  0.00     0.031 A 
ATOM     62  C   UNL A   1      44.277  26.245  35.106  1.00  0.00     0.131 A 
ATOM     63  C   UNL A   1      46.759  27.468  35.053  1.00  0.00     0.055 A 
ATOM     64  C   UNL A   1      45.317  25.729  35.881  1.00  0.00     0.041 A 
ATOM     65  F   UNL A   1      43.100  25.600  35.130  1.00  0.00    -0.206 F 
ATOM     66  C   UNL A   1      46.568  26.336  35.851  1.00  0.00     0.022 A 
BRANCH  63  67
ATOM     67  S   UNL A   1      48.412  28.190  34.879  1.00  0.00     0.124 S 
ATOM     68  O   UNL A   1      48.173  29.239  33.891  1.00  0.00    -0.237 OA
ATOM     69  O   UNL A   1      48.704  28.645  36.234  1.00  0.00    -0.237 OA
ATOM     70  O   UNL A   1      49.227  27.073  34.407  1.00  0.00    -0.744 OA
ENDBRANCH  63  67
ENDBRANCH  46  60
BRANCH  47  71
ATOM     71  C   UNL A   1      36.735  30.692  28.932  1.00  0.00     0.023 A 
ATOM     72  C   UNL A   1      35.796  29.786  28.411  1.00  0.00     0.031 A 
ATOM     73  C   UNL A   1      36.542  32.062  28.685  1.00  0.00     0.131 A 
ATOM     74  C   UNL A   1      34.716  30.262  27.651  1.00  0.00     0.055 A 
ATOM     75  C   UNL A   1      35.445  32.533  27.962  1.00  0.00     0.041 A 
ATOM     76  F   UNL A   1      37.413  32.966  29.161  1.00  0.00    -0.206 F 
ATOM     77  C   UNL A   1      34.526  31.630  27.435  1.00  0.00     0.022 A 
BRANCH  74  78
ATOM     78  S   UNL A   1      33.563  29.065  26.921  1.00  0.00     0.124 S 
ATOM     79  O   UNL A   1      32.684  28.776  28.048  1.00  0.00    -0.237 OA
ATOM     80  O   UNL A   1      32.976  29.832  25.828  1.00  0.00    -0.237 OA
ATOM     81  O   UNL A   1      34.432  27.965  26.508  1.00  0.00    -0.744 OA
ENDBRANCH  74  78
ENDBRANCH  47  71
BRANCH  59  82
ATOM     82  C   UNL A   1      39.001  32.004  35.421  1.00  0.00     0.023 A 
ATOM     83  C   UNL A   1      38.340  31.502  36.554  1.00  0.00     0.031 A 
ATOM     84  C   UNL A   1      39.275  33.383  35.368  1.00  0.00     0.131 A 
ATOM     85  C   UNL A   1      37.960  32.377  37.584  1.00  0.00     0.055 A 
ATOM     86  C   UNL A   1      38.935  34.241  36.414  1.00  0.00     0.041 A 
ATOM     87  F   UNL A   1      39.909  33.912  34.309  1.00  0.00    -0.206 F 
ATOM     88  C   UNL A   1      38.271  33.739  37.530  1.00  0.00     0.022 A 
BRANCH  85  89
ATOM     89  S   UNL A   1      37.035  31.718  38.999  1.00  0.00     0.124 S 
ATOM     90  O   UNL A   1      35.861  32.586  39.022  1.00  0.00    -0.237 OA
ATOM     91  O   UNL A   1      36.797  30.334  38.606  1.00  0.00    -0.237 OA
ATOM     92  O   UNL A   1      37.955  31.890  40.123  1.00  0.00    -0.744 OA
ENDBRANCH  85  89
ENDBRANCH  59  82
ENDBRANCH  33  34
ENDBRANCH  26  28
ENDBRANCH  25  26
ENDBRANCH  24  25
ENDBRANCH   1  24
TORSDOF 19
ENDMDL
MODEL 3
REMARK VINA RESULT:     -11.0      5.360      9.406
REMARK SMILES O=C(/C=C/c1cc(F)cc(C[N@@H+]2CCC[C@H]2CO)c1)OCCOC(=O)c1ccc(-c2c3nc(c(-c4cc(S(=O)(=O)[O-])ccc4F)c4ccc([nH]4)c(-c4cc(S(=O)(=O)[O-])ccc4F)c4nc(c(-c5cc(S(=O)(=O)[O-])ccc5F)c5ccc2[nH]5)C=C4)C=C3)cc1
REMARK SMILES IDX 21 1 20 2 2 3 1 4 3 5 4 6 5 7 6 8 19 9 7 10 10 11 8 12 9 13
REMARK SMILES IDX 11 14 12 15 13 16 16 17 14 19 15 20 17 21 18 22 22 24 23 25
REMARK SMILES IDX 24 26 25 27 26 28 27 29 88 30 28 31 87 32 29 33 30 34 31 35
REMARK SMILES IDX 81 36 32 37 86 38 80 39 82 40 33 41 85 42 79 43 78 44 34 46
REMARK SMILES IDX 66 47 46 48 65 49 47 50 50 51 64 52 83 53 48 54 49 55 63 57
REMARK SMILES IDX 84 58 51 59 35 60 36 61 44 62 37 63 43 64 45 65 42 66 38 67
REMARK SMILES IDX 39 68 40 69 41 70 67 71 68 72 76 73 69 74 75 75 77 76 74 77
REMARK SMILES IDX 70 78 71 79 72 80 73 81 52 82 53 83 61 84 54 85 60 86 62 87
REMARK SMILES IDX 59 88 55 89 56 90 57 91 58 92
REMARK H PARENT 12 18 18 23 82 45 50 56
REMARK Flexibility Score: inf
ROOT
ATOM      1  C   UNL A   1      38.230  20.785  25.152  1.00  0.00     0.275 C 
ENDROOT
BRANCH   1   2
ATOM      2  O   UNL A   1      38.392  21.893  26.058  1.00  0.00    -0.459 OA
BRANCH   2   3
ATOM      3  C   UNL A   1      37.951  23.166  25.941  1.00  0.00     0.330 C 
ATOM      4  O   UNL A   1      38.738  24.100  26.072  1.00  0.00    -0.247 OA
BRANCH   3   5
ATOM      5  C   UNL A   1      36.518  23.489  25.805  1.00  0.00     0.094 C 
ATOM      6  C   UNL A   1      35.480  23.057  26.531  1.00  0.00     0.016 C 
BRANCH   6   7
ATOM      7  C   UNL A   1      34.103  23.537  26.370  1.00  0.00    -0.022 A 
ATOM      8  C   UNL A   1      33.021  22.853  26.921  1.00  0.00     0.047 A 
ATOM      9  C   UNL A   1      33.895  24.783  25.743  1.00  0.00     0.018 A 
ATOM     10  C   UNL A   1      31.771  23.451  26.907  1.00  0.00     0.124 A 
ATOM     11  C   UNL A   1      32.625  25.385  25.712  1.00  0.00     0.010 A 
ATOM     12  F   UNL A   1      30.740  22.828  27.490  1.00  0.00    -0.207 F 
ATOM     13  C   UNL A   1      31.576  24.712  26.350  1.00  0.00     0.048 A 
BRANCH  11  14
ATOM     14  C   UNL A   1      32.442  26.775  25.130  1.00  0.00     0.299 C 
BRANCH  14  15
ATOM     15  N   UNL A   1      31.697  26.962  23.882  1.00  0.00    -0.327 N 
ATOM     16  C   UNL A   1      30.340  27.498  24.006  1.00  0.00     0.263 C 
ATOM     17  C   UNL A   1      31.609  25.790  23.002  1.00  0.00     0.210 C 
ATOM     18  H   UNL A   1      32.298  27.668  23.458  1.00  0.00     0.348 HD
ATOM     19  C   UNL A   1      29.397  26.314  23.898  1.00  0.00     0.068 C 
ATOM     20  C   UNL A   1      30.204  25.228  23.210  1.00  0.00     0.073 C 
BRANCH  17  21
ATOM     21  C   UNL A   1      31.837  26.205  21.531  1.00  0.00     0.220 C 
BRANCH  21  22
ATOM     22  O   UNL A   1      33.210  26.487  21.276  1.00  0.00    -0.390 OA
ATOM     23  H   UNL A   1      33.282  27.071  20.504  1.00  0.00     0.210 HD
ENDBRANCH  21  22
ENDBRANCH  17  21
ENDBRANCH  14  15
ENDBRANCH  11  14
ENDBRANCH   6   7
ENDBRANCH   3   5
ENDBRANCH   2   3
ENDBRANCH   1   2
BRANCH   1  24
ATOM     24  C   UNL A   1      39.131  19.570  25.403  1.00  0.00     0.275 C 
BRANCH  24  25
ATOM     25  O   UNL A   1      40.000  19.702  26.537  1.00  0.00    -0.458 OA
BRANCH  25  26
ATOM     26  C   UNL A   1      41.327  19.639  26.242  1.00  0.00     0.338 C 
ATOM     27  O   UNL A   1      41.911  18.680  25.765  1.00  0.00    -0.246 OA
BRANCH  26  28
ATOM     28  C   UNL A   1      41.961  20.960  26.454  1.00  0.00     0.060 A 
ATOM     29  C   UNL A   1      42.335  21.320  27.754  1.00  0.00     0.016 A 
ATOM     30  C   UNL A   1      42.160  21.851  25.401  1.00  0.00     0.016 A 
ATOM     31  C   UNL A   1      42.909  22.573  28.006  1.00  0.00     0.010 A 
ATOM     32  C   UNL A   1      42.716  23.109  25.665  1.00  0.00     0.010 A 
ATOM     33  C   UNL A   1      43.096  23.489  26.962  1.00  0.00    -0.014 A 
BRANCH  33  34
ATOM     34  C   UNL A   1      43.598  24.871  27.215  1.00  0.00     0.031 A 
ATOM     35  C   UNL A   1      42.656  25.920  27.750  1.00  0.00     0.074 A 
ATOM     36  C   UNL A   1      44.874  25.211  26.939  1.00  0.00     0.049 A 
ATOM     37  N   UNL A   1      42.879  27.187  27.997  1.00  0.00    -0.248 NA
ATOM     38  C   UNL A   1      41.275  25.492  28.024  1.00  0.00     0.031 C 
ATOM     39  C   UNL A   1      45.891  24.314  26.391  1.00  0.00     0.029 A 
ATOM     40  N   UNL A   1      45.532  26.411  27.082  1.00  0.00    -0.354 N 
ATOM     41  C   UNL A   1      41.670  27.705  28.448  1.00  0.00     0.074 A 
ATOM     42  C   UNL A   1      40.703  26.630  28.386  1.00  0.00     0.031 C 
ATOM     43  C   UNL A   1      47.047  24.988  26.264  1.00  0.00     0.029 A 
ATOM     44  C   UNL A   1      46.852  26.374  26.690  1.00  0.00     0.049 A 
ATOM     45  H   UNL A   1      45.100  27.223  27.431  1.00  0.00     0.167 HD
ATOM     46  C   UNL A   1      41.391  28.953  28.896  1.00  0.00     0.034 A 
ATOM     47  C   UNL A   1      47.795  27.339  26.668  1.00  0.00     0.034 A 
ATOM     48  C   UNL A   1      42.354  30.021  28.979  1.00  0.00     0.049 A 
ATOM     49  C   UNL A   1      47.456  28.734  27.136  1.00  0.00     0.074 A 
ATOM     50  C   UNL A   1      42.172  31.298  29.483  1.00  0.00     0.029 A 
ATOM     51  N   UNL A   1      43.669  29.948  28.548  1.00  0.00    -0.354 N 
ATOM     52  N   UNL A   1      46.313  29.196  27.586  1.00  0.00    -0.248 NA
ATOM     53  C   UNL A   1      48.531  29.736  27.092  1.00  0.00     0.031 C 
ATOM     54  C   UNL A   1      43.355  32.018  29.291  1.00  0.00     0.029 A 
ATOM     55  C   UNL A   1      44.298  31.167  28.738  1.00  0.00     0.049 A 
ATOM     56  H   UNL A   1      44.092  29.147  28.161  1.00  0.00     0.167 HD
ATOM     57  C   UNL A   1      46.540  30.534  27.902  1.00  0.00     0.074 A 
ATOM     58  C   UNL A   1      47.927  30.808  27.591  1.00  0.00     0.031 C 
ATOM     59  C   UNL A   1      45.678  31.446  28.415  1.00  0.00     0.034 A 
BRANCH  46  60
ATOM     60  C   UNL A   1      39.975  29.241  29.324  1.00  0.00     0.023 A 
ATOM     61  C   UNL A   1      39.606  29.254  30.679  1.00  0.00     0.031 A 
ATOM     62  C   UNL A   1      38.991  29.537  28.364  1.00  0.00     0.131 A 
ATOM     63  C   UNL A   1      38.275  29.511  31.037  1.00  0.00     0.055 A 
ATOM     64  C   UNL A   1      37.683  29.858  28.731  1.00  0.00     0.041 A 
ATOM     65  F   UNL A   1      39.287  29.524  27.055  1.00  0.00    -0.206 F 
ATOM     66  C   UNL A   1      37.317  29.838  30.073  1.00  0.00     0.022 A 
BRANCH  63  67
ATOM     67  S   UNL A   1      37.792  29.333  32.774  1.00  0.00     0.124 S 
ATOM     68  O   UNL A   1      38.929  29.943  33.460  1.00  0.00    -0.237 OA
ATOM     69  O   UNL A   1      36.538  30.076  32.834  1.00  0.00    -0.237 OA
ATOM     70  O   UNL A   1      37.670  27.888  32.951  1.00  0.00    -0.744 OA
ENDBRANCH  63  67
ENDBRANCH  46  60
BRANCH  47  71
ATOM     71  C   UNL A   1      49.165  27.028  26.167  1.00  0.00     0.023 A 
ATOM     72  C   UNL A   1      49.567  27.398  24.873  1.00  0.00     0.031 A 
ATOM     73  C   UNL A   1      50.088  26.345  26.978  1.00  0.00     0.131 A 
ATOM     74  C   UNL A   1      50.854  27.065  24.421  1.00  0.00     0.055 A 
ATOM     75  C   UNL A   1      51.379  26.051  26.539  1.00  0.00     0.041 A 
ATOM     76  F   UNL A   1      49.748  25.969  28.222  1.00  0.00    -0.206 F 
ATOM     77  C   UNL A   1      51.768  26.408  25.250  1.00  0.00     0.022 A 
BRANCH  74  78
ATOM     78  S   UNL A   1      51.321  27.484  22.718  1.00  0.00     0.124 S 
ATOM     79  O   UNL A   1      51.349  28.941  22.768  1.00  0.00    -0.237 OA
ATOM     80  O   UNL A   1      52.613  26.821  22.582  1.00  0.00    -0.237 OA
ATOM     81  O   UNL A   1      50.242  26.906  21.919  1.00  0.00    -0.744 OA
ENDBRANCH  74  78
ENDBRANCH  47  71
BRANCH  59  82
ATOM     82  C   UNL A   1      46.197  32.830  28.712  1.00  0.00     0.023 A 
ATOM     83  C   UNL A   1      45.955  33.912  27.850  1.00  0.00     0.031 A 
ATOM     84  C   UNL A   1      46.879  33.081  29.917  1.00  0.00     0.131 A 
ATOM     85  C   UNL A   1      46.407  35.196  28.198  1.00  0.00     0.055 A 
ATOM     86  C   UNL A   1      47.287  34.365  30.279  1.00  0.00     0.041 A 
ATOM     87  F   UNL A   1      47.132  32.082  30.778  1.00  0.00    -0.206 F 
ATOM     88  C   UNL A   1      47.053  35.431  29.416  1.00  0.00     0.022 A 
BRANCH  85  89
ATOM     89  S   UNL A   1      46.155  36.562  27.030  1.00  0.00     0.124 S 
ATOM     90  O   UNL A   1      46.494  37.723  27.847  1.00  0.00    -0.237 OA
ATOM     91  O   UNL A   1      47.091  36.241  25.959  1.00  0.00    -0.237 OA
ATOM     92  O   UNL A   1      44.742  36.449  26.669  1.00  0.00    -0.744 OA
ENDBRANCH  85  89
ENDBRANCH  59  82
ENDBRANCH  33  34
ENDBRANCH  26  28
ENDBRANCH  25  26
ENDBRANCH  24  25
ENDBRANCH   1  24
TORSDOF 19
ENDMDL
