MODEL 1
REMARK VINA RESULT:     -11.4      0.000      0.000
REMARK SMILES CNC(=O)c1ccc(NC(=O)CC2(CC(=O)OCCOC(=O)c3ccc(-c4c5nc(c(-c6cc(S(=O)(=O)[O-])ccc6F)c6ccc([nH]6)c(-c6cc(S(=O)(=O)[O-])ccc6F)c6nc(c(-c7cc(S(=O)(=O)[O-])ccc7F)c7ccc4[nH]7)C=C6)C=C5)cc3)CCCCC2)cc1Cl
REMARK SMILES IDX 18 1 17 2 15 3 16 4 14 5 13 6 86 7 90 8 87 9 89 10 88 11
REMARK SMILES IDX 12 12 10 13 9 14 11 16 8 17 5 18 6 19 92 20 7 21 91 22 93 23
REMARK SMILES IDX 3 24 1 25 2 26 4 28 19 29 20 30 21 31 22 32 23 33 24 34
REMARK SMILES IDX 85 35 25 36 84 37 26 38 27 39 28 40 78 41 29 42 83 43 77 44
REMARK SMILES IDX 79 45 30 46 82 47 76 48 75 49 31 51 63 52 43 53 62 54 44 55
REMARK SMILES IDX 47 56 61 57 80 58 45 59 46 60 60 62 81 63 48 64 32 65 33 66
REMARK SMILES IDX 41 67 34 68 40 69 42 70 39 71 35 72 36 73 37 74 38 75 64 76
REMARK SMILES IDX 65 77 73 78 66 79 72 80 74 81 71 82 67 83 68 84 69 85 70 86
REMARK SMILES IDX 49 87 50 88 58 89 51 90 57 91 59 92 56 93 52 94 53 95 54 96
REMARK SMILES IDX 55 97
REMARK H PARENT 9 15 2 27 79 50 47 61
REMARK Flexibility Score: inf
ROOT
ATOM      1  C   UNL A   1      31.410  28.459  25.269  1.00  0.00     0.274 C 
ENDROOT
BRANCH   1   2
ATOM      2  O   UNL A   1      32.092  27.531  26.159  1.00  0.00    -0.462 OA
BRANCH   2   3
ATOM      3  C   UNL A   1      33.135  26.839  25.661  1.00  0.00     0.306 C 
ATOM      4  O   UNL A   1      34.272  26.974  26.104  1.00  0.00    -0.252 OA
BRANCH   3   5
ATOM      5  C   UNL A   1      32.797  25.756  24.617  1.00  0.00     0.130 C 
BRANCH   5   6
ATOM      6  C   UNL A   1      31.520  25.485  23.690  1.00  0.00    -0.011 C 
ATOM      7  C   UNL A   1      31.991  24.290  22.756  1.00  0.00     0.008 C 
ATOM      8  C   UNL A   1      31.156  26.594  22.668  1.00  0.00     0.008 C 
ATOM      9  C   UNL A   1      33.132  24.657  21.790  1.00  0.00     0.001 C 
ATOM     10  C   UNL A   1      32.283  27.036  21.750  1.00  0.00     0.001 C 
ATOM     11  C   UNL A   1      32.810  25.874  20.931  1.00  0.00     0.000 C 
BRANCH   6  12
ATOM     12  C   UNL A   1      30.260  24.979  24.495  1.00  0.00     0.108 C 
BRANCH  12  13
ATOM     13  C   UNL A   1      30.310  24.538  25.993  1.00  0.00     0.224 C 
ATOM     14  N   UNL A   1      31.016  23.486  26.532  1.00  0.00    -0.326 N 
ATOM     15  H   UNL A   1      30.843  23.350  27.491  1.00  0.00     0.169 HD
ATOM     16  O   UNL A   1      29.646  25.187  26.816  1.00  0.00    -0.275 OA
BRANCH  14  17
ATOM     17  C   UNL A   1      31.931  22.565  25.995  1.00  0.00     0.042 A 
ATOM     18  C   UNL A   1      33.523  20.364  25.282  1.00  0.00     0.058 A 
ATOM     19  C   UNL A   1      33.792  21.083  26.427  1.00  0.00     0.017 A 
ATOM     20  C   UNL A   1      32.494  20.780  24.437  1.00  0.00     0.055 A 
ATOM     21  C   UNL A   1      33.058  22.225  26.698  1.00  0.00     0.027 A 
ATOM     22  C   UNL A   1      31.683  21.879  24.803  1.00  0.00     0.047 A 
ATOM     23  Cl  UNL A   1      32.160  19.952  22.963  1.00  0.00    -0.083 Cl
BRANCH  18  24
ATOM     24  C   UNL A   1      34.430  19.228  25.076  1.00  0.00     0.252 C 
ATOM     25  C   UNL A   1      32.640  17.580  25.749  1.00  0.00     0.143 C 
ATOM     26  N   UNL A   1      33.926  17.962  25.216  1.00  0.00    -0.355 N 
ATOM     27  H   UNL A   1      34.509  17.227  24.918  1.00  0.00     0.163 HD
ATOM     28  O   UNL A   1      35.555  19.421  24.627  1.00  0.00    -0.269 OA
ENDBRANCH  18  24
ENDBRANCH  14  17
ENDBRANCH  12  13
ENDBRANCH   6  12
ENDBRANCH   5   6
ENDBRANCH   3   5
ENDBRANCH   2   3
ENDBRANCH   1   2
BRANCH   1  29
ATOM     29  C   UNL A   1      32.043  29.849  25.416  1.00  0.00     0.275 C 
BRANCH  29  30
ATOM     30  O   UNL A   1      32.532  29.963  26.757  1.00  0.00    -0.458 OA
BRANCH  30  31
ATOM     31  C   UNL A   1      32.943  31.209  27.088  1.00  0.00     0.338 C 
ATOM     32  O   UNL A   1      32.292  32.243  27.053  1.00  0.00    -0.246 OA
BRANCH  31  33
ATOM     33  C   UNL A   1      34.248  31.056  27.732  1.00  0.00     0.060 A 
ATOM     34  C   UNL A   1      35.026  32.193  27.984  1.00  0.00     0.016 A 
ATOM     35  C   UNL A   1      34.663  29.792  28.130  1.00  0.00     0.016 A 
ATOM     36  C   UNL A   1      36.243  32.068  28.641  1.00  0.00     0.010 A 
ATOM     37  C   UNL A   1      35.873  29.671  28.801  1.00  0.00     0.010 A 
ATOM     38  C   UNL A   1      36.669  30.803  29.055  1.00  0.00    -0.014 A 
BRANCH  38  39
ATOM     39  C   UNL A   1      37.977  30.617  29.718  1.00  0.00     0.031 A 
ATOM     40  C   UNL A   1      38.984  29.716  29.073  1.00  0.00     0.074 A 
ATOM     41  C   UNL A   1      38.205  31.187  30.915  1.00  0.00     0.049 A 
ATOM     42  N   UNL A   1      40.078  29.208  29.569  1.00  0.00    -0.248 NA
ATOM     43  C   UNL A   1      38.698  29.314  27.688  1.00  0.00     0.031 C 
ATOM     44  C   UNL A   1      37.299  32.114  31.594  1.00  0.00     0.029 A 
ATOM     45  N   UNL A   1      39.254  31.044  31.784  1.00  0.00    -0.354 N 
ATOM     46  C   UNL A   1      40.599  28.394  28.569  1.00  0.00     0.074 A 
ATOM     47  C   UNL A   1      39.678  28.456  27.453  1.00  0.00     0.031 C 
ATOM     48  C   UNL A   1      37.827  32.448  32.783  1.00  0.00     0.029 A 
ATOM     49  C   UNL A   1      39.065  31.701  32.977  1.00  0.00     0.049 A 
ATOM     50  H   UNL A   1      40.062  30.522  31.576  1.00  0.00     0.167 HD
ATOM     51  C   UNL A   1      41.740  27.663  28.593  1.00  0.00     0.034 A 
ATOM     52  C   UNL A   1      39.788  31.662  34.113  1.00  0.00     0.034 A 
ATOM     53  C   UNL A   1      42.622  27.625  29.735  1.00  0.00     0.049 A 
ATOM     54  C   UNL A   1      41.013  30.785  34.147  1.00  0.00     0.074 A 
ATOM     55  C   UNL A   1      43.812  26.937  29.887  1.00  0.00     0.029 A 
ATOM     56  N   UNL A   1      42.399  28.300  30.933  1.00  0.00    -0.354 N 
ATOM     57  N   UNL A   1      41.496  30.003  33.207  1.00  0.00    -0.248 NA
ATOM     58  C   UNL A   1      41.793  30.786  35.390  1.00  0.00     0.031 C 
ATOM     59  C   UNL A   1      44.266  27.132  31.195  1.00  0.00     0.029 A 
ATOM     60  C   UNL A   1      43.412  28.018  31.836  1.00  0.00     0.049 A 
ATOM     61  H   UNL A   1      41.634  28.892  31.111  1.00  0.00     0.167 HD
ATOM     62  C   UNL A   1      42.656  29.445  33.734  1.00  0.00     0.074 A 
ATOM     63  C   UNL A   1      42.803  29.991  35.070  1.00  0.00     0.031 C 
ATOM     64  C   UNL A   1      43.527  28.569  33.168  1.00  0.00     0.034 A 
BRANCH  51  65
ATOM     65  C   UNL A   1      42.045  26.812  27.384  1.00  0.00     0.023 A 
ATOM     66  C   UNL A   1      41.716  25.445  27.333  1.00  0.00     0.031 A 
ATOM     67  C   UNL A   1      42.731  27.361  26.285  1.00  0.00     0.131 A 
ATOM     68  C   UNL A   1      42.150  24.659  26.255  1.00  0.00     0.055 A 
ATOM     69  C   UNL A   1      43.079  26.591  25.172  1.00  0.00     0.041 A 
ATOM     70  F   UNL A   1      43.099  28.651  26.283  1.00  0.00    -0.206 F 
ATOM     71  C   UNL A   1      42.804  25.227  25.161  1.00  0.00     0.022 A 
BRANCH  68  72
ATOM     72  S   UNL A   1      41.999  22.855  26.384  1.00  0.00     0.124 S 
ATOM     73  O   UNL A   1      42.563  22.421  25.109  1.00  0.00    -0.237 OA
ATOM     74  O   UNL A   1      42.795  22.556  27.569  1.00  0.00    -0.237 OA
ATOM     75  O   UNL A   1      40.561  22.640  26.526  1.00  0.00    -0.744 OA
ENDBRANCH  68  72
ENDBRANCH  51  65
BRANCH  52  76
ATOM     76  C   UNL A   1      39.352  32.435  35.311  1.00  0.00     0.023 A 
ATOM     77  C   UNL A   1      39.788  33.753  35.516  1.00  0.00     0.031 A 
ATOM     78  C   UNL A   1      38.507  31.865  36.280  1.00  0.00     0.131 A 
ATOM     79  C   UNL A   1      39.410  34.444  36.677  1.00  0.00     0.055 A 
ATOM     80  C   UNL A   1      38.085  32.577  37.405  1.00  0.00     0.041 A 
ATOM     81  F   UNL A   1      38.058  30.608  36.136  1.00  0.00    -0.206 F 
ATOM     82  C   UNL A   1      38.548  33.872  37.614  1.00  0.00     0.022 A 
BRANCH  79  83
ATOM     83  S   UNL A   1      40.128  36.080  36.985  1.00  0.00     0.124 S 
ATOM     84  O   UNL A   1      41.523  35.746  37.250  1.00  0.00    -0.237 OA
ATOM     85  O   UNL A   1      39.861  36.769  35.727  1.00  0.00    -0.237 OA
ATOM     86  O   UNL A   1      39.374  36.572  38.136  1.00  0.00    -0.744 OA
ENDBRANCH  79  83
ENDBRANCH  52  76
BRANCH  64  87
ATOM     87  C   UNL A   1      44.744  28.197  33.980  1.00  0.00     0.023 A 
ATOM     88  C   UNL A   1      44.719  27.157  34.924  1.00  0.00     0.031 A 
ATOM     89  C   UNL A   1      45.946  28.907  33.807  1.00  0.00     0.131 A 
ATOM     90  C   UNL A   1      45.856  26.895  35.702  1.00  0.00     0.055 A 
ATOM     91  C   UNL A   1      47.095  28.594  34.533  1.00  0.00     0.041 A 
ATOM     92  F   UNL A   1      46.025  29.915  32.923  1.00  0.00    -0.206 F 
ATOM     93  C   UNL A   1      47.050  27.592  35.497  1.00  0.00     0.022 A 
BRANCH  90  94
ATOM     94  S   UNL A   1      45.722  25.701  37.061  1.00  0.00     0.124 S 
ATOM     95  O   UNL A   1      45.524  24.447  36.341  1.00  0.00    -0.237 OA
ATOM     96  O   UNL A   1      47.005  25.852  37.738  1.00  0.00    -0.237 OA
ATOM     97  O   UNL A   1      44.563  26.173  37.817  1.00  0.00    -0.744 OA
ENDBRANCH  90  94
ENDBRANCH  64  87
ENDBRANCH  38  39
ENDBRANCH  31  33
ENDBRANCH  30  31
ENDBRANCH  29  30
ENDBRANCH   1  29
TORSDOF 19
ENDMDL
MODEL 2
REMARK VINA RESULT:     -11.0      5.617     10.278
REMARK SMILES CNC(=O)c1ccc(NC(=O)CC2(CC(=O)OCCOC(=O)c3ccc(-c4c5nc(c(-c6cc(S(=O)(=O)[O-])ccc6F)c6ccc([nH]6)c(-c6cc(S(=O)(=O)[O-])ccc6F)c6nc(c(-c7cc(S(=O)(=O)[O-])ccc7F)c7ccc4[nH]7)C=C6)C=C5)cc3)CCCCC2)cc1Cl
REMARK SMILES IDX 18 1 17 2 15 3 16 4 14 5 13 6 86 7 90 8 87 9 89 10 88 11
REMARK SMILES IDX 12 12 10 13 9 14 11 16 8 17 5 18 6 19 92 20 7 21 91 22 93 23
REMARK SMILES IDX 3 24 1 25 2 26 4 28 19 29 20 30 21 31 22 32 23 33 24 34
REMARK SMILES IDX 85 35 25 36 84 37 26 38 27 39 28 40 78 41 29 42 83 43 77 44
REMARK SMILES IDX 79 45 30 46 82 47 76 48 75 49 31 51 63 52 43 53 62 54 44 55
REMARK SMILES IDX 47 56 61 57 80 58 45 59 46 60 60 62 81 63 48 64 32 65 33 66
REMARK SMILES IDX 41 67 34 68 40 69 42 70 39 71 35 72 36 73 37 74 38 75 64 76
REMARK SMILES IDX 65 77 73 78 66 79 72 80 74 81 71 82 67 83 68 84 69 85 70 86
REMARK SMILES IDX 49 87 50 88 58 89 51 90 57 91 59 92 56 93 52 94 53 95 54 96
REMARK SMILES IDX 55 97
REMARK H PARENT 9 15 2 27 79 50 47 61
REMARK Flexibility Score: inf
ROOT
ATOM      1  C   UNL A   1      40.683  20.100  27.079  1.00  0.00     0.274 C 
ENDROOT
BRANCH   1   2
ATOM      2  O   UNL A   1      41.971  20.738  27.309  1.00  0.00    -0.462 OA
BRANCH   2   3
ATOM      3  C   UNL A   1      42.728  21.027  26.233  1.00  0.00     0.306 C 
ATOM      4  O   UNL A   1      42.964  20.191  25.364  1.00  0.00    -0.252 OA
BRANCH   3   5
ATOM      5  C   UNL A   1      43.147  22.501  26.072  1.00  0.00     0.130 C 
BRANCH   5   6
ATOM      6  C   UNL A   1      44.438  23.332  26.529  1.00  0.00    -0.011 C 
ATOM      7  C   UNL A   1      44.681  24.329  25.318  1.00  0.00     0.008 C 
ATOM      8  C   UNL A   1      45.776  22.551  26.603  1.00  0.00     0.008 C 
ATOM      9  C   UNL A   1      45.081  23.637  24.002  1.00  0.00     0.001 C 
ATOM     10  C   UNL A   1      46.164  21.791  25.345  1.00  0.00     0.001 C 
ATOM     11  C   UNL A   1      46.293  22.726  24.158  1.00  0.00     0.000 C 
BRANCH   6  12
ATOM     12  C   UNL A   1      44.190  24.212  27.816  1.00  0.00     0.108 C 
BRANCH  12  13
ATOM     13  C   UNL A   1      45.271  24.464  28.914  1.00  0.00     0.224 C 
ATOM     14  N   UNL A   1      46.513  25.035  28.750  1.00  0.00    -0.326 N 
ATOM     15  H   UNL A   1      47.057  25.030  29.570  1.00  0.00     0.169 HD
ATOM     16  O   UNL A   1      45.014  24.118  30.078  1.00  0.00    -0.275 OA
BRANCH  14  17
ATOM     17  C   UNL A   1      47.165  25.623  27.654  1.00  0.00     0.042 A 
ATOM     18  C   UNL A   1      48.210  26.401  25.165  1.00  0.00     0.058 A 
ATOM     19  C   UNL A   1      48.741  25.325  25.844  1.00  0.00     0.017 A 
ATOM     20  C   UNL A   1      47.192  27.149  25.756  1.00  0.00     0.055 A 
ATOM     21  C   UNL A   1      48.278  25.030  27.115  1.00  0.00     0.027 A 
ATOM     22  C   UNL A   1      46.656  26.750  27.002  1.00  0.00     0.047 A 
ATOM     23  Cl  UNL A   1      46.540  28.540  24.976  1.00  0.00    -0.083 Cl
BRANCH  18  24
ATOM     24  C   UNL A   1      48.851  26.650  23.868  1.00  0.00     0.252 C 
ATOM     25  C   UNL A   1      50.675  28.020  24.947  1.00  0.00     0.143 C 
ATOM     26  N   UNL A   1      50.043  27.326  23.852  1.00  0.00    -0.355 N 
ATOM     27  H   UNL A   1      50.524  27.338  22.993  1.00  0.00     0.163 HD
ATOM     28  O   UNL A   1      48.406  26.117  22.858  1.00  0.00    -0.269 OA
ENDBRANCH  18  24
ENDBRANCH  14  17
ENDBRANCH  12  13
ENDBRANCH   6  12
ENDBRANCH   5   6
ENDBRANCH   3   5
ENDBRANCH   2   3
ENDBRANCH   1   2
BRANCH   1  29
ATOM     29  C   UNL A   1      39.793  21.049  26.267  1.00  0.00     0.275 C 
BRANCH  29  30
ATOM     30  O   UNL A   1      39.829  22.331  26.905  1.00  0.00    -0.458 OA
BRANCH  30  31
ATOM     31  C   UNL A   1      38.975  23.235  26.372  1.00  0.00     0.338 C 
ATOM     32  O   UNL A   1      37.962  23.012  25.727  1.00  0.00    -0.246 OA
BRANCH  31  33
ATOM     33  C   UNL A   1      39.359  24.536  26.918  1.00  0.00     0.060 A 
ATOM     34  C   UNL A   1      39.127  24.807  28.272  1.00  0.00     0.016 A 
ATOM     35  C   UNL A   1      39.999  25.455  26.096  1.00  0.00     0.016 A 
ATOM     36  C   UNL A   1      39.533  26.019  28.817  1.00  0.00     0.010 A 
ATOM     37  C   UNL A   1      40.419  26.660  26.646  1.00  0.00     0.010 A 
ATOM     38  C   UNL A   1      40.185  26.949  28.003  1.00  0.00    -0.014 A 
BRANCH  38  39
ATOM     39  C   UNL A   1      40.596  28.268  28.528  1.00  0.00     0.031 A 
ATOM     40  C   UNL A   1      42.057  28.545  28.704  1.00  0.00     0.074 A 
ATOM     41  C   UNL A   1      39.659  29.153  28.913  1.00  0.00     0.049 A 
ATOM     42  N   UNL A   1      42.644  29.505  29.362  1.00  0.00    -0.248 NA
ATOM     43  C   UNL A   1      42.976  27.587  28.072  1.00  0.00     0.031 C 
ATOM     44  C   UNL A   1      38.216  28.986  28.736  1.00  0.00     0.029 A 
ATOM     45  N   UNL A   1      39.782  30.355  29.559  1.00  0.00    -0.354 N 
ATOM     46  C   UNL A   1      44.008  29.252  29.255  1.00  0.00     0.074 A 
ATOM     47  C   UNL A   1      44.151  28.028  28.495  1.00  0.00     0.031 C 
ATOM     48  C   UNL A   1      37.585  30.041  29.275  1.00  0.00     0.029 A 
ATOM     49  C   UNL A   1      38.573  30.917  29.896  1.00  0.00     0.049 A 
ATOM     50  H   UNL A   1      40.648  30.774  29.762  1.00  0.00     0.167 HD
ATOM     51  C   UNL A   1      45.036  29.980  29.754  1.00  0.00     0.034 A 
ATOM     52  C   UNL A   1      38.298  31.990  30.662  1.00  0.00     0.034 A 
ATOM     53  C   UNL A   1      44.843  31.190  30.516  1.00  0.00     0.049 A 
ATOM     54  C   UNL A   1      39.453  32.744  31.271  1.00  0.00     0.074 A 
ATOM     55  C   UNL A   1      45.796  32.026  31.068  1.00  0.00     0.029 A 
ATOM     56  N   UNL A   1      43.602  31.731  30.845  1.00  0.00    -0.354 N 
ATOM     57  N   UNL A   1      40.741  32.495  31.183  1.00  0.00    -0.248 NA
ATOM     58  C   UNL A   1      39.120  33.924  32.077  1.00  0.00     0.031 C 
ATOM     59  C   UNL A   1      45.134  33.024  31.792  1.00  0.00     0.029 A 
ATOM     60  C   UNL A   1      43.768  32.870  31.618  1.00  0.00     0.049 A 
ATOM     61  H   UNL A   1      42.735  31.359  30.568  1.00  0.00     0.167 HD
ATOM     62  C   UNL A   1      41.374  33.507  31.895  1.00  0.00     0.074 A 
ATOM     63  C   UNL A   1      40.325  34.375  32.396  1.00  0.00     0.031 C 
ATOM     64  C   UNL A   1      42.700  33.711  32.113  1.00  0.00     0.034 A 
BRANCH  51  65
ATOM     65  C   UNL A   1      46.432  29.444  29.543  1.00  0.00     0.023 A 
ATOM     66  C   UNL A   1      46.939  28.368  30.294  1.00  0.00     0.031 A 
ATOM     67  C   UNL A   1      47.294  30.057  28.615  1.00  0.00     0.131 A 
ATOM     68  C   UNL A   1      48.287  28.000  30.171  1.00  0.00     0.055 A 
ATOM     69  C   UNL A   1      48.610  29.625  28.431  1.00  0.00     0.041 A 
ATOM     70  F   UNL A   1      46.882  31.106  27.887  1.00  0.00    -0.206 F 
ATOM     71  C   UNL A   1      49.119  28.601  29.225  1.00  0.00     0.022 A 
BRANCH  68  72
ATOM     72  S   UNL A   1      48.982  26.843  31.384  1.00  0.00     0.124 S 
ATOM     73  O   UNL A   1      48.991  27.659  32.596  1.00  0.00    -0.237 OA
ATOM     74  O   UNL A   1      48.022  25.746  31.360  1.00  0.00    -0.237 OA
ATOM     75  O   UNL A   1      50.303  26.531  30.843  1.00  0.00    -0.744 OA
ENDBRANCH  68  72
ENDBRANCH  51  65
BRANCH  52  76
ATOM     76  C   UNL A   1      36.885  32.385  30.929  1.00  0.00     0.023 A 
ATOM     77  C   UNL A   1      36.097  32.967  29.924  1.00  0.00     0.031 A 
ATOM     78  C   UNL A   1      36.303  32.203  32.197  1.00  0.00     0.131 A 
ATOM     79  C   UNL A   1      34.788  33.380  30.212  1.00  0.00     0.055 A 
ATOM     80  C   UNL A   1      34.981  32.562  32.462  1.00  0.00     0.041 A 
ATOM     81  F   UNL A   1      37.010  31.650  33.196  1.00  0.00    -0.206 F 
ATOM     82  C   UNL A   1      34.218  33.166  31.468  1.00  0.00     0.022 A 
BRANCH  79  83
ATOM     83  S   UNL A   1      33.863  34.279  28.937  1.00  0.00     0.124 S 
ATOM     84  O   UNL A   1      33.533  33.210  28.001  1.00  0.00    -0.237 OA
ATOM     85  O   UNL A   1      32.749  34.828  29.703  1.00  0.00    -0.237 OA
ATOM     86  O   UNL A   1      34.825  35.263  28.448  1.00  0.00    -0.744 OA
ENDBRANCH  79  83
ENDBRANCH  52  76
BRANCH  64  87
ATOM     87  C   UNL A   1      43.082  34.953  32.880  1.00  0.00     0.023 A 
ATOM     88  C   UNL A   1      43.318  36.180  32.238  1.00  0.00     0.031 A 
ATOM     89  C   UNL A   1      43.219  34.900  34.279  1.00  0.00     0.131 A 
ATOM     90  C   UNL A   1      43.737  37.290  32.988  1.00  0.00     0.055 A 
ATOM     91  C   UNL A   1      43.566  36.025  35.026  1.00  0.00     0.041 A 
ATOM     92  F   UNL A   1      43.011  33.751  34.943  1.00  0.00    -0.206 F 
ATOM     93  C   UNL A   1      43.841  37.226  34.380  1.00  0.00     0.022 A 
BRANCH  90  94
ATOM     94  S   UNL A   1      44.248  38.790  32.107  1.00  0.00     0.124 S 
ATOM     95  O   UNL A   1      45.639  38.927  32.527  1.00  0.00    -0.237 OA
ATOM     96  O   UNL A   1      44.036  38.422  30.711  1.00  0.00    -0.237 OA
ATOM     97  O   UNL A   1      43.342  39.815  32.623  1.00  0.00    -0.744 OA
ENDBRANCH  90  94
ENDBRANCH  64  87
ENDBRANCH  38  39
ENDBRANCH  31  33
ENDBRANCH  30  31
ENDBRANCH  29  30
ENDBRANCH   1  29
TORSDOF 19
ENDMDL
MODEL 3
REMARK VINA RESULT:     -10.9      8.385     10.200
REMARK SMILES CNC(=O)c1ccc(NC(=O)CC2(CC(=O)OCCOC(=O)c3ccc(-c4c5nc(c(-c6cc(S(=O)(=O)[O-])ccc6F)c6ccc([nH]6)c(-c6cc(S(=O)(=O)[O-])ccc6F)c6nc(c(-c7cc(S(=O)(=O)[O-])ccc7F)c7ccc4[nH]7)C=C6)C=C5)cc3)CCCCC2)cc1Cl
REMARK SMILES IDX 18 1 17 2 15 3 16 4 14 5 13 6 86 7 90 8 87 9 89 10 88 11
REMARK SMILES IDX 12 12 10 13 9 14 11 16 8 17 5 18 6 19 92 20 7 21 91 22 93 23
REMARK SMILES IDX 3 24 1 25 2 26 4 28 19 29 20 30 21 31 22 32 23 33 24 34
REMARK SMILES IDX 85 35 25 36 84 37 26 38 27 39 28 40 78 41 29 42 83 43 77 44
REMARK SMILES IDX 79 45 30 46 82 47 76 48 75 49 31 51 63 52 43 53 62 54 44 55
REMARK SMILES IDX 47 56 61 57 80 58 45 59 46 60 60 62 81 63 48 64 32 65 33 66
REMARK SMILES IDX 41 67 34 68 40 69 42 70 39 71 35 72 36 73 37 74 38 75 64 76
REMARK SMILES IDX 65 77 73 78 66 79 72 80 74 81 71 82 67 83 68 84 69 85 70 86
REMARK SMILES IDX 49 87 50 88 58 89 51 90 57 91 59 92 56 93 52 94 53 95 54 96
REMARK SMILES IDX 55 97
REMARK H PARENT 9 15 2 27 79 50 47 61
REMARK Flexibility Score: inf
ROOT
ATOM      1  C   UNL A   1      35.337  31.961  31.235  1.00  0.00     0.274 C 
ENDROOT
BRANCH   1   2
ATOM      2  O   UNL A   1      36.314  31.292  32.080  1.00  0.00    -0.462 OA
BRANCH   2   3
ATOM      3  C   UNL A   1      36.677  30.038  31.745  1.00  0.00     0.306 C 
ATOM      4  O   UNL A   1      36.997  29.208  32.592  1.00  0.00    -0.252 OA
BRANCH   3   5
ATOM      5  C   UNL A   1      36.517  29.657  30.260  1.00  0.00     0.130 C 
BRANCH   5   6
ATOM      6  C   UNL A   1      37.354  30.006  28.940  1.00  0.00    -0.011 C 
ATOM      7  C   UNL A   1      38.286  28.735  28.749  1.00  0.00     0.008 C 
ATOM      8  C   UNL A   1      38.376  31.167  29.052  1.00  0.00     0.008 C 
ATOM      9  C   UNL A   1      39.333  28.548  29.864  1.00  0.00     0.001 C 
ATOM     10  C   UNL A   1      39.376  31.054  30.190  1.00  0.00     0.001 C 
ATOM     11  C   UNL A   1      40.198  29.785  30.074  1.00  0.00     0.000 C 
BRANCH   6  12
ATOM     12  C   UNL A   1      36.457  30.124  27.646  1.00  0.00     0.108 C 
BRANCH  12  13
ATOM     13  C   UNL A   1      35.143  30.966  27.577  1.00  0.00     0.224 C 
ATOM     14  N   UNL A   1      33.866  30.507  27.345  1.00  0.00    -0.326 N 
ATOM     15  H   UNL A   1      33.199  31.227  27.275  1.00  0.00     0.169 HD
ATOM     16  O   UNL A   1      35.226  32.194  27.744  1.00  0.00    -0.275 OA
BRANCH  14  17
ATOM     17  C   UNL A   1      33.319  29.223  27.186  1.00  0.00     0.042 A 
ATOM     18  C   UNL A   1      31.937  26.892  26.447  1.00  0.00     0.058 A 
ATOM     19  C   UNL A   1      31.318  27.865  27.203  1.00  0.00     0.017 A 
ATOM     20  C   UNL A   1      33.282  27.039  26.110  1.00  0.00     0.055 A 
ATOM     21  C   UNL A   1      32.054  28.952  27.641  1.00  0.00     0.027 A 
ATOM     22  C   UNL A   1      33.974  28.219  26.469  1.00  0.00     0.047 A 
ATOM     23  Cl  UNL A   1      34.118  25.821  25.221  1.00  0.00    -0.083 Cl
BRANCH  18  24
ATOM     24  C   UNL A   1      31.064  25.757  26.123  1.00  0.00     0.252 C 
ATOM     25  C   UNL A   1      30.415  26.791  23.914  1.00  0.00     0.143 C 
ATOM     26  N   UNL A   1      30.466  25.730  24.890  1.00  0.00    -0.355 N 
ATOM     27  H   UNL A   1      30.020  24.888  24.642  1.00  0.00     0.163 HD
ATOM     28  O   UNL A   1      31.018  24.791  26.876  1.00  0.00    -0.269 OA
ENDBRANCH  18  24
ENDBRANCH  14  17
ENDBRANCH  12  13
ENDBRANCH   6  12
ENDBRANCH   5   6
ENDBRANCH   3   5
ENDBRANCH   2   3
ENDBRANCH   1   2
BRANCH   1  29
ATOM     29  C   UNL A   1      35.597  33.472  31.270  1.00  0.00     0.275 C 
BRANCH  29  30
ATOM     30  O   UNL A   1      36.907  33.700  30.739  1.00  0.00    -0.458 OA
BRANCH  30  31
ATOM     31  C   UNL A   1      37.741  34.343  31.588  1.00  0.00     0.338 C 
ATOM     32  O   UNL A   1      37.575  34.551  32.781  1.00  0.00    -0.246 OA
BRANCH  31  33
ATOM     33  C   UNL A   1      38.998  34.536  30.865  1.00  0.00     0.060 A 
ATOM     34  C   UNL A   1      40.210  34.465  31.564  1.00  0.00     0.016 A 
ATOM     35  C   UNL A   1      38.966  34.730  29.490  1.00  0.00     0.016 A 
ATOM     36  C   UNL A   1      41.412  34.594  30.882  1.00  0.00     0.010 A 
ATOM     37  C   UNL A   1      40.171  34.843  28.807  1.00  0.00     0.010 A 
ATOM     38  C   UNL A   1      41.396  34.781  29.497  1.00  0.00    -0.014 A 
BRANCH  38  39
ATOM     39  C   UNL A   1      42.649  34.967  28.736  1.00  0.00     0.031 A 
ATOM     40  C   UNL A   1      43.567  33.796  28.571  1.00  0.00     0.074 A 
ATOM     41  C   UNL A   1      42.978  36.190  28.283  1.00  0.00     0.049 A 
ATOM     42  N   UNL A   1      44.808  33.766  28.172  1.00  0.00    -0.248 NA
ATOM     43  C   UNL A   1      43.012  32.484  28.936  1.00  0.00     0.031 C 
ATOM     44  C   UNL A   1      42.124  37.377  28.359  1.00  0.00     0.029 A 
ATOM     45  N   UNL A   1      44.131  36.642  27.698  1.00  0.00    -0.354 N 
ATOM     46  C   UNL A   1      45.200  32.435  28.268  1.00  0.00     0.074 A 
ATOM     47  C   UNL A   1      44.069  31.700  28.796  1.00  0.00     0.031 C 
ATOM     48  C   UNL A   1      42.789  38.426  27.851  1.00  0.00     0.029 A 
ATOM     49  C   UNL A   1      44.136  38.001  27.485  1.00  0.00     0.049 A 
ATOM     50  H   UNL A   1      44.881  36.054  27.454  1.00  0.00     0.167 HD
ATOM     51  C   UNL A   1      46.398  31.890  27.947  1.00  0.00     0.034 A 
ATOM     52  C   UNL A   1      45.134  38.813  27.087  1.00  0.00     0.034 A 
ATOM     53  C   UNL A   1      47.500  32.667  27.434  1.00  0.00     0.049 A 
ATOM     54  C   UNL A   1      46.482  38.199  26.806  1.00  0.00     0.074 A 
ATOM     55  C   UNL A   1      48.761  32.238  27.059  1.00  0.00     0.029 A 
ATOM     56  N   UNL A   1      47.475  34.045  27.234  1.00  0.00    -0.354 N 
ATOM     57  N   UNL A   1      46.856  36.944  26.913  1.00  0.00    -0.248 NA
ATOM     58  C   UNL A   1      47.539  39.107  26.348  1.00  0.00     0.031 C 
ATOM     59  C   UNL A   1      49.518  33.361  26.709  1.00  0.00     0.029 A 
ATOM     60  C   UNL A   1      48.707  34.484  26.773  1.00  0.00     0.049 A 
ATOM     61  H   UNL A   1      46.696  34.623  27.396  1.00  0.00     0.167 HD
ATOM     62  C   UNL A   1      48.185  36.906  26.502  1.00  0.00     0.074 A 
ATOM     63  C   UNL A   1      48.539  38.264  26.137  1.00  0.00     0.031 C 
ATOM     64  C   UNL A   1      49.035  35.849  26.426  1.00  0.00     0.034 A 
BRANCH  51  65
ATOM     65  C   UNL A   1      46.581  30.414  28.207  1.00  0.00     0.023 A 
ATOM     66  C   UNL A   1      46.197  29.439  27.269  1.00  0.00     0.031 A 
ATOM     67  C   UNL A   1      47.094  29.968  29.439  1.00  0.00     0.131 A 
ATOM     68  C   UNL A   1      46.246  28.079  27.609  1.00  0.00     0.055 A 
ATOM     69  C   UNL A   1      47.227  28.610  29.736  1.00  0.00     0.041 A 
ATOM     70  F   UNL A   1      47.452  30.846  30.389  1.00  0.00    -0.206 F 
ATOM     71  C   UNL A   1      46.784  27.656  28.826  1.00  0.00     0.022 A 
BRANCH  68  72
ATOM     72  S   UNL A   1      45.436  26.882  26.511  1.00  0.00     0.124 S 
ATOM     73  O   UNL A   1      44.986  25.869  27.462  1.00  0.00    -0.237 OA
ATOM     74  O   UNL A   1      44.389  27.684  25.888  1.00  0.00    -0.237 OA
ATOM     75  O   UNL A   1      46.511  26.454  25.619  1.00  0.00    -0.744 OA
ENDBRANCH  68  72
ENDBRANCH  51  65
BRANCH  52  76
ATOM     76  C   UNL A   1      44.911  40.283  26.974  1.00  0.00     0.023 A 
ATOM     77  C   UNL A   1      44.492  40.858  25.764  1.00  0.00     0.031 A 
ATOM     78  C   UNL A   1      45.128  41.141  28.067  1.00  0.00     0.131 A 
ATOM     79  C   UNL A   1      44.340  42.248  25.664  1.00  0.00     0.055 A 
ATOM     80  C   UNL A   1      44.920  42.519  27.980  1.00  0.00     0.041 A 
ATOM     81  F   UNL A   1      45.529  40.646  29.250  1.00  0.00    -0.206 F 
ATOM     82  C   UNL A   1      44.534  43.081  26.768  1.00  0.00     0.022 A 
BRANCH  79  83
ATOM     83  S   UNL A   1      43.961  42.965  24.042  1.00  0.00     0.124 S 
ATOM     84  O   UNL A   1      42.509  42.836  23.992  1.00  0.00    -0.237 OA
ATOM     85  O   UNL A   1      44.481  44.321  24.183  1.00  0.00    -0.237 OA
ATOM     86  O   UNL A   1      44.697  42.111  23.112  1.00  0.00    -0.744 OA
ENDBRANCH  79  83
ENDBRANCH  52  76
BRANCH  64  87
ATOM     87  C   UNL A   1      50.412  36.121  25.871  1.00  0.00     0.023 A 
ATOM     88  C   UNL A   1      51.542  36.219  26.700  1.00  0.00     0.031 A 
ATOM     89  C   UNL A   1      50.589  36.292  24.486  1.00  0.00     0.131 A 
ATOM     90  C   UNL A   1      52.789  36.541  26.143  1.00  0.00     0.055 A 
ATOM     91  C   UNL A   1      51.844  36.541  23.931  1.00  0.00     0.041 A 
ATOM     92  F   UNL A   1      49.543  36.215  23.648  1.00  0.00    -0.206 F 
ATOM     93  C   UNL A   1      52.951  36.680  24.762  1.00  0.00     0.022 A 
BRANCH  90  94
ATOM     94  S   UNL A   1      54.177  36.881  27.260  1.00  0.00     0.124 S 
ATOM     95  O   UNL A   1      54.239  35.652  28.046  1.00  0.00    -0.237 OA
ATOM     96  O   UNL A   1      55.280  37.100  26.332  1.00  0.00    -0.237 OA
ATOM     97  O   UNL A   1      53.740  38.066  27.997  1.00  0.00    -0.744 OA
ENDBRANCH  90  94
ENDBRANCH  64  87
ENDBRANCH  38  39
ENDBRANCH  31  33
ENDBRANCH  30  31
ENDBRANCH  29  30
ENDBRANCH   1  29
TORSDOF 19
ENDMDL
