MODEL 1
REMARK VINA RESULT:     -11.5      0.000      0.000
REMARK SMILES Cc1cc(C)cc(C[N@@H+]2CCO[C@@H](CC(=O)OCCOC(=O)c3ccc(-c4c5nc(c(-c6cc(S(=O)(=O)[O-])ccc6F)c6ccc([nH]6)c(-c6cc(S(=O)(=O)[O-])ccc6F)c6nc(c(-c7cc(S(=O)(=O)[O-])ccc7F)c7ccc4[nH]7)C=C6)C=C5)cc3)C2)c1
REMARK SMILES IDX 18 1 17 2 15 3 16 4 14 5 13 6 9 7 10 8 86 9 11 11 12 12 8 13
REMARK SMILES IDX 7 14 1 15 2 16 3 17 87 18 4 19 5 20 6 21 19 22 20 23 21 24
REMARK SMILES IDX 22 25 23 26 24 27 85 28 25 29 84 30 26 31 27 32 28 33 78 34
REMARK SMILES IDX 29 35 83 36 77 37 79 38 30 39 82 40 76 41 75 42 31 44 63 45
REMARK SMILES IDX 43 46 62 47 44 48 47 49 61 50 80 51 45 52 46 53 60 55 81 56
REMARK SMILES IDX 48 57 32 58 33 59 41 60 34 61 40 62 42 63 39 64 35 65 36 66
REMARK SMILES IDX 37 67 38 68 64 69 65 70 73 71 66 72 72 73 74 74 71 75 67 76
REMARK SMILES IDX 68 77 69 78 70 79 49 80 50 81 58 82 51 83 57 84 59 85 56 86
REMARK SMILES IDX 52 87 53 88 54 89 55 90
REMARK H PARENT 9 10 79 43 47 54
REMARK Flexibility Score: inf
ROOT
ATOM      1  C   UNL A   1      31.106  29.205  24.866  1.00  0.00     0.274 C 
ENDROOT
BRANCH   1   2
ATOM      2  O   UNL A   1      30.183  29.517  23.803  1.00  0.00    -0.462 OA
BRANCH   2   3
ATOM      3  C   UNL A   1      29.953  28.527  22.899  1.00  0.00     0.308 C 
ATOM      4  O   UNL A   1      30.271  28.579  21.718  1.00  0.00    -0.252 OA
BRANCH   3   5
ATOM      5  C   UNL A   1      29.145  27.402  23.482  1.00  0.00     0.160 C 
BRANCH   5   6
ATOM      6  C   UNL A   1      29.859  26.092  23.818  1.00  0.00     0.184 C 
ATOM      7  N   UNL A   1      32.172  24.975  23.919  1.00  0.00    -0.327 N 
ATOM      8  C   UNL A   1      31.932  24.833  25.355  1.00  0.00     0.291 C 
ATOM      9  C   UNL A   1      31.325  26.019  23.315  1.00  0.00     0.295 C 
ATOM     10  H   UNL A   1      33.124  25.333  23.841  1.00  0.00     0.348 HD
ATOM     11  C   UNL A   1      30.457  24.887  25.773  1.00  0.00     0.222 C 
ATOM     12  O   UNL A   1      29.830  26.064  25.268  1.00  0.00    -0.366 OA
BRANCH   7  13
ATOM     13  C   UNL A   1      32.341  23.735  23.154  1.00  0.00     0.299 C 
BRANCH  13  14
ATOM     14  C   UNL A   1      33.283  22.678  23.681  1.00  0.00     0.007 A 
ATOM     15  C   UNL A   1      33.102  19.150  25.130  1.00  0.00     0.044 C 
ATOM     16  C   UNL A   1      33.637  20.467  24.655  1.00  0.00    -0.050 A 
ATOM     17  C   UNL A   1      35.005  20.732  24.753  1.00  0.00     0.006 A 
ATOM     18  C   UNL A   1      32.786  21.446  24.127  1.00  0.00     0.013 A 
ATOM     19  C   UNL A   1      35.531  21.935  24.276  1.00  0.00    -0.050 A 
ATOM     20  C   UNL A   1      36.991  22.233  24.449  1.00  0.00     0.044 C 
ATOM     21  C   UNL A   1      34.670  22.876  23.700  1.00  0.00     0.013 A 
ENDBRANCH  13  14
ENDBRANCH   7  13
ENDBRANCH   5   6
ENDBRANCH   3   5
ENDBRANCH   2   3
ENDBRANCH   1   2
BRANCH   1  22
ATOM     22  C   UNL A   1      31.590  30.450  25.622  1.00  0.00     0.275 C 
BRANCH  22  23
ATOM     23  O   UNL A   1      32.910  30.287  26.177  1.00  0.00    -0.458 OA
BRANCH  23  24
ATOM     24  C   UNL A   1      33.286  31.285  27.009  1.00  0.00     0.338 C 
ATOM     25  O   UNL A   1      32.630  32.290  27.251  1.00  0.00    -0.246 OA
BRANCH  24  26
ATOM     26  C   UNL A   1      34.557  30.995  27.690  1.00  0.00     0.060 A 
ATOM     27  C   UNL A   1      34.776  29.686  28.136  1.00  0.00     0.016 A 
ATOM     28  C   UNL A   1      35.476  32.006  27.983  1.00  0.00     0.016 A 
ATOM     29  C   UNL A   1      35.914  29.382  28.878  1.00  0.00     0.010 A 
ATOM     30  C   UNL A   1      36.617  31.699  28.732  1.00  0.00     0.010 A 
ATOM     31  C   UNL A   1      36.840  30.387  29.186  1.00  0.00    -0.014 A 
BRANCH  31  32
ATOM     32  C   UNL A   1      38.066  30.052  29.948  1.00  0.00     0.031 A 
ATOM     33  C   UNL A   1      39.079  29.095  29.393  1.00  0.00     0.074 A 
ATOM     34  C   UNL A   1      38.255  30.626  31.149  1.00  0.00     0.049 A 
ATOM     35  N   UNL A   1      40.184  28.653  29.934  1.00  0.00    -0.248 NA
ATOM     36  C   UNL A   1      38.815  28.569  28.048  1.00  0.00     0.031 C 
ATOM     37  C   UNL A   1      37.353  31.601  31.765  1.00  0.00     0.029 A 
ATOM     38  N   UNL A   1      39.258  30.468  32.071  1.00  0.00    -0.354 N 
ATOM     39  C   UNL A   1      40.756  27.801  28.996  1.00  0.00     0.074 A 
ATOM     40  C   UNL A   1      39.856  27.769  27.861  1.00  0.00     0.031 C 
ATOM     41  C   UNL A   1      37.834  31.940  32.970  1.00  0.00     0.029 A 
ATOM     42  C   UNL A   1      39.053  31.180  33.229  1.00  0.00     0.049 A 
ATOM     43  H   UNL A   1      40.048  29.901  31.918  1.00  0.00     0.167 HD
ATOM     44  C   UNL A   1      41.924  27.116  29.077  1.00  0.00     0.034 A 
ATOM     45  C   UNL A   1      39.752  31.191  34.380  1.00  0.00     0.034 A 
ATOM     46  C   UNL A   1      42.790  27.140  30.233  1.00  0.00     0.049 A 
ATOM     47  C   UNL A   1      40.994  30.346  34.484  1.00  0.00     0.074 A 
ATOM     48  C   UNL A   1      44.000  26.493  30.419  1.00  0.00     0.029 A 
ATOM     49  N   UNL A   1      42.529  27.833  31.408  1.00  0.00    -0.354 N 
ATOM     50  N   UNL A   1      41.530  29.552  33.586  1.00  0.00    -0.248 NA
ATOM     51  C   UNL A   1      41.728  30.402  35.754  1.00  0.00     0.031 C 
ATOM     52  C   UNL A   1      44.435  26.740  31.727  1.00  0.00     0.029 A 
ATOM     53  C   UNL A   1      43.534  27.600  32.336  1.00  0.00     0.049 A 
ATOM     54  H   UNL A   1      41.743  28.407  31.561  1.00  0.00     0.167 HD
ATOM     55  C   UNL A   1      42.680  29.037  34.174  1.00  0.00     0.074 A 
ATOM     56  C   UNL A   1      42.763  29.615  35.500  1.00  0.00     0.031 C 
ATOM     57  C   UNL A   1      43.590  28.169  33.661  1.00  0.00     0.034 A 
BRANCH  44  58
ATOM     58  C   UNL A   1      42.300  26.242  27.906  1.00  0.00     0.023 A 
ATOM     59  C   UNL A   1      41.841  24.917  27.793  1.00  0.00     0.031 A 
ATOM     60  C   UNL A   1      43.137  26.737  26.890  1.00  0.00     0.131 A 
ATOM     61  C   UNL A   1      42.266  24.117  26.720  1.00  0.00     0.055 A 
ATOM     62  C   UNL A   1      43.503  25.958  25.792  1.00  0.00     0.041 A 
ATOM     63  F   UNL A   1      43.623  27.987  26.955  1.00  0.00    -0.206 F 
ATOM     64  C   UNL A   1      43.077  24.636  25.708  1.00  0.00     0.022 A 
BRANCH  61  65
ATOM     65  S   UNL A   1      41.844  22.353  26.729  1.00  0.00     0.124 S 
ATOM     66  O   UNL A   1      40.406  22.394  26.989  1.00  0.00    -0.237 OA
ATOM     67  O   UNL A   1      42.239  21.927  25.393  1.00  0.00    -0.237 OA
ATOM     68  O   UNL A   1      42.651  21.812  27.821  1.00  0.00    -0.744 OA
ENDBRANCH  61  65
ENDBRANCH  44  58
BRANCH  45  69
ATOM     69  C   UNL A   1      39.267  31.991  35.538  1.00  0.00     0.023 A 
ATOM     70  C   UNL A   1      38.555  31.395  36.589  1.00  0.00     0.031 A 
ATOM     71  C   UNL A   1      39.492  33.379  35.594  1.00  0.00     0.131 A 
ATOM     72  C   UNL A   1      38.064  32.190  37.637  1.00  0.00     0.055 A 
ATOM     73  C   UNL A   1      39.045  34.157  36.661  1.00  0.00     0.041 A 
ATOM     74  F   UNL A   1      40.170  33.997  34.613  1.00  0.00    -0.206 F 
ATOM     75  C   UNL A   1      38.315  33.564  37.687  1.00  0.00     0.022 A 
BRANCH  72  76
ATOM     76  S   UNL A   1      37.026  31.411  38.904  1.00  0.00     0.124 S 
ATOM     77  O   UNL A   1      35.828  32.243  38.860  1.00  0.00    -0.237 OA
ATOM     78  O   UNL A   1      36.885  30.055  38.389  1.00  0.00    -0.237 OA
ATOM     79  O   UNL A   1      37.826  31.534  40.121  1.00  0.00    -0.744 OA
ENDBRANCH  72  76
ENDBRANCH  45  69
BRANCH  57  80
ATOM     80  C   UNL A   1      44.774  27.834  34.533  1.00  0.00     0.023 A 
ATOM     81  C   UNL A   1      44.766  26.720  35.392  1.00  0.00     0.031 A 
ATOM     82  C   UNL A   1      45.916  28.652  34.517  1.00  0.00     0.131 A 
ATOM     83  C   UNL A   1      45.861  26.485  36.237  1.00  0.00     0.055 A 
ATOM     84  C   UNL A   1      47.024  28.383  35.321  1.00  0.00     0.041 A 
ATOM     85  F   UNL A   1      45.974  29.729  33.717  1.00  0.00    -0.206 F 
ATOM     86  C   UNL A   1      46.995  27.300  36.197  1.00  0.00     0.022 A 
BRANCH  83  87
ATOM     87  S   UNL A   1      45.753  25.141  37.450  1.00  0.00     0.124 S 
ATOM     88  O   UNL A   1      46.974  24.388  37.180  1.00  0.00    -0.237 OA
ATOM     89  O   UNL A   1      45.717  25.865  38.717  1.00  0.00    -0.237 OA
ATOM     90  O   UNL A   1      44.511  24.455  37.094  1.00  0.00    -0.744 OA
ENDBRANCH  83  87
ENDBRANCH  57  80
ENDBRANCH  31  32
ENDBRANCH  24  26
ENDBRANCH  23  24
ENDBRANCH  22  23
ENDBRANCH   1  22
TORSDOF 17
ENDMDL
MODEL 2
REMARK VINA RESULT:     -11.4      4.179     10.518
REMARK SMILES Cc1cc(C)cc(C[N@@H+]2CCO[C@@H](CC(=O)OCCOC(=O)c3ccc(-c4c5nc(c(-c6cc(S(=O)(=O)[O-])ccc6F)c6ccc([nH]6)c(-c6cc(S(=O)(=O)[O-])ccc6F)c6nc(c(-c7cc(S(=O)(=O)[O-])ccc7F)c7ccc4[nH]7)C=C6)C=C5)cc3)C2)c1
REMARK SMILES IDX 18 1 17 2 15 3 16 4 14 5 13 6 9 7 10 8 86 9 11 11 12 12 8 13
REMARK SMILES IDX 7 14 1 15 2 16 3 17 87 18 4 19 5 20 6 21 19 22 20 23 21 24
REMARK SMILES IDX 22 25 23 26 24 27 85 28 25 29 84 30 26 31 27 32 28 33 78 34
REMARK SMILES IDX 29 35 83 36 77 37 79 38 30 39 82 40 76 41 75 42 31 44 63 45
REMARK SMILES IDX 43 46 62 47 44 48 47 49 61 50 80 51 45 52 46 53 60 55 81 56
REMARK SMILES IDX 48 57 32 58 33 59 41 60 34 61 40 62 42 63 39 64 35 65 36 66
REMARK SMILES IDX 37 67 38 68 64 69 65 70 73 71 66 72 72 73 74 74 71 75 67 76
REMARK SMILES IDX 68 77 69 78 70 79 49 80 50 81 58 82 51 83 57 84 59 85 56 86
REMARK SMILES IDX 52 87 53 88 54 89 55 90
REMARK H PARENT 9 10 79 43 47 54
REMARK Flexibility Score: inf
ROOT
ATOM      1  C   UNL A   1      33.492  35.075  28.760  1.00  0.00     0.274 C 
ENDROOT
BRANCH   1   2
ATOM      2  O   UNL A   1      32.550  35.084  29.852  1.00  0.00    -0.462 OA
BRANCH   2   3
ATOM      3  C   UNL A   1      32.793  35.982  30.844  1.00  0.00     0.308 C 
ATOM      4  O   UNL A   1      32.752  37.197  30.705  1.00  0.00    -0.252 OA
BRANCH   3   5
ATOM      5  C   UNL A   1      33.248  35.317  32.113  1.00  0.00     0.160 C 
BRANCH   5   6
ATOM      6  C   UNL A   1      34.552  34.517  32.087  1.00  0.00     0.184 C 
ATOM      7  N   UNL A   1      36.824  34.245  33.257  1.00  0.00    -0.327 N 
ATOM      8  C   UNL A   1      36.381  32.891  33.588  1.00  0.00     0.291 C 
ATOM      9  C   UNL A   1      35.695  35.135  32.933  1.00  0.00     0.295 C 
ATOM     10  H   UNL A   1      37.212  34.619  34.123  1.00  0.00     0.348 HD
ATOM     11  C   UNL A   1      35.268  32.335  32.690  1.00  0.00     0.222 C 
ATOM     12  O   UNL A   1      34.161  33.234  32.642  1.00  0.00    -0.366 OA
BRANCH   7  13
ATOM     13  C   UNL A   1      38.019  34.358  32.414  1.00  0.00     0.299 C 
BRANCH  13  14
ATOM     14  C   UNL A   1      39.335  34.717  33.062  1.00  0.00     0.007 A 
ATOM     15  C   UNL A   1      40.590  36.301  36.302  1.00  0.00     0.044 C 
ATOM     16  C   UNL A   1      40.567  35.678  34.940  1.00  0.00    -0.050 A 
ATOM     17  C   UNL A   1      41.766  35.482  34.249  1.00  0.00     0.006 A 
ATOM     18  C   UNL A   1      39.360  35.301  34.336  1.00  0.00     0.013 A 
ATOM     19  C   UNL A   1      41.771  34.864  32.997  1.00  0.00    -0.050 A 
ATOM     20  C   UNL A   1      43.059  34.720  32.240  1.00  0.00     0.044 C 
ATOM     21  C   UNL A   1      40.559  34.443  32.438  1.00  0.00     0.013 A 
ENDBRANCH  13  14
ENDBRANCH   7  13
ENDBRANCH   5   6
ENDBRANCH   3   5
ENDBRANCH   2   3
ENDBRANCH   1   2
BRANCH   1  22
ATOM     22  C   UNL A   1      33.550  33.725  28.032  1.00  0.00     0.275 C 
BRANCH  22  23
ATOM     23  O   UNL A   1      34.213  32.703  28.802  1.00  0.00    -0.458 OA
BRANCH  23  24
ATOM     24  C   UNL A   1      34.510  31.587  28.098  1.00  0.00     0.338 C 
ATOM     25  O   UNL A   1      33.874  31.161  27.143  1.00  0.00    -0.246 OA
BRANCH  24  26
ATOM     26  C   UNL A   1      35.766  30.964  28.545  1.00  0.00     0.060 A 
ATOM     27  C   UNL A   1      35.680  29.879  29.427  1.00  0.00     0.016 A 
ATOM     28  C   UNL A   1      37.009  31.495  28.194  1.00  0.00     0.016 A 
ATOM     29  C   UNL A   1      36.838  29.321  29.961  1.00  0.00     0.010 A 
ATOM     30  C   UNL A   1      38.172  30.935  28.735  1.00  0.00     0.010 A 
ATOM     31  C   UNL A   1      38.091  29.848  29.624  1.00  0.00    -0.014 A 
BRANCH  31  32
ATOM     32  C   UNL A   1      39.322  29.230  30.170  1.00  0.00     0.031 A 
ATOM     33  C   UNL A   1      39.976  29.778  31.404  1.00  0.00     0.074 A 
ATOM     34  C   UNL A   1      39.843  28.162  29.538  1.00  0.00     0.049 A 
ATOM     35  N   UNL A   1      41.076  29.396  31.998  1.00  0.00    -0.248 NA
ATOM     36  C   UNL A   1      39.299  30.905  32.058  1.00  0.00     0.031 C 
ATOM     37  C   UNL A   1      39.266  27.525  28.354  1.00  0.00     0.029 A 
ATOM     38  N   UNL A   1      40.976  27.433  29.794  1.00  0.00    -0.354 N 
ATOM     39  C   UNL A   1      41.224  30.227  33.103  1.00  0.00     0.074 A 
ATOM     40  C   UNL A   1      40.111  31.155  33.076  1.00  0.00     0.031 C 
ATOM     41  C   UNL A   1      40.058  26.510  27.975  1.00  0.00     0.029 A 
ATOM     42  C   UNL A   1      41.215  26.451  28.862  1.00  0.00     0.049 A 
ATOM     43  H   UNL A   1      41.560  27.597  30.569  1.00  0.00     0.167 HD
ATOM     44  C   UNL A   1      42.196  30.211  34.048  1.00  0.00     0.034 A 
ATOM     45  C   UNL A   1      42.267  25.622  28.721  1.00  0.00     0.034 A 
ATOM     46  C   UNL A   1      43.313  29.295  34.037  1.00  0.00     0.049 A 
ATOM     47  C   UNL A   1      43.384  25.688  29.729  1.00  0.00     0.074 A 
ATOM     48  C   UNL A   1      44.349  29.185  34.948  1.00  0.00     0.029 A 
ATOM     49  N   UNL A   1      43.552  28.345  33.052  1.00  0.00    -0.354 N 
ATOM     50  N   UNL A   1      43.507  26.472  30.775  1.00  0.00    -0.248 NA
ATOM     51  C   UNL A   1      44.502  24.754  29.540  1.00  0.00     0.031 C 
ATOM     52  C   UNL A   1      45.246  28.217  34.481  1.00  0.00     0.029 A 
ATOM     53  C   UNL A   1      44.736  27.672  33.313  1.00  0.00     0.049 A 
ATOM     54  H   UNL A   1      42.966  28.175  32.279  1.00  0.00     0.167 HD
ATOM     55  C   UNL A   1      44.703  26.106  31.384  1.00  0.00     0.074 A 
ATOM     56  C   UNL A   1      45.258  25.027  30.593  1.00  0.00     0.031 C 
ATOM     57  C   UNL A   1      45.285  26.611  32.502  1.00  0.00     0.034 A 
BRANCH  44  58
ATOM     58  C   UNL A   1      42.120  31.250  35.140  1.00  0.00     0.023 A 
ATOM     59  C   UNL A   1      41.033  31.312  36.030  1.00  0.00     0.031 A 
ATOM     60  C   UNL A   1      43.147  32.199  35.289  1.00  0.00     0.131 A 
ATOM     61  C   UNL A   1      40.971  32.334  36.991  1.00  0.00     0.055 A 
ATOM     62  C   UNL A   1      43.112  33.173  36.289  1.00  0.00     0.041 A 
ATOM     63  F   UNL A   1      44.199  32.203  34.455  1.00  0.00    -0.206 F 
ATOM     64  C   UNL A   1      42.014  33.251  37.140  1.00  0.00     0.022 A 
BRANCH  61  65
ATOM     65  S   UNL A   1      39.452  32.523  37.965  1.00  0.00     0.124 S 
ATOM     66  O   UNL A   1      38.627  31.435  37.441  1.00  0.00    -0.237 OA
ATOM     67  O   UNL A   1      39.931  32.358  39.332  1.00  0.00    -0.237 OA
ATOM     68  O   UNL A   1      38.989  33.865  37.623  1.00  0.00    -0.744 OA
ENDBRANCH  61  65
ENDBRANCH  44  58
BRANCH  45  69
ATOM     69  C   UNL A   1      42.333  24.694  27.559  1.00  0.00     0.023 A 
ATOM     70  C   UNL A   1      41.751  23.420  27.610  1.00  0.00     0.031 A 
ATOM     71  C   UNL A   1      43.007  25.068  26.381  1.00  0.00     0.131 A 
ATOM     72  C   UNL A   1      41.881  22.550  26.516  1.00  0.00     0.055 A 
ATOM     73  C   UNL A   1      43.091  24.219  25.278  1.00  0.00     0.041 A 
ATOM     74  F   UNL A   1      43.579  26.279  26.282  1.00  0.00    -0.206 F 
ATOM     75  C   UNL A   1      42.536  22.946  25.346  1.00  0.00     0.022 A 
BRANCH  72  76
ATOM     76  S   UNL A   1      41.242  20.859  26.670  1.00  0.00     0.124 S 
ATOM     77  O   UNL A   1      42.423  20.065  26.350  1.00  0.00    -0.237 OA
ATOM     78  O   UNL A   1      40.804  20.826  28.060  1.00  0.00    -0.237 OA
ATOM     79  O   UNL A   1      40.170  20.810  25.679  1.00  0.00    -0.744 OA
ENDBRANCH  72  76
ENDBRANCH  45  69
BRANCH  57  80
ATOM     80  C   UNL A   1      46.572  25.963  32.948  1.00  0.00     0.023 A 
ATOM     81  C   UNL A   1      46.579  24.850  33.807  1.00  0.00     0.031 A 
ATOM     82  C   UNL A   1      47.807  26.482  32.523  1.00  0.00     0.131 A 
ATOM     83  C   UNL A   1      47.799  24.321  34.253  1.00  0.00     0.055 A 
ATOM     84  C   UNL A   1      49.018  25.919  32.928  1.00  0.00     0.041 A 
ATOM     85  F   UNL A   1      47.857  27.545  31.706  1.00  0.00    -0.206 F 
ATOM     86  C   UNL A   1      49.019  24.839  33.808  1.00  0.00     0.022 A 
BRANCH  83  87
ATOM     87  S   UNL A   1      47.775  22.993  35.487  1.00  0.00     0.124 S 
ATOM     88  O   UNL A   1      48.921  23.335  36.325  1.00  0.00    -0.237 OA
ATOM     89  O   UNL A   1      46.463  23.162  36.103  1.00  0.00    -0.237 OA
ATOM     90  O   UNL A   1      47.932  21.778  34.689  1.00  0.00    -0.744 OA
ENDBRANCH  83  87
ENDBRANCH  57  80
ENDBRANCH  31  32
ENDBRANCH  24  26
ENDBRANCH  23  24
ENDBRANCH  22  23
ENDBRANCH   1  22
TORSDOF 17
ENDMDL
MODEL 3
REMARK VINA RESULT:     -11.4      1.571      2.196
REMARK SMILES Cc1cc(C)cc(C[N@@H+]2CCO[C@@H](CC(=O)OCCOC(=O)c3ccc(-c4c5nc(c(-c6cc(S(=O)(=O)[O-])ccc6F)c6ccc([nH]6)c(-c6cc(S(=O)(=O)[O-])ccc6F)c6nc(c(-c7cc(S(=O)(=O)[O-])ccc7F)c7ccc4[nH]7)C=C6)C=C5)cc3)C2)c1
REMARK SMILES IDX 18 1 17 2 15 3 16 4 14 5 13 6 9 7 10 8 86 9 11 11 12 12 8 13
REMARK SMILES IDX 7 14 1 15 2 16 3 17 87 18 4 19 5 20 6 21 19 22 20 23 21 24
REMARK SMILES IDX 22 25 23 26 24 27 85 28 25 29 84 30 26 31 27 32 28 33 78 34
REMARK SMILES IDX 29 35 83 36 77 37 79 38 30 39 82 40 76 41 75 42 31 44 63 45
REMARK SMILES IDX 43 46 62 47 44 48 47 49 61 50 80 51 45 52 46 53 60 55 81 56
REMARK SMILES IDX 48 57 32 58 33 59 41 60 34 61 40 62 42 63 39 64 35 65 36 66
REMARK SMILES IDX 37 67 38 68 64 69 65 70 73 71 66 72 72 73 74 74 71 75 67 76
REMARK SMILES IDX 68 77 69 78 70 79 49 80 50 81 58 82 51 83 57 84 59 85 56 86
REMARK SMILES IDX 52 87 53 88 54 89 55 90
REMARK H PARENT 9 10 79 43 47 54
REMARK Flexibility Score: inf
ROOT
ATOM      1  C   UNL A   1      31.054  29.705  24.592  1.00  0.00     0.274 C 
ENDROOT
BRANCH   1   2
ATOM      2  O   UNL A   1      31.511  28.519  23.910  1.00  0.00    -0.462 OA
BRANCH   2   3
ATOM      3  C   UNL A   1      30.543  27.666  23.480  1.00  0.00     0.308 C 
ATOM      4  O   UNL A   1      29.997  27.731  22.385  1.00  0.00    -0.252 OA
BRANCH   3   5
ATOM      5  C   UNL A   1      30.118  26.702  24.551  1.00  0.00     0.160 C 
BRANCH   5   6
ATOM      6  C   UNL A   1      30.904  25.399  24.710  1.00  0.00     0.184 C 
ATOM      7  N   UNL A   1      33.150  24.434  25.504  1.00  0.00    -0.327 N 
ATOM      8  C   UNL A   1      32.371  23.704  26.504  1.00  0.00     0.291 C 
ATOM      9  C   UNL A   1      32.419  25.599  24.973  1.00  0.00     0.295 C 
ATOM     10  H   UNL A   1      33.938  24.831  26.017  1.00  0.00     0.348 HD
ATOM     11  C   UNL A   1      30.886  23.521  26.162  1.00  0.00     0.222 C 
ATOM     12  O   UNL A   1      30.278  24.776  25.861  1.00  0.00    -0.366 OA
BRANCH   7  13
ATOM     13  C   UNL A   1      33.900  23.626  24.537  1.00  0.00     0.299 C 
BRANCH  13  14
ATOM     14  C   UNL A   1      35.269  23.116  24.923  1.00  0.00     0.007 A 
ATOM     15  C   UNL A   1      38.480  24.453  26.498  1.00  0.00     0.044 C 
ATOM     16  C   UNL A   1      37.488  23.534  25.854  1.00  0.00    -0.050 A 
ATOM     17  C   UNL A   1      37.855  22.217  25.561  1.00  0.00     0.006 A 
ATOM     18  C   UNL A   1      36.200  23.974  25.524  1.00  0.00     0.013 A 
ATOM     19  C   UNL A   1      36.932  21.331  25.001  1.00  0.00    -0.050 A 
ATOM     20  C   UNL A   1      37.360  19.941  24.632  1.00  0.00     0.044 C 
ATOM     21  C   UNL A   1      35.633  21.777  24.732  1.00  0.00     0.013 A 
ENDBRANCH  13  14
ENDBRANCH   7  13
ENDBRANCH   5   6
ENDBRANCH   3   5
ENDBRANCH   2   3
ENDBRANCH   1   2
BRANCH   1  22
ATOM     22  C   UNL A   1      31.685  29.877  25.980  1.00  0.00     0.275 C 
BRANCH  22  23
ATOM     23  O   UNL A   1      33.007  30.446  25.926  1.00  0.00    -0.458 OA
BRANCH  23  24
ATOM     24  C   UNL A   1      33.257  31.356  26.894  1.00  0.00     0.338 C 
ATOM     25  O   UNL A   1      32.567  32.337  27.140  1.00  0.00    -0.246 OA
BRANCH  24  26
ATOM     26  C   UNL A   1      34.424  30.993  27.713  1.00  0.00     0.060 A 
ATOM     27  C   UNL A   1      35.373  31.989  27.978  1.00  0.00     0.016 A 
ATOM     28  C   UNL A   1      34.644  29.677  28.128  1.00  0.00     0.016 A 
ATOM     29  C   UNL A   1      36.545  31.673  28.659  1.00  0.00     0.010 A 
ATOM     30  C   UNL A   1      35.826  29.361  28.808  1.00  0.00     0.010 A 
ATOM     31  C   UNL A   1      36.783  30.356  29.073  1.00  0.00    -0.014 A 
BRANCH  31  32
ATOM     32  C   UNL A   1      38.017  30.031  29.825  1.00  0.00     0.031 A 
ATOM     33  C   UNL A   1      39.026  29.069  29.270  1.00  0.00     0.074 A 
ATOM     34  C   UNL A   1      38.220  30.618  31.018  1.00  0.00     0.049 A 
ATOM     35  N   UNL A   1      40.137  28.634  29.804  1.00  0.00    -0.248 NA
ATOM     36  C   UNL A   1      38.747  28.527  27.934  1.00  0.00     0.031 C 
ATOM     37  C   UNL A   1      37.323  31.598  31.633  1.00  0.00     0.029 A 
ATOM     38  N   UNL A   1      39.233  30.472  31.931  1.00  0.00    -0.354 N 
ATOM     39  C   UNL A   1      40.700  27.772  28.868  1.00  0.00     0.074 A 
ATOM     40  C   UNL A   1      39.787  27.726  27.744  1.00  0.00     0.031 C 
ATOM     41  C   UNL A   1      37.817  31.952  32.829  1.00  0.00     0.029 A 
ATOM     42  C   UNL A   1      39.040  31.196  33.083  1.00  0.00     0.049 A 
ATOM     43  H   UNL A   1      40.021  29.904  31.775  1.00  0.00     0.167 HD
ATOM     44  C   UNL A   1      41.869  27.090  28.944  1.00  0.00     0.034 A 
ATOM     45  C   UNL A   1      39.751  31.220  34.226  1.00  0.00     0.034 A 
ATOM     46  C   UNL A   1      42.749  27.128  30.090  1.00  0.00     0.049 A 
ATOM     47  C   UNL A   1      40.996  30.378  34.325  1.00  0.00     0.074 A 
ATOM     48  C   UNL A   1      43.961  26.484  30.269  1.00  0.00     0.029 A 
ATOM     49  N   UNL A   1      42.500  27.833  31.260  1.00  0.00    -0.354 N 
ATOM     50  N   UNL A   1      41.523  29.575  33.429  1.00  0.00    -0.248 NA
ATOM     51  C   UNL A   1      41.744  30.449  35.586  1.00  0.00     0.031 C 
ATOM     52  C   UNL A   1      44.410  26.746  31.570  1.00  0.00     0.029 A 
ATOM     53  C   UNL A   1      43.515  27.611  32.179  1.00  0.00     0.049 A 
ATOM     54  H   UNL A   1      41.715  28.408  31.416  1.00  0.00     0.167 HD
ATOM     55  C   UNL A   1      42.680  29.068  34.010  1.00  0.00     0.074 A 
ATOM     56  C   UNL A   1      42.777  29.661  35.329  1.00  0.00     0.031 C 
ATOM     57  C   UNL A   1      43.586  28.195  33.497  1.00  0.00     0.034 A 
BRANCH  44  58
ATOM     58  C   UNL A   1      42.234  26.203  27.778  1.00  0.00     0.023 A 
ATOM     59  C   UNL A   1      41.899  24.837  27.754  1.00  0.00     0.031 A 
ATOM     60  C   UNL A   1      42.933  26.729  26.678  1.00  0.00     0.131 A 
ATOM     61  C   UNL A   1      42.312  24.033  26.680  1.00  0.00     0.055 A 
ATOM     62  C   UNL A   1      43.284  25.939  25.582  1.00  0.00     0.041 A 
ATOM     63  F   UNL A   1      43.299  28.020  26.655  1.00  0.00    -0.206 F 
ATOM     64  C   UNL A   1      42.984  24.580  25.583  1.00  0.00     0.022 A 
BRANCH  61  65
ATOM     65  S   UNL A   1      42.067  22.239  26.790  1.00  0.00     0.124 S 
ATOM     66  O   UNL A   1      41.978  21.865  25.379  1.00  0.00    -0.237 OA
ATOM     67  O   UNL A   1      43.266  21.799  27.492  1.00  0.00    -0.237 OA
ATOM     68  O   UNL A   1      40.820  22.109  27.540  1.00  0.00    -0.744 OA
ENDBRANCH  61  65
ENDBRANCH  44  58
BRANCH  45  69
ATOM     69  C   UNL A   1      39.278  32.033  35.380  1.00  0.00     0.023 A 
ATOM     70  C   UNL A   1      39.718  33.350  35.572  1.00  0.00     0.031 A 
ATOM     71  C   UNL A   1      38.390  31.486  36.325  1.00  0.00     0.131 A 
ATOM     72  C   UNL A   1      39.296  34.068  36.702  1.00  0.00     0.055 A 
ATOM     73  C   UNL A   1      37.935  32.220  37.420  1.00  0.00     0.041 A 
ATOM     74  F   UNL A   1      37.938  30.229  36.184  1.00  0.00    -0.206 F 
ATOM     75  C   UNL A   1      38.397  33.516  37.620  1.00  0.00     0.022 A 
BRANCH  72  76
ATOM     76  S   UNL A   1      39.996  35.715  36.997  1.00  0.00     0.124 S 
ATOM     77  O   UNL A   1      39.284  36.130  38.201  1.00  0.00    -0.237 OA
ATOM     78  O   UNL A   1      41.413  35.416  37.162  1.00  0.00    -0.237 OA
ATOM     79  O   UNL A   1      39.652  36.452  35.783  1.00  0.00    -0.744 OA
ENDBRANCH  72  76
ENDBRANCH  45  69
BRANCH  57  80
ATOM     80  C   UNL A   1      44.779  27.871  34.359  1.00  0.00     0.023 A 
ATOM     81  C   UNL A   1      44.774  26.780  35.247  1.00  0.00     0.031 A 
ATOM     82  C   UNL A   1      45.929  28.677  34.305  1.00  0.00     0.131 A 
ATOM     83  C   UNL A   1      45.879  26.556  36.081  1.00  0.00     0.055 A 
ATOM     84  C   UNL A   1      47.046  28.418  35.099  1.00  0.00     0.041 A 
ATOM     85  F   UNL A   1      45.985  29.732  33.476  1.00  0.00    -0.206 F 
ATOM     86  C   UNL A   1      47.021  27.359  36.003  1.00  0.00     0.022 A 
BRANCH  83  87
ATOM     87  S   UNL A   1      45.777  25.245  37.330  1.00  0.00     0.124 S 
ATOM     88  O   UNL A   1      45.999  25.986  38.568  1.00  0.00    -0.237 OA
ATOM     89  O   UNL A   1      44.428  24.727  37.131  1.00  0.00    -0.237 OA
ATOM     90  O   UNL A   1      46.853  24.328  36.956  1.00  0.00    -0.744 OA
ENDBRANCH  83  87
ENDBRANCH  57  80
ENDBRANCH  31  32
ENDBRANCH  24  26
ENDBRANCH  23  24
ENDBRANCH  22  23
ENDBRANCH   1  22
TORSDOF 17
ENDMDL
