MODEL 1
REMARK VINA RESULT:     -10.1      0.000      0.000
REMARK SMILES CCCC[NH2+][C@H]1CS(=O)(=O)C[C@@H]1[NH2+]CC(=O)OCCOC(=O)c1ccc(-c2c3nc(c(-c4cc(S(=O)(=O)[O-])ccc4F)c4ccc([nH]4)c(-c4cc(S(=O)(=O)[O-])ccc4F)c4nc(c(-c5cc(S(=O)(=O)[O-])ccc5F)c5ccc2[nH]5)C=C4)C=C3)cc1
REMARK SMILES IDX 17 1 15 2 16 3 14 4 13 5 12 8 6 9 7 10 8 11 11 12 9 13 10 14
REMARK SMILES IDX 5 15 4 18 3 19 2 20 1 21 18 22 19 23 20 24 21 25 22 26 23 27
REMARK SMILES IDX 24 28 85 29 25 30 84 31 26 32 27 33 28 34 78 35 29 36 83 37
REMARK SMILES IDX 77 38 79 39 30 40 82 41 76 42 75 43 31 45 63 46 43 47 62 48
REMARK SMILES IDX 44 49 47 50 61 51 80 52 45 53 46 54 60 56 81 57 48 58 32 59
REMARK SMILES IDX 33 60 41 61 34 62 40 63 42 64 39 65 35 66 36 67 37 68 38 69
REMARK SMILES IDX 64 70 65 71 73 72 66 73 72 74 74 75 71 76 67 77 68 78 69 79
REMARK SMILES IDX 70 80 49 81 50 82 58 83 51 84 57 85 59 86 56 87 52 88 53 89
REMARK SMILES IDX 54 90 55 91
REMARK H PARENT 13 6 13 7 5 16 5 17 79 44 47 55
REMARK Flexibility Score: inf
ROOT
ATOM      1  O   UNL A   1      37.624  21.495  24.503  1.00  0.00    -0.458 OA
ENDROOT
BRANCH   1   2
ATOM      2  C   UNL A   1      36.478  22.229  24.499  1.00  0.00     0.361 C 
ATOM      3  O   UNL A   1      35.843  22.531  23.496  1.00  0.00    -0.245 OA
BRANCH   2   4
ATOM      4  C   UNL A   1      36.051  22.646  25.910  1.00  0.00     0.385 C 
BRANCH   4   5
ATOM      5  N   UNL A   1      34.662  23.149  25.943  1.00  0.00    -0.329 N 
ATOM      6  H   UNL A   1      34.625  23.956  26.566  1.00  0.00     0.347 HD
ATOM      7  H   UNL A   1      34.405  23.390  24.986  1.00  0.00     0.347 HD
BRANCH   5   8
ATOM      8  C   UNL A   1      33.693  22.147  26.418  1.00  0.00     0.258 C 
ATOM      9  C   UNL A   1      32.688  21.811  25.274  1.00  0.00     0.257 C 
ATOM     10  C   UNL A   1      31.674  22.957  25.220  1.00  0.00     0.208 C 
ATOM     11  S   UNL A   1      31.484  23.542  26.892  1.00  0.00     0.162 S 
ATOM     12  C   UNL A   1      32.881  22.694  27.600  1.00  0.00     0.208 C 
ATOM     13  O   UNL A   1      31.718  24.971  26.910  1.00  0.00    -0.228 OA
ATOM     14  O   UNL A   1      30.268  22.973  27.440  1.00  0.00    -0.228 OA
BRANCH   9  15
ATOM     15  N   UNL A   1      32.154  20.438  25.272  1.00  0.00    -0.338 N 
ATOM     16  H   UNL A   1      32.028  20.160  26.246  1.00  0.00     0.346 HD
ATOM     17  H   UNL A   1      31.301  20.496  24.715  1.00  0.00     0.346 HD
BRANCH  15  18
ATOM     18  C   UNL A   1      32.946  19.399  24.622  1.00  0.00     0.260 C 
BRANCH  18  19
ATOM     19  C   UNL A   1      32.610  18.007  25.177  1.00  0.00     0.061 C 
BRANCH  19  20
ATOM     20  C   UNL A   1      33.186  16.820  24.397  1.00  0.00     0.002 C 
ATOM     21  C   UNL A   1      33.915  15.807  25.267  1.00  0.00     0.004 C 
ENDBRANCH  19  20
ENDBRANCH  18  19
ENDBRANCH  15  18
ENDBRANCH   9  15
ENDBRANCH   5   8
ENDBRANCH   4   5
ENDBRANCH   2   4
ENDBRANCH   1   2
BRANCH   1  22
ATOM     22  C   UNL A   1      37.525  20.138  24.972  1.00  0.00     0.274 C 
BRANCH  22  23
ATOM     23  C   UNL A   1      38.852  19.685  25.590  1.00  0.00     0.275 C 
BRANCH  23  24
ATOM     24  O   UNL A   1      39.758  20.788  25.792  1.00  0.00    -0.458 OA
BRANCH  24  25
ATOM     25  C   UNL A   1      40.386  20.804  26.990  1.00  0.00     0.338 C 
ATOM     26  O   UNL A   1      40.774  19.843  27.632  1.00  0.00    -0.246 OA
BRANCH  25  27
ATOM     27  C   UNL A   1      40.704  22.181  27.394  1.00  0.00     0.060 A 
ATOM     28  C   UNL A   1      40.122  23.220  26.661  1.00  0.00     0.016 A 
ATOM     29  C   UNL A   1      41.628  22.451  28.404  1.00  0.00     0.016 A 
ATOM     30  C   UNL A   1      40.474  24.539  26.926  1.00  0.00     0.010 A 
ATOM     31  C   UNL A   1      41.975  23.777  28.673  1.00  0.00     0.010 A 
ATOM     32  C   UNL A   1      41.410  24.827  27.927  1.00  0.00    -0.014 A 
BRANCH  32  33
ATOM     33  C   UNL A   1      41.822  26.232  28.160  1.00  0.00     0.031 A 
ATOM     34  C   UNL A   1      43.188  26.692  27.738  1.00  0.00     0.074 A 
ATOM     35  C   UNL A   1      40.955  27.093  28.725  1.00  0.00     0.049 A 
ATOM     36  N   UNL A   1      43.751  27.862  27.893  1.00  0.00    -0.248 NA
ATOM     37  C   UNL A   1      44.030  25.701  27.054  1.00  0.00     0.031 C 
ATOM     38  C   UNL A   1      39.589  26.762  29.137  1.00  0.00     0.029 A 
ATOM     39  N   UNL A   1      41.091  28.417  29.048  1.00  0.00    -0.354 N 
ATOM     40  C   UNL A   1      45.019  27.749  27.334  1.00  0.00     0.074 A 
ATOM     41  C   UNL A   1      45.149  26.386  26.863  1.00  0.00     0.031 C 
ATOM     42  C   UNL A   1      39.014  27.858  29.659  1.00  0.00     0.029 A 
ATOM     43  C   UNL A   1      39.983  28.951  29.661  1.00  0.00     0.049 A 
ATOM     44  H   UNL A   1      41.905  28.938  28.859  1.00  0.00     0.167 HD
ATOM     45  C   UNL A   1      45.981  28.699  27.221  1.00  0.00     0.034 A 
ATOM     46  C   UNL A   1      39.781  30.173  30.192  1.00  0.00     0.034 A 
ATOM     47  C   UNL A   1      45.836  30.052  27.703  1.00  0.00     0.049 A 
ATOM     48  C   UNL A   1      40.891  31.189  30.119  1.00  0.00     0.074 A 
ATOM     49  C   UNL A   1      46.740  31.097  27.632  1.00  0.00     0.029 A 
ATOM     50  N   UNL A   1      44.714  30.546  28.360  1.00  0.00    -0.354 N 
ATOM     51  N   UNL A   1      42.088  31.069  29.591  1.00  0.00    -0.248 NA
ATOM     52  C   UNL A   1      40.623  32.505  30.711  1.00  0.00     0.031 C 
ATOM     53  C   UNL A   1      46.193  32.201  28.297  1.00  0.00     0.029 A 
ATOM     54  C   UNL A   1      44.917  31.868  28.725  1.00  0.00     0.049 A 
ATOM     55  H   UNL A   1      43.894  30.031  28.539  1.00  0.00     0.167 HD
ATOM     56  C   UNL A   1      42.705  32.304  29.768  1.00  0.00     0.074 A 
ATOM     57  C   UNL A   1      41.743  33.156  30.437  1.00  0.00     0.031 C 
ATOM     58  C   UNL A   1      43.953  32.699  29.407  1.00  0.00     0.034 A 
BRANCH  45  59
ATOM     59  C   UNL A   1      47.291  28.285  26.597  1.00  0.00     0.023 A 
ATOM     60  C   UNL A   1      47.432  28.128  25.208  1.00  0.00     0.031 A 
ATOM     61  C   UNL A   1      48.407  28.011  27.408  1.00  0.00     0.131 A 
ATOM     62  C   UNL A   1      48.638  27.643  24.677  1.00  0.00     0.055 A 
ATOM     63  C   UNL A   1      49.627  27.601  26.867  1.00  0.00     0.041 A 
ATOM     64  F   UNL A   1      48.324  28.123  28.743  1.00  0.00    -0.206 F 
ATOM     65  C   UNL A   1      49.744  27.400  25.495  1.00  0.00     0.022 A 
BRANCH  62  66
ATOM     66  S   UNL A   1      48.696  27.203  22.918  1.00  0.00     0.124 S 
ATOM     67  O   UNL A   1      48.321  25.791  22.956  1.00  0.00    -0.237 OA
ATOM     68  O   UNL A   1      47.713  28.109  22.335  1.00  0.00    -0.237 OA
ATOM     69  O   UNL A   1      50.084  27.463  22.546  1.00  0.00    -0.744 OA
ENDBRANCH  62  66
ENDBRANCH  45  59
BRANCH  46  70
ATOM     70  C   UNL A   1      38.498  30.491  30.880  1.00  0.00     0.023 A 
ATOM     71  C   UNL A   1      37.486  31.214  30.231  1.00  0.00     0.031 A 
ATOM     72  C   UNL A   1      38.284  30.106  32.215  1.00  0.00     0.131 A 
ATOM     73  C   UNL A   1      36.320  31.563  30.931  1.00  0.00     0.055 A 
ATOM     74  C   UNL A   1      37.104  30.413  32.891  1.00  0.00     0.041 A 
ATOM     75  F   UNL A   1      39.221  29.410  32.880  1.00  0.00    -0.206 F 
ATOM     76  C   UNL A   1      36.117  31.158  32.253  1.00  0.00     0.022 A 
BRANCH  73  77
ATOM     77  S   UNL A   1      35.099  32.624  30.110  1.00  0.00     0.124 S 
ATOM     78  O   UNL A   1      34.183  32.927  31.205  1.00  0.00    -0.237 OA
ATOM     79  O   UNL A   1      35.927  33.731  29.643  1.00  0.00    -0.237 OA
ATOM     80  O   UNL A   1      34.556  31.768  29.059  1.00  0.00    -0.744 OA
ENDBRANCH  73  77
ENDBRANCH  46  70
BRANCH  58  81
ATOM     81  C   UNL A   1      44.322  34.133  29.699  1.00  0.00     0.023 A 
ATOM     82  C   UNL A   1      43.919  35.185  28.857  1.00  0.00     0.031 A 
ATOM     83  C   UNL A   1      45.103  34.446  30.825  1.00  0.00     0.131 A 
ATOM     84  C   UNL A   1      44.345  36.495  29.125  1.00  0.00     0.055 A 
ATOM     85  C   UNL A   1      45.478  35.758  31.116  1.00  0.00     0.041 A 
ATOM     86  F   UNL A   1      45.516  33.478  31.659  1.00  0.00    -0.206 F 
ATOM     87  C   UNL A   1      45.110  36.789  30.257  1.00  0.00     0.022 A 
BRANCH  84  88
ATOM     88  S   UNL A   1      43.960  37.800  27.925  1.00  0.00     0.124 S 
ATOM     89  O   UNL A   1      43.495  37.028  26.777  1.00  0.00    -0.237 OA
ATOM     90  O   UNL A   1      42.942  38.577  28.625  1.00  0.00    -0.237 OA
ATOM     91  O   UNL A   1      45.239  38.482  27.737  1.00  0.00    -0.744 OA
ENDBRANCH  84  88
ENDBRANCH  58  81
ENDBRANCH  32  33
ENDBRANCH  25  27
ENDBRANCH  24  25
ENDBRANCH  23  24
ENDBRANCH  22  23
ENDBRANCH   1  22
TORSDOF 20
ENDMDL
MODEL 2
REMARK VINA RESULT:     -10.0      5.334      8.339
REMARK SMILES CCCC[NH2+][C@H]1CS(=O)(=O)C[C@@H]1[NH2+]CC(=O)OCCOC(=O)c1ccc(-c2c3nc(c(-c4cc(S(=O)(=O)[O-])ccc4F)c4ccc([nH]4)c(-c4cc(S(=O)(=O)[O-])ccc4F)c4nc(c(-c5cc(S(=O)(=O)[O-])ccc5F)c5ccc2[nH]5)C=C4)C=C3)cc1
REMARK SMILES IDX 17 1 15 2 16 3 14 4 13 5 12 8 6 9 7 10 8 11 11 12 9 13 10 14
REMARK SMILES IDX 5 15 4 18 3 19 2 20 1 21 18 22 19 23 20 24 21 25 22 26 23 27
REMARK SMILES IDX 24 28 85 29 25 30 84 31 26 32 27 33 28 34 78 35 29 36 83 37
REMARK SMILES IDX 77 38 79 39 30 40 82 41 76 42 75 43 31 45 63 46 43 47 62 48
REMARK SMILES IDX 44 49 47 50 61 51 80 52 45 53 46 54 60 56 81 57 48 58 32 59
REMARK SMILES IDX 33 60 41 61 34 62 40 63 42 64 39 65 35 66 36 67 37 68 38 69
REMARK SMILES IDX 64 70 65 71 73 72 66 73 72 74 74 75 71 76 67 77 68 78 69 79
REMARK SMILES IDX 70 80 49 81 50 82 58 83 51 84 57 85 59 86 56 87 52 88 53 89
REMARK SMILES IDX 54 90 55 91
REMARK H PARENT 13 6 13 7 5 16 5 17 79 44 47 55
REMARK Flexibility Score: inf
ROOT
ATOM      1  O   UNL A   1      30.085  29.800  24.017  1.00  0.00    -0.458 OA
ENDROOT
BRANCH   1   2
ATOM      2  C   UNL A   1      29.972  28.991  22.928  1.00  0.00     0.361 C 
ATOM      3  O   UNL A   1      30.054  29.368  21.765  1.00  0.00    -0.245 OA
BRANCH   2   4
ATOM      4  C   UNL A   1      29.729  27.529  23.314  1.00  0.00     0.385 C 
BRANCH   4   5
ATOM      5  N   UNL A   1      30.639  26.609  22.599  1.00  0.00    -0.329 N 
ATOM      6  H   UNL A   1      30.098  26.097  21.901  1.00  0.00     0.347 HD
ATOM      7  H   UNL A   1      31.372  27.177  22.176  1.00  0.00     0.347 HD
BRANCH   5   8
ATOM      8  C   UNL A   1      31.296  25.636  23.487  1.00  0.00     0.258 C 
ATOM      9  C   UNL A   1      32.606  26.256  24.062  1.00  0.00     0.257 C 
ATOM     10  C   UNL A   1      33.665  26.161  22.959  1.00  0.00     0.208 C 
ATOM     11  S   UNL A   1      33.306  24.678  22.041  1.00  0.00     0.162 S 
ATOM     12  C   UNL A   1      31.686  24.370  22.712  1.00  0.00     0.208 C 
ATOM     13  O   UNL A   1      33.197  25.020  20.637  1.00  0.00    -0.228 OA
ATOM     14  O   UNL A   1      34.204  23.632  22.491  1.00  0.00    -0.228 OA
BRANCH   9  15
ATOM     15  N   UNL A   1      32.994  25.802  25.409  1.00  0.00    -0.338 N 
ATOM     16  H   UNL A   1      32.952  26.613  26.026  1.00  0.00     0.346 HD
ATOM     17  H   UNL A   1      32.340  25.050  25.623  1.00  0.00     0.346 HD
BRANCH  15  18
ATOM     18  C   UNL A   1      34.313  25.200  25.571  1.00  0.00     0.260 C 
BRANCH  18  19
ATOM     19  C   UNL A   1      34.217  23.795  26.185  1.00  0.00     0.061 C 
BRANCH  19  20
ATOM     20  C   UNL A   1      35.455  22.907  26.020  1.00  0.00     0.002 C 
ATOM     21  C   UNL A   1      36.735  23.681  25.743  1.00  0.00     0.004 C 
ENDBRANCH  19  20
ENDBRANCH  18  19
ENDBRANCH  15  18
ENDBRANCH   9  15
ENDBRANCH   5   8
ENDBRANCH   4   5
ENDBRANCH   2   4
ENDBRANCH   1   2
BRANCH   1  22
ATOM     22  C   UNL A   1      31.348  29.791  24.705  1.00  0.00     0.274 C 
BRANCH  22  23
ATOM     23  C   UNL A   1      31.388  30.891  25.771  1.00  0.00     0.275 C 
BRANCH  23  24
ATOM     24  O   UNL A   1      32.418  30.653  26.753  1.00  0.00    -0.458 OA
BRANCH  24  25
ATOM     25  C   UNL A   1      33.063  31.760  27.188  1.00  0.00     0.338 C 
ATOM     26  O   UNL A   1      32.634  32.901  27.216  1.00  0.00    -0.246 OA
BRANCH  25  27
ATOM     27  C   UNL A   1      34.354  31.406  27.794  1.00  0.00     0.060 A 
ATOM     28  C   UNL A   1      34.553  30.070  28.156  1.00  0.00     0.016 A 
ATOM     29  C   UNL A   1      35.311  32.377  28.093  1.00  0.00     0.016 A 
ATOM     30  C   UNL A   1      35.709  29.699  28.835  1.00  0.00     0.010 A 
ATOM     31  C   UNL A   1      36.475  32.001  28.768  1.00  0.00     0.010 A 
ATOM     32  C   UNL A   1      36.674  30.664  29.155  1.00  0.00    -0.014 A 
BRANCH  32  33
ATOM     33  C   UNL A   1      37.874  30.267  29.931  1.00  0.00     0.031 A 
ATOM     34  C   UNL A   1      38.864  29.306  29.338  1.00  0.00     0.074 A 
ATOM     35  C   UNL A   1      38.079  30.794  31.152  1.00  0.00     0.049 A 
ATOM     36  N   UNL A   1      39.947  28.801  29.870  1.00  0.00    -0.248 NA
ATOM     37  C   UNL A   1      38.595  28.851  27.966  1.00  0.00     0.031 C 
ATOM     38  C   UNL A   1      37.202  31.766  31.806  1.00  0.00     0.029 A 
ATOM     39  N   UNL A   1      39.087  30.588  32.057  1.00  0.00    -0.354 N 
ATOM     40  C   UNL A   1      40.488  27.962  28.903  1.00  0.00     0.074 A 
ATOM     41  C   UNL A   1      39.595  28.005  27.764  1.00  0.00     0.031 C 
ATOM     42  C   UNL A   1      37.712  32.072  33.011  1.00  0.00     0.029 A 
ATOM     43  C   UNL A   1      38.922  31.284  33.231  1.00  0.00     0.049 A 
ATOM     44  H   UNL A   1      39.855  29.998  31.885  1.00  0.00     0.167 HD
ATOM     45  C   UNL A   1      41.628  27.228  28.961  1.00  0.00     0.034 A 
ATOM     46  C   UNL A   1      39.648  31.266  34.367  1.00  0.00     0.034 A 
ATOM     47  C   UNL A   1      42.502  27.192  30.110  1.00  0.00     0.049 A 
ATOM     48  C   UNL A   1      40.870  30.388  34.434  1.00  0.00     0.074 A 
ATOM     49  C   UNL A   1      43.686  26.494  30.273  1.00  0.00     0.029 A 
ATOM     50  N   UNL A   1      42.282  27.877  31.300  1.00  0.00    -0.354 N 
ATOM     51  N   UNL A   1      41.369  29.595  33.513  1.00  0.00    -0.248 NA
ATOM     52  C   UNL A   1      41.627  30.404  35.691  1.00  0.00     0.031 C 
ATOM     53  C   UNL A   1      44.147  26.706  31.579  1.00  0.00     0.029 A 
ATOM     54  C   UNL A   1      43.288  27.593  32.209  1.00  0.00     0.049 A 
ATOM     55  H   UNL A   1      41.520  28.477  31.471  1.00  0.00     0.167 HD
ATOM     56  C   UNL A   1      42.513  29.037  34.076  1.00  0.00     0.074 A 
ATOM     57  C   UNL A   1      42.636  29.595  35.407  1.00  0.00     0.031 C 
ATOM     58  C   UNL A   1      43.387  28.145  33.540  1.00  0.00     0.034 A 
BRANCH  45  59
ATOM     59  C   UNL A   1      41.958  26.367  27.767  1.00  0.00     0.023 A 
ATOM     60  C   UNL A   1      41.508  25.040  27.665  1.00  0.00     0.031 A 
ATOM     61  C   UNL A   1      42.763  26.872  26.730  1.00  0.00     0.131 A 
ATOM     62  C   UNL A   1      41.920  24.241  26.587  1.00  0.00     0.055 A 
ATOM     63  C   UNL A   1      43.110  26.094  25.623  1.00  0.00     0.041 A 
ATOM     64  F   UNL A   1      43.240  28.125  26.784  1.00  0.00    -0.206 F 
ATOM     65  C   UNL A   1      42.701  24.766  25.554  1.00  0.00     0.022 A 
BRANCH  62  66
ATOM     66  S   UNL A   1      41.539  22.469  26.626  1.00  0.00     0.124 S 
ATOM     67  O   UNL A   1      42.152  22.009  25.382  1.00  0.00    -0.237 OA
ATOM     68  O   UNL A   1      42.190  22.034  27.856  1.00  0.00    -0.237 OA
ATOM     69  O   UNL A   1      40.079  22.433  26.645  1.00  0.00    -0.744 OA
ENDBRANCH  62  66
ENDBRANCH  45  59
BRANCH  46  70
ATOM     70  C   UNL A   1      39.216  32.067  35.546  1.00  0.00     0.023 A 
ATOM     71  C   UNL A   1      39.654  33.387  35.728  1.00  0.00     0.031 A 
ATOM     72  C   UNL A   1      38.385  31.504  36.531  1.00  0.00     0.131 A 
ATOM     73  C   UNL A   1      39.292  34.089  36.889  1.00  0.00     0.055 A 
ATOM     74  C   UNL A   1      37.987  32.223  37.659  1.00  0.00     0.041 A 
ATOM     75  F   UNL A   1      37.936  30.245  36.403  1.00  0.00    -0.206 F 
ATOM     76  C   UNL A   1      38.451  33.520  37.849  1.00  0.00     0.022 A 
BRANCH  73  77
ATOM     77  S   UNL A   1      39.997  35.738  37.163  1.00  0.00     0.124 S 
ATOM     78  O   UNL A   1      39.282  36.173  38.358  1.00  0.00    -0.237 OA
ATOM     79  O   UNL A   1      41.414  35.434  37.337  1.00  0.00    -0.237 OA
ATOM     80  O   UNL A   1      39.663  36.459  35.937  1.00  0.00    -0.744 OA
ENDBRANCH  73  77
ENDBRANCH  46  70
BRANCH  58  81
ATOM     81  C   UNL A   1      44.570  27.757  34.391  1.00  0.00     0.023 A 
ATOM     82  C   UNL A   1      44.500  26.700  35.316  1.00  0.00     0.031 A 
ATOM     83  C   UNL A   1      45.778  28.467  34.286  1.00  0.00     0.131 A 
ATOM     84  C   UNL A   1      45.601  26.420  36.139  1.00  0.00     0.055 A 
ATOM     85  C   UNL A   1      46.888  28.148  35.069  1.00  0.00     0.041 A 
ATOM     86  F   UNL A   1      45.898  29.487  33.420  1.00  0.00    -0.206 F 
ATOM     87  C   UNL A   1      46.799  27.128  36.011  1.00  0.00     0.022 A 
BRANCH  84  88
ATOM     88  S   UNL A   1      45.419  25.172  37.443  1.00  0.00     0.124 S 
ATOM     89  O   UNL A   1      43.981  25.198  37.690  1.00  0.00    -0.237 OA
ATOM     90  O   UNL A   1      45.933  23.968  36.797  1.00  0.00    -0.237 OA
ATOM     91  O   UNL A   1      46.245  25.690  38.532  1.00  0.00    -0.744 OA
ENDBRANCH  84  88
ENDBRANCH  58  81
ENDBRANCH  32  33
ENDBRANCH  25  27
ENDBRANCH  24  25
ENDBRANCH  23  24
ENDBRANCH  22  23
ENDBRANCH   1  22
TORSDOF 20
ENDMDL
MODEL 3
REMARK VINA RESULT:     -10.0      5.181      7.822
REMARK SMILES CCCC[NH2+][C@H]1CS(=O)(=O)C[C@@H]1[NH2+]CC(=O)OCCOC(=O)c1ccc(-c2c3nc(c(-c4cc(S(=O)(=O)[O-])ccc4F)c4ccc([nH]4)c(-c4cc(S(=O)(=O)[O-])ccc4F)c4nc(c(-c5cc(S(=O)(=O)[O-])ccc5F)c5ccc2[nH]5)C=C4)C=C3)cc1
REMARK SMILES IDX 17 1 15 2 16 3 14 4 13 5 12 8 6 9 7 10 8 11 11 12 9 13 10 14
REMARK SMILES IDX 5 15 4 18 3 19 2 20 1 21 18 22 19 23 20 24 21 25 22 26 23 27
REMARK SMILES IDX 24 28 85 29 25 30 84 31 26 32 27 33 28 34 78 35 29 36 83 37
REMARK SMILES IDX 77 38 79 39 30 40 82 41 76 42 75 43 31 45 63 46 43 47 62 48
REMARK SMILES IDX 44 49 47 50 61 51 80 52 45 53 46 54 60 56 81 57 48 58 32 59
REMARK SMILES IDX 33 60 41 61 34 62 40 63 42 64 39 65 35 66 36 67 37 68 38 69
REMARK SMILES IDX 64 70 65 71 73 72 66 73 72 74 74 75 71 76 67 77 68 78 69 79
REMARK SMILES IDX 70 80 49 81 50 82 58 83 51 84 57 85 59 86 56 87 52 88 53 89
REMARK SMILES IDX 54 90 55 91
REMARK H PARENT 13 6 13 7 5 16 5 17 79 44 47 55
REMARK Flexibility Score: inf
ROOT
ATOM      1  O   UNL A   1      33.251  29.323  24.015  1.00  0.00    -0.458 OA
ENDROOT
BRANCH   1   2
ATOM      2  C   UNL A   1      33.693  28.210  23.367  1.00  0.00     0.361 C 
ATOM      3  O   UNL A   1      34.104  28.190  22.213  1.00  0.00    -0.245 OA
BRANCH   2   4
ATOM      4  C   UNL A   1      33.625  26.960  24.249  1.00  0.00     0.385 C 
BRANCH   4   5
ATOM      5  N   UNL A   1      32.844  25.877  23.615  1.00  0.00    -0.329 N 
ATOM      6  H   UNL A   1      31.857  26.134  23.639  1.00  0.00     0.347 HD
ATOM      7  H   UNL A   1      33.191  25.771  22.662  1.00  0.00     0.347 HD
BRANCH   5   8
ATOM      8  C   UNL A   1      33.005  24.576  24.286  1.00  0.00     0.258 C 
ATOM      9  C   UNL A   1      31.729  23.709  24.056  1.00  0.00     0.257 C 
ATOM     10  C   UNL A   1      30.660  24.223  25.025  1.00  0.00     0.208 C 
ATOM     11  S   UNL A   1      31.524  24.779  26.480  1.00  0.00     0.162 S 
ATOM     12  C   UNL A   1      33.170  24.762  25.800  1.00  0.00     0.208 C 
ATOM     13  O   UNL A   1      31.124  26.143  26.761  1.00  0.00    -0.228 OA
ATOM     14  O   UNL A   1      31.427  23.745  27.492  1.00  0.00    -0.228 OA
BRANCH   9  15
ATOM     15  N   UNL A   1      31.945  22.252  24.001  1.00  0.00    -0.338 N 
ATOM     16  H   UNL A   1      31.554  21.855  24.855  1.00  0.00     0.346 HD
ATOM     17  H   UNL A   1      31.496  21.960  23.132  1.00  0.00     0.346 HD
BRANCH  15  18
ATOM     18  C   UNL A   1      33.317  21.771  23.885  1.00  0.00     0.260 C 
BRANCH  18  19
ATOM     19  C   UNL A   1      33.703  20.884  25.078  1.00  0.00     0.061 C 
BRANCH  19  20
ATOM     20  C   UNL A   1      32.917  19.576  25.222  1.00  0.00     0.002 C 
ATOM     21  C   UNL A   1      32.844  18.758  23.942  1.00  0.00     0.004 C 
ENDBRANCH  19  20
ENDBRANCH  18  19
ENDBRANCH  15  18
ENDBRANCH   9  15
ENDBRANCH   5   8
ENDBRANCH   4   5
ENDBRANCH   2   4
ENDBRANCH   1   2
BRANCH   1  22
ATOM     22  C   UNL A   1      31.886  29.311  24.468  1.00  0.00     0.274 C 
BRANCH  22  23
ATOM     23  C   UNL A   1      31.641  30.444  25.471  1.00  0.00     0.275 C 
BRANCH  23  24
ATOM     24  O   UNL A   1      32.437  30.289  26.663  1.00  0.00    -0.458 OA
BRANCH  24  25
ATOM     25  C   UNL A   1      33.041  31.418  27.101  1.00  0.00     0.338 C 
ATOM     26  O   UNL A   1      32.569  32.542  27.135  1.00  0.00    -0.246 OA
BRANCH  25  27
ATOM     27  C   UNL A   1      34.346  31.111  27.704  1.00  0.00     0.060 A 
ATOM     28  C   UNL A   1      34.602  29.779  28.047  1.00  0.00     0.016 A 
ATOM     29  C   UNL A   1      35.259  32.117  28.018  1.00  0.00     0.016 A 
ATOM     30  C   UNL A   1      35.772  29.449  28.722  1.00  0.00     0.010 A 
ATOM     31  C   UNL A   1      36.438  31.782  28.690  1.00  0.00     0.010 A 
ATOM     32  C   UNL A   1      36.694  30.449  29.057  1.00  0.00    -0.014 A 
BRANCH  32  33
ATOM     33  C   UNL A   1      37.909  30.093  29.828  1.00  0.00     0.031 A 
ATOM     34  C   UNL A   1      38.918  29.149  29.241  1.00  0.00     0.074 A 
ATOM     35  C   UNL A   1      38.111  30.641  31.041  1.00  0.00     0.049 A 
ATOM     36  N   UNL A   1      40.018  28.678  29.771  1.00  0.00    -0.248 NA
ATOM     37  C   UNL A   1      38.650  28.669  27.878  1.00  0.00     0.031 C 
ATOM     38  C   UNL A   1      37.214  31.600  31.689  1.00  0.00     0.029 A 
ATOM     39  N   UNL A   1      39.130  30.473  31.941  1.00  0.00    -0.354 N 
ATOM     40  C   UNL A   1      40.573  27.839  28.811  1.00  0.00     0.074 A 
ATOM     41  C   UNL A   1      39.670  27.845  27.678  1.00  0.00     0.031 C 
ATOM     42  C   UNL A   1      37.726  31.935  32.885  1.00  0.00     0.029 A 
ATOM     43  C   UNL A   1      38.957  31.181  33.106  1.00  0.00     0.049 A 
ATOM     44  H   UNL A   1      39.912  29.900  31.770  1.00  0.00     0.167 HD
ATOM     45  C   UNL A   1      41.731  27.136  28.870  1.00  0.00     0.034 A 
ATOM     46  C   UNL A   1      39.692  31.196  34.236  1.00  0.00     0.034 A 
ATOM     47  C   UNL A   1      42.615  27.137  30.012  1.00  0.00     0.049 A 
ATOM     48  C   UNL A   1      40.935  30.350  34.306  1.00  0.00     0.074 A 
ATOM     49  C   UNL A   1      43.817  26.471  30.176  1.00  0.00     0.029 A 
ATOM     50  N   UNL A   1      42.386  27.832  31.194  1.00  0.00    -0.354 N 
ATOM     51  N   UNL A   1      41.448  29.557  33.392  1.00  0.00    -0.248 NA
ATOM     52  C   UNL A   1      41.702  30.402  35.557  1.00  0.00     0.031 C 
ATOM     53  C   UNL A   1      44.281  26.712  31.474  1.00  0.00     0.029 A 
ATOM     54  C   UNL A   1      43.406  27.585  32.100  1.00  0.00     0.049 A 
ATOM     55  H   UNL A   1      41.611  28.416  31.364  1.00  0.00     0.167 HD
ATOM     56  C   UNL A   1      42.610  29.035  33.953  1.00  0.00     0.074 A 
ATOM     57  C   UNL A   1      42.728  29.614  35.276  1.00  0.00     0.031 C 
ATOM     58  C   UNL A   1      43.501  28.158  33.422  1.00  0.00     0.034 A 
BRANCH  45  59
ATOM     59  C   UNL A   1      42.073  26.267  27.685  1.00  0.00     0.023 A 
ATOM     60  C   UNL A   1      41.675  24.921  27.616  1.00  0.00     0.031 A 
ATOM     61  C   UNL A   1      42.837  26.784  26.624  1.00  0.00     0.131 A 
ATOM     62  C   UNL A   1      42.100  24.120  26.544  1.00  0.00     0.055 A 
ATOM     63  C   UNL A   1      43.194  26.001  25.524  1.00  0.00     0.041 A 
ATOM     64  F   UNL A   1      43.264  28.056  26.647  1.00  0.00    -0.206 F 
ATOM     65  C   UNL A   1      42.838  24.657  25.486  1.00  0.00     0.022 A 
BRANCH  62  66
ATOM     66  S   UNL A   1      41.792  22.334  26.621  1.00  0.00     0.124 S 
ATOM     67  O   UNL A   1      42.477  21.971  27.860  1.00  0.00    -0.237 OA
ATOM     68  O   UNL A   1      40.336  22.267  26.654  1.00  0.00    -0.237 OA
ATOM     69  O   UNL A   1      42.415  21.826  25.401  1.00  0.00    -0.744 OA
ENDBRANCH  62  66
ENDBRANCH  45  59
BRANCH  46  70
ATOM     70  C   UNL A   1      39.249  32.002  35.408  1.00  0.00     0.023 A 
ATOM     71  C   UNL A   1      38.551  31.413  36.474  1.00  0.00     0.031 A 
ATOM     72  C   UNL A   1      39.486  33.387  35.459  1.00  0.00     0.131 A 
ATOM     73  C   UNL A   1      38.080  32.213  37.527  1.00  0.00     0.055 A 
ATOM     74  C   UNL A   1      39.059  34.170  36.531  1.00  0.00     0.041 A 
ATOM     75  F   UNL A   1      40.152  33.999  34.465  1.00  0.00    -0.206 F 
ATOM     76  C   UNL A   1      38.340  33.586  37.569  1.00  0.00     0.022 A 
BRANCH  73  77
ATOM     77  S   UNL A   1      37.055  31.445  38.810  1.00  0.00     0.124 S 
ATOM     78  O   UNL A   1      36.889  30.092  38.288  1.00  0.00    -0.237 OA
ATOM     79  O   UNL A   1      37.901  31.577  39.992  1.00  0.00    -0.237 OA
ATOM     80  O   UNL A   1      35.846  32.265  38.817  1.00  0.00    -0.744 OA
ENDBRANCH  73  77
ENDBRANCH  46  70
BRANCH  58  81
ATOM     81  C   UNL A   1      44.700  27.811  34.269  1.00  0.00     0.023 A 
ATOM     82  C   UNL A   1      44.686  26.723  35.159  1.00  0.00     0.031 A 
ATOM     83  C   UNL A   1      45.866  28.593  34.195  1.00  0.00     0.131 A 
ATOM     84  C   UNL A   1      45.797  26.480  35.981  1.00  0.00     0.055 A 
ATOM     85  C   UNL A   1      46.988  28.312  34.976  1.00  0.00     0.041 A 
ATOM     86  F   UNL A   1      45.931  29.645  33.362  1.00  0.00    -0.206 F 
ATOM     87  C   UNL A   1      46.953  27.259  35.884  1.00  0.00     0.022 A 
BRANCH  84  88
ATOM     88  S   UNL A   1      45.680  25.182  37.243  1.00  0.00     0.124 S 
ATOM     89  O   UNL A   1      45.640  23.970  36.431  1.00  0.00    -0.237 OA
ATOM     90  O   UNL A   1      46.899  25.390  38.018  1.00  0.00    -0.237 OA
ATOM     91  O   UNL A   1      44.439  25.498  37.947  1.00  0.00    -0.744 OA
ENDBRANCH  84  88
ENDBRANCH  58  81
ENDBRANCH  32  33
ENDBRANCH  25  27
ENDBRANCH  24  25
ENDBRANCH  23  24
ENDBRANCH  22  23
ENDBRANCH   1  22
TORSDOF 20
ENDMDL
