MODEL 1
REMARK VINA RESULT:     -11.8      0.000      0.000
REMARK SMILES O=C(OCCOC(=O)c1cccn1CC(=O)N1CCc2ccccc2C1)c1ccc(-c2c3nc(c(-c4cc(S(=O)(=O)[O-])ccc4F)c4ccc([nH]4)c(-c4cc(S(=O)(=O)[O-])ccc4F)c4nc(c(-c5cc(S(=O)(=O)[O-])ccc5F)c5ccc2[nH]5)C=C4)C=C3)cc1
REMARK SMILES IDX 4 1 3 2 2 3 1 4 27 5 28 6 89 7 29 8 88 9 30 10 31 11 32 12
REMARK SMILES IDX 82 13 33 14 87 15 81 16 83 17 34 18 86 19 80 20 79 21 35 23
REMARK SMILES IDX 67 24 47 25 66 26 48 27 51 28 65 29 84 30 49 31 50 32 64 34
REMARK SMILES IDX 85 35 52 36 36 37 37 38 45 39 38 40 44 41 46 42 43 43 39 44
REMARK SMILES IDX 40 45 41 46 42 47 68 48 69 49 77 50 70 51 76 52 78 53 75 54
REMARK SMILES IDX 71 55 72 56 73 57 74 58 53 59 54 60 62 61 55 62 61 63 63 64
REMARK SMILES IDX 60 65 56 66 57 67 58 68 59 69 5 70 6 71 7 72 8 73 9 74 10 75
REMARK SMILES IDX 13 76 11 77 12 78 14 79 15 80 16 81 17 82 18 83 26 84 19 85
REMARK SMILES IDX 25 86 20 87 24 88 21 89 23 90 22 91
REMARK H PARENT 83 22 51 33
REMARK Flexibility Score: inf
ROOT
ATOM      1  C   UNL A   1      39.298  21.151  26.114  1.00  0.00     0.275 C 
ENDROOT
BRANCH   1   2
ATOM      2  O   UNL A   1      40.462  20.511  25.507  1.00  0.00    -0.458 OA
BRANCH   2   3
ATOM      3  C   UNL A   1      41.484  20.460  26.392  1.00  0.00     0.338 C 
ATOM      4  O   UNL A   1      42.017  19.393  26.668  1.00  0.00    -0.246 OA
BRANCH   3   5
ATOM      5  C   UNL A   1      42.179  21.633  26.951  1.00  0.00     0.060 A 
ATOM      6  C   UNL A   1      42.001  22.085  28.240  1.00  0.00     0.016 A 
ATOM      7  C   UNL A   1      42.563  22.557  25.969  1.00  0.00     0.016 A 
ATOM      8  C   UNL A   1      42.062  23.477  28.463  1.00  0.00     0.010 A 
ATOM      9  C   UNL A   1      42.473  23.929  26.149  1.00  0.00     0.010 A 
ATOM     10  C   UNL A   1      42.190  24.422  27.404  1.00  0.00    -0.014 A 
BRANCH  10  11
ATOM     11  C   UNL A   1      42.579  25.823  27.738  1.00  0.00     0.031 A 
ATOM     12  C   UNL A   1      43.817  25.683  28.562  1.00  0.00     0.074 A 
ATOM     13  C   UNL A   1      41.833  26.943  27.544  1.00  0.00     0.049 A 
ATOM     14  N   UNL A   1      43.955  25.652  29.847  1.00  0.00    -0.248 NA
ATOM     15  C   UNL A   1      44.999  25.154  27.825  1.00  0.00     0.031 C 
ATOM     16  C   UNL A   1      41.064  27.323  26.355  1.00  0.00     0.029 A 
ATOM     17  N   UNL A   1      41.559  28.002  28.383  1.00  0.00    -0.354 N 
ATOM     18  C   UNL A   1      45.297  25.313  30.026  1.00  0.00     0.074 A 
ATOM     19  C   UNL A   1      45.726  24.663  28.825  1.00  0.00     0.031 C 
ATOM     20  C   UNL A   1      40.245  28.375  26.620  1.00  0.00     0.029 A 
ATOM     21  C   UNL A   1      40.425  28.781  28.000  1.00  0.00     0.049 A 
ATOM     22  H   UNL A   1      42.101  28.204  29.180  1.00  0.00     0.167 HD
ATOM     23  C   UNL A   1      46.093  25.904  30.951  1.00  0.00     0.034 A 
ATOM     24  C   UNL A   1      39.690  29.642  28.778  1.00  0.00     0.034 A 
ATOM     25  C   UNL A   1      45.362  26.890  31.682  1.00  0.00     0.049 A 
ATOM     26  C   UNL A   1      40.608  29.914  29.892  1.00  0.00     0.074 A 
ATOM     27  C   UNL A   1      44.460  26.864  32.709  1.00  0.00     0.029 A 
ATOM     28  N   UNL A   1      45.373  28.161  31.147  1.00  0.00    -0.354 N 
ATOM     29  N   UNL A   1      41.687  30.617  29.747  1.00  0.00    -0.248 NA
ATOM     30  C   UNL A   1      40.365  29.371  31.230  1.00  0.00     0.031 C 
ATOM     31  C   UNL A   1      43.749  28.085  32.609  1.00  0.00     0.029 A 
ATOM     32  C   UNL A   1      44.216  28.807  31.506  1.00  0.00     0.049 A 
ATOM     33  H   UNL A   1      46.094  28.543  30.595  1.00  0.00     0.167 HD
ATOM     34  C   UNL A   1      42.434  30.261  30.834  1.00  0.00     0.074 A 
ATOM     35  C   UNL A   1      41.475  29.812  31.823  1.00  0.00     0.031 C 
ATOM     36  C   UNL A   1      43.728  29.877  30.647  1.00  0.00     0.034 A 
BRANCH  23  37
ATOM     37  C   UNL A   1      47.590  25.922  31.032  1.00  0.00     0.023 A 
ATOM     38  C   UNL A   1      48.252  26.059  29.798  1.00  0.00     0.031 A 
ATOM     39  C   UNL A   1      48.386  25.565  32.136  1.00  0.00     0.131 A 
ATOM     40  C   UNL A   1      49.610  25.753  29.670  1.00  0.00     0.055 A 
ATOM     41  C   UNL A   1      49.761  25.341  32.020  1.00  0.00     0.041 A 
ATOM     42  F   UNL A   1      47.876  25.322  33.350  1.00  0.00    -0.206 F 
ATOM     43  C   UNL A   1      50.374  25.402  30.777  1.00  0.00     0.022 A 
BRANCH  40  44
ATOM     44  S   UNL A   1      50.300  25.681  28.000  1.00  0.00     0.124 S 
ATOM     45  O   UNL A   1      49.686  26.842  27.363  1.00  0.00    -0.237 OA
ATOM     46  O   UNL A   1      51.733  25.779  28.261  1.00  0.00    -0.237 OA
ATOM     47  O   UNL A   1      49.844  24.385  27.504  1.00  0.00    -0.744 OA
ENDBRANCH  40  44
ENDBRANCH  23  37
BRANCH  24  48
ATOM     48  C   UNL A   1      38.377  30.417  28.843  1.00  0.00     0.023 A 
ATOM     49  C   UNL A   1      38.193  31.748  29.267  1.00  0.00     0.031 A 
ATOM     50  C   UNL A   1      37.216  29.820  28.248  1.00  0.00     0.131 A 
ATOM     51  C   UNL A   1      36.944  32.407  29.035  1.00  0.00     0.055 A 
ATOM     52  C   UNL A   1      36.035  30.497  27.943  1.00  0.00     0.041 A 
ATOM     53  F   UNL A   1      37.182  28.527  27.890  1.00  0.00    -0.206 F 
ATOM     54  C   UNL A   1      35.898  31.806  28.326  1.00  0.00     0.022 A 
BRANCH  51  55
ATOM     55  S   UNL A   1      36.607  34.102  29.614  1.00  0.00     0.124 S 
ATOM     56  O   UNL A   1      37.922  34.725  29.503  1.00  0.00    -0.237 OA
ATOM     57  O   UNL A   1      35.589  34.578  28.685  1.00  0.00    -0.237 OA
ATOM     58  O   UNL A   1      36.137  33.895  30.985  1.00  0.00    -0.744 OA
ENDBRANCH  51  55
ENDBRANCH  24  48
BRANCH  36  59
ATOM     59  C   UNL A   1      44.276  30.281  29.252  1.00  0.00     0.023 A 
ATOM     60  C   UNL A   1      44.628  29.308  28.289  1.00  0.00     0.031 A 
ATOM     61  C   UNL A   1      44.658  31.600  28.934  1.00  0.00     0.131 A 
ATOM     62  C   UNL A   1      45.375  29.651  27.139  1.00  0.00     0.055 A 
ATOM     63  C   UNL A   1      45.395  31.947  27.793  1.00  0.00     0.041 A 
ATOM     64  F   UNL A   1      44.325  32.614  29.732  1.00  0.00    -0.206 F 
ATOM     65  C   UNL A   1      45.769  30.966  26.891  1.00  0.00     0.022 A 
BRANCH  62  66
ATOM     66  S   UNL A   1      45.819  28.368  25.930  1.00  0.00     0.124 S 
ATOM     67  O   UNL A   1      46.533  29.120  24.905  1.00  0.00    -0.237 OA
ATOM     68  O   UNL A   1      46.623  27.446  26.725  1.00  0.00    -0.237 OA
ATOM     69  O   UNL A   1      44.522  27.833  25.510  1.00  0.00    -0.744 OA
ENDBRANCH  62  66
ENDBRANCH  36  59
ENDBRANCH  10  11
ENDBRANCH   3   5
ENDBRANCH   2   3
ENDBRANCH   1   2
BRANCH   1  70
ATOM     70  C   UNL A   1      38.021  21.314  25.245  1.00  0.00     0.275 C 
BRANCH  70  71
ATOM     71  O   UNL A   1      36.825  21.599  25.989  1.00  0.00    -0.457 OA
BRANCH  71  72
ATOM     72  C   UNL A   1      35.653  21.050  25.527  1.00  0.00     0.355 C 
ATOM     73  O   UNL A   1      35.575  20.058  24.830  1.00  0.00    -0.244 OA
BRANCH  72  74
ATOM     74  C   UNL A   1      34.545  21.773  26.137  1.00  0.00     0.128 A 
ATOM     75  C   UNL A   1      34.270  21.882  27.494  1.00  0.00     0.035 A 
ATOM     76  N   UNL A   1      33.440  22.295  25.447  1.00  0.00    -0.333 N 
ATOM     77  C   UNL A   1      33.052  22.574  27.647  1.00  0.00     0.020 A 
ATOM     78  C   UNL A   1      32.598  22.881  26.380  1.00  0.00     0.087 A 
BRANCH  76  79
ATOM     79  C   UNL A   1      33.209  22.234  23.975  1.00  0.00     0.222 C 
BRANCH  79  80
ATOM     80  C   UNL A   1      33.377  23.504  23.091  1.00  0.00     0.242 C 
ATOM     81  O   UNL A   1      33.998  23.376  22.025  1.00  0.00    -0.273 OA
BRANCH  80  82
ATOM     82  N   UNL A   1      32.734  24.729  23.399  1.00  0.00    -0.336 N 
ATOM     83  C   UNL A   1      31.320  25.036  23.236  1.00  0.00     0.124 C 
ATOM     84  C   UNL A   1      33.532  25.934  23.736  1.00  0.00     0.155 C 
ATOM     85  C   UNL A   1      30.699  25.904  24.364  1.00  0.00     0.057 C 
ATOM     86  C   UNL A   1      32.966  26.750  24.889  1.00  0.00    -0.025 A 
ATOM     87  C   UNL A   1      31.652  26.582  25.303  1.00  0.00    -0.041 A 
ATOM     88  C   UNL A   1      33.726  27.702  25.576  1.00  0.00     0.006 A 
ATOM     89  C   UNL A   1      31.225  27.129  26.536  1.00  0.00     0.004 A 
ATOM     90  C   UNL A   1      33.340  28.208  26.821  1.00  0.00     0.000 A 
ATOM     91  C   UNL A   1      32.097  27.876  27.330  1.00  0.00     0.000 A 
ENDBRANCH  80  82
ENDBRANCH  79  80
ENDBRANCH  76  79
ENDBRANCH  72  74
ENDBRANCH  71  72
ENDBRANCH  70  71
ENDBRANCH   1  70
TORSDOF 17
ENDMDL
MODEL 2
REMARK VINA RESULT:     -11.6      4.822     10.691
REMARK SMILES O=C(OCCOC(=O)c1cccn1CC(=O)N1CCc2ccccc2C1)c1ccc(-c2c3nc(c(-c4cc(S(=O)(=O)[O-])ccc4F)c4ccc([nH]4)c(-c4cc(S(=O)(=O)[O-])ccc4F)c4nc(c(-c5cc(S(=O)(=O)[O-])ccc5F)c5ccc2[nH]5)C=C4)C=C3)cc1
REMARK SMILES IDX 4 1 3 2 2 3 1 4 27 5 28 6 89 7 29 8 88 9 30 10 31 11 32 12
REMARK SMILES IDX 82 13 33 14 87 15 81 16 83 17 34 18 86 19 80 20 79 21 35 23
REMARK SMILES IDX 67 24 47 25 66 26 48 27 51 28 65 29 84 30 49 31 50 32 64 34
REMARK SMILES IDX 85 35 52 36 36 37 37 38 45 39 38 40 44 41 46 42 43 43 39 44
REMARK SMILES IDX 40 45 41 46 42 47 68 48 69 49 77 50 70 51 76 52 78 53 75 54
REMARK SMILES IDX 71 55 72 56 73 57 74 58 53 59 54 60 62 61 55 62 61 63 63 64
REMARK SMILES IDX 60 65 56 66 57 67 58 68 59 69 5 70 6 71 7 72 8 73 9 74 10 75
REMARK SMILES IDX 13 76 11 77 12 78 14 79 15 80 16 81 17 82 18 83 26 84 19 85
REMARK SMILES IDX 25 86 20 87 24 88 21 89 23 90 22 91
REMARK H PARENT 83 22 51 33
REMARK Flexibility Score: inf
ROOT
ATOM      1  C   UNL A   1      39.238  23.192  26.532  1.00  0.00     0.275 C 
ENDROOT
BRANCH   1   2
ATOM      2  O   UNL A   1      39.253  24.164  27.621  1.00  0.00    -0.458 OA
BRANCH   2   3
ATOM      3  C   UNL A   1      39.693  25.363  27.174  1.00  0.00     0.338 C 
ATOM      4  O   UNL A   1      40.095  25.491  26.026  1.00  0.00    -0.246 OA
BRANCH   3   5
ATOM      5  C   UNL A   1      39.561  26.637  27.902  1.00  0.00     0.060 A 
ATOM      6  C   UNL A   1      39.996  27.849  27.409  1.00  0.00     0.016 A 
ATOM      7  C   UNL A   1      39.506  26.467  29.293  1.00  0.00     0.016 A 
ATOM      8  C   UNL A   1      40.508  28.787  28.329  1.00  0.00     0.010 A 
ATOM      9  C   UNL A   1      40.146  27.317  30.182  1.00  0.00     0.010 A 
ATOM     10  C   UNL A   1      40.690  28.492  29.711  1.00  0.00    -0.014 A 
BRANCH  10  11
ATOM     11  C   UNL A   1      40.914  29.620  30.661  1.00  0.00     0.031 A 
ATOM     12  C   UNL A   1      39.675  30.449  30.558  1.00  0.00     0.074 A 
ATOM     13  C   UNL A   1      42.079  29.943  31.282  1.00  0.00     0.049 A 
ATOM     14  N   UNL A   1      39.439  31.494  29.835  1.00  0.00    -0.248 NA
ATOM     15  C   UNL A   1      38.441  29.792  31.073  1.00  0.00     0.031 C 
ATOM     16  C   UNL A   1      43.026  29.047  31.951  1.00  0.00     0.029 A 
ATOM     17  N   UNL A   1      42.714  31.157  31.435  1.00  0.00    -0.354 N 
ATOM     18  C   UNL A   1      38.071  31.713  30.009  1.00  0.00     0.074 A 
ATOM     19  C   UNL A   1      37.500  30.467  30.419  1.00  0.00     0.031 C 
ATOM     20  C   UNL A   1      44.193  29.687  32.225  1.00  0.00     0.029 A 
ATOM     21  C   UNL A   1      44.098  31.061  31.773  1.00  0.00     0.049 A 
ATOM     22  H   UNL A   1      42.252  32.019  31.320  1.00  0.00     0.167 HD
ATOM     23  C   UNL A   1      37.536  32.945  30.194  1.00  0.00     0.034 A 
ATOM     24  C   UNL A   1      45.069  32.025  31.643  1.00  0.00     0.034 A 
ATOM     25  C   UNL A   1      38.560  33.941  30.182  1.00  0.00     0.049 A 
ATOM     26  C   UNL A   1      44.273  33.254  31.538  1.00  0.00     0.074 A 
ATOM     27  C   UNL A   1      39.282  34.577  29.210  1.00  0.00     0.029 A 
ATOM     28  N   UNL A   1      39.135  34.222  31.403  1.00  0.00    -0.354 N 
ATOM     29  N   UNL A   1      43.613  33.743  32.541  1.00  0.00    -0.248 NA
ATOM     30  C   UNL A   1      44.156  33.981  30.272  1.00  0.00     0.031 C 
ATOM     31  C   UNL A   1      40.452  35.038  29.861  1.00  0.00     0.029 A 
ATOM     32  C   UNL A   1      40.426  34.645  31.203  1.00  0.00     0.049 A 
ATOM     33  H   UNL A   1      38.691  34.133  32.279  1.00  0.00     0.167 HD
ATOM     34  C   UNL A   1      42.704  34.566  31.939  1.00  0.00     0.074 A 
ATOM     35  C   UNL A   1      43.299  34.924  30.667  1.00  0.00     0.031 C 
ATOM     36  C   UNL A   1      41.389  34.455  32.278  1.00  0.00     0.034 A 
BRANCH  23  37
ATOM     37  C   UNL A   1      36.189  33.315  30.740  1.00  0.00     0.023 A 
ATOM     38  C   UNL A   1      35.296  33.863  29.801  1.00  0.00     0.031 A 
ATOM     39  C   UNL A   1      35.818  33.416  32.093  1.00  0.00     0.131 A 
ATOM     40  C   UNL A   1      34.156  34.559  30.210  1.00  0.00     0.055 A 
ATOM     41  C   UNL A   1      34.635  34.040  32.495  1.00  0.00     0.041 A 
ATOM     42  F   UNL A   1      36.610  33.010  33.094  1.00  0.00    -0.206 F 
ATOM     43  C   UNL A   1      33.812  34.646  31.555  1.00  0.00     0.022 A 
BRANCH  40  44
ATOM     44  S   UNL A   1      33.231  35.470  28.952  1.00  0.00     0.124 S 
ATOM     45  O   UNL A   1      32.534  34.399  28.246  1.00  0.00    -0.237 OA
ATOM     46  O   UNL A   1      32.395  36.347  29.767  1.00  0.00    -0.237 OA
ATOM     47  O   UNL A   1      34.278  36.143  28.187  1.00  0.00    -0.744 OA
ENDBRANCH  40  44
ENDBRANCH  23  37
BRANCH  24  48
ATOM     48  C   UNL A   1      46.578  32.252  31.646  1.00  0.00     0.023 A 
ATOM     49  C   UNL A   1      47.293  33.218  32.382  1.00  0.00     0.031 A 
ATOM     50  C   UNL A   1      47.403  31.283  30.982  1.00  0.00     0.131 A 
ATOM     51  C   UNL A   1      48.719  33.141  32.467  1.00  0.00     0.055 A 
ATOM     52  C   UNL A   1      48.783  31.162  31.145  1.00  0.00     0.041 A 
ATOM     53  F   UNL A   1      46.895  30.361  30.151  1.00  0.00    -0.206 F 
ATOM     54  C   UNL A   1      49.450  32.089  31.904  1.00  0.00     0.022 A 
BRANCH  51  55
ATOM     55  S   UNL A   1      49.718  34.390  33.341  1.00  0.00     0.124 S 
ATOM     56  O   UNL A   1      50.030  35.330  32.269  1.00  0.00    -0.237 OA
ATOM     57  O   UNL A   1      48.816  34.876  34.379  1.00  0.00    -0.237 OA
ATOM     58  O   UNL A   1      50.859  33.615  33.833  1.00  0.00    -0.744 OA
ENDBRANCH  51  55
ENDBRANCH  24  48
BRANCH  36  59
ATOM     59  C   UNL A   1      41.177  33.665  33.597  1.00  0.00     0.023 A 
ATOM     60  C   UNL A   1      40.483  32.433  33.613  1.00  0.00     0.031 A 
ATOM     61  C   UNL A   1      41.457  34.208  34.867  1.00  0.00     0.131 A 
ATOM     62  C   UNL A   1      40.050  31.851  34.827  1.00  0.00     0.055 A 
ATOM     63  C   UNL A   1      41.034  33.634  36.074  1.00  0.00     0.041 A 
ATOM     64  F   UNL A   1      42.162  35.332  34.983  1.00  0.00    -0.206 F 
ATOM     65  C   UNL A   1      40.314  32.452  36.058  1.00  0.00     0.022 A 
BRANCH  62  66
ATOM     66  S   UNL A   1      39.150  30.273  34.805  1.00  0.00     0.124 S 
ATOM     67  O   UNL A   1      37.937  30.599  34.064  1.00  0.00    -0.237 OA
ATOM     68  O   UNL A   1      40.090  29.379  34.134  1.00  0.00    -0.237 OA
ATOM     69  O   UNL A   1      38.943  29.978  36.224  1.00  0.00    -0.744 OA
ENDBRANCH  62  66
ENDBRANCH  36  59
ENDBRANCH  10  11
ENDBRANCH   3   5
ENDBRANCH   2   3
ENDBRANCH   1   2
BRANCH   1  70
ATOM     70  C   UNL A   1      39.948  21.829  26.761  1.00  0.00     0.275 C 
BRANCH  70  71
ATOM     71  O   UNL A   1      41.224  21.706  26.113  1.00  0.00    -0.457 OA
BRANCH  71  72
ATOM     72  C   UNL A   1      42.236  21.113  26.830  1.00  0.00     0.355 C 
ATOM     73  O   UNL A   1      42.261  20.998  28.039  1.00  0.00    -0.244 OA
BRANCH  72  74
ATOM     74  C   UNL A   1      43.178  20.530  25.882  1.00  0.00     0.128 A 
ATOM     75  C   UNL A   1      43.128  19.253  25.338  1.00  0.00     0.035 A 
ATOM     76  N   UNL A   1      44.419  21.082  25.530  1.00  0.00    -0.333 N 
ATOM     77  C   UNL A   1      44.283  19.056  24.556  1.00  0.00     0.020 A 
ATOM     78  C   UNL A   1      45.025  20.219  24.629  1.00  0.00     0.087 A 
BRANCH  76  79
ATOM     79  C   UNL A   1      44.989  22.366  26.031  1.00  0.00     0.222 C 
BRANCH  79  80
ATOM     80  C   UNL A   1      44.496  23.729  25.464  1.00  0.00     0.242 C 
ATOM     81  O   UNL A   1      44.648  23.927  24.250  1.00  0.00    -0.273 OA
BRANCH  80  82
ATOM     82  N   UNL A   1      43.772  24.658  26.253  1.00  0.00    -0.336 N 
ATOM     83  C   UNL A   1      43.178  24.415  27.560  1.00  0.00     0.124 C 
ATOM     84  C   UNL A   1      43.360  25.966  25.686  1.00  0.00     0.155 C 
ATOM     85  C   UNL A   1      43.287  25.596  28.563  1.00  0.00     0.057 C 
ATOM     86  C   UNL A   1      43.531  27.138  26.641  1.00  0.00    -0.025 A 
ATOM     87  C   UNL A   1      43.689  26.929  28.004  1.00  0.00    -0.041 A 
ATOM     88  C   UNL A   1      43.532  28.466  26.204  1.00  0.00     0.006 A 
ATOM     89  C   UNL A   1      44.124  27.987  28.835  1.00  0.00     0.004 A 
ATOM     90  C   UNL A   1      44.012  29.513  26.997  1.00  0.00     0.000 A 
ATOM     91  C   UNL A   1      44.361  29.260  28.312  1.00  0.00     0.000 A 
ENDBRANCH  80  82
ENDBRANCH  79  80
ENDBRANCH  76  79
ENDBRANCH  72  74
ENDBRANCH  71  72
ENDBRANCH  70  71
ENDBRANCH   1  70
TORSDOF 17
ENDMDL
MODEL 3
REMARK VINA RESULT:     -11.5      2.898      3.690
REMARK SMILES O=C(OCCOC(=O)c1cccn1CC(=O)N1CCc2ccccc2C1)c1ccc(-c2c3nc(c(-c4cc(S(=O)(=O)[O-])ccc4F)c4ccc([nH]4)c(-c4cc(S(=O)(=O)[O-])ccc4F)c4nc(c(-c5cc(S(=O)(=O)[O-])ccc5F)c5ccc2[nH]5)C=C4)C=C3)cc1
REMARK SMILES IDX 4 1 3 2 2 3 1 4 27 5 28 6 89 7 29 8 88 9 30 10 31 11 32 12
REMARK SMILES IDX 82 13 33 14 87 15 81 16 83 17 34 18 86 19 80 20 79 21 35 23
REMARK SMILES IDX 67 24 47 25 66 26 48 27 51 28 65 29 84 30 49 31 50 32 64 34
REMARK SMILES IDX 85 35 52 36 36 37 37 38 45 39 38 40 44 41 46 42 43 43 39 44
REMARK SMILES IDX 40 45 41 46 42 47 68 48 69 49 77 50 70 51 76 52 78 53 75 54
REMARK SMILES IDX 71 55 72 56 73 57 74 58 53 59 54 60 62 61 55 62 61 63 63 64
REMARK SMILES IDX 60 65 56 66 57 67 58 68 59 69 5 70 6 71 7 72 8 73 9 74 10 75
REMARK SMILES IDX 13 76 11 77 12 78 14 79 15 80 16 81 17 82 18 83 26 84 19 85
REMARK SMILES IDX 25 86 20 87 24 88 21 89 23 90 22 91
REMARK H PARENT 83 22 51 33
REMARK Flexibility Score: inf
ROOT
ATOM      1  C   UNL A   1      38.897  21.053  25.691  1.00  0.00     0.275 C 
ENDROOT
BRANCH   1   2
ATOM      2  O   UNL A   1      39.650  21.419  26.888  1.00  0.00    -0.458 OA
BRANCH   2   3
ATOM      3  C   UNL A   1      40.682  22.231  26.563  1.00  0.00     0.338 C 
ATOM      4  O   UNL A   1      41.688  21.779  26.031  1.00  0.00    -0.246 OA
BRANCH   3   5
ATOM      5  C   UNL A   1      40.650  23.703  26.616  1.00  0.00     0.060 A 
ATOM      6  C   UNL A   1      41.705  24.506  26.239  1.00  0.00     0.016 A 
ATOM      7  C   UNL A   1      39.751  24.194  27.574  1.00  0.00     0.016 A 
ATOM      8  C   UNL A   1      41.906  25.706  26.953  1.00  0.00     0.010 A 
ATOM      9  C   UNL A   1      40.030  25.289  28.377  1.00  0.00     0.010 A 
ATOM     10  C   UNL A   1      41.138  26.059  28.099  1.00  0.00    -0.014 A 
BRANCH  10  11
ATOM     11  C   UNL A   1      41.183  27.469  28.585  1.00  0.00     0.031 A 
ATOM     12  C   UNL A   1      42.198  27.457  29.681  1.00  0.00     0.074 A 
ATOM     13  C   UNL A   1      40.317  28.467  28.267  1.00  0.00     0.049 A 
ATOM     14  N   UNL A   1      42.034  27.333  30.957  1.00  0.00    -0.248 NA
ATOM     15  C   UNL A   1      43.594  27.192  29.234  1.00  0.00     0.031 C 
ATOM     16  C   UNL A   1      39.793  28.823  26.945  1.00  0.00     0.029 A 
ATOM     17  N   UNL A   1      39.670  29.389  29.062  1.00  0.00    -0.354 N 
ATOM     18  C   UNL A   1      43.335  27.199  31.445  1.00  0.00     0.074 A 
ATOM     19  C   UNL A   1      44.141  26.737  30.358  1.00  0.00     0.031 C 
ATOM     20  C   UNL A   1      38.761  29.702  27.050  1.00  0.00     0.029 A 
ATOM     21  C   UNL A   1      38.538  30.006  28.449  1.00  0.00     0.049 A 
ATOM     22  H   UNL A   1      39.965  29.603  29.977  1.00  0.00     0.167 HD
ATOM     23  C   UNL A   1      43.774  27.825  32.566  1.00  0.00     0.034 A 
ATOM     24  C   UNL A   1      37.499  30.665  29.063  1.00  0.00     0.034 A 
ATOM     25  C   UNL A   1      42.728  28.612  33.140  1.00  0.00     0.049 A 
ATOM     26  C   UNL A   1      38.067  30.980  30.380  1.00  0.00     0.074 A 
ATOM     27  C   UNL A   1      41.629  28.350  33.911  1.00  0.00     0.029 A 
ATOM     28  N   UNL A   1      42.639  29.911  32.685  1.00  0.00    -0.354 N 
ATOM     29  N   UNL A   1      39.008  31.857  30.540  1.00  0.00    -0.248 NA
ATOM     30  C   UNL A   1      37.618  30.287  31.589  1.00  0.00     0.031 C 
ATOM     31  C   UNL A   1      40.757  29.444  33.696  1.00  0.00     0.029 A 
ATOM     32  C   UNL A   1      41.333  30.328  32.778  1.00  0.00     0.049 A 
ATOM     33  H   UNL A   1      43.390  30.452  32.347  1.00  0.00     0.167 HD
ATOM     34  C   UNL A   1      39.530  31.530  31.758  1.00  0.00     0.074 A 
ATOM     35  C   UNL A   1      38.461  30.846  32.458  1.00  0.00     0.031 C 
ATOM     36  C   UNL A   1      40.879  31.378  31.878  1.00  0.00     0.034 A 
BRANCH  23  37
ATOM     37  C   UNL A   1      45.182  28.076  33.014  1.00  0.00     0.023 A 
ATOM     38  C   UNL A   1      45.607  27.299  34.107  1.00  0.00     0.031 A 
ATOM     39  C   UNL A   1      46.013  29.151  32.647  1.00  0.00     0.131 A 
ATOM     40  C   UNL A   1      46.742  27.648  34.844  1.00  0.00     0.055 A 
ATOM     41  C   UNL A   1      47.192  29.448  33.335  1.00  0.00     0.041 A 
ATOM     42  F   UNL A   1      45.690  30.019  31.680  1.00  0.00    -0.206 F 
ATOM     43  C   UNL A   1      47.546  28.716  34.460  1.00  0.00     0.022 A 
BRANCH  40  44
ATOM     44  S   UNL A   1      47.042  26.764  36.392  1.00  0.00     0.124 S 
ATOM     45  O   UNL A   1      48.447  27.065  36.651  1.00  0.00    -0.237 OA
ATOM     46  O   UNL A   1      46.078  27.393  37.291  1.00  0.00    -0.237 OA
ATOM     47  O   UNL A   1      46.756  25.374  36.047  1.00  0.00    -0.744 OA
ENDBRANCH  40  44
ENDBRANCH  23  37
BRANCH  24  48
ATOM     48  C   UNL A   1      36.092  31.210  28.839  1.00  0.00     0.023 A 
ATOM     49  C   UNL A   1      35.622  32.505  29.135  1.00  0.00     0.031 A 
ATOM     50  C   UNL A   1      35.173  30.405  28.084  1.00  0.00     0.131 A 
ATOM     51  C   UNL A   1      34.351  32.936  28.639  1.00  0.00     0.055 A 
ATOM     52  C   UNL A   1      33.979  30.863  27.529  1.00  0.00     0.041 A 
ATOM     53  F   UNL A   1      35.413  29.114  27.812  1.00  0.00    -0.206 F 
ATOM     54  C   UNL A   1      33.566  32.143  27.794  1.00  0.00     0.022 A 
BRANCH  51  55
ATOM     55  S   UNL A   1      33.646  34.569  29.035  1.00  0.00     0.124 S 
ATOM     56  O   UNL A   1      32.379  34.534  28.311  1.00  0.00    -0.237 OA
ATOM     57  O   UNL A   1      33.554  34.551  30.490  1.00  0.00    -0.237 OA
ATOM     58  O   UNL A   1      34.640  35.498  28.494  1.00  0.00    -0.744 OA
ENDBRANCH  51  55
ENDBRANCH  24  48
BRANCH  36  59
ATOM     59  C   UNL A   1      41.657  31.988  30.682  1.00  0.00     0.023 A 
ATOM     60  C   UNL A   1      42.390  31.173  29.788  1.00  0.00     0.031 A 
ATOM     61  C   UNL A   1      41.867  33.374  30.534  1.00  0.00     0.131 A 
ATOM     62  C   UNL A   1      43.312  31.733  28.875  1.00  0.00     0.055 A 
ATOM     63  C   UNL A   1      42.777  33.935  29.627  1.00  0.00     0.041 A 
ATOM     64  F   UNL A   1      41.184  34.246  31.274  1.00  0.00    -0.206 F 
ATOM     65  C   UNL A   1      43.517  33.111  28.797  1.00  0.00     0.022 A 
BRANCH  62  66
ATOM     66  S   UNL A   1      44.244  30.651  27.750  1.00  0.00     0.124 S 
ATOM     67  O   UNL A   1      43.196  29.850  27.127  1.00  0.00    -0.237 OA
ATOM     68  O   UNL A   1      44.924  31.605  26.879  1.00  0.00    -0.237 OA
ATOM     69  O   UNL A   1      45.132  29.910  28.648  1.00  0.00    -0.744 OA
ENDBRANCH  62  66
ENDBRANCH  36  59
ENDBRANCH  10  11
ENDBRANCH   3   5
ENDBRANCH   2   3
ENDBRANCH   1   2
BRANCH   1  70
ATOM     70  C   UNL A   1      37.588  21.832  25.387  1.00  0.00     0.275 C 
BRANCH  70  71
ATOM     71  O   UNL A   1      36.402  21.022  25.370  1.00  0.00    -0.457 OA
BRANCH  71  72
ATOM     72  C   UNL A   1      35.245  21.595  25.843  1.00  0.00     0.355 C 
ATOM     73  O   UNL A   1      35.188  22.417  26.735  1.00  0.00    -0.244 OA
BRANCH  72  74
ATOM     74  C   UNL A   1      34.146  21.155  24.994  1.00  0.00     0.128 A 
ATOM     75  C   UNL A   1      33.542  19.904  24.995  1.00  0.00     0.035 A 
ATOM     76  N   UNL A   1      33.658  21.848  23.876  1.00  0.00    -0.333 N 
ATOM     77  C   UNL A   1      32.598  19.863  23.950  1.00  0.00     0.020 A 
ATOM     78  C   UNL A   1      32.634  21.093  23.323  1.00  0.00     0.087 A 
BRANCH  76  79
ATOM     79  C   UNL A   1      34.147  23.163  23.369  1.00  0.00     0.222 C 
BRANCH  79  80
ATOM     80  C   UNL A   1      33.149  24.227  22.827  1.00  0.00     0.242 C 
ATOM     81  O   UNL A   1      33.067  24.353  21.596  1.00  0.00    -0.273 OA
BRANCH  80  82
ATOM     82  N   UNL A   1      32.259  24.930  23.677  1.00  0.00    -0.336 N 
ATOM     83  C   UNL A   1      32.043  24.696  25.098  1.00  0.00     0.124 C 
ATOM     84  C   UNL A   1      31.267  25.877  23.109  1.00  0.00     0.155 C 
ATOM     85  C   UNL A   1      31.838  25.976  25.953  1.00  0.00     0.057 C 
ATOM     86  C   UNL A   1      31.113  27.165  23.905  1.00  0.00    -0.025 A 
ATOM     87  C   UNL A   1      31.570  27.253  25.213  1.00  0.00    -0.041 A 
ATOM     88  C   UNL A   1      30.507  28.307  23.372  1.00  0.00     0.006 A 
ATOM     89  C   UNL A   1      31.679  28.517  25.839  1.00  0.00     0.004 A 
ATOM     90  C   UNL A   1      30.654  29.571  23.952  1.00  0.00     0.000 A 
ATOM     91  C   UNL A   1      31.293  29.683  25.174  1.00  0.00     0.000 A 
ENDBRANCH  80  82
ENDBRANCH  79  80
ENDBRANCH  76  79
ENDBRANCH  72  74
ENDBRANCH  71  72
ENDBRANCH  70  71
ENDBRANCH   1  70
TORSDOF 17
ENDMDL
