MODEL 1
REMARK VINA RESULT:     -12.0      0.000      0.000
REMARK SMILES Cc1cc(=O)oc2cc(O[C@@H](C)C(=O)N[C@H](CC(C)C)C(=O)OCCOC(=O)c3ccc(-c4c5nc(c(-c6cc(S(=O)(=O)[O-])ccc6F)c6ccc([nH]6)c(-c6cc(S(=O)(=O)[O-])ccc6F)c6nc(c(-c7cc(S(=O)(=O)[O-])ccc7F)c7ccc4[nH]7)C=C6)C=C5)cc3)ccc12
REMARK SMILES IDX 24 1 23 2 21 3 22 4 16 5 15 6 13 7 14 8 11 10 12 11 10 12
REMARK SMILES IDX 9 13 1 14 2 15 3 16 94 17 4 18 7 19 93 20 5 21 6 22 8 23
REMARK SMILES IDX 92 24 17 25 18 26 19 27 20 28 25 29 26 30 27 31 28 32 29 33
REMARK SMILES IDX 30 34 91 35 31 36 90 37 32 38 33 39 34 40 84 41 35 42 89 43
REMARK SMILES IDX 83 44 85 45 36 46 88 47 82 48 81 49 37 51 69 52 49 53 68 54
REMARK SMILES IDX 50 55 53 56 67 57 86 58 51 59 52 60 66 62 87 63 54 64 38 65
REMARK SMILES IDX 39 66 47 67 40 68 46 69 48 70 45 71 41 72 42 73 43 74 44 75
REMARK SMILES IDX 70 76 71 77 79 78 72 79 78 80 80 81 77 82 73 83 74 84 75 85
REMARK SMILES IDX 76 86 55 87 56 88 64 89 57 90 63 91 65 92 62 93 58 94 59 95
REMARK SMILES IDX 60 96 61 97
REMARK H PARENT 15 9 85 50 53 61
REMARK Flexibility Score: inf
ROOT
ATOM      1  C   UNL A   1      36.078  23.108  24.318  1.00  0.00     0.274 C 
ENDROOT
BRANCH   1   2
ATOM      2  O   UNL A   1      34.563  23.311  24.072  1.00  0.00    -0.461 OA
BRANCH   2   3
ATOM      3  C   UNL A   1      33.385  22.602  24.013  1.00  0.00     0.328 C 
ATOM      4  O   UNL A   1      32.745  22.527  22.954  1.00  0.00    -0.250 OA
BRANCH   3   5
ATOM      5  C   UNL A   1      32.928  21.582  25.032  1.00  0.00     0.192 C 
BRANCH   5   6
ATOM      6  N   UNL A   1      33.273  22.009  26.350  1.00  0.00    -0.339 N 
ATOM      7  C   UNL A   1      32.298  22.560  27.152  1.00  0.00     0.261 C 
ATOM      8  O   UNL A   1      32.538  22.574  28.367  1.00  0.00    -0.271 OA
ATOM      9  H   UNL A   1      34.195  21.910  26.680  1.00  0.00     0.164 HD
BRANCH   7  10
ATOM     10  C   UNL A   1      30.928  23.281  26.549  1.00  0.00     0.258 C 
ATOM     11  C   UNL A   1      29.690  22.624  27.161  1.00  0.00     0.064 C 
BRANCH  10  12
ATOM     12  O   UNL A   1      30.650  24.165  25.447  1.00  0.00    -0.481 OA
BRANCH  12  13
ATOM     13  C   UNL A   1      30.771  25.439  24.973  1.00  0.00     0.124 A 
ATOM     14  C   UNL A   1      29.106  29.844  22.539  1.00  0.00     0.045 C 
ATOM     15  C   UNL A   1      30.072  29.493  23.642  1.00  0.00    -0.033 A 
ATOM     16  C   UNL A   1      30.655  30.405  24.423  1.00  0.00     0.098 A 
ATOM     17  C   UNL A   1      30.374  28.098  23.958  1.00  0.00     0.021 A 
ATOM     18  C   UNL A   1      31.553  30.042  25.547  1.00  0.00     0.336 A 
ATOM     19  C   UNL A   1      31.377  27.750  24.888  1.00  0.00     0.142 A 
ATOM     20  C   UNL A   1      29.615  27.088  23.446  1.00  0.00     0.016 A 
ATOM     21  O   UNL A   1      31.785  30.826  26.427  1.00  0.00    -0.246 OA
ATOM     22  O   UNL A   1      32.117  28.769  25.508  1.00  0.00    -0.423 OA
ATOM     23  C   UNL A   1      31.614  26.435  25.381  1.00  0.00     0.094 A 
ATOM     24  C   UNL A   1      29.855  25.811  23.930  1.00  0.00     0.047 A 
ENDBRANCH  12  13
ENDBRANCH  10  12
ENDBRANCH   7  10
ENDBRANCH   5   6
BRANCH   5  25
ATOM     25  C   UNL A   1      33.460  20.238  24.392  1.00  0.00     0.040 C 
BRANCH  25  26
ATOM     26  C   UNL A   1      32.519  18.968  24.387  1.00  0.00    -0.015 C 
ATOM     27  C   UNL A   1      32.555  18.048  23.165  1.00  0.00     0.007 C 
ATOM     28  C   UNL A   1      32.721  18.057  25.625  1.00  0.00     0.007 C 
ENDBRANCH  25  26
ENDBRANCH   5  25
ENDBRANCH   3   5
ENDBRANCH   2   3
ENDBRANCH   1   2
BRANCH   1  29
ATOM     29  C   UNL A   1      36.760  21.933  25.295  1.00  0.00     0.275 C 
BRANCH  29  30
ATOM     30  O   UNL A   1      38.157  21.474  25.058  1.00  0.00    -0.458 OA
BRANCH  30  31
ATOM     31  C   UNL A   1      39.086  21.375  26.094  1.00  0.00     0.338 C 
ATOM     32  O   UNL A   1      39.559  20.316  26.485  1.00  0.00    -0.246 OA
BRANCH  31  33
ATOM     33  C   UNL A   1      39.599  22.733  26.600  1.00  0.00     0.060 A 
ATOM     34  C   UNL A   1      40.597  22.771  27.559  1.00  0.00     0.016 A 
ATOM     35  C   UNL A   1      39.018  23.977  26.285  1.00  0.00     0.016 A 
ATOM     36  C   UNL A   1      40.875  23.926  28.308  1.00  0.00     0.010 A 
ATOM     37  C   UNL A   1      39.475  25.196  26.890  1.00  0.00     0.010 A 
ATOM     38  C   UNL A   1      40.440  25.193  27.913  1.00  0.00    -0.014 A 
BRANCH  38  39
ATOM     39  C   UNL A   1      41.127  26.430  28.472  1.00  0.00     0.031 A 
ATOM     40  C   UNL A   1      40.387  27.540  29.198  1.00  0.00     0.074 A 
ATOM     41  C   UNL A   1      42.465  26.597  28.292  1.00  0.00     0.049 A 
ATOM     42  N   UNL A   1      40.767  28.774  29.442  1.00  0.00    -0.248 NA
ATOM     43  C   UNL A   1      39.052  27.222  29.721  1.00  0.00     0.031 C 
ATOM     44  C   UNL A   1      43.378  25.617  27.688  1.00  0.00     0.029 A 
ATOM     45  N   UNL A   1      43.307  27.654  28.581  1.00  0.00    -0.354 N 
ATOM     46  C   UNL A   1      39.698  29.403  30.083  1.00  0.00     0.074 A 
ATOM     47  C   UNL A   1      38.659  28.396  30.206  1.00  0.00     0.031 C 
ATOM     48  C   UNL A   1      44.626  26.087  27.689  1.00  0.00     0.029 A 
ATOM     49  C   UNL A   1      44.594  27.472  28.116  1.00  0.00     0.049 A 
ATOM     50  H   UNL A   1      43.017  28.459  29.069  1.00  0.00     0.167 HD
ATOM     51  C   UNL A   1      39.592  30.694  30.506  1.00  0.00     0.034 A 
ATOM     52  C   UNL A   1      45.627  28.317  27.926  1.00  0.00     0.034 A 
ATOM     53  C   UNL A   1      40.659  31.674  30.411  1.00  0.00     0.049 A 
ATOM     54  C   UNL A   1      45.457  29.760  28.288  1.00  0.00     0.074 A 
ATOM     55  C   UNL A   1      40.655  33.000  30.820  1.00  0.00     0.029 A 
ATOM     56  N   UNL A   1      41.919  31.441  29.872  1.00  0.00    -0.354 N 
ATOM     57  N   UNL A   1      44.407  30.359  28.797  1.00  0.00    -0.248 NA
ATOM     58  C   UNL A   1      46.601  30.642  28.042  1.00  0.00     0.031 C 
ATOM     59  C   UNL A   1      41.872  33.585  30.451  1.00  0.00     0.029 A 
ATOM     60  C   UNL A   1      42.678  32.605  29.900  1.00  0.00     0.049 A 
ATOM     61  H   UNL A   1      42.230  30.576  29.522  1.00  0.00     0.167 HD
ATOM     62  C   UNL A   1      44.777  31.689  28.956  1.00  0.00     0.074 A 
ATOM     63  C   UNL A   1      46.150  31.797  28.505  1.00  0.00     0.031 C 
ATOM     64  C   UNL A   1      44.042  32.722  29.437  1.00  0.00     0.034 A 
BRANCH  51  65
ATOM     65  C   UNL A   1      38.246  31.167  31.030  1.00  0.00     0.023 A 
ATOM     66  C   UNL A   1      37.243  31.692  30.197  1.00  0.00     0.031 A 
ATOM     67  C   UNL A   1      37.966  31.087  32.411  1.00  0.00     0.131 A 
ATOM     68  C   UNL A   1      36.049  32.184  30.758  1.00  0.00     0.055 A 
ATOM     69  C   UNL A   1      36.745  31.499  32.951  1.00  0.00     0.041 A 
ATOM     70  F   UNL A   1      38.883  30.607  33.267  1.00  0.00    -0.206 F 
ATOM     71  C   UNL A   1      35.784  32.068  32.124  1.00  0.00     0.022 A 
BRANCH  68  72
ATOM     72  S   UNL A   1      34.910  33.121  29.700  1.00  0.00     0.124 S 
ATOM     73  O   UNL A   1      33.971  33.655  30.684  1.00  0.00    -0.237 OA
ATOM     74  O   UNL A   1      35.794  34.089  29.063  1.00  0.00    -0.237 OA
ATOM     75  O   UNL A   1      34.352  32.105  28.809  1.00  0.00    -0.744 OA
ENDBRANCH  68  72
ENDBRANCH  51  65
BRANCH  52  76
ATOM     76  C   UNL A   1      46.873  27.837  27.251  1.00  0.00     0.023 A 
ATOM     77  C   UNL A   1      47.018  27.910  25.859  1.00  0.00     0.031 A 
ATOM     78  C   UNL A   1      47.935  27.285  27.996  1.00  0.00     0.131 A 
ATOM     79  C   UNL A   1      48.182  27.413  25.251  1.00  0.00     0.055 A 
ATOM     80  C   UNL A   1      49.118  26.856  27.393  1.00  0.00     0.041 A 
ATOM     81  F   UNL A   1      47.853  27.188  29.333  1.00  0.00    -0.206 F 
ATOM     82  C   UNL A   1      49.240  26.907  26.010  1.00  0.00     0.022 A 
BRANCH  79  83
ATOM     83  S   UNL A   1      48.256  27.355  23.442  1.00  0.00     0.124 S 
ATOM     84  O   UNL A   1      48.189  25.920  23.188  1.00  0.00    -0.237 OA
ATOM     85  O   UNL A   1      47.078  28.129  23.066  1.00  0.00    -0.237 OA
ATOM     86  O   UNL A   1      49.539  27.984  23.133  1.00  0.00    -0.744 OA
ENDBRANCH  79  83
ENDBRANCH  52  76
BRANCH  64  87
ATOM     87  C   UNL A   1      44.743  34.054  29.554  1.00  0.00     0.023 A 
ATOM     88  C   UNL A   1      44.794  34.964  28.483  1.00  0.00     0.031 A 
ATOM     89  C   UNL A   1      45.405  34.398  30.746  1.00  0.00     0.131 A 
ATOM     90  C   UNL A   1      45.541  36.146  28.606  1.00  0.00     0.055 A 
ATOM     91  C   UNL A   1      46.090  35.606  30.884  1.00  0.00     0.041 A 
ATOM     92  F   UNL A   1      45.402  33.561  31.796  1.00  0.00    -0.206 F 
ATOM     93  C   UNL A   1      46.173  36.482  29.806  1.00  0.00     0.022 A 
BRANCH  90  94
ATOM     94  S   UNL A   1      45.768  37.191  27.140  1.00  0.00     0.124 S 
ATOM     95  O   UNL A   1      46.837  38.087  27.570  1.00  0.00    -0.237 OA
ATOM     96  O   UNL A   1      46.126  36.216  26.115  1.00  0.00    -0.237 OA
ATOM     97  O   UNL A   1      44.462  37.823  26.963  1.00  0.00    -0.744 OA
ENDBRANCH  90  94
ENDBRANCH  64  87
ENDBRANCH  38  39
ENDBRANCH  31  33
ENDBRANCH  30  31
ENDBRANCH  29  30
ENDBRANCH   1  29
TORSDOF 20
ENDMDL
MODEL 2
REMARK VINA RESULT:     -11.9      1.952      4.320
REMARK SMILES Cc1cc(=O)oc2cc(O[C@@H](C)C(=O)N[C@H](CC(C)C)C(=O)OCCOC(=O)c3ccc(-c4c5nc(c(-c6cc(S(=O)(=O)[O-])ccc6F)c6ccc([nH]6)c(-c6cc(S(=O)(=O)[O-])ccc6F)c6nc(c(-c7cc(S(=O)(=O)[O-])ccc7F)c7ccc4[nH]7)C=C6)C=C5)cc3)ccc12
REMARK SMILES IDX 24 1 23 2 21 3 22 4 16 5 15 6 13 7 14 8 11 10 12 11 10 12
REMARK SMILES IDX 9 13 1 14 2 15 3 16 94 17 4 18 7 19 93 20 5 21 6 22 8 23
REMARK SMILES IDX 92 24 17 25 18 26 19 27 20 28 25 29 26 30 27 31 28 32 29 33
REMARK SMILES IDX 30 34 91 35 31 36 90 37 32 38 33 39 34 40 84 41 35 42 89 43
REMARK SMILES IDX 83 44 85 45 36 46 88 47 82 48 81 49 37 51 69 52 49 53 68 54
REMARK SMILES IDX 50 55 53 56 67 57 86 58 51 59 52 60 66 62 87 63 54 64 38 65
REMARK SMILES IDX 39 66 47 67 40 68 46 69 48 70 45 71 41 72 42 73 43 74 44 75
REMARK SMILES IDX 70 76 71 77 79 78 72 79 78 80 80 81 77 82 73 83 74 84 75 85
REMARK SMILES IDX 76 86 55 87 56 88 64 89 57 90 63 91 65 92 62 93 58 94 59 95
REMARK SMILES IDX 60 96 61 97
REMARK H PARENT 15 9 85 50 53 61
REMARK Flexibility Score: inf
ROOT
ATOM      1  C   UNL A   1      35.259  24.360  24.251  1.00  0.00     0.274 C 
ENDROOT
BRANCH   1   2
ATOM      2  O   UNL A   1      34.164  24.909  23.305  1.00  0.00    -0.461 OA
BRANCH   2   3
ATOM      3  C   UNL A   1      33.692  26.095  22.790  1.00  0.00     0.328 C 
ATOM      4  O   UNL A   1      33.866  26.378  21.596  1.00  0.00    -0.250 OA
BRANCH   3   5
ATOM      5  C   UNL A   1      32.655  26.980  23.444  1.00  0.00     0.192 C 
BRANCH   5   6
ATOM      6  N   UNL A   1      31.883  27.656  22.452  1.00  0.00    -0.339 N 
ATOM      7  C   UNL A   1      30.511  27.696  22.584  1.00  0.00     0.261 C 
ATOM      8  O   UNL A   1      29.928  28.572  21.932  1.00  0.00    -0.271 OA
ATOM      9  H   UNL A   1      32.323  28.087  21.684  1.00  0.00     0.164 HD
BRANCH   7  10
ATOM     10  C   UNL A   1      29.651  26.576  23.459  1.00  0.00     0.258 C 
ATOM     11  C   UNL A   1      28.220  27.075  23.667  1.00  0.00     0.064 C 
BRANCH  10  12
ATOM     12  O   UNL A   1      29.999  25.420  24.245  1.00  0.00    -0.481 OA
BRANCH  12  13
ATOM     13  C   UNL A   1      30.889  24.397  24.400  1.00  0.00     0.124 A 
ATOM     14  C   UNL A   1      33.730  20.872  27.158  1.00  0.00     0.045 C 
ATOM     15  C   UNL A   1      33.106  20.954  25.789  1.00  0.00    -0.033 A 
ATOM     16  C   UNL A   1      33.023  19.912  24.958  1.00  0.00     0.098 A 
ATOM     17  C   UNL A   1      32.487  22.193  25.320  1.00  0.00     0.021 A 
ATOM     18  C   UNL A   1      32.347  19.990  23.640  1.00  0.00     0.336 A 
ATOM     19  C   UNL A   1      32.024  22.333  23.993  1.00  0.00     0.142 A 
ATOM     20  C   UNL A   1      32.236  23.217  26.183  1.00  0.00     0.016 A 
ATOM     21  O   UNL A   1      31.986  18.993  23.074  1.00  0.00    -0.246 OA
ATOM     22  O   UNL A   1      32.180  21.262  23.099  1.00  0.00    -0.423 OA
ATOM     23  C   UNL A   1      31.259  23.430  23.507  1.00  0.00     0.094 A 
ATOM     24  C   UNL A   1      31.492  24.283  25.699  1.00  0.00     0.047 A 
ENDBRANCH  12  13
ENDBRANCH  10  12
ENDBRANCH   7  10
ENDBRANCH   5   6
BRANCH   5  25
ATOM     25  C   UNL A   1      33.526  27.738  24.524  1.00  0.00     0.040 C 
BRANCH  25  26
ATOM     26  C   UNL A   1      32.793  28.531  25.679  1.00  0.00    -0.015 C 
ATOM     27  C   UNL A   1      31.991  29.779  25.301  1.00  0.00     0.007 C 
ATOM     28  C   UNL A   1      31.843  27.640  26.520  1.00  0.00     0.007 C 
ENDBRANCH  25  26
ENDBRANCH   5  25
ENDBRANCH   3   5
ENDBRANCH   2   3
ENDBRANCH   1   2
BRANCH   1  29
ATOM     29  C   UNL A   1      35.858  22.797  24.248  1.00  0.00     0.275 C 
BRANCH  29  30
ATOM     30  O   UNL A   1      36.376  22.187  25.504  1.00  0.00    -0.458 OA
BRANCH  30  31
ATOM     31  C   UNL A   1      37.694  21.744  25.619  1.00  0.00     0.338 C 
ATOM     32  O   UNL A   1      38.110  20.707  25.121  1.00  0.00    -0.246 OA
BRANCH  31  33
ATOM     33  C   UNL A   1      38.634  22.759  26.291  1.00  0.00     0.060 A 
ATOM     34  C   UNL A   1      38.518  24.104  25.984  1.00  0.00     0.016 A 
ATOM     35  C   UNL A   1      39.741  22.416  27.094  1.00  0.00     0.016 A 
ATOM     36  C   UNL A   1      39.531  25.030  26.277  1.00  0.00     0.010 A 
ATOM     37  C   UNL A   1      40.647  23.413  27.589  1.00  0.00     0.010 A 
ATOM     38  C   UNL A   1      40.544  24.760  27.201  1.00  0.00    -0.014 A 
BRANCH  38  39
ATOM     39  C   UNL A   1      41.324  25.912  27.818  1.00  0.00     0.031 A 
ATOM     40  C   UNL A   1      40.685  26.982  28.687  1.00  0.00     0.074 A 
ATOM     41  C   UNL A   1      42.654  26.038  27.563  1.00  0.00     0.049 A 
ATOM     42  N   UNL A   1      41.138  28.172  29.011  1.00  0.00    -0.248 NA
ATOM     43  C   UNL A   1      39.373  26.673  29.270  1.00  0.00     0.031 C 
ATOM     44  C   UNL A   1      43.479  25.080  26.814  1.00  0.00     0.029 A 
ATOM     45  N   UNL A   1      43.561  27.030  27.884  1.00  0.00    -0.354 N 
ATOM     46  C   UNL A   1      40.144  28.784  29.776  1.00  0.00     0.074 A 
ATOM     47  C   UNL A   1      39.068  27.814  29.882  1.00  0.00     0.031 C 
ATOM     48  C   UNL A   1      44.745  25.496  26.771  1.00  0.00     0.029 A 
ATOM     49  C   UNL A   1      44.806  26.836  27.318  1.00  0.00     0.049 A 
ATOM     50  H   UNL A   1      43.342  27.798  28.459  1.00  0.00     0.167 HD
ATOM     51  C   UNL A   1      40.127  30.035  30.317  1.00  0.00     0.034 A 
ATOM     52  C   UNL A   1      45.864  27.652  27.133  1.00  0.00     0.034 A 
ATOM     53  C   UNL A   1      41.231  30.974  30.235  1.00  0.00     0.049 A 
ATOM     54  C   UNL A   1      45.786  29.062  27.630  1.00  0.00     0.074 A 
ATOM     55  C   UNL A   1      41.316  32.257  30.757  1.00  0.00     0.029 A 
ATOM     56  N   UNL A   1      42.441  30.738  29.593  1.00  0.00    -0.354 N 
ATOM     57  N   UNL A   1      44.801  29.655  28.260  1.00  0.00    -0.248 NA
ATOM     58  C   UNL A   1      46.953  29.914  27.385  1.00  0.00     0.031 C 
ATOM     59  C   UNL A   1      42.533  32.822  30.359  1.00  0.00     0.029 A 
ATOM     60  C   UNL A   1      43.255  31.863  29.671  1.00  0.00     0.049 A 
ATOM     61  H   UNL A   1      42.687  29.896  29.148  1.00  0.00     0.167 HD
ATOM     62  C   UNL A   1      45.243  30.949  28.510  1.00  0.00     0.074 A 
ATOM     63  C   UNL A   1      46.588  31.040  27.977  1.00  0.00     0.031 C 
ATOM     64  C   UNL A   1      44.591  31.964  29.128  1.00  0.00     0.034 A 
BRANCH  51  65
ATOM     65  C   UNL A   1      38.842  30.514  30.971  1.00  0.00     0.023 A 
ATOM     66  C   UNL A   1      37.882  31.286  30.294  1.00  0.00     0.031 A 
ATOM     67  C   UNL A   1      38.577  30.184  32.317  1.00  0.00     0.131 A 
ATOM     68  C   UNL A   1      36.750  31.763  30.983  1.00  0.00     0.055 A 
ATOM     69  C   UNL A   1      37.410  30.588  32.970  1.00  0.00     0.041 A 
ATOM     70  F   UNL A   1      39.455  29.458  33.028  1.00  0.00    -0.206 F 
ATOM     71  C   UNL A   1      36.496  31.398  32.307  1.00  0.00     0.022 A 
BRANCH  68  72
ATOM     72  S   UNL A   1      35.691  32.995  30.173  1.00  0.00     0.124 S 
ATOM     73  O   UNL A   1      35.796  34.122  31.097  1.00  0.00    -0.237 OA
ATOM     74  O   UNL A   1      36.335  33.162  28.877  1.00  0.00    -0.237 OA
ATOM     75  O   UNL A   1      34.378  32.351  30.139  1.00  0.00    -0.744 OA
ENDBRANCH  68  72
ENDBRANCH  51  65
BRANCH  52  76
ATOM     76  C   UNL A   1      47.039  27.183  26.335  1.00  0.00     0.023 A 
ATOM     77  C   UNL A   1      48.112  26.519  26.946  1.00  0.00     0.031 A 
ATOM     78  C   UNL A   1      47.109  27.407  24.945  1.00  0.00     0.131 A 
ATOM     79  C   UNL A   1      49.220  26.129  26.176  1.00  0.00     0.055 A 
ATOM     80  C   UNL A   1      48.181  26.956  24.174  1.00  0.00     0.041 A 
ATOM     81  F   UNL A   1      46.111  28.039  24.305  1.00  0.00    -0.206 F 
ATOM     82  C   UNL A   1      49.252  26.323  24.794  1.00  0.00     0.022 A 
BRANCH  79  83
ATOM     83  S   UNL A   1      50.664  25.440  27.028  1.00  0.00     0.124 S 
ATOM     84  O   UNL A   1      51.058  26.551  27.888  1.00  0.00    -0.237 OA
ATOM     85  O   UNL A   1      50.094  24.279  27.700  1.00  0.00    -0.237 OA
ATOM     86  O   UNL A   1      51.589  25.137  25.937  1.00  0.00    -0.744 OA
ENDBRANCH  79  83
ENDBRANCH  52  76
BRANCH  64  87
ATOM     87  C   UNL A   1      45.360  33.250  29.313  1.00  0.00     0.023 A 
ATOM     88  C   UNL A   1      45.262  34.313  28.398  1.00  0.00     0.031 A 
ATOM     89  C   UNL A   1      46.237  33.394  30.403  1.00  0.00     0.131 A 
ATOM     90  C   UNL A   1      46.071  35.448  28.557  1.00  0.00     0.055 A 
ATOM     91  C   UNL A   1      46.989  34.555  30.592  1.00  0.00     0.041 A 
ATOM     92  F   UNL A   1      46.382  32.405  31.299  1.00  0.00    -0.206 F 
ATOM     93  C   UNL A   1      46.919  35.585  29.659  1.00  0.00     0.022 A 
BRANCH  90  94
ATOM     94  S   UNL A   1      46.081  36.703  27.247  1.00  0.00     0.124 S 
ATOM     95  O   UNL A   1      44.669  36.775  26.885  1.00  0.00    -0.237 OA
ATOM     96  O   UNL A   1      46.623  37.870  27.936  1.00  0.00    -0.237 OA
ATOM     97  O   UNL A   1      46.954  36.127  26.226  1.00  0.00    -0.744 OA
ENDBRANCH  90  94
ENDBRANCH  64  87
ENDBRANCH  38  39
ENDBRANCH  31  33
ENDBRANCH  30  31
ENDBRANCH  29  30
ENDBRANCH   1  29
TORSDOF 20
ENDMDL
MODEL 3
REMARK VINA RESULT:     -11.8      1.670      3.083
REMARK SMILES Cc1cc(=O)oc2cc(O[C@@H](C)C(=O)N[C@H](CC(C)C)C(=O)OCCOC(=O)c3ccc(-c4c5nc(c(-c6cc(S(=O)(=O)[O-])ccc6F)c6ccc([nH]6)c(-c6cc(S(=O)(=O)[O-])ccc6F)c6nc(c(-c7cc(S(=O)(=O)[O-])ccc7F)c7ccc4[nH]7)C=C6)C=C5)cc3)ccc12
REMARK SMILES IDX 24 1 23 2 21 3 22 4 16 5 15 6 13 7 14 8 11 10 12 11 10 12
REMARK SMILES IDX 9 13 1 14 2 15 3 16 94 17 4 18 7 19 93 20 5 21 6 22 8 23
REMARK SMILES IDX 92 24 17 25 18 26 19 27 20 28 25 29 26 30 27 31 28 32 29 33
REMARK SMILES IDX 30 34 91 35 31 36 90 37 32 38 33 39 34 40 84 41 35 42 89 43
REMARK SMILES IDX 83 44 85 45 36 46 88 47 82 48 81 49 37 51 69 52 49 53 68 54
REMARK SMILES IDX 50 55 53 56 67 57 86 58 51 59 52 60 66 62 87 63 54 64 38 65
REMARK SMILES IDX 39 66 47 67 40 68 46 69 48 70 45 71 41 72 42 73 43 74 44 75
REMARK SMILES IDX 70 76 71 77 79 78 72 79 78 80 80 81 77 82 73 83 74 84 75 85
REMARK SMILES IDX 76 86 55 87 56 88 64 89 57 90 63 91 65 92 62 93 58 94 59 95
REMARK SMILES IDX 60 96 61 97
REMARK H PARENT 15 9 85 50 53 61
REMARK Flexibility Score: inf
ROOT
ATOM      1  C   UNL A   1      34.793  21.050  25.118  1.00  0.00     0.274 C 
ENDROOT
BRANCH   1   2
ATOM      2  O   UNL A   1      34.370  22.539  25.114  1.00  0.00    -0.461 OA
BRANCH   2   3
ATOM      3  C   UNL A   1      33.299  23.347  25.425  1.00  0.00     0.328 C 
ATOM      4  O   UNL A   1      32.592  23.107  26.414  1.00  0.00    -0.250 OA
BRANCH   3   5
ATOM      5  C   UNL A   1      33.071  24.740  24.882  1.00  0.00     0.192 C 
BRANCH   5   6
ATOM      6  N   UNL A   1      33.869  24.956  23.718  1.00  0.00    -0.339 N 
ATOM      7  C   UNL A   1      33.462  25.891  22.791  1.00  0.00     0.261 C 
ATOM      8  O   UNL A   1      34.334  26.300  22.014  1.00  0.00    -0.271 OA
ATOM      9  H   UNL A   1      34.698  24.443  23.580  1.00  0.00     0.164 HD
BRANCH   7  10
ATOM     10  C   UNL A   1      31.880  26.371  22.622  1.00  0.00     0.258 C 
ATOM     11  C   UNL A   1      31.348  25.916  21.262  1.00  0.00     0.064 C 
BRANCH  10  12
ATOM     12  O   UNL A   1      31.020  27.291  23.319  1.00  0.00    -0.481 OA
BRANCH  12  13
ATOM     13  C   UNL A   1      30.263  28.421  23.209  1.00  0.00     0.124 A 
ATOM     14  C   UNL A   1      29.268  33.608  23.668  1.00  0.00     0.045 C 
ATOM     15  C   UNL A   1      28.845  32.482  22.761  1.00  0.00    -0.033 A 
ATOM     16  C   UNL A   1      28.148  32.669  21.638  1.00  0.00     0.098 A 
ATOM     17  C   UNL A   1      29.245  31.104  23.040  1.00  0.00     0.021 A 
ATOM     18  C   UNL A   1      27.794  31.558  20.720  1.00  0.00     0.336 A 
ATOM     19  C   UNL A   1      28.744  30.020  22.286  1.00  0.00     0.142 A 
ATOM     20  C   UNL A   1      30.203  30.831  23.970  1.00  0.00     0.016 A 
ATOM     21  O   UNL A   1      27.482  31.777  19.581  1.00  0.00    -0.246 OA
ATOM     22  O   UNL A   1      27.825  30.273  21.255  1.00  0.00    -0.423 OA
ATOM     23  C   UNL A   1      29.210  28.678  22.375  1.00  0.00     0.094 A 
ATOM     24  C   UNL A   1      30.649  29.520  24.051  1.00  0.00     0.047 A 
ENDBRANCH  12  13
ENDBRANCH  10  12
ENDBRANCH   7  10
ENDBRANCH   5   6
BRANCH   5  25
ATOM     25  C   UNL A   1      33.203  25.614  26.193  1.00  0.00     0.040 C 
BRANCH  25  26
ATOM     26  C   UNL A   1      32.753  27.129  26.152  1.00  0.00    -0.015 C 
ATOM     27  C   UNL A   1      31.701  27.597  27.159  1.00  0.00     0.007 C 
ATOM     28  C   UNL A   1      33.940  28.119  26.270  1.00  0.00     0.007 C 
ENDBRANCH  25  26
ENDBRANCH   5  25
ENDBRANCH   3   5
ENDBRANCH   2   3
ENDBRANCH   1   2
BRANCH   1  29
ATOM     29  C   UNL A   1      36.368  20.483  25.135  1.00  0.00     0.275 C 
BRANCH  29  30
ATOM     30  O   UNL A   1      37.510  21.430  25.010  1.00  0.00    -0.458 OA
BRANCH  30  31
ATOM     31  C   UNL A   1      38.682  21.274  25.751  1.00  0.00     0.338 C 
ATOM     32  O   UNL A   1      39.293  20.218  25.845  1.00  0.00    -0.246 OA
BRANCH  31  33
ATOM     33  C   UNL A   1      39.241  22.592  26.312  1.00  0.00     0.060 A 
ATOM     34  C   UNL A   1      40.355  22.565  27.134  1.00  0.00     0.016 A 
ATOM     35  C   UNL A   1      38.610  23.846  26.193  1.00  0.00     0.016 A 
ATOM     36  C   UNL A   1      40.715  23.652  27.946  1.00  0.00     0.010 A 
ATOM     37  C   UNL A   1      39.128  25.014  26.846  1.00  0.00     0.010 A 
ATOM     38  C   UNL A   1      40.218  24.940  27.731  1.00  0.00    -0.014 A 
BRANCH  38  39
ATOM     39  C   UNL A   1      40.958  26.137  28.311  1.00  0.00     0.031 A 
ATOM     40  C   UNL A   1      40.270  27.253  29.078  1.00  0.00     0.074 A 
ATOM     41  C   UNL A   1      42.298  26.260  28.113  1.00  0.00     0.049 A 
ATOM     42  N   UNL A   1      40.698  28.465  29.348  1.00  0.00    -0.248 NA
ATOM     43  C   UNL A   1      38.933  26.968  29.615  1.00  0.00     0.031 C 
ATOM     44  C   UNL A   1      43.166  25.265  27.468  1.00  0.00     0.029 A 
ATOM     45  N   UNL A   1      43.182  27.279  28.415  1.00  0.00    -0.354 N 
ATOM     46  C   UNL A   1      39.663  29.114  30.022  1.00  0.00     0.074 A 
ATOM     47  C   UNL A   1      38.590  28.142  30.137  1.00  0.00     0.031 C 
ATOM     48  C   UNL A   1      44.430  25.690  27.460  1.00  0.00     0.029 A 
ATOM     49  C   UNL A   1      44.454  27.063  27.924  1.00  0.00     0.049 A 
ATOM     50  H   UNL A   1      42.929  28.080  28.928  1.00  0.00     0.167 HD
ATOM     51  C   UNL A   1      39.610  30.397  30.481  1.00  0.00     0.034 A 
ATOM     52  C   UNL A   1      45.514  27.876  27.739  1.00  0.00     0.034 A 
ATOM     53  C   UNL A   1      40.710  31.340  30.394  1.00  0.00     0.049 A 
ATOM     54  C   UNL A   1      45.401  29.314  28.141  1.00  0.00     0.074 A 
ATOM     55  C   UNL A   1      40.761  32.654  30.837  1.00  0.00     0.029 A 
ATOM     56  N   UNL A   1      41.952  31.076  29.828  1.00  0.00    -0.354 N 
ATOM     57  N   UNL A   1      44.382  29.936  28.683  1.00  0.00    -0.248 NA
ATOM     58  C   UNL A   1      46.573  30.161  27.899  1.00  0.00     0.031 C 
ATOM     59  C   UNL A   1      41.992  33.205  30.464  1.00  0.00     0.029 A 
ATOM     60  C   UNL A   1      42.753  32.212  29.874  1.00  0.00     0.049 A 
ATOM     61  H   UNL A   1      42.226  30.210  29.450  1.00  0.00     0.167 HD
ATOM     62  C   UNL A   1      44.802  31.247  28.871  1.00  0.00     0.074 A 
ATOM     63  C   UNL A   1      46.171  31.318  28.400  1.00  0.00     0.031 C 
ATOM     64  C   UNL A   1      44.113  32.293  29.391  1.00  0.00     0.034 A 
BRANCH  51  65
ATOM     65  C   UNL A   1      38.291  30.903  31.040  1.00  0.00     0.023 A 
ATOM     66  C   UNL A   1      37.286  31.467  30.235  1.00  0.00     0.031 A 
ATOM     67  C   UNL A   1      38.039  30.815  32.425  1.00  0.00     0.131 A 
ATOM     68  C   UNL A   1      36.120  31.987  30.828  1.00  0.00     0.055 A 
ATOM     69  C   UNL A   1      36.843  31.256  32.997  1.00  0.00     0.041 A 
ATOM     70  F   UNL A   1      38.959  30.298  33.256  1.00  0.00    -0.206 F 
ATOM     71  C   UNL A   1      35.881  31.863  32.198  1.00  0.00     0.022 A 
BRANCH  68  72
ATOM     72  S   UNL A   1      34.987  32.970  29.806  1.00  0.00     0.124 S 
ATOM     73  O   UNL A   1      35.901  33.936  29.202  1.00  0.00    -0.237 OA
ATOM     74  O   UNL A   1      34.422  31.970  28.908  1.00  0.00    -0.237 OA
ATOM     75  O   UNL A   1      34.051  33.536  30.776  1.00  0.00    -0.744 OA
ENDBRANCH  68  72
ENDBRANCH  51  65
BRANCH  52  76
ATOM     76  C   UNL A   1      46.730  27.370  27.031  1.00  0.00     0.023 A 
ATOM     77  C   UNL A   1      46.956  27.660  25.678  1.00  0.00     0.031 A 
ATOM     78  C   UNL A   1      47.683  26.575  27.701  1.00  0.00     0.131 A 
ATOM     79  C   UNL A   1      48.086  27.135  25.031  1.00  0.00     0.055 A 
ATOM     80  C   UNL A   1      48.839  26.114  27.071  1.00  0.00     0.041 A 
ATOM     81  F   UNL A   1      47.520  26.264  28.997  1.00  0.00    -0.206 F 
ATOM     82  C   UNL A   1      49.039  26.384  25.723  1.00  0.00     0.022 A 
BRANCH  79  83
ATOM     83  S   UNL A   1      48.248  27.377  23.242  1.00  0.00     0.124 S 
ATOM     84  O   UNL A   1      47.061  28.169  22.942  1.00  0.00    -0.237 OA
ATOM     85  O   UNL A   1      49.526  28.072  23.145  1.00  0.00    -0.237 OA
ATOM     86  O   UNL A   1      48.239  26.014  22.713  1.00  0.00    -0.744 OA
ENDBRANCH  79  83
ENDBRANCH  52  76
BRANCH  64  87
ATOM     87  C   UNL A   1      44.863  33.595  29.531  1.00  0.00     0.023 A 
ATOM     88  C   UNL A   1      44.874  34.560  28.509  1.00  0.00     0.031 A 
ATOM     89  C   UNL A   1      45.613  33.853  30.693  1.00  0.00     0.131 A 
ATOM     90  C   UNL A   1      45.665  35.711  28.644  1.00  0.00     0.055 A 
ATOM     91  C   UNL A   1      46.345  35.032  30.848  1.00  0.00     0.041 A 
ATOM     92  F   UNL A   1      45.652  32.960  31.695  1.00  0.00    -0.206 F 
ATOM     93  C   UNL A   1      46.386  35.962  29.814  1.00  0.00     0.022 A 
BRANCH  90  94
ATOM     94  S   UNL A   1      45.830  36.828  27.223  1.00  0.00     0.124 S 
ATOM     95  O   UNL A   1      45.923  35.890  26.109  1.00  0.00    -0.237 OA
ATOM     96  O   UNL A   1      44.599  37.610  27.297  1.00  0.00    -0.237 OA
ATOM     97  O   UNL A   1      47.054  37.573  27.511  1.00  0.00    -0.744 OA
ENDBRANCH  90  94
ENDBRANCH  64  87
ENDBRANCH  38  39
ENDBRANCH  31  33
ENDBRANCH  30  31
ENDBRANCH  29  30
ENDBRANCH   1  29
TORSDOF 20
ENDMDL
