MODEL 1
REMARK VINA RESULT:     -12.5      0.000      0.000
REMARK SMILES O=C(OCCOC(=O)c1ccccc1/C=N\NC(=S)NCc1ccccc1)c1ccc(-c2c3nc(c(-c4cc(S(=O)(=O)[O-])ccc4F)c4ccc([nH]4)c(-c4cc(S(=O)(=O)[O-])ccc4F)c4nc(c(-c5cc(S(=O)(=O)[O-])ccc5F)c5ccc2[nH]5)C=C4)C=C3)cc1
REMARK SMILES IDX 6 1 5 2 4 3 3 4 2 5 1 6 28 7 29 8 90 9 30 10 89 11 31 12
REMARK SMILES IDX 32 13 33 14 83 15 34 16 88 17 82 18 84 19 35 20 87 21 81 22
REMARK SMILES IDX 80 23 36 25 68 26 48 27 67 28 49 29 52 30 66 31 85 32 50 33
REMARK SMILES IDX 51 34 65 36 86 37 53 38 37 39 38 40 46 41 39 42 45 43 47 44
REMARK SMILES IDX 44 45 40 46 41 47 42 48 43 49 69 50 70 51 78 52 71 53 77 54
REMARK SMILES IDX 79 55 76 56 72 57 73 58 74 59 75 60 54 61 55 62 63 63 56 64
REMARK SMILES IDX 62 65 64 66 61 67 57 68 58 69 59 70 60 71 7 72 8 73 9 74
REMARK SMILES IDX 10 75 14 76 11 77 13 78 12 79 15 80 16 81 17 82 18 84 19 85
REMARK SMILES IDX 20 86 21 88 22 89 23 90 27 91 24 92 26 93 25 94
REMARK H PARENT 84 24 52 35 17 83 20 87
REMARK Flexibility Score: inf
ROOT
ATOM      1  O   UNL A   1      33.949  25.413  23.846  1.00  0.00    -0.458 OA
ENDROOT
BRANCH   1   2
ATOM      2  C   UNL A   1      33.605  26.789  23.576  1.00  0.00     0.275 C 
BRANCH   2   3
ATOM      3  C   UNL A   1      32.653  27.400  24.625  1.00  0.00     0.275 C 
BRANCH   3   4
ATOM      4  O   UNL A   1      32.671  28.841  24.582  1.00  0.00    -0.458 OA
BRANCH   4   5
ATOM      5  C   UNL A   1      32.483  29.760  25.556  1.00  0.00     0.338 C 
ATOM      6  O   UNL A   1      31.429  30.394  25.574  1.00  0.00    -0.246 OA
BRANCH   5   7
ATOM      7  C   UNL A   1      33.477  30.094  26.617  1.00  0.00     0.060 A 
ATOM      8  C   UNL A   1      34.604  28.891  27.294  1.00  0.00     0.016 A 
ATOM      9  C   UNL A   1      33.453  31.776  27.171  1.00  0.00     0.016 A 
ATOM     10  C   UNL A   1      35.727  29.211  28.583  1.00  0.00     0.010 A 
ATOM     11  C   UNL A   1      34.575  32.265  28.513  1.00  0.00     0.010 A 
ATOM     12  C   UNL A   1      35.838  30.868  29.275  1.00  0.00    -0.014 A 
BRANCH  12  13
ATOM     13  C   UNL A   1      37.256  30.704  30.101  1.00  0.00     0.031 A 
ATOM     14  C   UNL A   1      38.400  30.017  29.452  1.00  0.00     0.074 A 
ATOM     15  C   UNL A   1      37.624  31.338  31.254  1.00  0.00     0.049 A 
ATOM     16  N   UNL A   1      39.323  29.253  29.961  1.00  0.00    -0.248 NA
ATOM     17  C   UNL A   1      38.467  30.187  28.006  1.00  0.00     0.031 C 
ATOM     18  C   UNL A   1      36.971  32.476  31.887  1.00  0.00     0.029 A 
ATOM     19  N   UNL A   1      38.693  31.127  32.113  1.00  0.00    -0.354 N 
ATOM     20  C   UNL A   1      39.927  28.669  28.860  1.00  0.00     0.074 A 
ATOM     21  C   UNL A   1      39.203  29.134  27.696  1.00  0.00     0.031 C 
ATOM     22  C   UNL A   1      37.548  32.788  33.057  1.00  0.00     0.029 A 
ATOM     23  C   UNL A   1      38.633  31.864  33.286  1.00  0.00     0.049 A 
ATOM     24  H   UNL A   1      39.430  30.508  31.907  1.00  0.00     0.167 HD
ATOM     25  C   UNL A   1      41.012  27.859  28.835  1.00  0.00     0.034 A 
ATOM     26  C   UNL A   1      39.349  31.812  34.428  1.00  0.00     0.034 A 
ATOM     27  C   UNL A   1      41.891  27.721  29.969  1.00  0.00     0.049 A 
ATOM     28  C   UNL A   1      40.536  30.894  34.443  1.00  0.00     0.074 A 
ATOM     29  C   UNL A   1      43.074  27.013  30.066  1.00  0.00     0.029 A 
ATOM     30  N   UNL A   1      41.737  28.406  31.172  1.00  0.00    -0.354 N 
ATOM     31  N   UNL A   1      40.958  30.097  33.489  1.00  0.00    -0.248 NA
ATOM     32  C   UNL A   1      41.378  30.914  35.641  1.00  0.00     0.031 C 
ATOM     33  C   UNL A   1      43.628  27.260  31.328  1.00  0.00     0.029 A 
ATOM     34  C   UNL A   1      42.816  28.160  32.002  1.00  0.00     0.049 A 
ATOM     35  H   UNL A   1      40.970  28.981  31.399  1.00  0.00     0.167 HD
ATOM     36  C   UNL A   1      42.170  29.592  33.936  1.00  0.00     0.074 A 
ATOM     37  C   UNL A   1      42.395  30.159  35.253  1.00  0.00     0.031 C 
ATOM     38  C   UNL A   1      43.032  28.761  33.298  1.00  0.00     0.034 A 
BRANCH  25  39
ATOM     39  C   UNL A   1      41.241  27.066  27.571  1.00  0.00     0.023 A 
ATOM     40  C   UNL A   1      40.891  25.712  27.455  1.00  0.00     0.031 A 
ATOM     41  C   UNL A   1      41.999  27.635  26.532  1.00  0.00     0.131 A 
ATOM     42  C   UNL A   1      41.478  24.928  26.454  1.00  0.00     0.055 A 
ATOM     43  C   UNL A   1      42.443  26.879  25.446  1.00  0.00     0.041 A 
ATOM     44  F   UNL A   1      42.374  28.923  26.580  1.00  0.00    -0.206 F 
ATOM     45  C   UNL A   1      42.221  25.505  25.424  1.00  0.00     0.022 A 
BRANCH  42  46
ATOM     46  S   UNL A   1      41.485  23.124  26.677  1.00  0.00     0.124 S 
ATOM     47  O   UNL A   1      42.040  23.001  28.024  1.00  0.00    -0.237 OA
ATOM     48  O   UNL A   1      40.074  22.780  26.541  1.00  0.00    -0.237 OA
ATOM     49  O   UNL A   1      42.354  22.649  25.604  1.00  0.00    -0.744 OA
ENDBRANCH  42  46
ENDBRANCH  25  39
BRANCH  26  50
ATOM     50  C   UNL A   1      38.992  32.625  35.639  1.00  0.00     0.023 A 
ATOM     51  C   UNL A   1      39.467  33.936  35.818  1.00  0.00     0.031 A 
ATOM     52  C   UNL A   1      38.254  32.055  36.695  1.00  0.00     0.131 A 
ATOM     53  C   UNL A   1      39.264  34.605  37.041  1.00  0.00     0.055 A 
ATOM     54  C   UNL A   1      38.018  32.739  37.894  1.00  0.00     0.041 A 
ATOM     55  F   UNL A   1      37.764  30.809  36.585  1.00  0.00    -0.206 F 
ATOM     56  C   UNL A   1      38.540  34.015  38.079  1.00  0.00     0.022 A 
BRANCH  53  57
ATOM     57  S   UNL A   1      40.052  36.222  37.295  1.00  0.00     0.124 S 
ATOM     58  O   UNL A   1      39.942  36.819  35.970  1.00  0.00    -0.237 OA
ATOM     59  O   UNL A   1      39.210  36.806  38.335  1.00  0.00    -0.237 OA
ATOM     60  O   UNL A   1      41.409  35.879  37.716  1.00  0.00    -0.744 OA
ENDBRANCH  53  57
ENDBRANCH  26  50
BRANCH  38  61
ATOM     61  C   UNL A   1      44.347  28.506  33.981  1.00  0.00     0.023 A 
ATOM     62  C   UNL A   1      44.471  27.572  35.019  1.00  0.00     0.031 A 
ATOM     63  C   UNL A   1      45.490  29.226  33.588  1.00  0.00     0.131 A 
ATOM     64  C   UNL A   1      45.700  27.424  35.674  1.00  0.00     0.055 A 
ATOM     65  C   UNL A   1      46.728  29.018  34.192  1.00  0.00     0.041 A 
ATOM     66  F   UNL A   1      45.418  30.141  32.608  1.00  0.00    -0.206 F 
ATOM     67  C   UNL A   1      46.835  28.122  35.252  1.00  0.00     0.022 A 
BRANCH  64  68
ATOM     68  S   UNL A   1      45.763  26.388  37.160  1.00  0.00     0.124 S 
ATOM     69  O   UNL A   1      45.202  27.278  38.171  1.00  0.00    -0.237 OA
ATOM     70  O   UNL A   1      44.932  25.251  36.781  1.00  0.00    -0.237 OA
ATOM     71  O   UNL A   1      47.186  26.094  37.310  1.00  0.00    -0.744 OA
ENDBRANCH  64  68
ENDBRANCH  38  61
ENDBRANCH  12  13
ENDBRANCH   5   7
ENDBRANCH   4   5
ENDBRANCH   3   4
ENDBRANCH   2   3
ENDBRANCH   1   2
BRANCH   1  72
ATOM     72  C   UNL A   1      33.873  24.539  22.807  1.00  0.00     0.338 C 
ATOM     73  O   UNL A   1      33.579  24.785  21.654  1.00  0.00    -0.246 OA
BRANCH  72  74
ATOM     74  C   UNL A   1      34.567  23.321  23.245  1.00  0.00     0.068 A 
ATOM     75  C   UNL A   1      36.335  23.540  23.576  1.00  0.00     0.016 A 
ATOM     76  C   UNL A   1      33.683  21.929  23.984  1.00  0.00     0.009 A 
ATOM     77  C   UNL A   1      37.222  22.362  24.608  1.00  0.00     0.001 A 
ATOM     78  C   UNL A   1      34.598  20.681  24.986  1.00  0.00     0.010 A 
ATOM     79  C   UNL A   1      36.379  20.897  25.225  1.00  0.00     0.001 A 
BRANCH  76  80
ATOM     80  C   UNL A   1      32.555  21.399  23.296  1.00  0.00     0.142 C 
ATOM     81  N   UNL A   1      31.400  21.802  23.688  1.00  0.00    -0.181 NA
BRANCH  81  82
ATOM     82  N   UNL A   1      31.349  22.592  24.821  1.00  0.00    -0.254 N 
ATOM     83  H   UNL A   1      31.647  22.129  25.638  1.00  0.00     0.193 HD
BRANCH  82  84
ATOM     84  C   UNL A   1      30.968  23.893  25.038  1.00  0.00     0.187 C 
ATOM     85  S   UNL A   1      31.422  24.549  26.529  1.00  0.00    -0.039 S 
BRANCH  84  86
ATOM     86  N   UNL A   1      30.190  24.741  24.185  1.00  0.00    -0.357 N 
ATOM     87  H   UNL A   1      30.381  24.424  23.273  1.00  0.00     0.163 HD
BRANCH  86  88
ATOM     88  C   UNL A   1      28.845  26.327  23.930  1.00  0.00     0.151 C 
BRANCH  88  89
ATOM     89  C   UNL A   1      28.655  28.018  23.294  1.00  0.00    -0.029 A 
ATOM     90  C   UNL A   1      27.268  29.479  23.571  1.00  0.00     0.005 A 
ATOM     91  C   UNL A   1      30.115  28.567  22.321  1.00  0.00     0.005 A 
ATOM     92  C   UNL A   1      27.485  31.091  22.838  1.00  0.00     0.000 A 
ATOM     93  C   UNL A   1      30.180  30.211  21.677  1.00  0.00     0.000 A 
ATOM     94  C   UNL A   1      28.910  31.389  21.917  1.00  0.00     0.000 A 
ENDBRANCH  88  89
ENDBRANCH  86  88
ENDBRANCH  84  86
ENDBRANCH  82  84
ENDBRANCH  81  82
ENDBRANCH  76  80
ENDBRANCH  72  74
ENDBRANCH   1  72
TORSDOF 20
ENDMDL
MODEL 2
REMARK VINA RESULT:     -11.9      4.074     10.207
REMARK SMILES O=C(OCCOC(=O)c1ccccc1/C=N\NC(=S)NCc1ccccc1)c1ccc(-c2c3nc(c(-c4cc(S(=O)(=O)[O-])ccc4F)c4ccc([nH]4)c(-c4cc(S(=O)(=O)[O-])ccc4F)c4nc(c(-c5cc(S(=O)(=O)[O-])ccc5F)c5ccc2[nH]5)C=C4)C=C3)cc1
REMARK SMILES IDX 6 1 5 2 4 3 3 4 2 5 1 6 28 7 29 8 90 9 30 10 89 11 31 12
REMARK SMILES IDX 32 13 33 14 83 15 34 16 88 17 82 18 84 19 35 20 87 21 81 22
REMARK SMILES IDX 80 23 36 25 68 26 48 27 67 28 49 29 52 30 66 31 85 32 50 33
REMARK SMILES IDX 51 34 65 36 86 37 53 38 37 39 38 40 46 41 39 42 45 43 47 44
REMARK SMILES IDX 44 45 40 46 41 47 42 48 43 49 69 50 70 51 78 52 71 53 77 54
REMARK SMILES IDX 79 55 76 56 72 57 73 58 74 59 75 60 54 61 55 62 63 63 56 64
REMARK SMILES IDX 62 65 64 66 61 67 57 68 58 69 59 70 60 71 7 72 8 73 9 74
REMARK SMILES IDX 10 75 14 76 11 77 13 78 12 79 15 80 16 81 17 82 18 84 19 85
REMARK SMILES IDX 20 86 21 88 22 89 23 90 27 91 24 92 26 93 25 94
REMARK H PARENT 84 24 52 35 17 83 20 87
REMARK Flexibility Score: inf
ROOT
ATOM      1  O   UNL A   1      33.248  27.407  26.299  1.00  0.00    -0.458 OA
ENDROOT
BRANCH   1   2
ATOM      2  C   UNL A   1      32.947  28.631  27.003  1.00  0.00     0.275 C 
BRANCH   2   3
ATOM      3  C   UNL A   1      33.858  29.809  26.601  1.00  0.00     0.275 C 
BRANCH   3   4
ATOM      4  O   UNL A   1      34.425  30.458  27.757  1.00  0.00    -0.458 OA
BRANCH   4   5
ATOM      5  C   UNL A   1      35.674  30.921  27.992  1.00  0.00     0.338 C 
ATOM      6  O   UNL A   1      35.911  32.110  27.787  1.00  0.00    -0.246 OA
BRANCH   5   7
ATOM      7  C   UNL A   1      36.817  30.087  28.465  1.00  0.00     0.060 A 
ATOM      8  C   UNL A   1      38.259  29.773  27.466  1.00  0.00     0.016 A 
ATOM      9  C   UNL A   1      36.638  29.415  30.094  1.00  0.00     0.016 A 
ATOM     10  C   UNL A   1      39.581  28.748  27.941  1.00  0.00     0.010 A 
ATOM     11  C   UNL A   1      37.943  28.325  30.733  1.00  0.00     0.010 A 
ATOM     12  C   UNL A   1      39.567  27.974  29.565  1.00  0.00    -0.014 A 
BRANCH  12  13
ATOM     13  C   UNL A   1      41.145  27.501  29.635  1.00  0.00     0.031 A 
ATOM     14  C   UNL A   1      42.009  28.013  30.728  1.00  0.00     0.074 A 
ATOM     15  C   UNL A   1      41.740  26.483  28.943  1.00  0.00     0.049 A 
ATOM     16  N   UNL A   1      43.276  28.316  30.728  1.00  0.00    -0.248 NA
ATOM     17  C   UNL A   1      41.314  28.261  31.984  1.00  0.00     0.031 C 
ATOM     18  C   UNL A   1      41.085  25.430  28.178  1.00  0.00     0.029 A 
ATOM     19  N   UNL A   1      43.075  26.139  28.791  1.00  0.00    -0.354 N 
ATOM     20  C   UNL A   1      43.457  29.011  31.913  1.00  0.00     0.074 A 
ATOM     21  C   UNL A   1      42.154  29.119  32.534  1.00  0.00     0.031 C 
ATOM     22  C   UNL A   1      41.977  24.648  27.553  1.00  0.00     0.029 A 
ATOM     23  C   UNL A   1      43.299  25.136  27.859  1.00  0.00     0.049 A 
ATOM     24  H   UNL A   1      43.800  26.568  29.300  1.00  0.00     0.167 HD
ATOM     25  C   UNL A   1      44.617  29.469  32.442  1.00  0.00     0.034 A 
ATOM     26  C   UNL A   1      44.427  24.657  27.295  1.00  0.00     0.034 A 
ATOM     27  C   UNL A   1      45.903  29.028  31.965  1.00  0.00     0.049 A 
ATOM     28  C   UNL A   1      45.728  25.176  27.835  1.00  0.00     0.074 A 
ATOM     29  C   UNL A   1      47.159  29.330  32.456  1.00  0.00     0.029 A 
ATOM     30  N   UNL A   1      46.088  28.090  30.952  1.00  0.00    -0.354 N 
ATOM     31  N   UNL A   1      45.917  26.072  28.775  1.00  0.00    -0.248 NA
ATOM     32  C   UNL A   1      46.955  24.581  27.301  1.00  0.00     0.031 C 
ATOM     33  C   UNL A   1      48.101  28.586  31.735  1.00  0.00     0.029 A 
ATOM     34  C   UNL A   1      47.431  27.782  30.825  1.00  0.00     0.049 A 
ATOM     35  H   UNL A   1      45.366  27.702  30.404  1.00  0.00     0.167 HD
ATOM     36  C   UNL A   1      47.284  26.078  29.014  1.00  0.00     0.074 A 
ATOM     37  C   UNL A   1      47.868  25.113  28.100  1.00  0.00     0.031 C 
ATOM     38  C   UNL A   1      47.985  26.794  29.928  1.00  0.00     0.034 A 
BRANCH  25  39
ATOM     39  C   UNL A   1      44.505  30.504  33.535  1.00  0.00     0.023 A 
ATOM     40  C   UNL A   1      44.543  30.171  34.898  1.00  0.00     0.031 A 
ATOM     41  C   UNL A   1      44.162  31.825  33.196  1.00  0.00     0.131 A 
ATOM     42  C   UNL A   1      44.034  31.069  35.845  1.00  0.00     0.055 A 
ATOM     43  C   UNL A   1      43.814  32.768  34.165  1.00  0.00     0.041 A 
ATOM     44  F   UNL A   1      44.101  32.211  31.911  1.00  0.00    -0.206 F 
ATOM     45  C   UNL A   1      43.705  32.380  35.497  1.00  0.00     0.022 A 
BRANCH  42  46
ATOM     46  S   UNL A   1      43.550  30.414  37.469  1.00  0.00     0.124 S 
ATOM     47  O   UNL A   1      44.743  30.702  38.265  1.00  0.00    -0.237 OA
ATOM     48  O   UNL A   1      42.368  31.205  37.794  1.00  0.00    -0.237 OA
ATOM     49  O   UNL A   1      43.307  28.998  37.209  1.00  0.00    -0.744 OA
ENDBRANCH  42  46
ENDBRANCH  25  39
BRANCH  26  50
ATOM     50  C   UNL A   1      44.406  23.654  26.178  1.00  0.00     0.023 A 
ATOM     51  C   UNL A   1      44.032  22.316  26.391  1.00  0.00     0.031 A 
ATOM     52  C   UNL A   1      44.868  24.000  24.893  1.00  0.00     0.131 A 
ATOM     53  C   UNL A   1      44.193  21.362  25.367  1.00  0.00     0.055 A 
ATOM     54  C   UNL A   1      44.987  23.057  23.865  1.00  0.00     0.041 A 
ATOM     55  F   UNL A   1      45.232  25.264  24.620  1.00  0.00    -0.206 F 
ATOM     56  C   UNL A   1      44.666  21.725  24.105  1.00  0.00     0.022 A 
BRANCH  53  57
ATOM     57  S   UNL A   1      43.873  19.613  25.742  1.00  0.00     0.124 S 
ATOM     58  O   UNL A   1      43.202  19.704  27.033  1.00  0.00    -0.237 OA
ATOM     59  O   UNL A   1      43.042  19.210  24.613  1.00  0.00    -0.237 OA
ATOM     60  O   UNL A   1      45.209  19.020  25.773  1.00  0.00    -0.744 OA
ENDBRANCH  53  57
ENDBRANCH  26  50
BRANCH  38  61
ATOM     61  C   UNL A   1      49.448  26.475  30.051  1.00  0.00     0.023 A 
ATOM     62  C   UNL A   1      50.401  27.028  29.184  1.00  0.00     0.031 A 
ATOM     63  C   UNL A   1      49.888  25.588  31.051  1.00  0.00     0.131 A 
ATOM     64  C   UNL A   1      51.743  26.642  29.292  1.00  0.00     0.055 A 
ATOM     65  C   UNL A   1      51.236  25.267  31.202  1.00  0.00     0.041 A 
ATOM     66  F   UNL A   1      49.013  25.022  31.897  1.00  0.00    -0.206 F 
ATOM     67  C   UNL A   1      52.171  25.785  30.310  1.00  0.00     0.022 A 
BRANCH  64  68
ATOM     68  S   UNL A   1      52.901  27.189  28.010  1.00  0.00     0.124 S 
ATOM     69  O   UNL A   1      52.052  28.039  27.182  1.00  0.00    -0.237 OA
ATOM     70  O   UNL A   1      53.924  27.878  28.789  1.00  0.00    -0.237 OA
ATOM     71  O   UNL A   1      53.332  25.941  27.384  1.00  0.00    -0.744 OA
ENDBRANCH  64  68
ENDBRANCH  38  61
ENDBRANCH  12  13
ENDBRANCH   5   7
ENDBRANCH   4   5
ENDBRANCH   3   4
ENDBRANCH   2   3
ENDBRANCH   1   2
BRANCH   1  72
ATOM     72  C   UNL A   1      33.044  27.398  24.954  1.00  0.00     0.338 C 
ATOM     73  O   UNL A   1      33.793  26.977  24.096  1.00  0.00    -0.246 OA
BRANCH  72  74
ATOM     74  C   UNL A   1      31.610  27.645  24.756  1.00  0.00     0.068 A 
ATOM     75  C   UNL A   1      31.215  29.281  24.085  1.00  0.00     0.016 A 
ATOM     76  C   UNL A   1      30.420  26.296  24.586  1.00  0.00     0.009 A 
ATOM     77  C   UNL A   1      29.632  29.579  23.281  1.00  0.00     0.001 A 
ATOM     78  C   UNL A   1      28.770  26.610  23.825  1.00  0.00     0.010 A 
ATOM     79  C   UNL A   1      28.388  28.279  23.239  1.00  0.00     0.001 A 
BRANCH  76  80
ATOM     80  C   UNL A   1      30.413  25.269  25.572  1.00  0.00     0.142 C 
ATOM     81  N   UNL A   1      31.186  24.265  25.365  1.00  0.00    -0.181 NA
BRANCH  81  82
ATOM     82  N   UNL A   1      31.841  24.203  24.148  1.00  0.00    -0.254 N 
ATOM     83  H   UNL A   1      31.584  24.922  23.526  1.00  0.00     0.193 HD
BRANCH  82  84
ATOM     84  C   UNL A   1      32.778  23.343  23.634  1.00  0.00     0.187 C 
ATOM     85  S   UNL A   1      32.166  21.950  22.895  1.00  0.00    -0.039 S 
BRANCH  84  86
ATOM     86  N   UNL A   1      34.206  23.451  23.694  1.00  0.00    -0.357 N 
ATOM     87  H   UNL A   1      34.486  23.607  22.764  1.00  0.00     0.163 HD
BRANCH  86  88
ATOM     88  C   UNL A   1      35.988  23.437  24.796  1.00  0.00     0.151 C 
BRANCH  88  89
ATOM     89  C   UNL A   1      37.429  22.436  25.265  1.00  0.00    -0.029 A 
ATOM     90  C   UNL A   1      39.084  22.790  26.393  1.00  0.00     0.005 A 
ATOM     91  C   UNL A   1      37.268  20.684  24.731  1.00  0.00     0.005 A 
ATOM     92  C   UNL A   1      40.258  21.489  26.721  1.00  0.00     0.000 A 
ATOM     93  C   UNL A   1      38.520  19.511  25.155  1.00  0.00     0.000 A 
ATOM     94  C   UNL A   1      39.943  19.919  26.084  1.00  0.00     0.000 A 
ENDBRANCH  88  89
ENDBRANCH  86  88
ENDBRANCH  84  86
ENDBRANCH  82  84
ENDBRANCH  81  82
ENDBRANCH  76  80
ENDBRANCH  72  74
ENDBRANCH   1  72
TORSDOF 20
ENDMDL
MODEL 3
REMARK VINA RESULT:     -11.9      1.462      3.528
REMARK SMILES O=C(OCCOC(=O)c1ccccc1/C=N\NC(=S)NCc1ccccc1)c1ccc(-c2c3nc(c(-c4cc(S(=O)(=O)[O-])ccc4F)c4ccc([nH]4)c(-c4cc(S(=O)(=O)[O-])ccc4F)c4nc(c(-c5cc(S(=O)(=O)[O-])ccc5F)c5ccc2[nH]5)C=C4)C=C3)cc1
REMARK SMILES IDX 6 1 5 2 4 3 3 4 2 5 1 6 28 7 29 8 90 9 30 10 89 11 31 12
REMARK SMILES IDX 32 13 33 14 83 15 34 16 88 17 82 18 84 19 35 20 87 21 81 22
REMARK SMILES IDX 80 23 36 25 68 26 48 27 67 28 49 29 52 30 66 31 85 32 50 33
REMARK SMILES IDX 51 34 65 36 86 37 53 38 37 39 38 40 46 41 39 42 45 43 47 44
REMARK SMILES IDX 44 45 40 46 41 47 42 48 43 49 69 50 70 51 78 52 71 53 77 54
REMARK SMILES IDX 79 55 76 56 72 57 73 58 74 59 75 60 54 61 55 62 63 63 56 64
REMARK SMILES IDX 62 65 64 66 61 67 57 68 58 69 59 70 60 71 7 72 8 73 9 74
REMARK SMILES IDX 10 75 14 76 11 77 13 78 12 79 15 80 16 81 17 82 18 84 19 85
REMARK SMILES IDX 20 86 21 88 22 89 23 90 27 91 24 92 26 93 25 94
REMARK H PARENT 84 24 52 35 17 83 20 87
REMARK Flexibility Score: inf
ROOT
ATOM      1  O   UNL A   1      33.996  27.351  24.034  1.00  0.00    -0.458 OA
ENDROOT
BRANCH   1   2
ATOM      2  C   UNL A   1      32.944  27.833  23.171  1.00  0.00     0.275 C 
BRANCH   2   3
ATOM      3  C   UNL A   1      32.133  28.994  23.783  1.00  0.00     0.275 C 
BRANCH   3   4
ATOM      4  O   UNL A   1      32.910  29.733  24.746  1.00  0.00    -0.458 OA
BRANCH   4   5
ATOM      5  C   UNL A   1      32.606  30.156  25.995  1.00  0.00     0.338 C 
ATOM      6  O   UNL A   1      31.424  30.323  26.291  1.00  0.00    -0.246 OA
BRANCH   5   7
ATOM      7  C   UNL A   1      33.608  30.467  27.057  1.00  0.00     0.060 A 
ATOM      8  C   UNL A   1      34.672  29.228  27.769  1.00  0.00     0.016 A 
ATOM      9  C   UNL A   1      33.660  32.161  27.572  1.00  0.00     0.016 A 
ATOM     10  C   UNL A   1      35.800  29.524  29.059  1.00  0.00     0.010 A 
ATOM     11  C   UNL A   1      34.794  32.627  28.911  1.00  0.00     0.010 A 
ATOM     12  C   UNL A   1      35.984  31.190  29.715  1.00  0.00    -0.014 A 
BRANCH  12  13
ATOM     13  C   UNL A   1      37.387  30.979  30.556  1.00  0.00     0.031 A 
ATOM     14  C   UNL A   1      38.523  30.276  29.909  1.00  0.00     0.074 A 
ATOM     15  C   UNL A   1      37.755  31.584  31.724  1.00  0.00     0.049 A 
ATOM     16  N   UNL A   1      39.421  29.482  30.417  1.00  0.00    -0.248 NA
ATOM     17  C   UNL A   1      38.613  30.469  28.467  1.00  0.00     0.031 C 
ATOM     18  C   UNL A   1      37.120  32.726  32.369  1.00  0.00     0.029 A 
ATOM     19  N   UNL A   1      38.807  31.333  32.593  1.00  0.00    -0.354 N 
ATOM     20  C   UNL A   1      40.026  28.903  29.313  1.00  0.00     0.074 A 
ATOM     21  C   UNL A   1      39.328  29.404  28.148  1.00  0.00     0.031 C 
ATOM     22  C   UNL A   1      37.689  33.004  33.551  1.00  0.00     0.029 A 
ATOM     23  C   UNL A   1      38.749  32.051  33.778  1.00  0.00     0.049 A 
ATOM     24  H   UNL A   1      39.532  30.700  32.386  1.00  0.00     0.167 HD
ATOM     25  C   UNL A   1      41.092  28.068  29.288  1.00  0.00     0.034 A 
ATOM     26  C   UNL A   1      39.448  31.963  34.928  1.00  0.00     0.034 A 
ATOM     27  C   UNL A   1      41.952  27.890  30.430  1.00  0.00     0.049 A 
ATOM     28  C   UNL A   1      40.613  31.017  34.942  1.00  0.00     0.074 A 
ATOM     29  C   UNL A   1      43.117  27.153  30.530  1.00  0.00     0.029 A 
ATOM     30  N   UNL A   1      41.799  28.557  31.643  1.00  0.00    -0.354 N 
ATOM     31  N   UNL A   1      41.029  30.226  33.980  1.00  0.00    -0.248 NA
ATOM     32  C   UNL A   1      41.440  30.996  36.150  1.00  0.00     0.031 C 
ATOM     33  C   UNL A   1      43.660  27.365  31.803  1.00  0.00     0.029 A 
ATOM     34  C   UNL A   1      42.861  28.272  32.483  1.00  0.00     0.049 A 
ATOM     35  H   UNL A   1      41.043  29.147  31.871  1.00  0.00     0.167 HD
ATOM     36  C   UNL A   1      42.224  29.686  34.433  1.00  0.00     0.074 A 
ATOM     37  C   UNL A   1      42.444  30.224  35.762  1.00  0.00     0.031 C 
ATOM     38  C   UNL A   1      43.074  28.846  33.792  1.00  0.00     0.034 A 
BRANCH  25  39
ATOM     39  C   UNL A   1      41.319  27.291  28.014  1.00  0.00     0.023 A 
ATOM     40  C   UNL A   1      41.046  25.919  27.907  1.00  0.00     0.031 A 
ATOM     41  C   UNL A   1      42.000  27.906  26.948  1.00  0.00     0.131 A 
ATOM     42  C   UNL A   1      41.640  25.173  26.881  1.00  0.00     0.055 A 
ATOM     43  C   UNL A   1      42.447  27.179  25.843  1.00  0.00     0.041 A 
ATOM     44  F   UNL A   1      42.298  29.214  26.986  1.00  0.00    -0.206 F 
ATOM     45  C   UNL A   1      42.307  25.795  25.824  1.00  0.00     0.022 A 
BRANCH  42  46
ATOM     46  S   UNL A   1      41.765  23.373  27.097  1.00  0.00     0.124 S 
ATOM     47  O   UNL A   1      40.554  23.089  27.867  1.00  0.00    -0.237 OA
ATOM     48  O   UNL A   1      41.767  22.886  25.722  1.00  0.00    -0.237 OA
ATOM     49  O   UNL A   1      43.017  23.201  27.827  1.00  0.00    -0.744 OA
ENDBRANCH  42  46
ENDBRANCH  25  39
BRANCH  26  50
ATOM     50  C   UNL A   1      39.095  32.763  36.149  1.00  0.00     0.023 A 
ATOM     51  C   UNL A   1      39.595  34.060  36.354  1.00  0.00     0.031 A 
ATOM     52  C   UNL A   1      38.332  32.192  37.186  1.00  0.00     0.131 A 
ATOM     53  C   UNL A   1      39.392  34.713  37.586  1.00  0.00     0.055 A 
ATOM     54  C   UNL A   1      38.097  32.861  38.393  1.00  0.00     0.041 A 
ATOM     55  F   UNL A   1      37.817  30.959  37.050  1.00  0.00    -0.206 F 
ATOM     56  C   UNL A   1      38.644  34.122  38.606  1.00  0.00     0.022 A 
BRANCH  53  57
ATOM     57  S   UNL A   1      40.212  36.308  37.877  1.00  0.00     0.124 S 
ATOM     58  O   UNL A   1      39.157  37.069  38.535  1.00  0.00    -0.237 OA
ATOM     59  O   UNL A   1      41.341  35.917  38.715  1.00  0.00    -0.237 OA
ATOM     60  O   UNL A   1      40.565  36.763  36.533  1.00  0.00    -0.744 OA
ENDBRANCH  53  57
ENDBRANCH  26  50
BRANCH  38  61
ATOM     61  C   UNL A   1      44.373  28.548  34.486  1.00  0.00     0.023 A 
ATOM     62  C   UNL A   1      44.512  27.457  35.357  1.00  0.00     0.031 A 
ATOM     63  C   UNL A   1      45.485  29.385  34.278  1.00  0.00     0.131 A 
ATOM     64  C   UNL A   1      45.721  27.266  36.039  1.00  0.00     0.055 A 
ATOM     65  C   UNL A   1      46.708  29.143  34.900  1.00  0.00     0.041 A 
ATOM     66  F   UNL A   1      45.397  30.449  33.464  1.00  0.00    -0.206 F 
ATOM     67  C   UNL A   1      46.827  28.085  35.798  1.00  0.00     0.022 A 
BRANCH  64  68
ATOM     68  S   UNL A   1      45.788  25.995  37.329  1.00  0.00     0.124 S 
ATOM     69  O   UNL A   1      47.098  26.240  37.923  1.00  0.00    -0.237 OA
ATOM     70  O   UNL A   1      44.639  26.336  38.161  1.00  0.00    -0.237 OA
ATOM     71  O   UNL A   1      45.665  24.745  36.584  1.00  0.00    -0.744 OA
ENDBRANCH  64  68
ENDBRANCH  38  61
ENDBRANCH  12  13
ENDBRANCH   5   7
ENDBRANCH   4   5
ENDBRANCH   3   4
ENDBRANCH   2   3
ENDBRANCH   1   2
BRANCH   1  72
ATOM     72  C   UNL A   1      33.689  26.325  24.873  1.00  0.00     0.338 C 
ATOM     73  O   UNL A   1      33.562  26.371  26.080  1.00  0.00    -0.246 OA
BRANCH  72  74
ATOM     74  C   UNL A   1      33.178  25.242  24.024  1.00  0.00     0.068 A 
ATOM     75  C   UNL A   1      34.454  24.333  23.113  1.00  0.00     0.016 A 
ATOM     76  C   UNL A   1      31.569  24.473  24.319  1.00  0.00     0.009 A 
ATOM     77  C   UNL A   1      34.118  22.685  22.471  1.00  0.00     0.001 A 
ATOM     78  C   UNL A   1      31.194  22.814  23.607  1.00  0.00     0.010 A 
ATOM     79  C   UNL A   1      32.471  21.977  22.636  1.00  0.00     0.001 A 
BRANCH  76  80
ATOM     80  C   UNL A   1      30.428  25.314  24.450  1.00  0.00     0.142 C 
ATOM     81  N   UNL A   1      29.932  25.433  25.628  1.00  0.00    -0.181 NA
BRANCH  81  82
ATOM     82  N   UNL A   1      30.454  24.631  26.626  1.00  0.00    -0.254 N 
ATOM     83  H   UNL A   1      31.063  25.108  27.236  1.00  0.00     0.193 HD
BRANCH  82  84
ATOM     84  C   UNL A   1      30.293  23.305  26.939  1.00  0.00     0.187 C 
ATOM     85  S   UNL A   1      28.721  22.835  27.345  1.00  0.00    -0.039 S 
BRANCH  84  86
ATOM     86  N   UNL A   1      31.298  22.286  27.018  1.00  0.00    -0.357 N 
ATOM     87  H   UNL A   1      30.941  21.630  27.660  1.00  0.00     0.163 HD
BRANCH  86  88
ATOM     88  C   UNL A   1      33.156  21.511  26.436  1.00  0.00     0.151 C 
BRANCH  88  89
ATOM     89  C   UNL A   1      34.871  21.937  26.019  1.00  0.00    -0.029 A 
ATOM     90  C   UNL A   1      36.031  23.578  26.330  1.00  0.00     0.005 A 
ATOM     91  C   UNL A   1      35.791  20.514  25.305  1.00  0.00     0.005 A 
ATOM     92  C   UNL A   1      37.749  23.582  25.854  1.00  0.00     0.000 A 
ATOM     93  C   UNL A   1      37.503  20.680  24.902  1.00  0.00     0.000 A 
ATOM     94  C   UNL A   1      38.410  22.154  25.152  1.00  0.00     0.000 A 
ENDBRANCH  88  89
ENDBRANCH  86  88
ENDBRANCH  84  86
ENDBRANCH  82  84
ENDBRANCH  81  82
ENDBRANCH  76  80
ENDBRANCH  72  74
ENDBRANCH   1  72
TORSDOF 20
ENDMDL
