MODEL 1
REMARK VINA RESULT:     -11.1      0.000      0.000
REMARK SMILES CC(=O)Oc1ccccc1C(=O)OCCOC(=O)c1ccc(-c2c3nc(c(-c4cc(S(=O)(=O)[O-])ccc4F)c4ccc([nH]4)c(-c4cc(S(=O)(=O)[O-])ccc4F)c4nc(c(-c5cc(S(=O)(=O)[O-])ccc5F)c5ccc2[nH]5)C=C4)C=C3)cc1
REMARK SMILES IDX 15 1 14 2 13 3 11 4 12 5 10 6 5 7 6 8 7 9 9 10 8 11 4 12
REMARK SMILES IDX 2 13 1 14 3 15 16 16 17 17 18 18 19 19 20 20 81 21 21 22
REMARK SMILES IDX 80 23 22 24 23 25 24 26 74 27 25 28 79 29 73 30 75 31 26 32
REMARK SMILES IDX 78 33 72 34 71 35 27 37 59 38 39 39 58 40 40 41 43 42 57 43
REMARK SMILES IDX 76 44 41 45 42 46 56 48 77 49 44 50 28 51 29 52 37 53 30 54
REMARK SMILES IDX 36 55 38 56 35 57 31 58 32 59 33 60 34 61 60 62 61 63 69 64
REMARK SMILES IDX 62 65 68 66 70 67 67 68 63 69 64 70 65 71 66 72 45 73 46 74
REMARK SMILES IDX 54 75 47 76 53 77 55 78 52 79 48 80 49 81 50 82 51 83
REMARK H PARENT 75 36 43 47
REMARK Flexibility Score: inf
ROOT
ATOM      1  C   UNL A   1      36.384  20.530  24.981  1.00  0.00     0.275 C 
ENDROOT
BRANCH   1   2
ATOM      2  C   UNL A   1      34.889  20.817  25.107  1.00  0.00     0.275 C 
BRANCH   2   3
ATOM      3  O   UNL A   1      34.615  22.233  25.086  1.00  0.00    -0.458 OA
BRANCH   3   4
ATOM      4  C   UNL A   1      34.245  22.787  26.274  1.00  0.00     0.342 C 
ATOM      5  O   UNL A   1      34.443  22.314  27.374  1.00  0.00    -0.246 OA
BRANCH   4   6
ATOM      6  C   UNL A   1      33.613  24.119  26.071  1.00  0.00     0.102 A 
ATOM      7  C   UNL A   1      32.415  24.519  26.674  1.00  0.00     0.145 A 
ATOM      8  C   UNL A   1      31.877  25.787  26.425  1.00  0.00     0.048 A 
ATOM      9  C   UNL A   1      32.540  26.670  25.569  1.00  0.00     0.004 A 
ATOM     10  C   UNL A   1      34.287  25.036  25.246  1.00  0.00     0.019 A 
ATOM     11  C   UNL A   1      33.740  26.292  24.976  1.00  0.00     0.001 A 
BRANCH   7  12
ATOM     12  O   UNL A   1      31.639  23.670  27.477  1.00  0.00    -0.426 OA
BRANCH  12  13
ATOM     13  C   UNL A   1      30.412  23.293  26.947  1.00  0.00     0.308 C 
ATOM     14  C   UNL A   1      30.645  22.369  25.789  1.00  0.00     0.139 C 
ATOM     15  O   UNL A   1      29.307  23.648  27.332  1.00  0.00    -0.252 OA
ENDBRANCH  12  13
ENDBRANCH   7  12
ENDBRANCH   4   6
ENDBRANCH   3   4
ENDBRANCH   2   3
ENDBRANCH   1   2
BRANCH   1  16
ATOM     16  O   UNL A   1      37.146  21.581  25.596  1.00  0.00    -0.458 OA
BRANCH  16  17
ATOM     17  C   UNL A   1      38.451  21.295  25.800  1.00  0.00     0.338 C 
ATOM     18  O   UNL A   1      39.061  20.303  25.437  1.00  0.00    -0.246 OA
BRANCH  17  19
ATOM     19  C   UNL A   1      39.096  22.430  26.470  1.00  0.00     0.060 A 
ATOM     20  C   UNL A   1      38.590  23.702  26.221  1.00  0.00     0.016 A 
ATOM     21  C   UNL A   1      40.265  22.270  27.207  1.00  0.00     0.016 A 
ATOM     22  C   UNL A   1      39.293  24.830  26.624  1.00  0.00     0.010 A 
ATOM     23  C   UNL A   1      40.924  23.406  27.693  1.00  0.00     0.010 A 
ATOM     24  C   UNL A   1      40.468  24.701  27.375  1.00  0.00    -0.014 A 
BRANCH  24  25
ATOM     25  C   UNL A   1      41.246  25.911  27.764  1.00  0.00     0.031 A 
ATOM     26  C   UNL A   1      40.601  26.970  28.622  1.00  0.00     0.074 A 
ATOM     27  C   UNL A   1      42.529  26.058  27.376  1.00  0.00     0.049 A 
ATOM     28  N   UNL A   1      41.014  28.179  28.902  1.00  0.00    -0.248 NA
ATOM     29  C   UNL A   1      39.306  26.623  29.228  1.00  0.00     0.031 C 
ATOM     30  C   UNL A   1      43.299  25.078  26.605  1.00  0.00     0.029 A 
ATOM     31  N   UNL A   1      43.419  27.084  27.581  1.00  0.00    -0.354 N 
ATOM     32  C   UNL A   1      40.004  28.760  29.664  1.00  0.00     0.074 A 
ATOM     33  C   UNL A   1      38.954  27.770  29.790  1.00  0.00     0.031 C 
ATOM     34  C   UNL A   1      44.548  25.535  26.433  1.00  0.00     0.029 A 
ATOM     35  C   UNL A   1      44.643  26.881  26.985  1.00  0.00     0.049 A 
ATOM     36  H   UNL A   1      43.202  27.888  28.107  1.00  0.00     0.167 HD
ATOM     37  C   UNL A   1      39.961  30.004  30.204  1.00  0.00     0.034 A 
ATOM     38  C   UNL A   1      45.702  27.703  26.842  1.00  0.00     0.034 A 
ATOM     39  C   UNL A   1      41.042  30.956  30.104  1.00  0.00     0.049 A 
ATOM     40  C   UNL A   1      45.610  29.099  27.400  1.00  0.00     0.074 A 
ATOM     41  C   UNL A   1      41.114  32.240  30.618  1.00  0.00     0.029 A 
ATOM     42  N   UNL A   1      42.248  30.726  29.453  1.00  0.00    -0.354 N 
ATOM     43  N   UNL A   1      44.620  29.665  28.052  1.00  0.00    -0.248 NA
ATOM     44  C   UNL A   1      46.772  29.971  27.192  1.00  0.00     0.031 C 
ATOM     45  C   UNL A   1      42.332  32.805  30.226  1.00  0.00     0.029 A 
ATOM     46  C   UNL A   1      43.058  31.849  29.531  1.00  0.00     0.049 A 
ATOM     47  H   UNL A   1      42.493  29.886  29.000  1.00  0.00     0.167 HD
ATOM     48  C   UNL A   1      45.049  30.956  28.346  1.00  0.00     0.074 A 
ATOM     49  C   UNL A   1      46.395  31.074  27.821  1.00  0.00     0.031 C 
ATOM     50  C   UNL A   1      44.392  31.953  28.990  1.00  0.00     0.034 A 
BRANCH  37  51
ATOM     51  C   UNL A   1      38.678  30.426  30.885  1.00  0.00     0.023 A 
ATOM     52  C   UNL A   1      37.621  31.035  30.188  1.00  0.00     0.031 A 
ATOM     53  C   UNL A   1      38.529  30.242  32.273  1.00  0.00     0.131 A 
ATOM     54  C   UNL A   1      36.497  31.504  30.889  1.00  0.00     0.055 A 
ATOM     55  C   UNL A   1      37.372  30.636  32.951  1.00  0.00     0.041 A 
ATOM     56  F   UNL A   1      39.511  29.687  32.999  1.00  0.00    -0.206 F 
ATOM     57  C   UNL A   1      36.355  31.286  32.261  1.00  0.00     0.022 A 
BRANCH  54  58
ATOM     58  S   UNL A   1      35.291  32.534  30.008  1.00  0.00     0.124 S 
ATOM     59  O   UNL A   1      36.114  33.671  29.603  1.00  0.00    -0.237 OA
ATOM     60  O   UNL A   1      34.848  31.652  28.934  1.00  0.00    -0.237 OA
ATOM     61  O   UNL A   1      34.286  32.833  31.026  1.00  0.00    -0.744 OA
ENDBRANCH  54  58
ENDBRANCH  37  51
BRANCH  38  62
ATOM     62  C   UNL A   1      46.903  27.261  26.075  1.00  0.00     0.023 A 
ATOM     63  C   UNL A   1      47.122  27.685  24.756  1.00  0.00     0.031 A 
ATOM     64  C   UNL A   1      47.836  26.372  26.642  1.00  0.00     0.131 A 
ATOM     65  C   UNL A   1      48.223  27.196  24.035  1.00  0.00     0.055 A 
ATOM     66  C   UNL A   1      48.963  25.936  25.943  1.00  0.00     0.041 A 
ATOM     67  F   UNL A   1      47.674  25.926  27.898  1.00  0.00    -0.206 F 
ATOM     68  C   UNL A   1      49.155  26.339  24.627  1.00  0.00     0.022 A 
BRANCH  65  69
ATOM     69  S   UNL A   1      48.376  27.626  22.280  1.00  0.00     0.124 S 
ATOM     70  O   UNL A   1      48.450  26.310  21.656  1.00  0.00    -0.237 OA
ATOM     71  O   UNL A   1      47.150  28.381  22.044  1.00  0.00    -0.237 OA
ATOM     72  O   UNL A   1      49.608  28.411  22.228  1.00  0.00    -0.744 OA
ENDBRANCH  65  69
ENDBRANCH  38  62
BRANCH  50  73
ATOM     73  C   UNL A   1      45.152  33.241  29.199  1.00  0.00     0.023 A 
ATOM     74  C   UNL A   1      46.021  33.418  30.290  1.00  0.00     0.031 A 
ATOM     75  C   UNL A   1      44.981  34.313  28.307  1.00  0.00     0.131 A 
ATOM     76  C   UNL A   1      46.640  34.660  30.493  1.00  0.00     0.055 A 
ATOM     77  C   UNL A   1      45.646  35.526  28.480  1.00  0.00     0.041 A 
ATOM     78  F   UNL A   1      44.160  34.198  27.250  1.00  0.00    -0.206 F 
ATOM     79  C   UNL A   1      46.470  35.710  29.587  1.00  0.00     0.022 A 
BRANCH  76  80
ATOM     80  S   UNL A   1      47.592  34.921  32.016  1.00  0.00     0.124 S 
ATOM     81  O   UNL A   1      46.649  34.488  33.041  1.00  0.00    -0.237 OA
ATOM     82  O   UNL A   1      48.750  34.057  31.810  1.00  0.00    -0.237 OA
ATOM     83  O   UNL A   1      47.878  36.354  32.000  1.00  0.00    -0.744 OA
ENDBRANCH  76  80
ENDBRANCH  50  73
ENDBRANCH  24  25
ENDBRANCH  17  19
ENDBRANCH  16  17
ENDBRANCH   1  16
TORSDOF 16
ENDMDL
MODEL 2
REMARK VINA RESULT:     -11.1      1.715      2.270
REMARK SMILES CC(=O)Oc1ccccc1C(=O)OCCOC(=O)c1ccc(-c2c3nc(c(-c4cc(S(=O)(=O)[O-])ccc4F)c4ccc([nH]4)c(-c4cc(S(=O)(=O)[O-])ccc4F)c4nc(c(-c5cc(S(=O)(=O)[O-])ccc5F)c5ccc2[nH]5)C=C4)C=C3)cc1
REMARK SMILES IDX 15 1 14 2 13 3 11 4 12 5 10 6 5 7 6 8 7 9 9 10 8 11 4 12
REMARK SMILES IDX 2 13 1 14 3 15 16 16 17 17 18 18 19 19 20 20 81 21 21 22
REMARK SMILES IDX 80 23 22 24 23 25 24 26 74 27 25 28 79 29 73 30 75 31 26 32
REMARK SMILES IDX 78 33 72 34 71 35 27 37 59 38 39 39 58 40 40 41 43 42 57 43
REMARK SMILES IDX 76 44 41 45 42 46 56 48 77 49 44 50 28 51 29 52 37 53 30 54
REMARK SMILES IDX 36 55 38 56 35 57 31 58 32 59 33 60 34 61 60 62 61 63 69 64
REMARK SMILES IDX 62 65 68 66 70 67 67 68 63 69 64 70 65 71 66 72 45 73 46 74
REMARK SMILES IDX 54 75 47 76 53 77 55 78 52 79 48 80 49 81 50 82 51 83
REMARK H PARENT 75 36 43 47
REMARK Flexibility Score: inf
ROOT
ATOM      1  C   UNL A   1      36.741  20.851  25.059  1.00  0.00     0.275 C 
ENDROOT
BRANCH   1   2
ATOM      2  C   UNL A   1      35.715  21.526  25.967  1.00  0.00     0.275 C 
BRANCH   2   3
ATOM      3  O   UNL A   1      35.509  22.907  25.604  1.00  0.00    -0.458 OA
BRANCH   3   4
ATOM      4  C   UNL A   1      34.547  23.141  24.668  1.00  0.00     0.342 C 
ATOM      5  O   UNL A   1      34.731  23.275  23.476  1.00  0.00    -0.246 OA
BRANCH   4   6
ATOM      6  C   UNL A   1      33.191  23.142  25.281  1.00  0.00     0.102 A 
ATOM      7  C   UNL A   1      32.203  22.191  24.999  1.00  0.00     0.145 A 
ATOM      8  C   UNL A   1      30.945  22.266  25.610  1.00  0.00     0.048 A 
ATOM      9  C   UNL A   1      30.668  23.294  26.513  1.00  0.00     0.004 A 
ATOM     10  C   UNL A   1      32.908  24.144  26.223  1.00  0.00     0.019 A 
ATOM     11  C   UNL A   1      31.647  24.236  26.815  1.00  0.00     0.001 A 
BRANCH   7  12
ATOM     12  O   UNL A   1      32.362  21.177  24.043  1.00  0.00    -0.426 OA
BRANCH  12  13
ATOM     13  C   UNL A   1      32.605  19.905  24.546  1.00  0.00     0.308 C 
ATOM     14  C   UNL A   1      32.394  18.901  23.453  1.00  0.00     0.139 C 
ATOM     15  O   UNL A   1      32.929  19.620  25.691  1.00  0.00    -0.252 OA
ENDBRANCH  12  13
ENDBRANCH   7  12
ENDBRANCH   4   6
ENDBRANCH   3   4
ENDBRANCH   2   3
ENDBRANCH   1   2
BRANCH   1  16
ATOM     16  O   UNL A   1      37.939  21.641  24.989  1.00  0.00    -0.458 OA
BRANCH  16  17
ATOM     17  C   UNL A   1      38.919  21.269  25.842  1.00  0.00     0.338 C 
ATOM     18  O   UNL A   1      39.375  20.150  26.008  1.00  0.00    -0.246 OA
BRANCH  17  19
ATOM     19  C   UNL A   1      39.454  22.459  26.512  1.00  0.00     0.060 A 
ATOM     20  C   UNL A   1      38.984  23.703  26.100  1.00  0.00     0.016 A 
ATOM     21  C   UNL A   1      40.504  22.371  27.420  1.00  0.00     0.016 A 
ATOM     22  C   UNL A   1      39.616  24.867  26.516  1.00  0.00     0.010 A 
ATOM     23  C   UNL A   1      41.081  23.549  27.911  1.00  0.00     0.010 A 
ATOM     24  C   UNL A   1      40.669  24.811  27.436  1.00  0.00    -0.014 A 
BRANCH  24  25
ATOM     25  C   UNL A   1      41.377  26.058  27.844  1.00  0.00     0.031 A 
ATOM     26  C   UNL A   1      40.649  27.097  28.658  1.00  0.00     0.074 A 
ATOM     27  C   UNL A   1      42.669  26.255  27.511  1.00  0.00     0.049 A 
ATOM     28  N   UNL A   1      40.997  28.326  28.940  1.00  0.00    -0.248 NA
ATOM     29  C   UNL A   1      39.345  26.702  29.210  1.00  0.00     0.031 C 
ATOM     30  C   UNL A   1      43.514  25.300  26.789  1.00  0.00     0.029 A 
ATOM     31  N   UNL A   1      43.504  27.320  27.743  1.00  0.00    -0.354 N 
ATOM     32  C   UNL A   1      39.930  28.872  29.648  1.00  0.00     0.074 A 
ATOM     33  C   UNL A   1      38.919  27.839  29.740  1.00  0.00     0.031 C 
ATOM     34  C   UNL A   1      44.749  25.808  26.666  1.00  0.00     0.029 A 
ATOM     35  C   UNL A   1      44.761  27.164  27.204  1.00  0.00     0.049 A 
ATOM     36  H   UNL A   1      43.230  28.121  28.247  1.00  0.00     0.167 HD
ATOM     37  C   UNL A   1      39.810  30.119  30.169  1.00  0.00     0.034 A 
ATOM     38  C   UNL A   1      45.790  28.029  27.098  1.00  0.00     0.034 A 
ATOM     39  C   UNL A   1      40.853  31.115  30.105  1.00  0.00     0.049 A 
ATOM     40  C   UNL A   1      45.613  29.426  27.633  1.00  0.00     0.074 A 
ATOM     41  C   UNL A   1      40.847  32.406  30.605  1.00  0.00     0.029 A 
ATOM     42  N   UNL A   1      42.096  30.929  29.511  1.00  0.00    -0.354 N 
ATOM     43  N   UNL A   1      44.571  29.956  28.232  1.00  0.00    -0.248 NA
ATOM     44  C   UNL A   1      46.746  30.344  27.466  1.00  0.00     0.031 C 
ATOM     45  C   UNL A   1      42.057  33.019  30.260  1.00  0.00     0.029 A 
ATOM     46  C   UNL A   1      42.853  32.088  29.611  1.00  0.00     0.049 A 
ATOM     47  H   UNL A   1      42.397  30.096  29.082  1.00  0.00     0.167 HD
ATOM     48  C   UNL A   1      44.932  31.268  28.528  1.00  0.00     0.074 A 
ATOM     49  C   UNL A   1      46.294  31.437  28.062  1.00  0.00     0.031 C 
ATOM     50  C   UNL A   1      44.205  32.242  29.129  1.00  0.00     0.034 A 
BRANCH  37  51
ATOM     51  C   UNL A   1      38.481  30.493  30.787  1.00  0.00     0.023 A 
ATOM     52  C   UNL A   1      37.468  31.139  30.058  1.00  0.00     0.031 A 
ATOM     53  C   UNL A   1      38.240  30.222  32.147  1.00  0.00     0.131 A 
ATOM     54  C   UNL A   1      36.296  31.560  30.709  1.00  0.00     0.055 A 
ATOM     55  C   UNL A   1      37.037  30.569  32.768  1.00  0.00     0.041 A 
ATOM     56  F   UNL A   1      39.176  29.627  32.902  1.00  0.00    -0.206 F 
ATOM     57  C   UNL A   1      36.063  31.256  32.053  1.00  0.00     0.022 A 
BRANCH  54  58
ATOM     58  S   UNL A   1      35.144  32.638  29.814  1.00  0.00     0.124 S 
ATOM     59  O   UNL A   1      34.602  31.724  28.811  1.00  0.00    -0.237 OA
ATOM     60  O   UNL A   1      34.221  33.055  30.863  1.00  0.00    -0.237 OA
ATOM     61  O   UNL A   1      36.004  33.694  29.283  1.00  0.00    -0.744 OA
ENDBRANCH  54  58
ENDBRANCH  37  51
BRANCH  38  62
ATOM     62  C   UNL A   1      47.043  27.630  26.392  1.00  0.00     0.023 A 
ATOM     63  C   UNL A   1      47.211  27.868  25.019  1.00  0.00     0.031 A 
ATOM     64  C   UNL A   1      48.079  26.968  27.076  1.00  0.00     0.131 A 
ATOM     65  C   UNL A   1      48.371  27.417  24.367  1.00  0.00     0.055 A 
ATOM     66  C   UNL A   1      49.256  26.576  26.437  1.00  0.00     0.041 A 
ATOM     67  F   UNL A   1      47.969  26.706  28.388  1.00  0.00    -0.206 F 
ATOM     68  C   UNL A   1      49.402  26.790  25.071  1.00  0.00     0.022 A 
BRANCH  65  69
ATOM     69  S   UNL A   1      48.476  27.584  22.565  1.00  0.00     0.124 S 
ATOM     70  O   UNL A   1      49.709  28.349  22.409  1.00  0.00    -0.237 OA
ATOM     71  O   UNL A   1      48.525  26.191  22.133  1.00  0.00    -0.237 OA
ATOM     72  O   UNL A   1      47.250  28.300  22.216  1.00  0.00    -0.744 OA
ENDBRANCH  65  69
ENDBRANCH  38  62
BRANCH  50  73
ATOM     73  C   UNL A   1      44.898  33.564  29.355  1.00  0.00     0.023 A 
ATOM     74  C   UNL A   1      44.849  34.597  28.402  1.00  0.00     0.031 A 
ATOM     75  C   UNL A   1      45.640  33.780  30.530  1.00  0.00     0.131 A 
ATOM     76  C   UNL A   1      45.578  35.776  28.615  1.00  0.00     0.055 A 
ATOM     77  C   UNL A   1      46.313  34.979  30.763  1.00  0.00     0.041 A 
ATOM     78  F   UNL A   1      45.722  32.826  31.471  1.00  0.00    -0.206 F 
ATOM     79  C   UNL A   1      46.298  35.980  29.796  1.00  0.00     0.022 A 
BRANCH  76  80
ATOM     80  S   UNL A   1      45.659  37.004  27.281  1.00  0.00     0.124 S 
ATOM     81  O   UNL A   1      44.249  37.312  27.067  1.00  0.00    -0.237 OA
ATOM     82  O   UNL A   1      46.459  38.065  27.882  1.00  0.00    -0.237 OA
ATOM     83  O   UNL A   1      46.309  36.282  26.189  1.00  0.00    -0.744 OA
ENDBRANCH  76  80
ENDBRANCH  50  73
ENDBRANCH  24  25
ENDBRANCH  17  19
ENDBRANCH  16  17
ENDBRANCH   1  16
TORSDOF 16
ENDMDL
MODEL 3
REMARK VINA RESULT:     -11.0      5.008     10.071
REMARK SMILES CC(=O)Oc1ccccc1C(=O)OCCOC(=O)c1ccc(-c2c3nc(c(-c4cc(S(=O)(=O)[O-])ccc4F)c4ccc([nH]4)c(-c4cc(S(=O)(=O)[O-])ccc4F)c4nc(c(-c5cc(S(=O)(=O)[O-])ccc5F)c5ccc2[nH]5)C=C4)C=C3)cc1
REMARK SMILES IDX 15 1 14 2 13 3 11 4 12 5 10 6 5 7 6 8 7 9 9 10 8 11 4 12
REMARK SMILES IDX 2 13 1 14 3 15 16 16 17 17 18 18 19 19 20 20 81 21 21 22
REMARK SMILES IDX 80 23 22 24 23 25 24 26 74 27 25 28 79 29 73 30 75 31 26 32
REMARK SMILES IDX 78 33 72 34 71 35 27 37 59 38 39 39 58 40 40 41 43 42 57 43
REMARK SMILES IDX 76 44 41 45 42 46 56 48 77 49 44 50 28 51 29 52 37 53 30 54
REMARK SMILES IDX 36 55 38 56 35 57 31 58 32 59 33 60 34 61 60 62 61 63 69 64
REMARK SMILES IDX 62 65 68 66 70 67 67 68 63 69 64 70 65 71 66 72 45 73 46 74
REMARK SMILES IDX 54 75 47 76 53 77 55 78 52 79 48 80 49 81 50 82 51 83
REMARK H PARENT 75 36 43 47
REMARK Flexibility Score: inf
ROOT
ATOM      1  C   UNL A   1      31.770  30.369  25.642  1.00  0.00     0.275 C 
ENDROOT
BRANCH   1   2
ATOM      2  C   UNL A   1      31.712  28.956  25.065  1.00  0.00     0.275 C 
BRANCH   2   3
ATOM      3  O   UNL A   1      32.868  28.179  25.440  1.00  0.00    -0.458 OA
BRANCH   3   4
ATOM      4  C   UNL A   1      33.669  27.770  24.417  1.00  0.00     0.342 C 
ATOM      5  O   UNL A   1      34.245  28.493  23.631  1.00  0.00    -0.246 OA
BRANCH   4   6
ATOM      6  C   UNL A   1      33.824  26.290  24.416  1.00  0.00     0.102 A 
ATOM      7  C   UNL A   1      34.015  25.523  23.261  1.00  0.00     0.145 A 
ATOM      8  C   UNL A   1      34.142  24.131  23.340  1.00  0.00     0.048 A 
ATOM      9  C   UNL A   1      34.084  23.495  24.582  1.00  0.00     0.004 A 
ATOM     10  C   UNL A   1      33.810  25.637  25.660  1.00  0.00     0.019 A 
ATOM     11  C   UNL A   1      33.912  24.247  25.740  1.00  0.00     0.001 A 
BRANCH   7  12
ATOM     12  O   UNL A   1      33.999  26.065  21.967  1.00  0.00    -0.426 OA
BRANCH  12  13
ATOM     13  C   UNL A   1      32.875  25.776  21.204  1.00  0.00     0.308 C 
ATOM     14  C   UNL A   1      31.654  25.929  22.060  1.00  0.00     0.139 C 
ATOM     15  O   UNL A   1      32.855  25.438  20.029  1.00  0.00    -0.252 OA
ENDBRANCH  12  13
ENDBRANCH   7  12
ENDBRANCH   4   6
ENDBRANCH   3   4
ENDBRANCH   2   3
ENDBRANCH   1   2
BRANCH   1  16
ATOM     16  O   UNL A   1      32.459  30.364  26.903  1.00  0.00    -0.458 OA
BRANCH  16  17
ATOM     17  C   UNL A   1      33.044  31.534  27.238  1.00  0.00     0.338 C 
ATOM     18  O   UNL A   1      32.535  32.643  27.252  1.00  0.00    -0.246 OA
BRANCH  17  19
ATOM     19  C   UNL A   1      34.414  31.277  27.696  1.00  0.00     0.060 A 
ATOM     20  C   UNL A   1      34.765  29.962  27.985  1.00  0.00     0.016 A 
ATOM     21  C   UNL A   1      35.292  32.318  27.979  1.00  0.00     0.016 A 
ATOM     22  C   UNL A   1      35.954  29.680  28.644  1.00  0.00     0.010 A 
ATOM     23  C   UNL A   1      36.532  32.023  28.561  1.00  0.00     0.010 A 
ATOM     24  C   UNL A   1      36.862  30.705  28.935  1.00  0.00    -0.014 A 
BRANCH  24  25
ATOM     25  C   UNL A   1      38.115  30.406  29.686  1.00  0.00     0.031 A 
ATOM     26  C   UNL A   1      39.162  29.516  29.068  1.00  0.00     0.074 A 
ATOM     27  C   UNL A   1      38.331  30.945  30.904  1.00  0.00     0.049 A 
ATOM     28  N   UNL A   1      40.214  28.964  29.615  1.00  0.00    -0.248 NA
ATOM     29  C   UNL A   1      38.985  29.187  27.645  1.00  0.00     0.031 C 
ATOM     30  C   UNL A   1      37.436  31.880  31.589  1.00  0.00     0.029 A 
ATOM     31  N   UNL A   1      39.376  30.790  31.782  1.00  0.00    -0.354 N 
ATOM     32  C   UNL A   1      40.791  28.175  28.625  1.00  0.00     0.074 A 
ATOM     33  C   UNL A   1      39.961  28.313  27.446  1.00  0.00     0.031 C 
ATOM     34  C   UNL A   1      37.983  32.239  32.760  1.00  0.00     0.029 A 
ATOM     35  C   UNL A   1      39.213  31.482  32.961  1.00  0.00     0.049 A 
ATOM     36  H   UNL A   1      40.167  30.236  31.587  1.00  0.00     0.167 HD
ATOM     37  C   UNL A   1      41.907  27.407  28.697  1.00  0.00     0.034 A 
ATOM     38  C   UNL A   1      39.935  31.467  34.100  1.00  0.00     0.034 A 
ATOM     39  C   UNL A   1      42.744  27.324  29.871  1.00  0.00     0.049 A 
ATOM     40  C   UNL A   1      41.139  30.565  34.177  1.00  0.00     0.074 A 
ATOM     41  C   UNL A   1      43.902  26.589  30.056  1.00  0.00     0.029 A 
ATOM     42  N   UNL A   1      42.519  28.009  31.060  1.00  0.00    -0.354 N 
ATOM     43  N   UNL A   1      41.631  29.763  33.261  1.00  0.00    -0.248 NA
ATOM     44  C   UNL A   1      41.875  30.555  35.447  1.00  0.00     0.031 C 
ATOM     45  C   UNL A   1      44.340  26.779  31.372  1.00  0.00     0.029 A 
ATOM     46  C   UNL A   1      43.501  27.694  31.988  1.00  0.00     0.049 A 
ATOM     47  H   UNL A   1      41.771  28.629  31.220  1.00  0.00     0.167 HD
ATOM     48  C   UNL A   1      42.747  29.167  33.840  1.00  0.00     0.074 A 
ATOM     49  C   UNL A   1      42.865  29.719  35.175  1.00  0.00     0.031 C 
ATOM     50  C   UNL A   1      43.596  28.246  33.319  1.00  0.00     0.034 A 
BRANCH  37  51
ATOM     51  C   UNL A   1      42.242  26.545  27.500  1.00  0.00     0.023 A 
ATOM     52  C   UNL A   1      41.821  25.209  27.394  1.00  0.00     0.031 A 
ATOM     53  C   UNL A   1      43.030  27.070  26.458  1.00  0.00     0.131 A 
ATOM     54  C   UNL A   1      42.251  24.423  26.311  1.00  0.00     0.055 A 
ATOM     55  C   UNL A   1      43.384  26.307  25.343  1.00  0.00     0.041 A 
ATOM     56  F   UNL A   1      43.482  28.332  26.511  1.00  0.00    -0.206 F 
ATOM     57  C   UNL A   1      43.008  24.970  25.273  1.00  0.00     0.022 A 
BRANCH  54  58
ATOM     58  S   UNL A   1      41.930  22.637  26.353  1.00  0.00     0.124 S 
ATOM     59  O   UNL A   1      42.561  22.253  27.613  1.00  0.00    -0.237 OA
ATOM     60  O   UNL A   1      40.473  22.578  26.324  1.00  0.00    -0.237 OA
ATOM     61  O   UNL A   1      42.599  22.141  25.153  1.00  0.00    -0.744 OA
ENDBRANCH  54  58
ENDBRANCH  37  51
BRANCH  38  62
ATOM     62  C   UNL A   1      39.499  32.268  35.281  1.00  0.00     0.023 A 
ATOM     63  C   UNL A   1      38.786  31.679  36.336  1.00  0.00     0.031 A 
ATOM     64  C   UNL A   1      39.757  33.650  35.354  1.00  0.00     0.131 A 
ATOM     65  C   UNL A   1      38.326  32.472  37.400  1.00  0.00     0.055 A 
ATOM     66  C   UNL A   1      39.352  34.423  36.442  1.00  0.00     0.041 A 
ATOM     67  F   UNL A   1      40.428  34.269  34.368  1.00  0.00    -0.206 F 
ATOM     68  C   UNL A   1      38.621  33.837  37.469  1.00  0.00     0.022 A 
BRANCH  65  69
ATOM     69  S   UNL A   1      37.260  31.713  38.655  1.00  0.00     0.124 S 
ATOM     70  O   UNL A   1      36.098  32.596  38.632  1.00  0.00    -0.237 OA
ATOM     71  O   UNL A   1      37.059  30.373  38.112  1.00  0.00    -0.237 OA
ATOM     72  O   UNL A   1      38.067  31.775  39.872  1.00  0.00    -0.744 OA
ENDBRANCH  65  69
ENDBRANCH  38  62
BRANCH  50  73
ATOM     73  C   UNL A   1      44.754  27.821  34.188  1.00  0.00     0.023 A 
ATOM     74  C   UNL A   1      44.625  26.797  35.143  1.00  0.00     0.031 A 
ATOM     75  C   UNL A   1      45.995  28.472  34.077  1.00  0.00     0.131 A 
ATOM     76  C   UNL A   1      45.703  26.493  35.988  1.00  0.00     0.055 A 
ATOM     77  C   UNL A   1      47.082  28.124  34.879  1.00  0.00     0.041 A 
ATOM     78  F   UNL A   1      46.171  29.459  33.184  1.00  0.00    -0.206 F 
ATOM     79  C   UNL A   1      46.935  27.139  35.852  1.00  0.00     0.022 A 
BRANCH  76  80
ATOM     80  S   UNL A   1      45.443  25.310  37.339  1.00  0.00     0.124 S 
ATOM     81  O   UNL A   1      43.988  25.256  37.420  1.00  0.00    -0.237 OA
ATOM     82  O   UNL A   1      46.099  24.110  36.832  1.00  0.00    -0.237 OA
ATOM     83  O   UNL A   1      46.104  25.942  38.480  1.00  0.00    -0.744 OA
ENDBRANCH  76  80
ENDBRANCH  50  73
ENDBRANCH  24  25
ENDBRANCH  17  19
ENDBRANCH  16  17
ENDBRANCH   1  16
TORSDOF 16
ENDMDL
