MODEL 1
REMARK VINA RESULT:     -11.4      0.000      0.000
REMARK SMILES C[C@@H](C(=O)OCCOC(=O)c1ccc(-c2c3nc(c(-c4cc(S(=O)(=O)[O-])ccc4F)c4ccc([nH]4)c(-c4cc(S(=O)(=O)[O-])ccc4F)c4nc(c(-c5cc(S(=O)(=O)[O-])ccc5F)c5ccc2[nH]5)C=C4)C=C3)cc1)c1ccc(OC2CCCC2)cc1F
REMARK SMILES IDX 6 1 5 2 3 3 4 4 2 5 1 6 74 7 75 8 85 9 76 10 84 11 86 12
REMARK SMILES IDX 77 13 78 14 79 15 80 16 83 17 81 18 82 19 7 20 8 21 9 22
REMARK SMILES IDX 10 23 11 24 12 25 73 26 13 27 72 28 14 29 15 30 16 31 66 32
REMARK SMILES IDX 17 33 71 34 65 35 67 36 18 37 70 38 64 39 63 40 19 42 51 43
REMARK SMILES IDX 31 44 50 45 32 46 35 47 49 48 68 49 33 50 34 51 48 53 69 54
REMARK SMILES IDX 36 55 20 56 21 57 29 58 22 59 28 60 30 61 27 62 23 63 24 64
REMARK SMILES IDX 25 65 26 66 52 67 53 68 61 69 54 70 60 71 62 72 59 73 55 74
REMARK SMILES IDX 56 75 57 76 58 77 37 78 38 79 46 80 39 81 45 82 47 83 44 84
REMARK SMILES IDX 40 85 41 86 42 87 43 88
REMARK H PARENT 67 41 35 52
REMARK Flexibility Score: inf
ROOT
ATOM      1  C   UNL A   1      35.438  21.280  25.734  1.00  0.00     0.274 C 
ENDROOT
BRANCH   1   2
ATOM      2  O   UNL A   1      34.468  21.712  24.757  1.00  0.00    -0.462 OA
BRANCH   2   3
ATOM      3  C   UNL A   1      33.257  22.117  25.237  1.00  0.00     0.313 C 
ATOM      4  O   UNL A   1      32.186  21.792  24.737  1.00  0.00    -0.252 OA
BRANCH   3   5
ATOM      5  C   UNL A   1      33.390  23.067  26.436  1.00  0.00     0.129 C 
ATOM      6  C   UNL A   1      32.517  22.663  27.631  1.00  0.00     0.025 C 
BRANCH   5   7
ATOM      7  C   UNL A   1      33.174  24.513  26.013  1.00  0.00     0.002 A 
ATOM      8  C   UNL A   1      31.929  25.148  26.099  1.00  0.00     0.011 A 
ATOM      9  C   UNL A   1      34.230  25.235  25.437  1.00  0.00     0.130 A 
ATOM     10  C   UNL A   1      31.760  26.439  25.592  1.00  0.00     0.047 A 
ATOM     11  C   UNL A   1      34.063  26.525  24.925  1.00  0.00     0.086 A 
ATOM     12  F   UNL A   1      35.443  24.666  25.347  1.00  0.00    -0.207 F 
ATOM     13  C   UNL A   1      32.814  27.125  24.978  1.00  0.00     0.122 A 
BRANCH  13  14
ATOM     14  O   UNL A   1      32.440  28.296  24.400  1.00  0.00    -0.490 OA
BRANCH  14  15
ATOM     15  C   UNL A   1      31.107  28.605  24.023  1.00  0.00     0.173 C 
ATOM     16  C   UNL A   1      30.636  30.022  24.338  1.00  0.00     0.045 C 
ATOM     17  C   UNL A   1      30.694  28.315  22.575  1.00  0.00     0.045 C 
ATOM     18  C   UNL A   1      29.372  30.142  23.503  1.00  0.00     0.004 C 
ATOM     19  C   UNL A   1      29.746  29.457  22.193  1.00  0.00     0.004 C 
ENDBRANCH  14  15
ENDBRANCH  13  14
ENDBRANCH   5   7
ENDBRANCH   3   5
ENDBRANCH   2   3
ENDBRANCH   1   2
BRANCH   1  20
ATOM     20  C   UNL A   1      36.625  20.619  25.040  1.00  0.00     0.275 C 
BRANCH  20  21
ATOM     21  O   UNL A   1      37.722  21.547  24.999  1.00  0.00    -0.458 OA
BRANCH  21  22
ATOM     22  C   UNL A   1      38.806  21.230  25.741  1.00  0.00     0.338 C 
ATOM     23  O   UNL A   1      39.307  20.120  25.869  1.00  0.00    -0.246 OA
BRANCH  22  24
ATOM     24  C   UNL A   1      39.332  22.438  26.404  1.00  0.00     0.060 A 
ATOM     25  C   UNL A   1      38.840  23.699  26.072  1.00  0.00     0.016 A 
ATOM     26  C   UNL A   1      40.408  22.326  27.287  1.00  0.00     0.016 A 
ATOM     27  C   UNL A   1      39.490  24.842  26.541  1.00  0.00     0.010 A 
ATOM     28  C   UNL A   1      40.997  23.480  27.825  1.00  0.00     0.010 A 
ATOM     29  C   UNL A   1      40.584  24.760  27.416  1.00  0.00    -0.014 A 
BRANCH  29  30
ATOM     30  C   UNL A   1      41.339  25.989  27.831  1.00  0.00     0.031 A 
ATOM     31  C   UNL A   1      40.677  27.029  28.709  1.00  0.00     0.074 A 
ATOM     32  C   UNL A   1      42.624  26.185  27.465  1.00  0.00     0.049 A 
ATOM     33  N   UNL A   1      41.044  28.262  28.961  1.00  0.00    -0.248 NA
ATOM     34  C   UNL A   1      39.421  26.638  29.366  1.00  0.00     0.031 C 
ATOM     35  C   UNL A   1      43.437  25.260  26.675  1.00  0.00     0.029 A 
ATOM     36  N   UNL A   1      43.479  27.231  27.722  1.00  0.00    -0.354 N 
ATOM     37  C   UNL A   1      40.025  28.816  29.733  1.00  0.00     0.074 A 
ATOM     38  C   UNL A   1      39.028  27.781  29.909  1.00  0.00     0.031 C 
ATOM     39  C   UNL A   1      44.682  25.746  26.565  1.00  0.00     0.029 A 
ATOM     40  C   UNL A   1      44.729  27.073  27.168  1.00  0.00     0.049 A 
ATOM     41  H   UNL A   1      43.222  28.020  28.253  1.00  0.00     0.167 HD
ATOM     42  C   UNL A   1      39.926  30.073  30.236  1.00  0.00     0.034 A 
ATOM     43  C   UNL A   1      45.781  27.913  27.092  1.00  0.00     0.034 A 
ATOM     44  C   UNL A   1      40.965  31.072  30.130  1.00  0.00     0.049 A 
ATOM     45  C   UNL A   1      45.654  29.303  27.653  1.00  0.00     0.074 A 
ATOM     46  C   UNL A   1      40.969  32.371  30.613  1.00  0.00     0.029 A 
ATOM     47  N   UNL A   1      42.198  30.876  29.522  1.00  0.00    -0.354 N 
ATOM     48  N   UNL A   1      44.630  29.859  28.256  1.00  0.00    -0.248 NA
ATOM     49  C   UNL A   1      46.816  30.187  27.496  1.00  0.00     0.031 C 
ATOM     50  C   UNL A   1      42.184  32.971  30.262  1.00  0.00     0.029 A 
ATOM     51  C   UNL A   1      42.964  32.029  29.611  1.00  0.00     0.049 A 
ATOM     52  H   UNL A   1      42.487  30.040  29.091  1.00  0.00     0.167 HD
ATOM     53  C   UNL A   1      45.022  31.163  28.538  1.00  0.00     0.074 A 
ATOM     54  C   UNL A   1      46.388  31.299  28.074  1.00  0.00     0.031 C 
ATOM     55  C   UNL A   1      44.313  32.164  29.119  1.00  0.00     0.034 A 
BRANCH  42  56
ATOM     56  C   UNL A   1      38.623  30.465  30.893  1.00  0.00     0.023 A 
ATOM     57  C   UNL A   1      37.583  31.097  30.191  1.00  0.00     0.031 A 
ATOM     58  C   UNL A   1      38.428  30.203  32.263  1.00  0.00     0.131 A 
ATOM     59  C   UNL A   1      36.422  31.499  30.874  1.00  0.00     0.055 A 
ATOM     60  C   UNL A   1      37.242  30.539  32.919  1.00  0.00     0.041 A 
ATOM     61  F   UNL A   1      39.393  29.618  32.990  1.00  0.00    -0.206 F 
ATOM     62  C   UNL A   1      36.236  31.203  32.227  1.00  0.00     0.022 A 
BRANCH  59  63
ATOM     63  S   UNL A   1      35.210  32.526  30.000  1.00  0.00     0.124 S 
ATOM     64  O   UNL A   1      34.228  32.785  31.050  1.00  0.00    -0.237 OA
ATOM     65  O   UNL A   1      36.011  33.670  29.579  1.00  0.00    -0.237 OA
ATOM     66  O   UNL A   1      34.741  31.661  28.918  1.00  0.00    -0.744 OA
ENDBRANCH  59  63
ENDBRANCH  42  56
BRANCH  43  67
ATOM     67  C   UNL A   1      47.017  27.497  26.370  1.00  0.00     0.023 A 
ATOM     68  C   UNL A   1      47.184  27.765  25.003  1.00  0.00     0.031 A 
ATOM     69  C   UNL A   1      48.041  26.800  27.038  1.00  0.00     0.131 A 
ATOM     70  C   UNL A   1      48.340  27.320  24.342  1.00  0.00     0.055 A 
ATOM     71  C   UNL A   1      49.210  26.408  26.389  1.00  0.00     0.041 A 
ATOM     72  F   UNL A   1      47.927  26.515  28.345  1.00  0.00    -0.206 F 
ATOM     73  C   UNL A   1      49.361  26.660  25.030  1.00  0.00     0.022 A 
BRANCH  70  74
ATOM     74  S   UNL A   1      48.464  27.564  22.549  1.00  0.00     0.124 S 
ATOM     75  O   UNL A   1      49.700  28.331  22.439  1.00  0.00    -0.237 OA
ATOM     76  O   UNL A   1      48.515  26.190  22.058  1.00  0.00    -0.237 OA
ATOM     77  O   UNL A   1      47.244  28.296  22.219  1.00  0.00    -0.744 OA
ENDBRANCH  70  74
ENDBRANCH  43  67
BRANCH  55  78
ATOM     78  C   UNL A   1      45.021  33.482  29.296  1.00  0.00     0.023 A 
ATOM     79  C   UNL A   1      44.891  34.517  28.353  1.00  0.00     0.031 A 
ATOM     80  C   UNL A   1      45.863  33.691  30.402  1.00  0.00     0.131 A 
ATOM     81  C   UNL A   1      45.633  35.697  28.506  1.00  0.00     0.055 A 
ATOM     82  C   UNL A   1      46.562  34.886  30.573  1.00  0.00     0.041 A 
ATOM     83  F   UNL A   1      46.024  32.733  31.328  1.00  0.00    -0.206 F 
ATOM     84  C   UNL A   1      46.460  35.893  29.616  1.00  0.00     0.022 A 
BRANCH  81  85
ATOM     85  S   UNL A   1      45.573  36.943  27.189  1.00  0.00     0.124 S 
ATOM     86  O   UNL A   1      46.428  36.347  26.167  1.00  0.00    -0.237 OA
ATOM     87  O   UNL A   1      44.149  36.999  26.876  1.00  0.00    -0.237 OA
ATOM     88  O   UNL A   1      46.115  38.142  27.825  1.00  0.00    -0.744 OA
ENDBRANCH  81  85
ENDBRANCH  55  78
ENDBRANCH  29  30
ENDBRANCH  22  24
ENDBRANCH  21  22
ENDBRANCH  20  21
ENDBRANCH   1  20
TORSDOF 17
ENDMDL
MODEL 2
REMARK VINA RESULT:     -11.4      5.080     10.324
REMARK SMILES C[C@@H](C(=O)OCCOC(=O)c1ccc(-c2c3nc(c(-c4cc(S(=O)(=O)[O-])ccc4F)c4ccc([nH]4)c(-c4cc(S(=O)(=O)[O-])ccc4F)c4nc(c(-c5cc(S(=O)(=O)[O-])ccc5F)c5ccc2[nH]5)C=C4)C=C3)cc1)c1ccc(OC2CCCC2)cc1F
REMARK SMILES IDX 6 1 5 2 3 3 4 4 2 5 1 6 74 7 75 8 85 9 76 10 84 11 86 12
REMARK SMILES IDX 77 13 78 14 79 15 80 16 83 17 81 18 82 19 7 20 8 21 9 22
REMARK SMILES IDX 10 23 11 24 12 25 73 26 13 27 72 28 14 29 15 30 16 31 66 32
REMARK SMILES IDX 17 33 71 34 65 35 67 36 18 37 70 38 64 39 63 40 19 42 51 43
REMARK SMILES IDX 31 44 50 45 32 46 35 47 49 48 68 49 33 50 34 51 48 53 69 54
REMARK SMILES IDX 36 55 20 56 21 57 29 58 22 59 28 60 30 61 27 62 23 63 24 64
REMARK SMILES IDX 25 65 26 66 52 67 53 68 61 69 54 70 60 71 62 72 59 73 55 74
REMARK SMILES IDX 56 75 57 76 58 77 37 78 38 79 46 80 39 81 45 82 47 83 44 84
REMARK SMILES IDX 40 85 41 86 42 87 43 88
REMARK H PARENT 67 41 35 52
REMARK Flexibility Score: inf
ROOT
ATOM      1  C   UNL A   1      30.996  29.929  24.917  1.00  0.00     0.274 C 
ENDROOT
BRANCH   1   2
ATOM      2  O   UNL A   1      31.431  28.643  25.407  1.00  0.00    -0.462 OA
BRANCH   2   3
ATOM      3  C   UNL A   1      31.648  27.674  24.472  1.00  0.00     0.313 C 
ATOM      4  O   UNL A   1      30.807  26.843  24.149  1.00  0.00    -0.252 OA
BRANCH   3   5
ATOM      5  C   UNL A   1      33.077  27.709  23.912  1.00  0.00     0.129 C 
ATOM      6  C   UNL A   1      33.177  28.394  22.544  1.00  0.00     0.025 C 
BRANCH   5   7
ATOM      7  C   UNL A   1      33.701  26.321  23.922  1.00  0.00     0.002 A 
ATOM      8  C   UNL A   1      33.792  25.525  22.773  1.00  0.00     0.011 A 
ATOM      9  C   UNL A   1      34.138  25.762  25.132  1.00  0.00     0.130 A 
ATOM     10  C   UNL A   1      34.270  24.215  22.859  1.00  0.00     0.047 A 
ATOM     11  C   UNL A   1      34.613  24.450  25.222  1.00  0.00     0.086 A 
ATOM     12  F   UNL A   1      34.080  26.496  26.254  1.00  0.00    -0.207 F 
ATOM     13  C   UNL A   1      34.657  23.659  24.083  1.00  0.00     0.122 A 
BRANCH  13  14
ATOM     14  O   UNL A   1      34.941  22.332  24.015  1.00  0.00    -0.490 OA
BRANCH  14  15
ATOM     15  C   UNL A   1      34.146  21.319  24.610  1.00  0.00     0.173 C 
ATOM     16  C   UNL A   1      32.841  20.987  23.892  1.00  0.00     0.045 C 
ATOM     17  C   UNL A   1      34.824  19.982  24.931  1.00  0.00     0.045 C 
ATOM     18  C   UNL A   1      32.440  19.669  24.531  1.00  0.00     0.004 C 
ATOM     19  C   UNL A   1      33.760  18.915  24.651  1.00  0.00     0.004 C 
ENDBRANCH  14  15
ENDBRANCH  13  14
ENDBRANCH   5   7
ENDBRANCH   3   5
ENDBRANCH   2   3
ENDBRANCH   1   2
BRANCH   1  20
ATOM     20  C   UNL A   1      31.333  31.020  25.929  1.00  0.00     0.275 C 
BRANCH  20  21
ATOM     21  O   UNL A   1      32.633  30.759  26.485  1.00  0.00    -0.458 OA
BRANCH  21  22
ATOM     22  C   UNL A   1      33.182  31.749  27.222  1.00  0.00     0.338 C 
ATOM     23  O   UNL A   1      32.672  32.829  27.494  1.00  0.00    -0.246 OA
BRANCH  22  24
ATOM     24  C   UNL A   1      34.528  31.351  27.677  1.00  0.00     0.060 A 
ATOM     25  C   UNL A   1      34.794  30.027  28.022  1.00  0.00     0.016 A 
ATOM     26  C   UNL A   1      35.507  32.328  27.869  1.00  0.00     0.016 A 
ATOM     27  C   UNL A   1      35.997  29.706  28.654  1.00  0.00     0.010 A 
ATOM     28  C   UNL A   1      36.747  31.977  28.421  1.00  0.00     0.010 A 
ATOM     29  C   UNL A   1      36.993  30.669  28.876  1.00  0.00    -0.014 A 
BRANCH  29  30
ATOM     30  C   UNL A   1      38.237  30.336  29.647  1.00  0.00     0.031 A 
ATOM     31  C   UNL A   1      39.294  29.441  29.037  1.00  0.00     0.074 A 
ATOM     32  C   UNL A   1      38.461  30.843  30.878  1.00  0.00     0.049 A 
ATOM     33  N   UNL A   1      40.297  28.823  29.612  1.00  0.00    -0.248 NA
ATOM     34  C   UNL A   1      39.191  29.186  27.592  1.00  0.00     0.031 C 
ATOM     35  C   UNL A   1      37.582  31.769  31.592  1.00  0.00     0.029 A 
ATOM     36  N   UNL A   1      39.512  30.657  31.746  1.00  0.00    -0.354 N 
ATOM     37  C   UNL A   1      40.889  28.044  28.621  1.00  0.00     0.074 A 
ATOM     38  C   UNL A   1      40.133  28.272  27.407  1.00  0.00     0.031 C 
ATOM     39  C   UNL A   1      38.155  32.117  32.754  1.00  0.00     0.029 A 
ATOM     40  C   UNL A   1      39.381  31.348  32.929  1.00  0.00     0.049 A 
ATOM     41  H   UNL A   1      40.285  30.082  31.542  1.00  0.00     0.167 HD
ATOM     42  C   UNL A   1      41.954  27.208  28.719  1.00  0.00     0.034 A 
ATOM     43  C   UNL A   1      40.120  31.328  34.057  1.00  0.00     0.034 A 
ATOM     44  C   UNL A   1      42.756  27.054  29.911  1.00  0.00     0.049 A 
ATOM     45  C   UNL A   1      41.296  30.395  34.149  1.00  0.00     0.074 A 
ATOM     46  C   UNL A   1      43.861  26.243  30.111  1.00  0.00     0.029 A 
ATOM     47  N   UNL A   1      42.557  27.746  31.099  1.00  0.00    -0.354 N 
ATOM     48  N   UNL A   1      41.758  29.558  33.250  1.00  0.00    -0.248 NA
ATOM     49  C   UNL A   1      42.031  30.384  35.420  1.00  0.00     0.031 C 
ATOM     50  C   UNL A   1      44.303  26.413  31.429  1.00  0.00     0.029 A 
ATOM     51  C   UNL A   1      43.512  27.375  32.034  1.00  0.00     0.049 A 
ATOM     52  H   UNL A   1      41.843  28.406  31.254  1.00  0.00     0.167 HD
ATOM     53  C   UNL A   1      42.832  28.913  33.854  1.00  0.00     0.074 A 
ATOM     54  C   UNL A   1      42.972  29.482  35.178  1.00  0.00     0.031 C 
ATOM     55  C   UNL A   1      43.625  27.927  33.362  1.00  0.00     0.034 A 
BRANCH  42  56
ATOM     56  C   UNL A   1      42.279  26.344  27.523  1.00  0.00     0.023 A 
ATOM     57  C   UNL A   1      41.835  25.016  27.407  1.00  0.00     0.031 A 
ATOM     58  C   UNL A   1      43.064  26.869  26.477  1.00  0.00     0.131 A 
ATOM     59  C   UNL A   1      42.228  24.242  26.302  1.00  0.00     0.055 A 
ATOM     60  C   UNL A   1      43.390  26.117  25.348  1.00  0.00     0.041 A 
ATOM     61  F   UNL A   1      43.532  28.126  26.541  1.00  0.00    -0.206 F 
ATOM     62  C   UNL A   1      42.983  24.791  25.262  1.00  0.00     0.022 A 
BRANCH  59  63
ATOM     63  S   UNL A   1      41.847  22.469  26.302  1.00  0.00     0.124 S 
ATOM     64  O   UNL A   1      42.595  22.004  25.137  1.00  0.00    -0.237 OA
ATOM     65  O   UNL A   1      42.353  22.038  27.600  1.00  0.00    -0.237 OA
ATOM     66  O   UNL A   1      40.393  22.429  26.155  1.00  0.00    -0.744 OA
ENDBRANCH  59  63
ENDBRANCH  42  56
BRANCH  43  67
ATOM     67  C   UNL A   1      39.711  32.150  35.231  1.00  0.00     0.023 A 
ATOM     68  C   UNL A   1      38.902  31.616  36.245  1.00  0.00     0.031 A 
ATOM     69  C   UNL A   1      40.107  33.496  35.340  1.00  0.00     0.131 A 
ATOM     70  C   UNL A   1      38.497  32.429  37.315  1.00  0.00     0.055 A 
ATOM     71  C   UNL A   1      39.746  34.284  36.432  1.00  0.00     0.041 A 
ATOM     72  F   UNL A   1      40.877  34.056  34.394  1.00  0.00    -0.206 F 
ATOM     73  C   UNL A   1      38.928  33.754  37.424  1.00  0.00     0.022 A 
BRANCH  70  74
ATOM     74  S   UNL A   1      37.343  31.748  38.537  1.00  0.00     0.124 S 
ATOM     75  O   UNL A   1      36.249  32.712  38.483  1.00  0.00    -0.237 OA
ATOM     76  O   UNL A   1      37.060  30.427  37.986  1.00  0.00    -0.237 OA
ATOM     77  O   UNL A   1      38.118  31.751  39.776  1.00  0.00    -0.744 OA
ENDBRANCH  70  74
ENDBRANCH  43  67
BRANCH  55  78
ATOM     78  C   UNL A   1      44.722  27.427  34.264  1.00  0.00     0.023 A 
ATOM     79  C   UNL A   1      44.529  26.320  35.110  1.00  0.00     0.031 A 
ATOM     80  C   UNL A   1      45.964  28.086  34.304  1.00  0.00     0.131 A 
ATOM     81  C   UNL A   1      45.543  25.937  36.000  1.00  0.00     0.055 A 
ATOM     82  C   UNL A   1      46.986  27.669  35.157  1.00  0.00     0.041 A 
ATOM     83  F   UNL A   1      46.197  29.149  33.519  1.00  0.00    -0.206 F 
ATOM     84  C   UNL A   1      46.775  26.597  36.021  1.00  0.00     0.022 A 
BRANCH  81  85
ATOM     85  S   UNL A   1      45.203  24.615  37.194  1.00  0.00     0.124 S 
ATOM     86  O   UNL A   1      46.367  24.690  38.071  1.00  0.00    -0.237 OA
ATOM     87  O   UNL A   1      43.935  25.040  37.780  1.00  0.00    -0.237 OA
ATOM     88  O   UNL A   1      45.130  23.413  36.365  1.00  0.00    -0.744 OA
ENDBRANCH  81  85
ENDBRANCH  55  78
ENDBRANCH  29  30
ENDBRANCH  22  24
ENDBRANCH  21  22
ENDBRANCH  20  21
ENDBRANCH   1  20
TORSDOF 17
ENDMDL
MODEL 3
REMARK VINA RESULT:     -11.3      2.214      2.576
REMARK SMILES C[C@@H](C(=O)OCCOC(=O)c1ccc(-c2c3nc(c(-c4cc(S(=O)(=O)[O-])ccc4F)c4ccc([nH]4)c(-c4cc(S(=O)(=O)[O-])ccc4F)c4nc(c(-c5cc(S(=O)(=O)[O-])ccc5F)c5ccc2[nH]5)C=C4)C=C3)cc1)c1ccc(OC2CCCC2)cc1F
REMARK SMILES IDX 6 1 5 2 3 3 4 4 2 5 1 6 74 7 75 8 85 9 76 10 84 11 86 12
REMARK SMILES IDX 77 13 78 14 79 15 80 16 83 17 81 18 82 19 7 20 8 21 9 22
REMARK SMILES IDX 10 23 11 24 12 25 73 26 13 27 72 28 14 29 15 30 16 31 66 32
REMARK SMILES IDX 17 33 71 34 65 35 67 36 18 37 70 38 64 39 63 40 19 42 51 43
REMARK SMILES IDX 31 44 50 45 32 46 35 47 49 48 68 49 33 50 34 51 48 53 69 54
REMARK SMILES IDX 36 55 20 56 21 57 29 58 22 59 28 60 30 61 27 62 23 63 24 64
REMARK SMILES IDX 25 65 26 66 52 67 53 68 61 69 54 70 60 71 62 72 59 73 55 74
REMARK SMILES IDX 56 75 57 76 58 77 37 78 38 79 46 80 39 81 45 82 47 83 44 84
REMARK SMILES IDX 40 85 41 86 42 87 43 88
REMARK H PARENT 67 41 35 52
REMARK Flexibility Score: inf
ROOT
ATOM      1  C   UNL A   1      34.686  20.988  24.674  1.00  0.00     0.274 C 
ENDROOT
BRANCH   1   2
ATOM      2  O   UNL A   1      34.228  22.096  23.872  1.00  0.00    -0.462 OA
BRANCH   2   3
ATOM      3  C   UNL A   1      33.583  23.102  24.531  1.00  0.00     0.313 C 
ATOM      4  O   UNL A   1      32.558  22.938  25.183  1.00  0.00    -0.252 OA
BRANCH   3   5
ATOM      5  C   UNL A   1      34.253  24.467  24.317  1.00  0.00     0.129 C 
ATOM      6  C   UNL A   1      34.850  25.058  25.600  1.00  0.00     0.025 C 
BRANCH   5   7
ATOM      7  C   UNL A   1      33.314  25.431  23.606  1.00  0.00     0.002 A 
ATOM      8  C   UNL A   1      32.766  26.554  24.237  1.00  0.00     0.011 A 
ATOM      9  C   UNL A   1      32.903  25.162  22.292  1.00  0.00     0.130 A 
ATOM     10  C   UNL A   1      31.822  27.344  23.575  1.00  0.00     0.047 A 
ATOM     11  C   UNL A   1      31.954  25.946  21.630  1.00  0.00     0.086 A 
ATOM     12  F   UNL A   1      33.413  24.100  21.648  1.00  0.00    -0.207 F 
ATOM     13  C   UNL A   1      31.388  27.031  22.282  1.00  0.00     0.122 A 
BRANCH  13  14
ATOM     14  O   UNL A   1      30.355  27.801  21.851  1.00  0.00    -0.490 OA
BRANCH  14  15
ATOM     15  C   UNL A   1      29.463  28.488  22.715  1.00  0.00     0.173 C 
ATOM     16  C   UNL A   1      28.871  29.784  22.169  1.00  0.00     0.045 C 
ATOM     17  C   UNL A   1      28.298  27.689  23.312  1.00  0.00     0.045 C 
ATOM     18  C   UNL A   1      27.724  30.051  23.129  1.00  0.00     0.004 C 
ATOM     19  C   UNL A   1      27.121  28.669  23.355  1.00  0.00     0.004 C 
ENDBRANCH  14  15
ENDBRANCH  13  14
ENDBRANCH   5   7
ENDBRANCH   3   5
ENDBRANCH   2   3
ENDBRANCH   1   2
BRANCH   1  20
ATOM     20  C   UNL A   1      35.774  21.451  25.638  1.00  0.00     0.275 C 
BRANCH  20  21
ATOM     21  O   UNL A   1      36.975  21.723  24.896  1.00  0.00    -0.458 OA
BRANCH  21  22
ATOM     22  C   UNL A   1      38.135  21.317  25.458  1.00  0.00     0.338 C 
ATOM     23  O   UNL A   1      38.620  20.193  25.404  1.00  0.00    -0.246 OA
BRANCH  22  24
ATOM     24  C   UNL A   1      38.768  22.440  26.173  1.00  0.00     0.060 A 
ATOM     25  C   UNL A   1      38.280  23.737  26.027  1.00  0.00     0.016 A 
ATOM     26  C   UNL A   1      39.933  22.218  26.910  1.00  0.00     0.016 A 
ATOM     27  C   UNL A   1      39.014  24.814  26.528  1.00  0.00     0.010 A 
ATOM     28  C   UNL A   1      40.613  23.300  27.489  1.00  0.00     0.010 A 
ATOM     29  C   UNL A   1      40.196  24.623  27.260  1.00  0.00    -0.014 A 
BRANCH  29  30
ATOM     30  C   UNL A   1      41.030  25.788  27.705  1.00  0.00     0.031 A 
ATOM     31  C   UNL A   1      40.435  26.852  28.602  1.00  0.00     0.074 A 
ATOM     32  C   UNL A   1      42.327  25.905  27.349  1.00  0.00     0.049 A 
ATOM     33  N   UNL A   1      40.882  28.052  28.884  1.00  0.00    -0.248 NA
ATOM     34  C   UNL A   1      39.150  26.532  29.244  1.00  0.00     0.031 C 
ATOM     35  C   UNL A   1      43.080  24.945  26.542  1.00  0.00     0.029 A 
ATOM     36  N   UNL A   1      43.250  26.885  27.633  1.00  0.00    -0.354 N 
ATOM     37  C   UNL A   1      39.898  28.657  29.662  1.00  0.00     0.074 A 
ATOM     38  C   UNL A   1      38.833  27.687  29.811  1.00  0.00     0.031 C 
ATOM     39  C   UNL A   1      44.356  25.347  26.449  1.00  0.00     0.029 A 
ATOM     40  C   UNL A   1      44.489  26.654  27.082  1.00  0.00     0.049 A 
ATOM     41  H   UNL A   1      43.043  27.678  28.180  1.00  0.00     0.167 HD
ATOM     42  C   UNL A   1      39.882  29.906  30.193  1.00  0.00     0.034 A 
ATOM     43  C   UNL A   1      45.596  27.422  27.029  1.00  0.00     0.034 A 
ATOM     44  C   UNL A   1      40.986  30.834  30.113  1.00  0.00     0.049 A 
ATOM     45  C   UNL A   1      45.559  28.805  27.619  1.00  0.00     0.074 A 
ATOM     46  C   UNL A   1      41.075  32.119  30.625  1.00  0.00     0.029 A 
ATOM     47  N   UNL A   1      42.207  30.569  29.507  1.00  0.00    -0.354 N 
ATOM     48  N   UNL A   1      44.572  29.417  28.230  1.00  0.00    -0.248 NA
ATOM     49  C   UNL A   1      46.780  29.612  27.487  1.00  0.00     0.031 C 
ATOM     50  C   UNL A   1      42.329  32.643  30.292  1.00  0.00     0.029 A 
ATOM     51  C   UNL A   1      43.049  31.665  29.625  1.00  0.00     0.049 A 
ATOM     52  H   UNL A   1      42.441  29.724  29.059  1.00  0.00     0.167 HD
ATOM     53  C   UNL A   1      45.050  30.685  28.543  1.00  0.00     0.074 A 
ATOM     54  C   UNL A   1      46.424  30.738  28.088  1.00  0.00     0.031 C 
ATOM     55  C   UNL A   1      44.406  31.719  29.142  1.00  0.00     0.034 A 
BRANCH  42  56
ATOM     56  C   UNL A   1      38.604  30.371  30.852  1.00  0.00     0.023 A 
ATOM     57  C   UNL A   1      37.566  30.990  30.136  1.00  0.00     0.031 A 
ATOM     58  C   UNL A   1      38.432  30.194  32.239  1.00  0.00     0.131 A 
ATOM     59  C   UNL A   1      36.431  31.461  30.817  1.00  0.00     0.055 A 
ATOM     60  C   UNL A   1      37.271  30.600  32.898  1.00  0.00     0.041 A 
ATOM     61  F   UNL A   1      39.398  29.626  32.979  1.00  0.00    -0.206 F 
ATOM     62  C   UNL A   1      36.267  31.250  32.189  1.00  0.00     0.022 A 
BRANCH  59  63
ATOM     63  S   UNL A   1      35.227  32.470  29.909  1.00  0.00     0.124 S 
ATOM     64  O   UNL A   1      34.270  32.807  30.961  1.00  0.00    -0.237 OA
ATOM     65  O   UNL A   1      36.047  33.569  29.414  1.00  0.00    -0.237 OA
ATOM     66  O   UNL A   1      34.719  31.560  28.884  1.00  0.00    -0.744 OA
ENDBRANCH  59  63
ENDBRANCH  42  56
BRANCH  43  67
ATOM     67  C   UNL A   1      46.805  26.940  26.303  1.00  0.00     0.023 A 
ATOM     68  C   UNL A   1      47.876  26.349  26.989  1.00  0.00     0.031 A 
ATOM     69  C   UNL A   1      46.914  27.088  24.907  1.00  0.00     0.131 A 
ATOM     70  C   UNL A   1      49.020  25.946  26.282  1.00  0.00     0.055 A 
ATOM     71  C   UNL A   1      48.029  26.637  24.204  1.00  0.00     0.041 A 
ATOM     72  F   UNL A   1      45.918  27.652  24.205  1.00  0.00    -0.206 F 
ATOM     73  C   UNL A   1      49.096  26.070  24.892  1.00  0.00     0.022 A 
BRANCH  70  74
ATOM     74  S   UNL A   1      50.440  25.310  27.214  1.00  0.00     0.124 S 
ATOM     75  O   UNL A   1      51.368  24.965  26.143  1.00  0.00    -0.237 OA
ATOM     76  O   UNL A   1      50.805  26.460  28.035  1.00  0.00    -0.237 OA
ATOM     77  O   UNL A   1      49.884  24.175  27.949  1.00  0.00    -0.744 OA
ENDBRANCH  70  74
ENDBRANCH  43  67
BRANCH  55  78
ATOM     78  C   UNL A   1      45.201  32.981  29.351  1.00  0.00     0.023 A 
ATOM     79  C   UNL A   1      45.959  33.185  30.518  1.00  0.00     0.031 A 
ATOM     80  C   UNL A   1      45.172  34.006  28.390  1.00  0.00     0.131 A 
ATOM     81  C   UNL A   1      46.615  34.408  30.719  1.00  0.00     0.055 A 
ATOM     82  C   UNL A   1      45.867  35.201  28.573  1.00  0.00     0.041 A 
ATOM     83  F   UNL A   1      44.461  33.862  27.260  1.00  0.00    -0.206 F 
ATOM     84  C   UNL A   1      46.584  35.413  29.748  1.00  0.00     0.022 A 
BRANCH  81  85
ATOM     85  S   UNL A   1      47.444  34.705  32.305  1.00  0.00     0.124 S 
ATOM     86  O   UNL A   1      48.722  34.027  32.112  1.00  0.00    -0.237 OA
ATOM     87  O   UNL A   1      47.498  36.162  32.362  1.00  0.00    -0.237 OA
ATOM     88  O   UNL A   1      46.554  34.079  33.281  1.00  0.00    -0.744 OA
ENDBRANCH  81  85
ENDBRANCH  55  78
ENDBRANCH  29  30
ENDBRANCH  22  24
ENDBRANCH  21  22
ENDBRANCH  20  21
ENDBRANCH   1  20
TORSDOF 17
ENDMDL
