MODEL 1
REMARK VINA RESULT:     -10.2      0.000      0.000
REMARK SMILES C[C@H](C(=O)OCCOC(=O)c1ccc(-c2c3nc(c(-c4cc(S(=O)(=O)[O-])ccc4F)c4ccc([nH]4)c(-c4cc(S(=O)(=O)[O-])ccc4F)c4nc(c(-c5cc(S(=O)(=O)[O-])ccc5F)c5ccc2[nH]5)C=C4)C=C3)cc1)c1ccc2c(c1)OCCO2
REMARK SMILES IDX 7 1 6 2 5 3 3 4 4 5 2 6 1 7 74 8 75 9 79 10 76 11 78 12
REMARK SMILES IDX 77 13 80 14 83 15 81 16 82 17 8 18 9 19 10 20 11 21 12 22
REMARK SMILES IDX 73 23 13 24 72 25 14 26 15 27 16 28 66 29 17 30 71 31 65 32
REMARK SMILES IDX 67 33 18 34 70 35 64 36 63 37 19 39 51 40 31 41 50 42 32 43
REMARK SMILES IDX 35 44 49 45 68 46 33 47 34 48 48 50 69 51 36 52 20 53 21 54
REMARK SMILES IDX 29 55 22 56 28 57 30 58 27 59 23 60 24 61 25 62 26 63 52 64
REMARK SMILES IDX 53 65 61 66 54 67 60 68 62 69 59 70 55 71 56 72 57 73 58 74
REMARK SMILES IDX 37 75 38 76 46 77 39 78 45 79 47 80 44 81 40 82 41 83 42 84
REMARK SMILES IDX 43 85
REMARK H PARENT 67 38 35 49
REMARK Flexibility Score: inf
ROOT
ATOM      1  C   UNL A   1      40.790  19.500  26.154  1.00  0.00     0.275 C 
ENDROOT
BRANCH   1   2
ATOM      2  C   UNL A   1      42.275  19.492  25.801  1.00  0.00     0.274 C 
BRANCH   2   3
ATOM      3  O   UNL A   1      42.760  20.841  25.663  1.00  0.00    -0.462 OA
BRANCH   3   4
ATOM      4  C   UNL A   1      44.076  21.018  25.337  1.00  0.00     0.313 C 
ATOM      5  O   UNL A   1      44.887  20.105  25.240  1.00  0.00    -0.252 OA
BRANCH   4   6
ATOM      6  C   UNL A   1      44.430  22.511  25.184  1.00  0.00     0.126 C 
ATOM      7  C   UNL A   1      43.190  23.355  24.874  1.00  0.00     0.025 C 
BRANCH   6   8
ATOM      8  C   UNL A   1      45.243  23.016  26.373  1.00  0.00    -0.030 A 
ATOM      9  C   UNL A   1      46.444  23.730  26.228  1.00  0.00     0.009 A 
ATOM     10  C   UNL A   1      44.637  22.958  27.641  1.00  0.00     0.055 A 
ATOM     11  C   UNL A   1      46.962  24.467  27.297  1.00  0.00     0.051 A 
ATOM     12  C   UNL A   1      45.112  23.747  28.679  1.00  0.00     0.161 A 
ATOM     13  C   UNL A   1      46.254  24.526  28.491  1.00  0.00     0.161 A 
ATOM     14  O   UNL A   1      44.327  23.800  29.801  1.00  0.00    -0.486 OA
ATOM     15  O   UNL A   1      46.661  25.446  29.425  1.00  0.00    -0.486 OA
ATOM     16  C   UNL A   1      44.733  24.811  30.730  1.00  0.00     0.271 C 
ATOM     17  C   UNL A   1      45.489  25.956  30.070  1.00  0.00     0.271 C 
ENDBRANCH   6   8
ENDBRANCH   4   6
ENDBRANCH   3   4
ENDBRANCH   2   3
ENDBRANCH   1   2
BRANCH   1  18
ATOM     18  O   UNL A   1      40.521  20.665  26.946  1.00  0.00    -0.458 OA
BRANCH  18  19
ATOM     19  C   UNL A   1      39.588  21.510  26.462  1.00  0.00     0.338 C 
ATOM     20  O   UNL A   1      38.605  21.217  25.788  1.00  0.00    -0.246 OA
BRANCH  19  21
ATOM     21  C   UNL A   1      39.945  22.886  26.851  1.00  0.00     0.060 A 
ATOM     22  C   UNL A   1      39.359  23.978  26.204  1.00  0.00     0.016 A 
ATOM     23  C   UNL A   1      40.909  23.098  27.835  1.00  0.00     0.016 A 
ATOM     24  C   UNL A   1      39.775  25.276  26.492  1.00  0.00     0.010 A 
ATOM     25  C   UNL A   1      41.262  24.405  28.184  1.00  0.00     0.010 A 
ATOM     26  C   UNL A   1      40.721  25.508  27.498  1.00  0.00    -0.014 A 
BRANCH  26  27
ATOM     27  C   UNL A   1      41.186  26.889  27.810  1.00  0.00     0.031 A 
ATOM     28  C   UNL A   1      42.598  27.291  27.474  1.00  0.00     0.074 A 
ATOM     29  C   UNL A   1      40.360  27.777  28.402  1.00  0.00     0.049 A 
ATOM     30  N   UNL A   1      43.272  28.349  27.846  1.00  0.00    -0.248 NA
ATOM     31  C   UNL A   1      43.357  26.364  26.622  1.00  0.00     0.031 C 
ATOM     32  C   UNL A   1      38.955  27.537  28.736  1.00  0.00     0.029 A 
ATOM     33  N   UNL A   1      40.588  29.059  28.835  1.00  0.00    -0.354 N 
ATOM     34  C   UNL A   1      44.551  28.189  27.321  1.00  0.00     0.074 A 
ATOM     35  C   UNL A   1      44.557  26.924  26.615  1.00  0.00     0.031 C 
ATOM     36  C   UNL A   1      38.443  28.641  29.302  1.00  0.00     0.029 A 
ATOM     37  C   UNL A   1      39.500  29.635  29.451  1.00  0.00     0.049 A 
ATOM     38  H   UNL A   1      41.447  29.524  28.716  1.00  0.00     0.167 HD
ATOM     39  C   UNL A   1      45.618  29.019  27.422  1.00  0.00     0.034 A 
ATOM     40  C   UNL A   1      39.377  30.805  30.108  1.00  0.00     0.034 A 
ATOM     41  C   UNL A   1      45.581  30.296  28.094  1.00  0.00     0.049 A 
ATOM     42  C   UNL A   1      40.586  31.694  30.243  1.00  0.00     0.074 A 
ATOM     43  C   UNL A   1      46.598  31.225  28.242  1.00  0.00     0.029 A 
ATOM     44  N   UNL A   1      44.465  30.829  28.726  1.00  0.00    -0.354 N 
ATOM     45  N   UNL A   1      41.807  31.503  29.797  1.00  0.00    -0.248 NA
ATOM     46  C   UNL A   1      40.403  32.952  30.980  1.00  0.00     0.031 C 
ATOM     47  C   UNL A   1      46.112  32.292  29.006  1.00  0.00     0.029 A 
ATOM     48  C   UNL A   1      44.774  32.063  29.280  1.00  0.00     0.049 A 
ATOM     49  H   UNL A   1      43.583  30.396  28.773  1.00  0.00     0.167 HD
ATOM     50  C   UNL A   1      42.532  32.624  30.188  1.00  0.00     0.074 A 
ATOM     51  C   UNL A   1      41.609  33.494  30.887  1.00  0.00     0.031 C 
ATOM     52  C   UNL A   1      43.844  32.911  29.988  1.00  0.00     0.034 A 
BRANCH  39  53
ATOM     53  C   UNL A   1      46.928  28.541  26.844  1.00  0.00     0.023 A 
ATOM     54  C   UNL A   1      47.131  28.406  25.459  1.00  0.00     0.031 A 
ATOM     55  C   UNL A   1      47.985  28.183  27.701  1.00  0.00     0.131 A 
ATOM     56  C   UNL A   1      48.332  27.863  24.978  1.00  0.00     0.055 A 
ATOM     57  C   UNL A   1      49.205  27.715  27.213  1.00  0.00     0.041 A 
ATOM     58  F   UNL A   1      47.842  28.270  29.034  1.00  0.00    -0.206 F 
ATOM     59  C   UNL A   1      49.380  27.538  25.844  1.00  0.00     0.022 A 
BRANCH  56  60
ATOM     60  S   UNL A   1      48.457  27.456  23.214  1.00  0.00     0.124 S 
ATOM     61  O   UNL A   1      47.314  28.181  22.663  1.00  0.00    -0.237 OA
ATOM     62  O   UNL A   1      49.773  27.976  22.863  1.00  0.00    -0.237 OA
ATOM     63  O   UNL A   1      48.334  26.000  23.188  1.00  0.00    -0.744 OA
ENDBRANCH  56  60
ENDBRANCH  39  53
BRANCH  40  64
ATOM     64  C   UNL A   1      38.085  31.178  30.751  1.00  0.00     0.023 A 
ATOM     65  C   UNL A   1      37.098  31.883  30.044  1.00  0.00     0.031 A 
ATOM     66  C   UNL A   1      37.833  30.865  32.100  1.00  0.00     0.131 A 
ATOM     67  C   UNL A   1      35.922  32.283  30.696  1.00  0.00     0.055 A 
ATOM     68  C   UNL A   1      36.639  31.220  32.730  1.00  0.00     0.041 A 
ATOM     69  F   UNL A   1      38.744  30.194  32.823  1.00  0.00    -0.206 F 
ATOM     70  C   UNL A   1      35.679  31.944  32.030  1.00  0.00     0.022 A 
BRANCH  67  71
ATOM     71  S   UNL A   1      34.741  33.326  29.798  1.00  0.00     0.124 S 
ATOM     72  O   UNL A   1      35.624  34.291  29.155  1.00  0.00    -0.237 OA
ATOM     73  O   UNL A   1      34.094  32.360  28.916  1.00  0.00    -0.237 OA
ATOM     74  O   UNL A   1      33.890  33.866  30.856  1.00  0.00    -0.744 OA
ENDBRANCH  67  71
ENDBRANCH  40  64
BRANCH  52  75
ATOM     75  C   UNL A   1      44.333  34.241  30.500  1.00  0.00     0.023 A 
ATOM     76  C   UNL A   1      44.213  35.415  29.736  1.00  0.00     0.031 A 
ATOM     77  C   UNL A   1      44.949  34.327  31.760  1.00  0.00     0.131 A 
ATOM     78  C   UNL A   1      44.751  36.618  30.219  1.00  0.00     0.055 A 
ATOM     79  C   UNL A   1      45.435  35.537  32.258  1.00  0.00     0.041 A 
ATOM     80  F   UNL A   1      45.089  33.235  32.528  1.00  0.00    -0.206 F 
ATOM     81  C   UNL A   1      45.349  36.689  31.481  1.00  0.00     0.022 A 
BRANCH  78  82
ATOM     82  S   UNL A   1      44.737  38.075  29.139  1.00  0.00     0.124 S 
ATOM     83  O   UNL A   1      46.146  38.456  29.124  1.00  0.00    -0.237 OA
ATOM     84  O   UNL A   1      44.210  37.534  27.890  1.00  0.00    -0.237 OA
ATOM     85  O   UNL A   1      43.850  39.008  29.832  1.00  0.00    -0.744 OA
ENDBRANCH  78  82
ENDBRANCH  52  75
ENDBRANCH  26  27
ENDBRANCH  19  21
ENDBRANCH  18  19
ENDBRANCH   1  18
TORSDOF 15
ENDMDL
MODEL 2
REMARK VINA RESULT:     -10.2      3.453      9.852
REMARK SMILES C[C@H](C(=O)OCCOC(=O)c1ccc(-c2c3nc(c(-c4cc(S(=O)(=O)[O-])ccc4F)c4ccc([nH]4)c(-c4cc(S(=O)(=O)[O-])ccc4F)c4nc(c(-c5cc(S(=O)(=O)[O-])ccc5F)c5ccc2[nH]5)C=C4)C=C3)cc1)c1ccc2c(c1)OCCO2
REMARK SMILES IDX 7 1 6 2 5 3 3 4 4 5 2 6 1 7 74 8 75 9 79 10 76 11 78 12
REMARK SMILES IDX 77 13 80 14 83 15 81 16 82 17 8 18 9 19 10 20 11 21 12 22
REMARK SMILES IDX 73 23 13 24 72 25 14 26 15 27 16 28 66 29 17 30 71 31 65 32
REMARK SMILES IDX 67 33 18 34 70 35 64 36 63 37 19 39 51 40 31 41 50 42 32 43
REMARK SMILES IDX 35 44 49 45 68 46 33 47 34 48 48 50 69 51 36 52 20 53 21 54
REMARK SMILES IDX 29 55 22 56 28 57 30 58 27 59 23 60 24 61 25 62 26 63 52 64
REMARK SMILES IDX 53 65 61 66 54 67 60 68 62 69 59 70 55 71 56 72 57 73 58 74
REMARK SMILES IDX 37 75 38 76 46 77 39 78 45 79 47 80 44 81 40 82 41 83 42 84
REMARK SMILES IDX 43 85
REMARK H PARENT 67 38 35 49
REMARK Flexibility Score: inf
ROOT
ATOM      1  C   UNL A   1      36.330  21.015  24.773  1.00  0.00     0.275 C 
ENDROOT
BRANCH   1   2
ATOM      2  C   UNL A   1      36.125  22.221  23.861  1.00  0.00     0.274 C 
BRANCH   2   3
ATOM      3  O   UNL A   1      34.914  22.913  24.217  1.00  0.00    -0.462 OA
BRANCH   3   4
ATOM      4  C   UNL A   1      33.893  22.927  23.307  1.00  0.00     0.313 C 
ATOM      5  O   UNL A   1      34.008  23.326  22.154  1.00  0.00    -0.252 OA
BRANCH   4   6
ATOM      6  C   UNL A   1      32.565  22.453  23.931  1.00  0.00     0.126 C 
ATOM      7  C   UNL A   1      31.399  23.362  23.532  1.00  0.00     0.025 C 
BRANCH   6   8
ATOM      8  C   UNL A   1      32.319  20.972  23.660  1.00  0.00    -0.030 A 
ATOM      9  C   UNL A   1      32.134  20.454  22.367  1.00  0.00     0.009 A 
ATOM     10  C   UNL A   1      32.519  20.078  24.726  1.00  0.00     0.055 A 
ATOM     11  C   UNL A   1      32.265  19.083  22.129  1.00  0.00     0.051 A 
ATOM     12  C   UNL A   1      32.721  18.727  24.478  1.00  0.00     0.161 A 
ATOM     13  C   UNL A   1      32.628  18.241  23.173  1.00  0.00     0.161 A 
ATOM     14  O   UNL A   1      33.135  17.975  25.546  1.00  0.00    -0.486 OA
ATOM     15  O   UNL A   1      32.984  16.954  22.857  1.00  0.00    -0.486 OA
ATOM     16  C   UNL A   1      33.563  16.659  25.181  1.00  0.00     0.271 C 
ATOM     17  C   UNL A   1      34.043  16.568  23.739  1.00  0.00     0.271 C 
ENDBRANCH   6   8
ENDBRANCH   4   6
ENDBRANCH   3   4
ENDBRANCH   2   3
ENDBRANCH   1   2
BRANCH   1  18
ATOM     18  O   UNL A   1      37.075  21.440  25.922  1.00  0.00    -0.458 OA
BRANCH  18  19
ATOM     19  C   UNL A   1      38.406  21.224  25.880  1.00  0.00     0.338 C 
ATOM     20  O   UNL A   1      38.977  20.205  25.503  1.00  0.00    -0.246 OA
BRANCH  19  21
ATOM     21  C   UNL A   1      39.099  22.419  26.393  1.00  0.00     0.060 A 
ATOM     22  C   UNL A   1      38.629  23.698  26.081  1.00  0.00     0.016 A 
ATOM     23  C   UNL A   1      40.257  22.273  27.155  1.00  0.00     0.016 A 
ATOM     24  C   UNL A   1      39.343  24.828  26.472  1.00  0.00     0.010 A 
ATOM     25  C   UNL A   1      40.925  23.409  27.620  1.00  0.00     0.010 A 
ATOM     26  C   UNL A   1      40.493  24.700  27.261  1.00  0.00    -0.014 A 
BRANCH  26  27
ATOM     27  C   UNL A   1      41.276  25.897  27.678  1.00  0.00     0.031 A 
ATOM     28  C   UNL A   1      40.622  26.952  28.532  1.00  0.00     0.074 A 
ATOM     29  C   UNL A   1      42.558  26.052  27.288  1.00  0.00     0.049 A 
ATOM     30  N   UNL A   1      41.036  28.158  28.825  1.00  0.00    -0.248 NA
ATOM     31  C   UNL A   1      39.317  26.606  29.113  1.00  0.00     0.031 C 
ATOM     32  C   UNL A   1      43.329  25.086  26.503  1.00  0.00     0.029 A 
ATOM     33  N   UNL A   1      43.437  27.087  27.493  1.00  0.00    -0.354 N 
ATOM     34  C   UNL A   1      40.018  28.736  29.578  1.00  0.00     0.074 A 
ATOM     35  C   UNL A   1      38.964  27.748  29.684  1.00  0.00     0.031 C 
ATOM     36  C   UNL A   1      44.569  25.564  26.312  1.00  0.00     0.029 A 
ATOM     37  C   UNL A   1      44.656  26.903  26.882  1.00  0.00     0.049 A 
ATOM     38  H   UNL A   1      43.216  27.883  28.027  1.00  0.00     0.167 HD
ATOM     39  C   UNL A   1      39.970  29.975  30.127  1.00  0.00     0.034 A 
ATOM     40  C   UNL A   1      45.708  27.736  26.747  1.00  0.00     0.034 A 
ATOM     41  C   UNL A   1      41.048  30.932  30.047  1.00  0.00     0.049 A 
ATOM     42  C   UNL A   1      45.617  29.122  27.331  1.00  0.00     0.074 A 
ATOM     43  C   UNL A   1      41.113  32.208  30.581  1.00  0.00     0.029 A 
ATOM     44  N   UNL A   1      42.257  30.713  29.397  1.00  0.00    -0.354 N 
ATOM     45  N   UNL A   1      44.625  29.680  27.986  1.00  0.00    -0.248 NA
ATOM     46  C   UNL A   1      46.783  29.996  27.144  1.00  0.00     0.031 C 
ATOM     47  C   UNL A   1      42.335  32.779  30.208  1.00  0.00     0.029 A 
ATOM     48  C   UNL A   1      43.063  31.838  29.499  1.00  0.00     0.049 A 
ATOM     49  H   UNL A   1      42.505  29.883  28.932  1.00  0.00     0.167 HD
ATOM     50  C   UNL A   1      45.055  30.965  28.303  1.00  0.00     0.074 A 
ATOM     51  C   UNL A   1      46.402  31.091  27.785  1.00  0.00     0.031 C 
ATOM     52  C   UNL A   1      44.398  31.952  28.963  1.00  0.00     0.034 A 
BRANCH  39  53
ATOM     53  C   UNL A   1      38.686  30.384  30.807  1.00  0.00     0.023 A 
ATOM     54  C   UNL A   1      37.638  31.014  30.113  1.00  0.00     0.031 A 
ATOM     55  C   UNL A   1      38.521  30.164  32.187  1.00  0.00     0.131 A 
ATOM     56  C   UNL A   1      36.507  31.463  30.812  1.00  0.00     0.055 A 
ATOM     57  C   UNL A   1      37.360  30.545  32.862  1.00  0.00     0.041 A 
ATOM     58  F   UNL A   1      39.496  29.585  32.907  1.00  0.00    -0.206 F 
ATOM     59  C   UNL A   1      36.350  31.212  32.177  1.00  0.00     0.022 A 
BRANCH  56  60
ATOM     60  S   UNL A   1      35.303  32.503  29.939  1.00  0.00     0.124 S 
ATOM     61  O   UNL A   1      36.127  33.646  29.551  1.00  0.00    -0.237 OA
ATOM     62  O   UNL A   1      34.864  31.634  28.854  1.00  0.00    -0.237 OA
ATOM     63  O   UNL A   1      34.294  32.788  30.957  1.00  0.00    -0.744 OA
ENDBRANCH  56  60
ENDBRANCH  39  53
BRANCH  40  64
ATOM     64  C   UNL A   1      46.910  27.315  25.973  1.00  0.00     0.023 A 
ATOM     65  C   UNL A   1      47.102  27.729  24.646  1.00  0.00     0.031 A 
ATOM     66  C   UNL A   1      47.870  26.457  26.541  1.00  0.00     0.131 A 
ATOM     67  C   UNL A   1      48.205  27.258  23.919  1.00  0.00     0.055 A 
ATOM     68  C   UNL A   1      48.994  26.033  25.831  1.00  0.00     0.041 A 
ATOM     69  F   UNL A   1      47.734  26.029  27.807  1.00  0.00    -0.206 F 
ATOM     70  C   UNL A   1      49.161  26.425  24.507  1.00  0.00     0.022 A 
BRANCH  67  71
ATOM     71  S   UNL A   1      48.337  27.687  22.161  1.00  0.00     0.124 S 
ATOM     72  O   UNL A   1      47.116  28.456  21.950  1.00  0.00    -0.237 OA
ATOM     73  O   UNL A   1      49.585  28.443  22.128  1.00  0.00    -0.237 OA
ATOM     74  O   UNL A   1      48.380  26.388  21.496  1.00  0.00    -0.744 OA
ENDBRANCH  67  71
ENDBRANCH  40  64
BRANCH  52  75
ATOM     75  C   UNL A   1      45.155  33.235  29.193  1.00  0.00     0.023 A 
ATOM     76  C   UNL A   1      45.156  34.271  28.242  1.00  0.00     0.031 A 
ATOM     77  C   UNL A   1      45.903  33.411  30.369  1.00  0.00     0.131 A 
ATOM     78  C   UNL A   1      45.937  35.417  28.461  1.00  0.00     0.055 A 
ATOM     79  C   UNL A   1      46.635  34.576  30.606  1.00  0.00     0.041 A 
ATOM     80  F   UNL A   1      45.936  32.452  31.308  1.00  0.00    -0.206 F 
ATOM     81  C   UNL A   1      46.664  35.581  29.644  1.00  0.00     0.022 A 
BRANCH  78  82
ATOM     82  S   UNL A   1      46.057  36.656  27.142  1.00  0.00     0.124 S 
ATOM     83  O   UNL A   1      46.424  35.838  25.990  1.00  0.00    -0.237 OA
ATOM     84  O   UNL A   1      44.712  37.220  27.120  1.00  0.00    -0.237 OA
ATOM     85  O   UNL A   1      47.101  37.563  27.617  1.00  0.00    -0.744 OA
ENDBRANCH  78  82
ENDBRANCH  52  75
ENDBRANCH  26  27
ENDBRANCH  19  21
ENDBRANCH  18  19
ENDBRANCH   1  18
TORSDOF 15
ENDMDL
MODEL 3
REMARK VINA RESULT:      -9.9      6.084     10.463
REMARK SMILES C[C@H](C(=O)OCCOC(=O)c1ccc(-c2c3nc(c(-c4cc(S(=O)(=O)[O-])ccc4F)c4ccc([nH]4)c(-c4cc(S(=O)(=O)[O-])ccc4F)c4nc(c(-c5cc(S(=O)(=O)[O-])ccc5F)c5ccc2[nH]5)C=C4)C=C3)cc1)c1ccc2c(c1)OCCO2
REMARK SMILES IDX 7 1 6 2 5 3 3 4 4 5 2 6 1 7 74 8 75 9 79 10 76 11 78 12
REMARK SMILES IDX 77 13 80 14 83 15 81 16 82 17 8 18 9 19 10 20 11 21 12 22
REMARK SMILES IDX 73 23 13 24 72 25 14 26 15 27 16 28 66 29 17 30 71 31 65 32
REMARK SMILES IDX 67 33 18 34 70 35 64 36 63 37 19 39 51 40 31 41 50 42 32 43
REMARK SMILES IDX 35 44 49 45 68 46 33 47 34 48 48 50 69 51 36 52 20 53 21 54
REMARK SMILES IDX 29 55 22 56 28 57 30 58 27 59 23 60 24 61 25 62 26 63 52 64
REMARK SMILES IDX 53 65 61 66 54 67 60 68 62 69 59 70 55 71 56 72 57 73 58 74
REMARK SMILES IDX 37 75 38 76 46 77 39 78 45 79 47 80 44 81 40 82 41 83 42 84
REMARK SMILES IDX 43 85
REMARK H PARENT 67 38 35 49
REMARK Flexibility Score: inf
ROOT
ATOM      1  C   UNL A   1      31.646  29.836  25.966  1.00  0.00     0.275 C 
ENDROOT
BRANCH   1   2
ATOM      2  C   UNL A   1      31.777  28.385  26.419  1.00  0.00     0.274 C 
BRANCH   2   3
ATOM      3  O   UNL A   1      32.337  27.584  25.361  1.00  0.00    -0.462 OA
BRANCH   3   4
ATOM      4  C   UNL A   1      31.588  26.547  24.878  1.00  0.00     0.313 C 
ATOM      5  O   UNL A   1      31.188  25.613  25.562  1.00  0.00    -0.252 OA
BRANCH   4   6
ATOM      6  C   UNL A   1      31.374  26.660  23.355  1.00  0.00     0.126 C 
ATOM      7  C   UNL A   1      31.467  25.293  22.671  1.00  0.00     0.025 C 
BRANCH   6   8
ATOM      8  C   UNL A   1      30.101  27.433  23.026  1.00  0.00    -0.030 A 
ATOM      9  C   UNL A   1      28.837  27.069  23.522  1.00  0.00     0.009 A 
ATOM     10  C   UNL A   1      30.248  28.681  22.396  1.00  0.00     0.055 A 
ATOM     11  C   UNL A   1      27.778  27.980  23.495  1.00  0.00     0.051 A 
ATOM     12  C   UNL A   1      29.217  29.610  22.435  1.00  0.00     0.161 A 
ATOM     13  C   UNL A   1      27.996  29.266  23.017  1.00  0.00     0.161 A 
ATOM     14  O   UNL A   1      29.529  30.872  22.000  1.00  0.00    -0.486 OA
ATOM     15  O   UNL A   1      27.012  30.199  23.230  1.00  0.00    -0.486 OA
ATOM     16  C   UNL A   1      28.513  31.838  22.293  1.00  0.00     0.271 C 
ATOM     17  C   UNL A   1      27.651  31.453  23.487  1.00  0.00     0.271 C 
ENDBRANCH   6   8
ENDBRANCH   4   6
ENDBRANCH   3   4
ENDBRANCH   2   3
ENDBRANCH   1   2
BRANCH   1  18
ATOM     18  O   UNL A   1      32.948  30.437  25.993  1.00  0.00    -0.458 OA
BRANCH  18  19
ATOM     19  C   UNL A   1      33.160  31.352  26.961  1.00  0.00     0.338 C 
ATOM     20  O   UNL A   1      32.438  32.302  27.251  1.00  0.00    -0.246 OA
BRANCH  19  21
ATOM     21  C   UNL A   1      34.441  31.052  27.627  1.00  0.00     0.060 A 
ATOM     22  C   UNL A   1      34.769  29.737  27.968  1.00  0.00     0.016 A 
ATOM     23  C   UNL A   1      35.306  32.092  27.961  1.00  0.00     0.016 A 
ATOM     24  C   UNL A   1      35.926  29.463  28.695  1.00  0.00     0.010 A 
ATOM     25  C   UNL A   1      36.508  31.806  28.614  1.00  0.00     0.010 A 
ATOM     26  C   UNL A   1      36.820  30.493  29.014  1.00  0.00    -0.014 A 
BRANCH  26  27
ATOM     27  C   UNL A   1      38.055  30.220  29.801  1.00  0.00     0.031 A 
ATOM     28  C   UNL A   1      39.114  29.313  29.231  1.00  0.00     0.074 A 
ATOM     29  C   UNL A   1      38.228  30.766  31.022  1.00  0.00     0.049 A 
ATOM     30  N   UNL A   1      40.150  28.772  29.820  1.00  0.00    -0.248 NA
ATOM     31  C   UNL A   1      38.972  28.952  27.813  1.00  0.00     0.031 C 
ATOM     32  C   UNL A   1      37.309  31.701  31.672  1.00  0.00     0.029 A 
ATOM     33  N   UNL A   1      39.238  30.606  31.939  1.00  0.00    -0.354 N 
ATOM     34  C   UNL A   1      40.751  27.962  28.861  1.00  0.00     0.074 A 
ATOM     35  C   UNL A   1      39.954  28.077  27.657  1.00  0.00     0.031 C 
ATOM     36  C   UNL A   1      37.805  32.046  32.870  1.00  0.00     0.029 A 
ATOM     37  C   UNL A   1      39.031  31.294  33.113  1.00  0.00     0.049 A 
ATOM     38  H   UNL A   1      40.034  30.053  31.772  1.00  0.00     0.167 HD
ATOM     39  C   UNL A   1      41.863  27.193  28.978  1.00  0.00     0.034 A 
ATOM     40  C   UNL A   1      39.717  31.282  34.273  1.00  0.00     0.034 A 
ATOM     41  C   UNL A   1      42.669  27.124  30.173  1.00  0.00     0.049 A 
ATOM     42  C   UNL A   1      40.926  30.391  34.394  1.00  0.00     0.074 A 
ATOM     43  C   UNL A   1      43.824  26.393  30.395  1.00  0.00     0.029 A 
ATOM     44  N   UNL A   1      42.409  27.819  31.348  1.00  0.00    -0.354 N 
ATOM     45  N   UNL A   1      41.449  29.581  33.502  1.00  0.00    -0.248 NA
ATOM     46  C   UNL A   1      41.630  30.403  35.683  1.00  0.00     0.031 C 
ATOM     47  C   UNL A   1      44.230  26.603  31.718  1.00  0.00     0.029 A 
ATOM     48  C   UNL A   1      43.369  27.517  32.303  1.00  0.00     0.049 A 
ATOM     49  H   UNL A   1      41.654  28.435  31.483  1.00  0.00     0.167 HD
ATOM     50  C   UNL A   1      42.552  29.000  34.119  1.00  0.00     0.074 A 
ATOM     51  C   UNL A   1      42.631  29.567  35.449  1.00  0.00     0.031 C 
ATOM     52  C   UNL A   1      43.424  28.080  33.631  1.00  0.00     0.034 A 
BRANCH  39  53
ATOM     53  C   UNL A   1      42.232  26.322  27.801  1.00  0.00     0.023 A 
ATOM     54  C   UNL A   1      41.743  25.012  27.657  1.00  0.00     0.031 A 
ATOM     55  C   UNL A   1      43.116  26.806  26.819  1.00  0.00     0.131 A 
ATOM     56  C   UNL A   1      42.196  24.210  26.598  1.00  0.00     0.055 A 
ATOM     57  C   UNL A   1      43.503  26.029  25.727  1.00  0.00     0.041 A 
ATOM     58  F   UNL A   1      43.632  28.043  26.915  1.00  0.00    -0.206 F 
ATOM     59  C   UNL A   1      43.054  24.717  25.619  1.00  0.00     0.022 A 
BRANCH  56  60
ATOM     60  S   UNL A   1      41.756  22.449  26.592  1.00  0.00     0.124 S 
ATOM     61  O   UNL A   1      42.360  21.991  27.841  1.00  0.00    -0.237 OA
ATOM     62  O   UNL A   1      40.299  22.489  26.563  1.00  0.00    -0.237 OA
ATOM     63  O   UNL A   1      42.391  21.942  25.378  1.00  0.00    -0.744 OA
ENDBRANCH  56  60
ENDBRANCH  39  53
BRANCH  40  64
ATOM     64  C   UNL A   1      39.244  32.083  35.438  1.00  0.00     0.023 A 
ATOM     65  C   UNL A   1      39.686  33.400  35.641  1.00  0.00     0.031 A 
ATOM     66  C   UNL A   1      38.369  31.527  36.389  1.00  0.00     0.131 A 
ATOM     67  C   UNL A   1      39.281  34.105  36.785  1.00  0.00     0.055 A 
ATOM     68  C   UNL A   1      37.927  32.251  37.498  1.00  0.00     0.041 A 
ATOM     69  F   UNL A   1      37.918  30.271  36.244  1.00  0.00    -0.206 F 
ATOM     70  C   UNL A   1      38.393  33.544  37.707  1.00  0.00     0.022 A 
BRANCH  67  71
ATOM     71  S   UNL A   1      39.993  35.744  37.095  1.00  0.00     0.124 S 
ATOM     72  O   UNL A   1      39.655  36.453  35.867  1.00  0.00    -0.237 OA
ATOM     73  O   UNL A   1      39.278  36.162  38.296  1.00  0.00    -0.237 OA
ATOM     74  O   UNL A   1      41.415  35.466  37.285  1.00  0.00    -0.744 OA
ENDBRANCH  67  71
ENDBRANCH  40  64
BRANCH  52  75
ATOM     75  C   UNL A   1      44.557  27.672  34.537  1.00  0.00     0.023 A 
ATOM     76  C   UNL A   1      44.474  26.529  35.352  1.00  0.00     0.031 A 
ATOM     77  C   UNL A   1      45.724  28.451  34.600  1.00  0.00     0.131 A 
ATOM     78  C   UNL A   1      45.521  26.228  36.237  1.00  0.00     0.055 A 
ATOM     79  C   UNL A   1      46.784  28.117  35.444  1.00  0.00     0.041 A 
ATOM     80  F   UNL A   1      45.853  29.552  33.843  1.00  0.00    -0.206 F 
ATOM     81  C   UNL A   1      46.681  27.007  36.278  1.00  0.00     0.022 A 
BRANCH  78  82
ATOM     82  S   UNL A   1      45.311  24.851  37.400  1.00  0.00     0.124 S 
ATOM     83  O   UNL A   1      46.692  24.466  37.667  1.00  0.00    -0.237 OA
ATOM     84  O   UNL A   1      44.599  25.482  38.507  1.00  0.00    -0.237 OA
ATOM     85  O   UNL A   1      44.530  23.876  36.639  1.00  0.00    -0.744 OA
ENDBRANCH  78  82
ENDBRANCH  52  75
ENDBRANCH  26  27
ENDBRANCH  19  21
ENDBRANCH  18  19
ENDBRANCH   1  18
TORSDOF 15
ENDMDL
