MODEL 1
REMARK VINA RESULT:     -11.0      0.000      0.000
REMARK SMILES O=C(N[C@@H](CS)C(=O)N[C@@H](CO)C(=O)OCCOC(=O)c1ccc(-c2c3nc(c(-c4cc(S(=O)(=O)[O-])ccc4F)c4ccc([nH]4)c(-c4cc(S(=O)(=O)[O-])ccc4F)c4nc(c(-c5cc(S(=O)(=O)[O-])ccc5F)c5ccc2[nH]5)C=C4)C=C3)cc1)c1ccc(F)cc1
REMARK SMILES IDX 16 1 15 2 13 3 14 4 10 5 9 6 7 7 8 8 4 10 3 11 1 12 2 13
REMARK SMILES IDX 84 15 85 16 90 17 86 18 89 19 87 20 88 21 5 22 6 23 11 25
REMARK SMILES IDX 12 26 17 28 18 29 19 30 20 31 21 32 22 33 83 34 23 35 82 36
REMARK SMILES IDX 24 37 25 38 26 39 76 40 27 41 81 42 75 43 77 44 28 45 80 46
REMARK SMILES IDX 74 47 73 48 29 50 61 51 41 52 60 53 42 54 45 55 59 56 78 57
REMARK SMILES IDX 43 58 44 59 58 61 79 62 46 63 30 64 31 65 39 66 32 67 38 68
REMARK SMILES IDX 40 69 37 70 33 71 34 72 35 73 36 74 62 75 63 76 71 77 64 78
REMARK SMILES IDX 70 79 72 80 69 81 65 82 66 83 67 84 68 85 47 86 48 87 56 88
REMARK SMILES IDX 49 89 55 90 57 91 54 92 50 93 51 94 52 95 53 96
REMARK H PARENT 9 9 3 14 6 24 12 27 77 49 45 60
REMARK Flexibility Score: inf
ROOT
ATOM      1  C   UNL A   1      34.928  22.019  24.676  1.00  0.00     0.274 C 
ENDROOT
BRANCH   1   2
ATOM      2  O   UNL A   1      33.884  21.382  23.908  1.00  0.00    -0.460 OA
BRANCH   2   3
ATOM      3  C   UNL A   1      32.598  21.691  24.255  1.00  0.00     0.331 C 
ATOM      4  O   UNL A   1      31.770  20.885  24.659  1.00  0.00    -0.250 OA
BRANCH   3   5
ATOM      5  C   UNL A   1      32.263  23.161  23.945  1.00  0.00     0.218 C 
BRANCH   5   6
ATOM      6  N   UNL A   1      32.595  23.530  22.559  1.00  0.00    -0.339 N 
ATOM      7  C   UNL A   1      32.723  24.702  21.895  1.00  0.00     0.244 C 
ATOM      8  O   UNL A   1      33.183  24.610  20.749  1.00  0.00    -0.273 OA
ATOM      9  H   UNL A   1      32.762  22.747  21.986  1.00  0.00     0.164 HD
BRANCH   7  10
ATOM     10  C   UNL A   1      32.454  26.105  22.489  1.00  0.00     0.181 C 
BRANCH  10  11
ATOM     11  N   UNL A   1      33.548  27.072  22.354  1.00  0.00    -0.339 N 
ATOM     12  O   UNL A   1      34.702  28.947  22.798  1.00  0.00    -0.269 OA
ATOM     13  C   UNL A   1      33.885  28.117  23.185  1.00  0.00     0.251 C 
ATOM     14  H   UNL A   1      34.120  26.960  21.561  1.00  0.00     0.164 HD
BRANCH  13  15
ATOM     15  C   UNL A   1      33.244  28.277  24.513  1.00  0.00     0.040 A 
ATOM     16  C   UNL A   1      32.330  29.312  24.749  1.00  0.00     0.017 A 
ATOM     17  C   UNL A   1      33.512  27.335  25.518  1.00  0.00     0.017 A 
ATOM     18  C   UNL A   1      31.725  29.432  26.001  1.00  0.00     0.040 A 
ATOM     19  C   UNL A   1      32.893  27.454  26.765  1.00  0.00     0.040 A 
ATOM     20  C   UNL A   1      32.007  28.501  26.995  1.00  0.00     0.123 A 
ATOM     21  F   UNL A   1      31.385  28.598  28.176  1.00  0.00    -0.207 F 
ENDBRANCH  13  15
ENDBRANCH  10  11
BRANCH  10  22
ATOM     22  C   UNL A   1      31.072  26.628  22.061  1.00  0.00     0.101 C 
BRANCH  22  23
ATOM     23  S   UNL A   1      29.914  26.883  23.432  1.00  0.00    -0.177 SA
ATOM     24  H   UNL A   1      29.224  25.734  23.662  1.00  0.00     0.102 HD
ENDBRANCH  22  23
ENDBRANCH  10  22
ENDBRANCH   7  10
ENDBRANCH   5   6
BRANCH   5  25
ATOM     25  C   UNL A   1      30.757  23.335  24.194  1.00  0.00     0.193 C 
BRANCH  25  26
ATOM     26  O   UNL A   1      30.438  23.178  25.582  1.00  0.00    -0.394 OA
ATOM     27  H   UNL A   1      29.538  22.828  25.669  1.00  0.00     0.210 HD
ENDBRANCH  25  26
ENDBRANCH   5  25
ENDBRANCH   3   5
ENDBRANCH   2   3
ENDBRANCH   1   2
BRANCH   1  28
ATOM     28  C   UNL A   1      36.019  21.012  25.025  1.00  0.00     0.275 C 
BRANCH  28  29
ATOM     29  O   UNL A   1      37.296  21.595  24.718  1.00  0.00    -0.458 OA
BRANCH  29  30
ATOM     30  C   UNL A   1      38.343  21.176  25.457  1.00  0.00     0.338 C 
ATOM     31  O   UNL A   1      38.788  20.032  25.506  1.00  0.00    -0.246 OA
BRANCH  30  32
ATOM     32  C   UNL A   1      38.929  22.311  26.203  1.00  0.00     0.060 A 
ATOM     33  C   UNL A   1      38.438  23.604  26.034  1.00  0.00     0.016 A 
ATOM     34  C   UNL A   1      40.063  22.111  26.997  1.00  0.00     0.016 A 
ATOM     35  C   UNL A   1      39.152  24.689  26.554  1.00  0.00     0.010 A 
ATOM     36  C   UNL A   1      40.714  23.203  27.593  1.00  0.00     0.010 A 
ATOM     37  C   UNL A   1      40.309  24.524  27.333  1.00  0.00    -0.014 A 
BRANCH  37  38
ATOM     38  C   UNL A   1      41.128  25.703  27.795  1.00  0.00     0.031 A 
ATOM     39  C   UNL A   1      40.521  26.758  28.705  1.00  0.00     0.074 A 
ATOM     40  C   UNL A   1      42.429  25.849  27.458  1.00  0.00     0.049 A 
ATOM     41  N   UNL A   1      40.930  27.979  28.952  1.00  0.00    -0.248 NA
ATOM     42  C   UNL A   1      39.282  26.398  29.411  1.00  0.00     0.031 C 
ATOM     43  C   UNL A   1      43.219  24.906  26.665  1.00  0.00     0.029 A 
ATOM     44  N   UNL A   1      43.329  26.850  27.756  1.00  0.00    -0.354 N 
ATOM     45  C   UNL A   1      39.950  28.565  29.752  1.00  0.00     0.074 A 
ATOM     46  C   UNL A   1      38.936  27.552  29.966  1.00  0.00     0.031 C 
ATOM     47  C   UNL A   1      44.489  25.323  26.612  1.00  0.00     0.029 A 
ATOM     48  C   UNL A   1      44.576  26.649  27.209  1.00  0.00     0.049 A 
ATOM     49  H   UNL A   1      43.101  27.632  28.308  1.00  0.00     0.167 HD
ATOM     50  C   UNL A   1      39.897  29.830  30.245  1.00  0.00     0.034 A 
ATOM     51  C   UNL A   1      45.650  27.458  27.100  1.00  0.00     0.034 A 
ATOM     52  C   UNL A   1      40.966  30.796  30.115  1.00  0.00     0.049 A 
ATOM     53  C   UNL A   1      45.563  28.867  27.614  1.00  0.00     0.074 A 
ATOM     54  C   UNL A   1      41.022  32.092  30.604  1.00  0.00     0.029 A 
ATOM     55  N   UNL A   1      42.178  30.567  29.478  1.00  0.00    -0.354 N 
ATOM     56  N   UNL A   1      44.564  29.464  28.219  1.00  0.00    -0.248 NA
ATOM     57  C   UNL A   1      46.736  29.722  27.394  1.00  0.00     0.031 C 
ATOM     58  C   UNL A   1      42.239  32.663  30.215  1.00  0.00     0.029 A 
ATOM     59  C   UNL A   1      42.976  31.701  29.545  1.00  0.00     0.049 A 
ATOM     60  H   UNL A   1      42.434  29.723  29.041  1.00  0.00     0.167 HD
ATOM     61  C   UNL A   1      44.989  30.769  28.445  1.00  0.00     0.074 A 
ATOM     62  C   UNL A   1      46.344  30.862  27.942  1.00  0.00     0.031 C 
ATOM     63  C   UNL A   1      44.313  31.801  29.012  1.00  0.00     0.034 A 
BRANCH  50  64
ATOM     64  C   UNL A   1      38.614  30.283  30.909  1.00  0.00     0.023 A 
ATOM     65  C   UNL A   1      37.595  30.960  30.221  1.00  0.00     0.031 A 
ATOM     66  C   UNL A   1      38.409  29.999  32.274  1.00  0.00     0.131 A 
ATOM     67  C   UNL A   1      36.442  31.374  30.911  1.00  0.00     0.055 A 
ATOM     68  C   UNL A   1      37.230  30.348  32.936  1.00  0.00     0.041 A 
ATOM     69  F   UNL A   1      39.354  29.370  32.991  1.00  0.00    -0.206 F 
ATOM     70  C   UNL A   1      36.242  31.051  32.256  1.00  0.00     0.022 A 
BRANCH  67  71
ATOM     71  S   UNL A   1      35.253  32.448  30.059  1.00  0.00     0.124 S 
ATOM     72  O   UNL A   1      36.098  33.574  29.669  1.00  0.00    -0.237 OA
ATOM     73  O   UNL A   1      34.782  31.593  28.975  1.00  0.00    -0.237 OA
ATOM     74  O   UNL A   1      34.263  32.751  31.091  1.00  0.00    -0.744 OA
ENDBRANCH  67  71
ENDBRANCH  50  64
BRANCH  51  75
ATOM     75  C   UNL A   1      46.854  26.996  26.349  1.00  0.00     0.023 A 
ATOM     76  C   UNL A   1      47.117  27.435  25.043  1.00  0.00     0.031 A 
ATOM     77  C   UNL A   1      47.760  26.090  26.936  1.00  0.00     0.131 A 
ATOM     78  C   UNL A   1      48.250  26.959  24.363  1.00  0.00     0.055 A 
ATOM     79  C   UNL A   1      48.916  25.671  26.280  1.00  0.00     0.041 A 
ATOM     80  F   UNL A   1      47.548  25.627  28.178  1.00  0.00    -0.206 F 
ATOM     81  C   UNL A   1      49.163  26.101  24.983  1.00  0.00     0.022 A 
BRANCH  78  82
ATOM     82  S   UNL A   1      48.484  27.425  22.627  1.00  0.00     0.124 S 
ATOM     83  O   UNL A   1      48.586  26.122  21.979  1.00  0.00    -0.237 OA
ATOM     84  O   UNL A   1      47.272  28.188  22.349  1.00  0.00    -0.237 OA
ATOM     85  O   UNL A   1      49.718  28.209  22.649  1.00  0.00    -0.744 OA
ENDBRANCH  78  82
ENDBRANCH  51  75
BRANCH  63  86
ATOM     86  C   UNL A   1      45.057  33.106  29.138  1.00  0.00     0.023 A 
ATOM     87  C   UNL A   1      44.917  34.127  28.181  1.00  0.00     0.031 A 
ATOM     88  C   UNL A   1      45.957  33.310  30.198  1.00  0.00     0.131 A 
ATOM     89  C   UNL A   1      45.715  35.279  28.268  1.00  0.00     0.055 A 
ATOM     90  C   UNL A   1      46.707  34.481  30.310  1.00  0.00     0.041 A 
ATOM     91  F   UNL A   1      46.132  32.365  31.137  1.00  0.00    -0.206 F 
ATOM     92  C   UNL A   1      46.599  35.467  29.332  1.00  0.00     0.022 A 
BRANCH  89  93
ATOM     93  S   UNL A   1      45.657  36.483  26.912  1.00  0.00     0.124 S 
ATOM     94  O   UNL A   1      44.221  36.676  26.738  1.00  0.00    -0.237 OA
ATOM     95  O   UNL A   1      46.390  37.616  27.469  1.00  0.00    -0.237 OA
ATOM     96  O   UNL A   1      46.328  35.793  25.812  1.00  0.00    -0.744 OA
ENDBRANCH  89  93
ENDBRANCH  63  86
ENDBRANCH  37  38
ENDBRANCH  30  32
ENDBRANCH  29  30
ENDBRANCH  28  29
ENDBRANCH   1  28
TORSDOF 22
ENDMDL
MODEL 2
REMARK VINA RESULT:     -10.9      1.492      2.079
REMARK SMILES O=C(N[C@@H](CS)C(=O)N[C@@H](CO)C(=O)OCCOC(=O)c1ccc(-c2c3nc(c(-c4cc(S(=O)(=O)[O-])ccc4F)c4ccc([nH]4)c(-c4cc(S(=O)(=O)[O-])ccc4F)c4nc(c(-c5cc(S(=O)(=O)[O-])ccc5F)c5ccc2[nH]5)C=C4)C=C3)cc1)c1ccc(F)cc1
REMARK SMILES IDX 16 1 15 2 13 3 14 4 10 5 9 6 7 7 8 8 4 10 3 11 1 12 2 13
REMARK SMILES IDX 84 15 85 16 90 17 86 18 89 19 87 20 88 21 5 22 6 23 11 25
REMARK SMILES IDX 12 26 17 28 18 29 19 30 20 31 21 32 22 33 83 34 23 35 82 36
REMARK SMILES IDX 24 37 25 38 26 39 76 40 27 41 81 42 75 43 77 44 28 45 80 46
REMARK SMILES IDX 74 47 73 48 29 50 61 51 41 52 60 53 42 54 45 55 59 56 78 57
REMARK SMILES IDX 43 58 44 59 58 61 79 62 46 63 30 64 31 65 39 66 32 67 38 68
REMARK SMILES IDX 40 69 37 70 33 71 34 72 35 73 36 74 62 75 63 76 71 77 64 78
REMARK SMILES IDX 70 79 72 80 69 81 65 82 66 83 67 84 68 85 47 86 48 87 56 88
REMARK SMILES IDX 49 89 55 90 57 91 54 92 50 93 51 94 52 95 53 96
REMARK H PARENT 9 9 3 14 6 24 12 27 77 49 45 60
REMARK Flexibility Score: inf
ROOT
ATOM      1  C   UNL A   1      35.450  21.314  24.364  1.00  0.00     0.274 C 
ENDROOT
BRANCH   1   2
ATOM      2  O   UNL A   1      34.524  22.363  24.009  1.00  0.00    -0.460 OA
BRANCH   2   3
ATOM      3  C   UNL A   1      33.237  22.214  24.446  1.00  0.00     0.331 C 
ATOM      4  O   UNL A   1      32.917  21.909  25.588  1.00  0.00    -0.250 OA
BRANCH   3   5
ATOM      5  C   UNL A   1      32.226  22.339  23.291  1.00  0.00     0.218 C 
BRANCH   5   6
ATOM      6  N   UNL A   1      32.701  23.239  22.228  1.00  0.00    -0.339 N 
ATOM      7  C   UNL A   1      32.859  24.579  22.121  1.00  0.00     0.244 C 
ATOM      8  O   UNL A   1      33.451  24.959  21.102  1.00  0.00    -0.273 OA
ATOM      9  H   UNL A   1      32.963  22.758  21.410  1.00  0.00     0.164 HD
BRANCH   7  10
ATOM     10  C   UNL A   1      32.468  25.618  23.199  1.00  0.00     0.181 C 
BRANCH  10  11
ATOM     11  N   UNL A   1      31.412  25.201  24.129  1.00  0.00    -0.339 N 
ATOM     12  O   UNL A   1      29.734  25.482  25.593  1.00  0.00    -0.269 OA
ATOM     13  C   UNL A   1      30.394  25.951  24.672  1.00  0.00     0.251 C 
ATOM     14  H   UNL A   1      31.435  24.255  24.402  1.00  0.00     0.164 HD
BRANCH  13  15
ATOM     15  C   UNL A   1      30.116  27.327  24.192  1.00  0.00     0.040 A 
ATOM     16  C   UNL A   1      29.051  27.580  23.318  1.00  0.00     0.017 A 
ATOM     17  C   UNL A   1      30.891  28.390  24.679  1.00  0.00     0.017 A 
ATOM     18  C   UNL A   1      28.796  28.885  22.894  1.00  0.00     0.040 A 
ATOM     19  C   UNL A   1      30.623  29.696  24.261  1.00  0.00     0.040 A 
ATOM     20  C   UNL A   1      29.579  29.931  23.373  1.00  0.00     0.123 A 
ATOM     21  F   UNL A   1      29.295  31.184  22.998  1.00  0.00    -0.207 F 
ENDBRANCH  13  15
ENDBRANCH  10  11
BRANCH  10  22
ATOM     22  C   UNL A   1      33.718  26.216  23.866  1.00  0.00     0.101 C 
BRANCH  22  23
ATOM     23  S   UNL A   1      34.011  25.633  25.557  1.00  0.00    -0.177 SA
ATOM     24  H   UNL A   1      33.863  26.669  26.425  1.00  0.00     0.102 HD
ENDBRANCH  22  23
ENDBRANCH  10  22
ENDBRANCH   7  10
ENDBRANCH   5   6
BRANCH   5  25
ATOM     25  C   UNL A   1      32.014  20.924  22.733  1.00  0.00     0.193 C 
BRANCH  25  26
ATOM     26  O   UNL A   1      31.672  20.959  21.342  1.00  0.00    -0.394 OA
ATOM     27  H   UNL A   1      31.650  21.880  21.038  1.00  0.00     0.210 HD
ENDBRANCH  25  26
ENDBRANCH   5  25
ENDBRANCH   3   5
ENDBRANCH   2   3
ENDBRANCH   1   2
BRANCH   1  28
ATOM     28  C   UNL A   1      36.287  21.731  25.568  1.00  0.00     0.275 C 
BRANCH  28  29
ATOM     29  O   UNL A   1      37.573  22.172  25.102  1.00  0.00    -0.458 OA
BRANCH  29  30
ATOM     30  C   UNL A   1      38.639  21.814  25.846  1.00  0.00     0.338 C 
ATOM     31  O   UNL A   1      39.139  20.693  25.911  1.00  0.00    -0.246 OA
BRANCH  30  32
ATOM     32  C   UNL A   1      39.169  22.986  26.577  1.00  0.00     0.060 A 
ATOM     33  C   UNL A   1      38.671  24.264  26.330  1.00  0.00     0.016 A 
ATOM     34  C   UNL A   1      40.262  22.834  27.437  1.00  0.00     0.016 A 
ATOM     35  C   UNL A   1      39.342  25.379  26.844  1.00  0.00     0.010 A 
ATOM     36  C   UNL A   1      40.865  23.959  28.023  1.00  0.00     0.010 A 
ATOM     37  C   UNL A   1      40.458  25.262  27.690  1.00  0.00    -0.014 A 
BRANCH  37  38
ATOM     38  C   UNL A   1      41.235  26.471  28.147  1.00  0.00     0.031 A 
ATOM     39  C   UNL A   1      40.574  27.538  29.004  1.00  0.00     0.074 A 
ATOM     40  C   UNL A   1      42.544  26.634  27.853  1.00  0.00     0.049 A 
ATOM     41  N   UNL A   1      40.950  28.773  29.230  1.00  0.00    -0.248 NA
ATOM     42  C   UNL A   1      39.318  27.171  29.674  1.00  0.00     0.031 C 
ATOM     43  C   UNL A   1      43.382  25.687  27.117  1.00  0.00     0.029 A 
ATOM     44  N   UNL A   1      43.412  27.662  28.155  1.00  0.00    -0.354 N 
ATOM     45  C   UNL A   1      39.929  29.360  29.977  1.00  0.00     0.074 A 
ATOM     46  C   UNL A   1      38.929  28.333  30.184  1.00  0.00     0.031 C 
ATOM     47  C   UNL A   1      44.645  26.129  27.098  1.00  0.00     0.029 A 
ATOM     48  C   UNL A   1      44.683  27.473  27.659  1.00  0.00     0.049 A 
ATOM     49  H   UNL A   1      43.149  28.455  28.676  1.00  0.00     0.167 HD
ATOM     50  C   UNL A   1      39.833  30.637  30.432  1.00  0.00     0.034 A 
ATOM     51  C   UNL A   1      45.743  28.301  27.567  1.00  0.00     0.034 A 
ATOM     52  C   UNL A   1      40.886  31.622  30.313  1.00  0.00     0.049 A 
ATOM     53  C   UNL A   1      45.610  29.721  28.037  1.00  0.00     0.074 A 
ATOM     54  C   UNL A   1      40.898  32.931  30.766  1.00  0.00     0.029 A 
ATOM     55  N   UNL A   1      42.125  31.401  29.727  1.00  0.00    -0.354 N 
ATOM     56  N   UNL A   1      44.578  30.314  28.588  1.00  0.00    -0.248 NA
ATOM     57  C   UNL A   1      46.773  30.594  27.835  1.00  0.00     0.031 C 
ATOM     58  C   UNL A   1      42.117  33.517  30.406  1.00  0.00     0.029 A 
ATOM     59  C   UNL A   1      42.897  32.553  29.791  1.00  0.00     0.049 A 
ATOM     60  H   UNL A   1      42.413  30.551  29.324  1.00  0.00     0.167 HD
ATOM     61  C   UNL A   1      44.967  31.633  28.792  1.00  0.00     0.074 A 
ATOM     62  C   UNL A   1      46.338  31.741  28.336  1.00  0.00     0.031 C 
ATOM     63  C   UNL A   1      44.250  32.666  29.304  1.00  0.00     0.034 A 
BRANCH  50  64
ATOM     64  C   UNL A   1      38.517  31.081  31.036  1.00  0.00     0.023 A 
ATOM     65  C   UNL A   1      37.462  31.604  30.271  1.00  0.00     0.031 A 
ATOM     66  C   UNL A   1      38.319  30.949  32.425  1.00  0.00     0.131 A 
ATOM     67  C   UNL A   1      36.279  32.021  30.906  1.00  0.00     0.055 A 
ATOM     68  C   UNL A   1      37.114  31.297  33.039  1.00  0.00     0.041 A 
ATOM     69  F   UNL A   1      39.296  30.472  33.212  1.00  0.00    -0.206 F 
ATOM     70  C   UNL A   1      36.088  31.848  32.279  1.00  0.00     0.022 A 
BRANCH  67  71
ATOM     71  S   UNL A   1      35.031  32.907  29.930  1.00  0.00     0.124 S 
ATOM     72  O   UNL A   1      34.144  33.415  30.973  1.00  0.00    -0.237 OA
ATOM     73  O   UNL A   1      35.833  33.902  29.228  1.00  0.00    -0.237 OA
ATOM     74  O   UNL A   1      34.452  31.862  29.085  1.00  0.00    -0.744 OA
ENDBRANCH  67  71
ENDBRANCH  50  64
BRANCH  51  75
ATOM     75  C   UNL A   1      46.984  27.843  26.873  1.00  0.00     0.023 A 
ATOM     76  C   UNL A   1      47.123  27.939  25.480  1.00  0.00     0.031 A 
ATOM     77  C   UNL A   1      48.052  27.289  27.607  1.00  0.00     0.131 A 
ATOM     78  C   UNL A   1      48.297  27.477  24.865  1.00  0.00     0.055 A 
ATOM     79  C   UNL A   1      49.240  26.892  26.997  1.00  0.00     0.041 A 
ATOM     80  F   UNL A   1      47.964  27.161  28.940  1.00  0.00    -0.206 F 
ATOM     81  C   UNL A   1      49.365  26.978  25.616  1.00  0.00     0.022 A 
BRANCH  78  82
ATOM     82  S   UNL A   1      48.389  27.475  23.054  1.00  0.00     0.124 S 
ATOM     83  O   UNL A   1      47.186  28.217  22.694  1.00  0.00    -0.237 OA
ATOM     84  O   UNL A   1      49.658  28.153  22.812  1.00  0.00    -0.237 OA
ATOM     85  O   UNL A   1      48.371  26.053  22.715  1.00  0.00    -0.744 OA
ENDBRANCH  78  82
ENDBRANCH  51  75
BRANCH  63  86
ATOM     86  C   UNL A   1      44.963  33.989  29.420  1.00  0.00     0.023 A 
ATOM     87  C   UNL A   1      45.013  34.894  28.343  1.00  0.00     0.031 A 
ATOM     88  C   UNL A   1      45.645  34.327  30.601  1.00  0.00     0.131 A 
ATOM     89  C   UNL A   1      45.785  36.061  28.448  1.00  0.00     0.055 A 
ATOM     90  C   UNL A   1      46.366  35.516  30.719  1.00  0.00     0.041 A 
ATOM     91  F   UNL A   1      45.633  33.497  31.657  1.00  0.00    -0.206 F 
ATOM     92  C   UNL A   1      46.451  36.383  29.633  1.00  0.00     0.022 A 
BRANCH  89  93
ATOM     93  S   UNL A   1      45.992  37.103  26.978  1.00  0.00     0.124 S 
ATOM     94  O   UNL A   1      47.118  37.949  27.361  1.00  0.00    -0.237 OA
ATOM     95  O   UNL A   1      46.259  36.120  25.933  1.00  0.00    -0.237 OA
ATOM     96  O   UNL A   1      44.709  37.794  26.863  1.00  0.00    -0.744 OA
ENDBRANCH  89  93
ENDBRANCH  63  86
ENDBRANCH  37  38
ENDBRANCH  30  32
ENDBRANCH  29  30
ENDBRANCH  28  29
ENDBRANCH   1  28
TORSDOF 22
ENDMDL
MODEL 3
REMARK VINA RESULT:     -10.9      1.599      2.149
REMARK SMILES O=C(N[C@@H](CS)C(=O)N[C@@H](CO)C(=O)OCCOC(=O)c1ccc(-c2c3nc(c(-c4cc(S(=O)(=O)[O-])ccc4F)c4ccc([nH]4)c(-c4cc(S(=O)(=O)[O-])ccc4F)c4nc(c(-c5cc(S(=O)(=O)[O-])ccc5F)c5ccc2[nH]5)C=C4)C=C3)cc1)c1ccc(F)cc1
REMARK SMILES IDX 16 1 15 2 13 3 14 4 10 5 9 6 7 7 8 8 4 10 3 11 1 12 2 13
REMARK SMILES IDX 84 15 85 16 90 17 86 18 89 19 87 20 88 21 5 22 6 23 11 25
REMARK SMILES IDX 12 26 17 28 18 29 19 30 20 31 21 32 22 33 83 34 23 35 82 36
REMARK SMILES IDX 24 37 25 38 26 39 76 40 27 41 81 42 75 43 77 44 28 45 80 46
REMARK SMILES IDX 74 47 73 48 29 50 61 51 41 52 60 53 42 54 45 55 59 56 78 57
REMARK SMILES IDX 43 58 44 59 58 61 79 62 46 63 30 64 31 65 39 66 32 67 38 68
REMARK SMILES IDX 40 69 37 70 33 71 34 72 35 73 36 74 62 75 63 76 71 77 64 78
REMARK SMILES IDX 70 79 72 80 69 81 65 82 66 83 67 84 68 85 47 86 48 87 56 88
REMARK SMILES IDX 49 89 55 90 57 91 54 92 50 93 51 94 52 95 53 96
REMARK H PARENT 9 9 3 14 6 24 12 27 77 49 45 60
REMARK Flexibility Score: inf
ROOT
ATOM      1  C   UNL A   1      34.931  22.036  24.715  1.00  0.00     0.274 C 
ENDROOT
BRANCH   1   2
ATOM      2  O   UNL A   1      33.621  21.434  24.798  1.00  0.00    -0.460 OA
BRANCH   2   3
ATOM      3  C   UNL A   1      32.580  22.274  25.083  1.00  0.00     0.331 C 
ATOM      4  O   UNL A   1      32.199  22.558  26.212  1.00  0.00    -0.250 OA
BRANCH   3   5
ATOM      5  C   UNL A   1      31.845  22.723  23.807  1.00  0.00     0.218 C 
BRANCH   5   6
ATOM      6  N   UNL A   1      32.491  23.881  23.168  1.00  0.00    -0.339 N 
ATOM      7  C   UNL A   1      32.106  25.150  22.896  1.00  0.00     0.244 C 
ATOM      8  O   UNL A   1      33.005  25.895  22.484  1.00  0.00    -0.273 OA
ATOM      9  H   UNL A   1      33.409  23.690  22.870  1.00  0.00     0.164 HD
BRANCH   7  10
ATOM     10  C   UNL A   1      30.701  25.740  23.167  1.00  0.00     0.181 C 
BRANCH  10  11
ATOM     11  N   UNL A   1      30.058  25.301  24.411  1.00  0.00    -0.339 N 
ATOM     12  O   UNL A   1      29.903  24.899  26.614  1.00  0.00    -0.269 OA
ATOM     13  C   UNL A   1      30.452  25.523  25.711  1.00  0.00     0.251 C 
ATOM     14  H   UNL A   1      29.234  24.775  24.300  1.00  0.00     0.164 HD
BRANCH  13  15
ATOM     15  C   UNL A   1      31.551  26.466  26.029  1.00  0.00     0.040 A 
ATOM     16  C   UNL A   1      32.888  26.055  25.974  1.00  0.00     0.017 A 
ATOM     17  C   UNL A   1      31.240  27.803  26.320  1.00  0.00     0.017 A 
ATOM     18  C   UNL A   1      33.908  26.965  26.259  1.00  0.00     0.040 A 
ATOM     19  C   UNL A   1      32.265  28.713  26.592  1.00  0.00     0.040 A 
ATOM     20  C   UNL A   1      33.589  28.285  26.560  1.00  0.00     0.123 A 
ATOM     21  F   UNL A   1      34.575  29.160  26.784  1.00  0.00    -0.207 F 
ENDBRANCH  13  15
ENDBRANCH  10  11
BRANCH  10  22
ATOM     22  C   UNL A   1      30.688  27.260  22.935  1.00  0.00     0.101 C 
BRANCH  22  23
ATOM     23  S   UNL A   1      29.068  28.037  23.174  1.00  0.00    -0.177 SA
ATOM     24  H   UNL A   1      28.411  27.410  24.187  1.00  0.00     0.102 HD
ENDBRANCH  22  23
ENDBRANCH  10  22
ENDBRANCH   7  10
ENDBRANCH   5   6
BRANCH   5  25
ATOM     25  C   UNL A   1      31.846  21.521  22.850  1.00  0.00     0.193 C 
BRANCH  25  26
ATOM     26  O   UNL A   1      32.262  21.904  21.533  1.00  0.00    -0.394 OA
ATOM     27  H   UNL A   1      32.884  22.646  21.594  1.00  0.00     0.210 HD
ENDBRANCH  25  26
ENDBRANCH   5  25
ENDBRANCH   3   5
ENDBRANCH   2   3
ENDBRANCH   1   2
BRANCH   1  28
ATOM     28  C   UNL A   1      36.012  20.985  24.937  1.00  0.00     0.275 C 
BRANCH  28  29
ATOM     29  O   UNL A   1      37.292  21.579  24.663  1.00  0.00    -0.458 OA
BRANCH  29  30
ATOM     30  C   UNL A   1      38.326  21.157  25.417  1.00  0.00     0.338 C 
ATOM     31  O   UNL A   1      38.762  20.009  25.479  1.00  0.00    -0.246 OA
BRANCH  30  32
ATOM     32  C   UNL A   1      38.912  22.292  26.164  1.00  0.00     0.060 A 
ATOM     33  C   UNL A   1      38.428  23.587  25.987  1.00  0.00     0.016 A 
ATOM     34  C   UNL A   1      40.039  22.089  26.967  1.00  0.00     0.016 A 
ATOM     35  C   UNL A   1      39.143  24.669  26.509  1.00  0.00     0.010 A 
ATOM     36  C   UNL A   1      40.690  23.180  27.564  1.00  0.00     0.010 A 
ATOM     37  C   UNL A   1      40.294  24.502  27.297  1.00  0.00    -0.014 A 
BRANCH  37  38
ATOM     38  C   UNL A   1      41.115  25.679  27.761  1.00  0.00     0.031 A 
ATOM     39  C   UNL A   1      40.505  26.742  28.659  1.00  0.00     0.074 A 
ATOM     40  C   UNL A   1      42.420  25.815  27.435  1.00  0.00     0.049 A 
ATOM     41  N   UNL A   1      40.919  27.962  28.904  1.00  0.00    -0.248 NA
ATOM     42  C   UNL A   1      39.258  26.392  29.355  1.00  0.00     0.031 C 
ATOM     43  C   UNL A   1      43.212  24.865  26.655  1.00  0.00     0.029 A 
ATOM     44  N   UNL A   1      43.322  26.813  27.738  1.00  0.00    -0.354 N 
ATOM     45  C   UNL A   1      39.934  28.557  29.691  1.00  0.00     0.074 A 
ATOM     46  C   UNL A   1      38.913  27.551  29.901  1.00  0.00     0.031 C 
ATOM     47  C   UNL A   1      44.485  25.274  26.612  1.00  0.00     0.029 A 
ATOM     48  C   UNL A   1      44.574  26.603  27.203  1.00  0.00     0.049 A 
ATOM     49  H   UNL A   1      43.094  27.600  28.283  1.00  0.00     0.167 HD
ATOM     50  C   UNL A   1      39.884  29.825  30.178  1.00  0.00     0.034 A 
ATOM     51  C   UNL A   1      45.653  27.405  27.101  1.00  0.00     0.034 A 
ATOM     52  C   UNL A   1      40.959  30.784  30.053  1.00  0.00     0.049 A 
ATOM     53  C   UNL A   1      45.569  28.817  27.607  1.00  0.00     0.074 A 
ATOM     54  C   UNL A   1      41.018  32.082  30.536  1.00  0.00     0.029 A 
ATOM     55  N   UNL A   1      42.176  30.545  29.429  1.00  0.00    -0.354 N 
ATOM     56  N   UNL A   1      44.568  29.423  28.199  1.00  0.00    -0.248 NA
ATOM     57  C   UNL A   1      46.749  29.664  27.394  1.00  0.00     0.031 C 
ATOM     58  C   UNL A   1      42.242  32.645  30.157  1.00  0.00     0.029 A 
ATOM     59  C   UNL A   1      42.980  31.675  29.498  1.00  0.00     0.049 A 
ATOM     60  H   UNL A   1      42.431  29.698  28.999  1.00  0.00     0.167 HD
ATOM     61  C   UNL A   1      44.998  30.727  28.423  1.00  0.00     0.074 A 
ATOM     62  C   UNL A   1      46.358  30.809  27.933  1.00  0.00     0.031 C 
ATOM     63  C   UNL A   1      44.322  31.765  28.978  1.00  0.00     0.034 A 
BRANCH  50  64
ATOM     64  C   UNL A   1      38.597  30.288  30.827  1.00  0.00     0.023 A 
ATOM     65  C   UNL A   1      37.581  30.953  30.123  1.00  0.00     0.031 A 
ATOM     66  C   UNL A   1      38.384  30.027  32.196  1.00  0.00     0.131 A 
ATOM     67  C   UNL A   1      36.424  31.378  30.799  1.00  0.00     0.055 A 
ATOM     68  C   UNL A   1      37.202  30.387  32.845  1.00  0.00     0.041 A 
ATOM     69  F   UNL A   1      39.326  29.411  32.928  1.00  0.00    -0.206 F 
ATOM     70  C   UNL A   1      36.217  31.078  32.148  1.00  0.00     0.022 A 
BRANCH  67  71
ATOM     71  S   UNL A   1      35.240  32.437  29.922  1.00  0.00     0.124 S 
ATOM     72  O   UNL A   1      34.274  32.738  30.976  1.00  0.00    -0.237 OA
ATOM     73  O   UNL A   1      36.079  33.546  29.484  1.00  0.00    -0.237 OA
ATOM     74  O   UNL A   1      34.736  31.575  28.853  1.00  0.00    -0.744 OA
ENDBRANCH  67  71
ENDBRANCH  50  64
BRANCH  51  75
ATOM     75  C   UNL A   1      46.862  26.932  26.364  1.00  0.00     0.023 A 
ATOM     76  C   UNL A   1      47.945  26.342  27.033  1.00  0.00     0.031 A 
ATOM     77  C   UNL A   1      46.950  27.076  24.965  1.00  0.00     0.131 A 
ATOM     78  C   UNL A   1      49.073  25.930  26.305  1.00  0.00     0.055 A 
ATOM     79  C   UNL A   1      48.044  26.607  24.241  1.00  0.00     0.041 A 
ATOM     80  F   UNL A   1      45.949  27.648  24.278  1.00  0.00    -0.206 F 
ATOM     81  C   UNL A   1      49.118  26.036  24.912  1.00  0.00     0.022 A 
BRANCH  78  82
ATOM     82  S   UNL A   1      50.516  25.310  27.211  1.00  0.00     0.124 S 
ATOM     83  O   UNL A   1      51.414  24.939  26.123  1.00  0.00    -0.237 OA
ATOM     84  O   UNL A   1      50.907  26.474  27.998  1.00  0.00    -0.237 OA
ATOM     85  O   UNL A   1      49.977  24.192  27.983  1.00  0.00    -0.744 OA
ENDBRANCH  78  82
ENDBRANCH  51  75
BRANCH  63  86
ATOM     86  C   UNL A   1      45.072  33.066  29.105  1.00  0.00     0.023 A 
ATOM     87  C   UNL A   1      45.028  34.042  28.092  1.00  0.00     0.031 A 
ATOM     88  C   UNL A   1      45.883  33.311  30.226  1.00  0.00     0.131 A 
ATOM     89  C   UNL A   1      45.833  35.187  28.191  1.00  0.00     0.055 A 
ATOM     90  C   UNL A   1      46.638  34.479  30.345  1.00  0.00     0.041 A 
ATOM     91  F   UNL A   1      45.964  32.412  31.220  1.00  0.00    -0.206 F 
ATOM     92  C   UNL A   1      46.627  35.417  29.317  1.00  0.00     0.022 A 
BRANCH  89  93
ATOM     93  S   UNL A   1      45.907  36.325  26.780  1.00  0.00     0.124 S 
ATOM     94  O   UNL A   1      44.609  36.989  26.857  1.00  0.00    -0.237 OA
ATOM     95  O   UNL A   1      47.066  37.151  27.105  1.00  0.00    -0.237 OA
ATOM     96  O   UNL A   1      46.083  35.438  25.632  1.00  0.00    -0.744 OA
ENDBRANCH  89  93
ENDBRANCH  63  86
ENDBRANCH  37  38
ENDBRANCH  30  32
ENDBRANCH  29  30
ENDBRANCH  28  29
ENDBRANCH   1  28
TORSDOF 22
ENDMDL
