MODEL 1
REMARK VINA RESULT:     -11.5      0.000      0.000
REMARK SMILES CCc1ccccc1O[C@H]1CCC[C@@]([NH2+]C)(C(=O)OCCOC(=O)c2ccc(-c3c4nc(c(-c5cc(S(=O)(=O)[O-])ccc5F)c5ccc([nH]5)c(-c5cc(S(=O)(=O)[O-])ccc5F)c5nc(c(-c6cc(S(=O)(=O)[O-])ccc6F)c6ccc3[nH]6)C=C5)C=C4)cc2)C1
REMARK SMILES IDX 20 1 19 2 17 3 18 4 14 5 10 6 11 7 88 8 12 9 13 10 9 11 8 12
REMARK SMILES IDX 3 13 4 14 5 15 7 16 6 17 2 18 1 19 15 20 16 21 21 24 22 25
REMARK SMILES IDX 23 26 24 27 25 28 26 29 87 30 27 31 86 32 28 33 29 34 30 35
REMARK SMILES IDX 80 36 31 37 85 38 79 39 81 40 32 41 84 42 78 43 77 44 33 46
REMARK SMILES IDX 65 47 45 48 64 49 46 50 49 51 63 52 82 53 47 54 48 55 62 57
REMARK SMILES IDX 83 58 50 59 34 60 35 61 43 62 36 63 42 64 44 65 41 66 37 67
REMARK SMILES IDX 38 68 39 69 40 70 66 71 67 72 75 73 68 74 74 75 76 76 73 77
REMARK SMILES IDX 69 78 70 79 71 80 72 81 51 82 52 83 60 84 53 85 59 86 61 87
REMARK SMILES IDX 58 88 54 89 55 90 56 91 57 92
REMARK H PARENT 15 22 15 23 81 45 49 56
REMARK Flexibility Score: inf
ROOT
ATOM      1  C   UNL A   1      36.176  20.357  24.953  1.00  0.00     0.274 C 
ENDROOT
BRANCH   1   2
ATOM      2  O   UNL A   1      35.396  21.507  24.526  1.00  0.00    -0.457 OA
BRANCH   2   3
ATOM      3  C   UNL A   1      34.542  21.984  25.478  1.00  0.00     0.368 C 
ATOM      4  O   UNL A   1      34.969  22.598  26.458  1.00  0.00    -0.245 OA
BRANCH   3   5
ATOM      5  C   UNL A   1      32.999  21.752  25.199  1.00  0.00     0.197 C 
ATOM      6  C   UNL A   1      31.572  24.036  24.676  1.00  0.00     0.180 C 
ATOM      7  C   UNL A   1      31.155  23.336  23.388  1.00  0.00     0.046 C 
ATOM      8  C   UNL A   1      32.111  22.954  25.678  1.00  0.00     0.126 C 
ATOM      9  C   UNL A   1      32.316  22.527  22.820  1.00  0.00     0.011 C 
ATOM     10  C   UNL A   1      32.690  21.366  23.734  1.00  0.00     0.081 C 
BRANCH   6  11
ATOM     11  O   UNL A   1      32.464  25.141  24.363  1.00  0.00    -0.490 OA
BRANCH  11  12
ATOM     12  C   UNL A   1      32.342  26.369  24.993  1.00  0.00     0.122 A 
ATOM     13  C   UNL A   1      31.501  27.386  24.441  1.00  0.00    -0.006 A 
ATOM     14  C   UNL A   1      31.387  28.622  25.120  1.00  0.00     0.007 A 
ATOM     15  C   UNL A   1      32.075  28.875  26.298  1.00  0.00     0.001 A 
ATOM     16  C   UNL A   1      33.013  26.654  26.194  1.00  0.00     0.047 A 
ATOM     17  C   UNL A   1      32.884  27.889  26.836  1.00  0.00     0.004 A 
BRANCH  13  18
ATOM     18  C   UNL A   1      30.616  27.245  23.211  1.00  0.00     0.036 C 
ATOM     19  C   UNL A   1      29.370  28.152  23.155  1.00  0.00     0.009 C 
ENDBRANCH  13  18
ENDBRANCH  11  12
ENDBRANCH   6  11
BRANCH   5  20
ATOM     20  N   UNL A   1      32.576  20.482  25.944  1.00  0.00    -0.334 N 
ATOM     21  C   UNL A   1      32.818  19.197  25.291  1.00  0.00     0.331 C 
ATOM     22  H   UNL A   1      31.574  20.551  26.117  1.00  0.00     0.347 HD
ATOM     23  H   UNL A   1      33.166  20.462  26.774  1.00  0.00     0.347 HD
ENDBRANCH   5  20
ENDBRANCH   3   5
ENDBRANCH   2   3
ENDBRANCH   1   2
BRANCH   1  24
ATOM     24  C   UNL A   1      37.722  20.528  25.016  1.00  0.00     0.275 C 
BRANCH  24  25
ATOM     25  O   UNL A   1      38.212  21.837  25.412  1.00  0.00    -0.458 OA
BRANCH  25  26
ATOM     26  C   UNL A   1      39.396  21.699  26.043  1.00  0.00     0.338 C 
ATOM     27  O   UNL A   1      39.934  20.613  26.160  1.00  0.00    -0.246 OA
BRANCH  26  28
ATOM     28  C   UNL A   1      40.094  22.841  26.644  1.00  0.00     0.060 A 
ATOM     29  C   UNL A   1      41.035  22.693  27.663  1.00  0.00     0.016 A 
ATOM     30  C   UNL A   1      39.420  24.055  26.512  1.00  0.00     0.016 A 
ATOM     31  C   UNL A   1      41.268  23.770  28.541  1.00  0.00     0.010 A 
ATOM     32  C   UNL A   1      39.686  25.141  27.326  1.00  0.00     0.010 A 
ATOM     33  C   UNL A   1      40.640  25.021  28.334  1.00  0.00    -0.014 A 
BRANCH  33  34
ATOM     34  C   UNL A   1      41.199  26.302  28.842  1.00  0.00     0.031 A 
ATOM     35  C   UNL A   1      40.346  27.451  29.320  1.00  0.00     0.074 A 
ATOM     36  C   UNL A   1      42.489  26.503  28.502  1.00  0.00     0.049 A 
ATOM     37  N   UNL A   1      40.689  28.697  29.533  1.00  0.00    -0.248 NA
ATOM     38  C   UNL A   1      38.917  27.181  29.542  1.00  0.00     0.031 C 
ATOM     39  C   UNL A   1      43.349  25.500  27.860  1.00  0.00     0.029 A 
ATOM     40  N   UNL A   1      43.279  27.617  28.562  1.00  0.00    -0.354 N 
ATOM     41  C   UNL A   1      39.522  29.373  29.887  1.00  0.00     0.074 A 
ATOM     42  C   UNL A   1      38.455  28.392  29.840  1.00  0.00     0.031 C 
ATOM     43  C   UNL A   1      44.536  26.038  27.582  1.00  0.00     0.029 A 
ATOM     44  C   UNL A   1      44.507  27.433  27.974  1.00  0.00     0.049 A 
ATOM     45  H   UNL A   1      42.998  28.462  28.982  1.00  0.00     0.167 HD
ATOM     46  C   UNL A   1      39.373  30.687  30.211  1.00  0.00     0.034 A 
ATOM     47  C   UNL A   1      45.511  28.290  27.735  1.00  0.00     0.034 A 
ATOM     48  C   UNL A   1      40.478  31.627  30.235  1.00  0.00     0.049 A 
ATOM     49  C   UNL A   1      45.354  29.699  28.183  1.00  0.00     0.074 A 
ATOM     50  C   UNL A   1      40.499  32.928  30.712  1.00  0.00     0.029 A 
ATOM     51  N   UNL A   1      41.751  31.378  29.731  1.00  0.00    -0.354 N 
ATOM     52  N   UNL A   1      44.284  30.287  28.662  1.00  0.00    -0.248 NA
ATOM     53  C   UNL A   1      46.540  30.547  28.087  1.00  0.00     0.031 C 
ATOM     54  C   UNL A   1      41.755  33.484  30.432  1.00  0.00     0.029 A 
ATOM     55  C   UNL A   1      42.547  32.511  29.846  1.00  0.00     0.049 A 
ATOM     56  H   UNL A   1      42.045  30.522  29.345  1.00  0.00     0.167 HD
ATOM     57  C   UNL A   1      44.670  31.589  28.936  1.00  0.00     0.074 A 
ATOM     58  C   UNL A   1      46.079  31.683  28.587  1.00  0.00     0.031 C 
ATOM     59  C   UNL A   1      43.928  32.608  29.434  1.00  0.00     0.034 A 
BRANCH  46  60
ATOM     60  C   UNL A   1      37.987  31.205  30.554  1.00  0.00     0.023 A 
ATOM     61  C   UNL A   1      37.080  31.631  29.567  1.00  0.00     0.031 A 
ATOM     62  C   UNL A   1      37.540  31.220  31.891  1.00  0.00     0.131 A 
ATOM     63  C   UNL A   1      35.803  32.100  29.931  1.00  0.00     0.055 A 
ATOM     64  C   UNL A   1      36.245  31.619  32.240  1.00  0.00     0.041 A 
ATOM     65  F   UNL A   1      38.354  30.840  32.888  1.00  0.00    -0.206 F 
ATOM     66  C   UNL A   1      35.371  32.072  31.258  1.00  0.00     0.022 A 
BRANCH  63  67
ATOM     67  S   UNL A   1      34.751  32.847  28.655  1.00  0.00     0.124 S 
ATOM     68  O   UNL A   1      35.742  33.301  27.681  1.00  0.00    -0.237 OA
ATOM     69  O   UNL A   1      33.915  31.727  28.239  1.00  0.00    -0.237 OA
ATOM     70  O   UNL A   1      34.053  33.917  29.364  1.00  0.00    -0.744 OA
ENDBRANCH  63  67
ENDBRANCH  46  60
BRANCH  47  71
ATOM     71  C   UNL A   1      46.748  27.765  27.110  1.00  0.00     0.023 A 
ATOM     72  C   UNL A   1      46.863  27.754  25.715  1.00  0.00     0.031 A 
ATOM     73  C   UNL A   1      47.880  27.448  27.883  1.00  0.00     0.131 A 
ATOM     74  C   UNL A   1      48.092  27.439  25.123  1.00  0.00     0.055 A 
ATOM     75  C   UNL A   1      49.109  27.161  27.289  1.00  0.00     0.041 A 
ATOM     76  F   UNL A   1      47.825  27.503  29.222  1.00  0.00    -0.206 F 
ATOM     77  C   UNL A   1      49.219  27.155  25.900  1.00  0.00     0.022 A 
BRANCH  74  78
ATOM     78  S   UNL A   1      48.193  27.421  23.316  1.00  0.00     0.124 S 
ATOM     79  O   UNL A   1      48.120  25.993  23.024  1.00  0.00    -0.237 OA
ATOM     80  O   UNL A   1      47.025  28.212  22.941  1.00  0.00    -0.237 OA
ATOM     81  O   UNL A   1      49.483  28.048  23.042  1.00  0.00    -0.744 OA
ENDBRANCH  74  78
ENDBRANCH  47  71
BRANCH  59  82
ATOM     82  C   UNL A   1      44.658  33.909  29.611  1.00  0.00     0.023 A 
ATOM     83  C   UNL A   1      44.626  34.897  28.611  1.00  0.00     0.031 A 
ATOM     84  C   UNL A   1      45.467  34.125  30.739  1.00  0.00     0.131 A 
ATOM     85  C   UNL A   1      45.449  36.025  28.724  1.00  0.00     0.055 A 
ATOM     86  C   UNL A   1      46.239  35.279  30.873  1.00  0.00     0.041 A 
ATOM     87  F   UNL A   1      45.538  33.205  31.714  1.00  0.00    -0.206 F 
ATOM     88  C   UNL A   1      46.245  36.229  29.854  1.00  0.00     0.022 A 
BRANCH  85  89
ATOM     89  S   UNL A   1      45.548  37.168  27.319  1.00  0.00     0.124 S 
ATOM     90  O   UNL A   1      46.525  36.504  26.461  1.00  0.00    -0.237 OA
ATOM     91  O   UNL A   1      44.175  37.184  26.829  1.00  0.00    -0.237 OA
ATOM     92  O   UNL A   1      46.004  38.417  27.927  1.00  0.00    -0.744 OA
ENDBRANCH  85  89
ENDBRANCH  59  82
ENDBRANCH  33  34
ENDBRANCH  26  28
ENDBRANCH  25  26
ENDBRANCH  24  25
ENDBRANCH   1  24
TORSDOF 18
ENDMDL
MODEL 2
REMARK VINA RESULT:     -11.4      4.921      9.909
REMARK SMILES CCc1ccccc1O[C@H]1CCC[C@@]([NH2+]C)(C(=O)OCCOC(=O)c2ccc(-c3c4nc(c(-c5cc(S(=O)(=O)[O-])ccc5F)c5ccc([nH]5)c(-c5cc(S(=O)(=O)[O-])ccc5F)c5nc(c(-c6cc(S(=O)(=O)[O-])ccc6F)c6ccc3[nH]6)C=C5)C=C4)cc2)C1
REMARK SMILES IDX 20 1 19 2 17 3 18 4 14 5 10 6 11 7 88 8 12 9 13 10 9 11 8 12
REMARK SMILES IDX 3 13 4 14 5 15 7 16 6 17 2 18 1 19 15 20 16 21 21 24 22 25
REMARK SMILES IDX 23 26 24 27 25 28 26 29 87 30 27 31 86 32 28 33 29 34 30 35
REMARK SMILES IDX 80 36 31 37 85 38 79 39 81 40 32 41 84 42 78 43 77 44 33 46
REMARK SMILES IDX 65 47 45 48 64 49 46 50 49 51 63 52 82 53 47 54 48 55 62 57
REMARK SMILES IDX 83 58 50 59 34 60 35 61 43 62 36 63 42 64 44 65 41 66 37 67
REMARK SMILES IDX 38 68 39 69 40 70 66 71 67 72 75 73 68 74 74 75 76 76 73 77
REMARK SMILES IDX 69 78 70 79 71 80 72 81 51 82 52 83 60 84 53 85 59 86 61 87
REMARK SMILES IDX 58 88 54 89 55 90 56 91 57 92
REMARK H PARENT 15 22 15 23 81 45 49 56
REMARK Flexibility Score: inf
ROOT
ATOM      1  C   UNL A   1      32.029  28.532  27.219  1.00  0.00     0.274 C 
ENDROOT
BRANCH   1   2
ATOM      2  O   UNL A   1      31.340  27.823  26.154  1.00  0.00    -0.457 OA
BRANCH   2   3
ATOM      3  C   UNL A   1      31.989  26.703  25.721  1.00  0.00     0.368 C 
ATOM      4  O   UNL A   1      32.539  25.944  26.520  1.00  0.00    -0.245 OA
BRANCH   3   5
ATOM      5  C   UNL A   1      31.924  26.429  24.161  1.00  0.00     0.197 C 
ATOM      6  C   UNL A   1      33.238  24.165  23.338  1.00  0.00     0.180 C 
ATOM      7  C   UNL A   1      31.906  23.764  22.717  1.00  0.00     0.046 C 
ATOM      8  C   UNL A   1      33.210  25.710  23.619  1.00  0.00     0.126 C 
ATOM      9  C   UNL A   1      30.749  24.181  23.619  1.00  0.00     0.011 C 
ATOM     10  C   UNL A   1      30.636  25.698  23.717  1.00  0.00     0.081 C 
BRANCH   6  11
ATOM     11  O   UNL A   1      33.530  23.299  24.469  1.00  0.00    -0.490 OA
BRANCH  11  12
ATOM     12  C   UNL A   1      34.713  22.583  24.544  1.00  0.00     0.122 A 
ATOM     13  C   UNL A   1      34.711  21.221  24.983  1.00  0.00    -0.006 A 
ATOM     14  C   UNL A   1      35.936  20.516  25.032  1.00  0.00     0.007 A 
ATOM     15  C   UNL A   1      37.137  21.111  24.674  1.00  0.00     0.001 A 
ATOM     16  C   UNL A   1      35.946  23.150  24.177  1.00  0.00     0.047 A 
ATOM     17  C   UNL A   1      37.140  22.426  24.243  1.00  0.00     0.004 A 
BRANCH  13  18
ATOM     18  C   UNL A   1      33.480  20.395  25.329  1.00  0.00     0.036 C 
ATOM     19  C   UNL A   1      32.611  19.931  24.144  1.00  0.00     0.009 C 
ENDBRANCH  13  18
ENDBRANCH  11  12
ENDBRANCH   6  11
BRANCH   5  20
ATOM     20  N   UNL A   1      31.765  27.780  23.456  1.00  0.00    -0.334 N 
ATOM     21  C   UNL A   1      30.568  27.988  22.646  1.00  0.00     0.331 C 
ATOM     22  H   UNL A   1      32.572  27.900  22.844  1.00  0.00     0.347 HD
ATOM     23  H   UNL A   1      31.683  28.457  24.214  1.00  0.00     0.347 HD
ENDBRANCH   5  20
ENDBRANCH   3   5
ENDBRANCH   2   3
ENDBRANCH   1   2
BRANCH   1  24
ATOM     24  C   UNL A   1      32.066  30.086  27.132  1.00  0.00     0.275 C 
BRANCH  24  25
ATOM     25  O   UNL A   1      33.290  30.676  26.616  1.00  0.00    -0.458 OA
BRANCH  25  26
ATOM     26  C   UNL A   1      33.765  31.571  27.506  1.00  0.00     0.338 C 
ATOM     27  O   UNL A   1      33.139  32.574  27.797  1.00  0.00    -0.246 OA
BRANCH  26  28
ATOM     28  C   UNL A   1      35.069  31.403  28.158  1.00  0.00     0.060 A 
ATOM     29  C   UNL A   1      36.004  32.434  28.241  1.00  0.00     0.016 A 
ATOM     30  C   UNL A   1      35.506  30.080  28.223  1.00  0.00     0.016 A 
ATOM     31  C   UNL A   1      37.369  32.110  28.373  1.00  0.00     0.010 A 
ATOM     32  C   UNL A   1      36.835  29.750  28.419  1.00  0.00     0.010 A 
ATOM     33  C   UNL A   1      37.782  30.765  28.529  1.00  0.00    -0.014 A 
BRANCH  33  34
ATOM     34  C   UNL A   1      39.060  30.381  29.184  1.00  0.00     0.031 A 
ATOM     35  C   UNL A   1      39.963  29.287  28.670  1.00  0.00     0.074 A 
ATOM     36  C   UNL A   1      39.169  30.816  30.456  1.00  0.00     0.049 A 
ATOM     37  N   UNL A   1      40.951  28.682  29.280  1.00  0.00    -0.248 NA
ATOM     38  C   UNL A   1      39.695  28.773  27.318  1.00  0.00     0.031 C 
ATOM     39  C   UNL A   1      38.230  31.741  31.106  1.00  0.00     0.029 A 
ATOM     40  N   UNL A   1      40.045  30.490  31.454  1.00  0.00    -0.354 N 
ATOM     41  C   UNL A   1      41.411  27.697  28.406  1.00  0.00     0.074 A 
ATOM     42  C   UNL A   1      40.572  27.778  27.226  1.00  0.00     0.031 C 
ATOM     43  C   UNL A   1      38.571  31.905  32.383  1.00  0.00     0.029 A 
ATOM     44  C   UNL A   1      39.716  31.060  32.660  1.00  0.00     0.049 A 
ATOM     45  H   UNL A   1      40.829  29.909  31.322  1.00  0.00     0.167 HD
ATOM     46  C   UNL A   1      42.431  26.815  28.592  1.00  0.00     0.034 A 
ATOM     47  C   UNL A   1      40.247  30.911  33.883  1.00  0.00     0.034 A 
ATOM     48  C   UNL A   1      43.235  26.774  29.799  1.00  0.00     0.049 A 
ATOM     49  C   UNL A   1      41.419  30.009  34.035  1.00  0.00     0.074 A 
ATOM     50  C   UNL A   1      44.398  26.061  30.044  1.00  0.00     0.029 A 
ATOM     51  N   UNL A   1      42.940  27.450  30.979  1.00  0.00    -0.354 N 
ATOM     52  N   UNL A   1      41.940  29.194  33.150  1.00  0.00    -0.248 NA
ATOM     53  C   UNL A   1      42.090  30.028  35.333  1.00  0.00     0.031 C 
ATOM     54  C   UNL A   1      44.762  26.249  31.384  1.00  0.00     0.029 A 
ATOM     55  C   UNL A   1      43.870  27.138  31.961  1.00  0.00     0.049 A 
ATOM     56  H   UNL A   1      42.179  28.062  31.101  1.00  0.00     0.167 HD
ATOM     57  C   UNL A   1      43.017  28.598  33.785  1.00  0.00     0.074 A 
ATOM     58  C   UNL A   1      43.077  29.172  35.120  1.00  0.00     0.031 C 
ATOM     59  C   UNL A   1      43.878  27.668  33.306  1.00  0.00     0.034 A 
BRANCH  46  60
ATOM     60  C   UNL A   1      42.744  25.814  27.492  1.00  0.00     0.023 A 
ATOM     61  C   UNL A   1      42.141  24.545  27.438  1.00  0.00     0.031 A 
ATOM     62  C   UNL A   1      43.620  26.157  26.442  1.00  0.00     0.131 A 
ATOM     63  C   UNL A   1      42.457  23.652  26.398  1.00  0.00     0.055 A 
ATOM     64  C   UNL A   1      43.876  25.293  25.371  1.00  0.00     0.041 A 
ATOM     65  F   UNL A   1      44.243  27.346  26.432  1.00  0.00    -0.206 F 
ATOM     66  C   UNL A   1      43.301  24.027  25.350  1.00  0.00     0.022 A 
BRANCH  63  67
ATOM     67  S   UNL A   1      41.833  21.950  26.487  1.00  0.00     0.124 S 
ATOM     68  O   UNL A   1      42.165  21.584  27.863  1.00  0.00    -0.237 OA
ATOM     69  O   UNL A   1      40.414  22.119  26.198  1.00  0.00    -0.237 OA
ATOM     70  O   UNL A   1      42.599  21.245  25.462  1.00  0.00    -0.744 OA
ENDBRANCH  63  67
ENDBRANCH  46  60
BRANCH  47  71
ATOM     71  C   UNL A   1      39.685  31.713  34.995  1.00  0.00     0.023 A 
ATOM     72  C   UNL A   1      40.185  32.998  35.240  1.00  0.00     0.031 A 
ATOM     73  C   UNL A   1      38.540  31.290  35.695  1.00  0.00     0.131 A 
ATOM     74  C   UNL A   1      39.537  33.830  36.160  1.00  0.00     0.055 A 
ATOM     75  C   UNL A   1      37.882  32.133  36.590  1.00  0.00     0.041 A 
ATOM     76  F   UNL A   1      37.998  30.088  35.447  1.00  0.00    -0.206 F 
ATOM     77  C   UNL A   1      38.382  33.412  36.828  1.00  0.00     0.022 A 
BRANCH  74  78
ATOM     78  S   UNL A   1      40.225  35.478  36.457  1.00  0.00     0.124 S 
ATOM     79  O   UNL A   1      39.493  36.289  35.491  1.00  0.00    -0.237 OA
ATOM     80  O   UNL A   1      39.890  35.695  37.862  1.00  0.00    -0.237 OA
ATOM     81  O   UNL A   1      41.648  35.307  36.177  1.00  0.00    -0.744 OA
ENDBRANCH  74  78
ENDBRANCH  47  71
BRANCH  59  82
ATOM     82  C   UNL A   1      44.947  27.225  34.264  1.00  0.00     0.023 A 
ATOM     83  C   UNL A   1      44.749  26.114  35.102  1.00  0.00     0.031 A 
ATOM     84  C   UNL A   1      46.128  27.971  34.409  1.00  0.00     0.131 A 
ATOM     85  C   UNL A   1      45.686  25.825  36.104  1.00  0.00     0.055 A 
ATOM     86  C   UNL A   1      47.085  27.642  35.369  1.00  0.00     0.041 A 
ATOM     87  F   UNL A   1      46.356  29.046  33.639  1.00  0.00    -0.206 F 
ATOM     88  C   UNL A   1      46.859  26.573  36.233  1.00  0.00     0.022 A 
BRANCH  85  89
ATOM     89  S   UNL A   1      45.295  24.524  37.305  1.00  0.00     0.124 S 
ATOM     90  O   UNL A   1      46.569  24.365  38.000  1.00  0.00    -0.237 OA
ATOM     91  O   UNL A   1      44.216  25.126  38.081  1.00  0.00    -0.237 OA
ATOM     92  O   UNL A   1      44.899  23.393  36.468  1.00  0.00    -0.744 OA
ENDBRANCH  85  89
ENDBRANCH  59  82
ENDBRANCH  33  34
ENDBRANCH  26  28
ENDBRANCH  25  26
ENDBRANCH  24  25
ENDBRANCH   1  24
TORSDOF 18
ENDMDL
MODEL 3
REMARK VINA RESULT:     -11.3      1.846      2.134
REMARK SMILES CCc1ccccc1O[C@H]1CCC[C@@]([NH2+]C)(C(=O)OCCOC(=O)c2ccc(-c3c4nc(c(-c5cc(S(=O)(=O)[O-])ccc5F)c5ccc([nH]5)c(-c5cc(S(=O)(=O)[O-])ccc5F)c5nc(c(-c6cc(S(=O)(=O)[O-])ccc6F)c6ccc3[nH]6)C=C5)C=C4)cc2)C1
REMARK SMILES IDX 20 1 19 2 17 3 18 4 14 5 10 6 11 7 88 8 12 9 13 10 9 11 8 12
REMARK SMILES IDX 3 13 4 14 5 15 7 16 6 17 2 18 1 19 15 20 16 21 21 24 22 25
REMARK SMILES IDX 23 26 24 27 25 28 26 29 87 30 27 31 86 32 28 33 29 34 30 35
REMARK SMILES IDX 80 36 31 37 85 38 79 39 81 40 32 41 84 42 78 43 77 44 33 46
REMARK SMILES IDX 65 47 45 48 64 49 46 50 49 51 63 52 82 53 47 54 48 55 62 57
REMARK SMILES IDX 83 58 50 59 34 60 35 61 43 62 36 63 42 64 44 65 41 66 37 67
REMARK SMILES IDX 38 68 39 69 40 70 66 71 67 72 75 73 68 74 74 75 76 76 73 77
REMARK SMILES IDX 69 78 70 79 71 80 72 81 51 82 52 83 60 84 53 85 59 86 61 87
REMARK SMILES IDX 58 88 54 89 55 90 56 91 57 92
REMARK H PARENT 15 22 15 23 81 45 49 56
REMARK Flexibility Score: inf
ROOT
ATOM      1  C   UNL A   1      36.119  20.257  24.939  1.00  0.00     0.274 C 
ENDROOT
BRANCH   1   2
ATOM      2  O   UNL A   1      35.425  21.454  24.493  1.00  0.00    -0.457 OA
BRANCH   2   3
ATOM      3  C   UNL A   1      34.580  21.986  25.423  1.00  0.00     0.368 C 
ATOM      4  O   UNL A   1      35.016  22.636  26.375  1.00  0.00    -0.245 OA
BRANCH   3   5
ATOM      5  C   UNL A   1      33.033  21.765  25.154  1.00  0.00     0.197 C 
ATOM      6  C   UNL A   1      31.591  24.070  24.790  1.00  0.00     0.180 C 
ATOM      7  C   UNL A   1      31.156  23.446  23.470  1.00  0.00     0.046 C 
ATOM      8  C   UNL A   1      32.148  22.932  25.717  1.00  0.00     0.126 C 
ATOM      9  C   UNL A   1      32.311  22.677  22.836  1.00  0.00     0.011 C 
ATOM     10  C   UNL A   1      32.702  21.465  23.674  1.00  0.00     0.081 C 
BRANCH   6  11
ATOM     11  O   UNL A   1      32.474  25.195  24.530  1.00  0.00    -0.490 OA
BRANCH  11  12
ATOM     12  C   UNL A   1      32.264  26.430  25.120  1.00  0.00     0.122 A 
ATOM     13  C   UNL A   1      31.526  27.446  24.433  1.00  0.00    -0.006 A 
ATOM     14  C   UNL A   1      31.316  28.690  25.073  1.00  0.00     0.007 A 
ATOM     15  C   UNL A   1      31.814  28.953  26.341  1.00  0.00     0.001 A 
ATOM     16  C   UNL A   1      32.743  26.726  26.407  1.00  0.00     0.047 A 
ATOM     17  C   UNL A   1      32.524  27.970  27.009  1.00  0.00     0.004 A 
BRANCH  13  18
ATOM     18  C   UNL A   1      30.841  27.295  23.083  1.00  0.00     0.036 C 
ATOM     19  C   UNL A   1      29.675  28.260  22.793  1.00  0.00     0.009 C 
ENDBRANCH  13  18
ENDBRANCH  11  12
ENDBRANCH   6  11
BRANCH   5  20
ATOM     20  N   UNL A   1      32.625  20.451  25.829  1.00  0.00    -0.334 N 
ATOM     21  C   UNL A   1      32.570  19.249  25.000  1.00  0.00     0.331 C 
ATOM     22  H   UNL A   1      31.697  20.589  26.227  1.00  0.00     0.347 HD
ATOM     23  H   UNL A   1      33.369  20.265  26.501  1.00  0.00     0.347 HD
ENDBRANCH   5  20
ENDBRANCH   3   5
ENDBRANCH   2   3
ENDBRANCH   1   2
BRANCH   1  24
ATOM     24  C   UNL A   1      37.672  20.323  25.024  1.00  0.00     0.275 C 
BRANCH  24  25
ATOM     25  O   UNL A   1      38.248  21.618  25.343  1.00  0.00    -0.458 OA
BRANCH  25  26
ATOM     26  C   UNL A   1      39.424  21.440  25.979  1.00  0.00     0.338 C 
ATOM     27  O   UNL A   1      39.912  20.333  26.118  1.00  0.00    -0.246 OA
BRANCH  26  28
ATOM     28  C   UNL A   1      40.172  22.560  26.560  1.00  0.00     0.060 A 
ATOM     29  C   UNL A   1      41.064  22.398  27.619  1.00  0.00     0.016 A 
ATOM     30  C   UNL A   1      39.581  23.808  26.352  1.00  0.00     0.016 A 
ATOM     31  C   UNL A   1      41.333  23.496  28.461  1.00  0.00     0.010 A 
ATOM     32  C   UNL A   1      39.887  24.909  27.131  1.00  0.00     0.010 A 
ATOM     33  C   UNL A   1      40.795  24.774  28.179  1.00  0.00    -0.014 A 
BRANCH  33  34
ATOM     34  C   UNL A   1      41.416  26.038  28.655  1.00  0.00     0.031 A 
ATOM     35  C   UNL A   1      40.630  27.174  29.260  1.00  0.00     0.074 A 
ATOM     36  C   UNL A   1      42.659  26.245  28.175  1.00  0.00     0.049 A 
ATOM     37  N   UNL A   1      41.002  28.413  29.468  1.00  0.00    -0.248 NA
ATOM     38  C   UNL A   1      39.234  26.902  29.637  1.00  0.00     0.031 C 
ATOM     39  C   UNL A   1      43.434  25.259  27.410  1.00  0.00     0.029 A 
ATOM     40  N   UNL A   1      43.457  27.355  28.175  1.00  0.00    -0.354 N 
ATOM     41  C   UNL A   1      39.887  29.081  29.974  1.00  0.00     0.074 A 
ATOM     42  C   UNL A   1      38.816  28.104  30.021  1.00  0.00     0.031 C 
ATOM     43  C   UNL A   1      44.584  25.801  27.013  1.00  0.00     0.029 A 
ATOM     44  C   UNL A   1      44.608  27.185  27.445  1.00  0.00     0.049 A 
ATOM     45  H   UNL A   1      43.231  28.188  28.649  1.00  0.00     0.167 HD
ATOM     46  C   UNL A   1      39.785  30.385  30.349  1.00  0.00     0.034 A 
ATOM     47  C   UNL A   1      45.583  28.046  27.117  1.00  0.00     0.034 A 
ATOM     48  C   UNL A   1      40.891  31.322  30.273  1.00  0.00     0.049 A 
ATOM     49  C   UNL A   1      45.486  29.442  27.619  1.00  0.00     0.074 A 
ATOM     50  C   UNL A   1      40.974  32.609  30.781  1.00  0.00     0.029 A 
ATOM     51  N   UNL A   1      42.095  31.085  29.618  1.00  0.00    -0.354 N 
ATOM     52  N   UNL A   1      44.483  30.018  28.235  1.00  0.00    -0.248 NA
ATOM     53  C   UNL A   1      46.659  30.289  27.412  1.00  0.00     0.031 C 
ATOM     54  C   UNL A   1      42.192  33.170  30.374  1.00  0.00     0.029 A 
ATOM     55  C   UNL A   1      42.905  32.211  29.673  1.00  0.00     0.049 A 
ATOM     56  H   UNL A   1      42.339  30.239  29.178  1.00  0.00     0.167 HD
ATOM     57  C   UNL A   1      44.905  31.311  28.499  1.00  0.00     0.074 A 
ATOM     58  C   UNL A   1      46.265  31.412  27.994  1.00  0.00     0.031 C 
ATOM     59  C   UNL A   1      44.231  32.317  29.108  1.00  0.00     0.034 A 
BRANCH  46  60
ATOM     60  C   UNL A   1      38.450  30.897  30.864  1.00  0.00     0.023 A 
ATOM     61  C   UNL A   1      37.462  31.413  30.006  1.00  0.00     0.031 A 
ATOM     62  C   UNL A   1      38.133  30.815  32.236  1.00  0.00     0.131 A 
ATOM     63  C   UNL A   1      36.238  31.872  30.526  1.00  0.00     0.055 A 
ATOM     64  C   UNL A   1      36.887  31.205  32.738  1.00  0.00     0.041 A 
ATOM     65  F   UNL A   1      39.030  30.345  33.117  1.00  0.00    -0.206 F 
ATOM     66  C   UNL A   1      35.934  31.747  31.884  1.00  0.00     0.022 A 
BRANCH  63  67
ATOM     67  S   UNL A   1      35.086  32.733  29.419  1.00  0.00     0.124 S 
ATOM     68  O   UNL A   1      34.564  31.629  28.617  1.00  0.00    -0.237 OA
ATOM     69  O   UNL A   1      34.147  33.342  30.353  1.00  0.00    -0.237 OA
ATOM     70  O   UNL A   1      35.940  33.670  28.692  1.00  0.00    -0.744 OA
ENDBRANCH  63  67
ENDBRANCH  46  60
BRANCH  47  71
ATOM     71  C   UNL A   1      46.737  27.536  26.339  1.00  0.00     0.023 A 
ATOM     72  C   UNL A   1      47.811  26.939  27.010  1.00  0.00     0.031 A 
ATOM     73  C   UNL A   1      46.701  27.473  24.934  1.00  0.00     0.131 A 
ATOM     74  C   UNL A   1      48.811  26.290  26.278  1.00  0.00     0.055 A 
ATOM     75  C   UNL A   1      47.686  26.801  24.211  1.00  0.00     0.041 A 
ATOM     76  F   UNL A   1      45.660  27.983  24.258  1.00  0.00    -0.206 F 
ATOM     77  C   UNL A   1      48.751  26.206  24.883  1.00  0.00     0.022 A 
BRANCH  74  78
ATOM     78  S   UNL A   1      50.190  25.545  27.184  1.00  0.00     0.124 S 
ATOM     79  O   UNL A   1      49.598  24.299  27.660  1.00  0.00    -0.237 OA
ATOM     80  O   UNL A   1      51.202  25.415  26.141  1.00  0.00    -0.237 OA
ATOM     81  O   UNL A   1      50.487  26.530  28.221  1.00  0.00    -0.744 OA
ENDBRANCH  74  78
ENDBRANCH  47  71
BRANCH  59  82
ATOM     82  C   UNL A   1      44.984  33.611  29.238  1.00  0.00     0.023 A 
ATOM     83  C   UNL A   1      45.781  33.872  30.366  1.00  0.00     0.031 A 
ATOM     84  C   UNL A   1      44.828  34.625  28.278  1.00  0.00     0.131 A 
ATOM     85  C   UNL A   1      46.334  35.148  30.544  1.00  0.00     0.055 A 
ATOM     86  C   UNL A   1      45.430  35.873  28.433  1.00  0.00     0.041 A 
ATOM     87  F   UNL A   1      44.068  34.425  27.191  1.00  0.00    -0.206 F 
ATOM     88  C   UNL A   1      46.175  36.145  29.578  1.00  0.00     0.022 A 
BRANCH  85  89
ATOM     89  S   UNL A   1      47.170  35.518  32.110  1.00  0.00     0.124 S 
ATOM     90  O   UNL A   1      46.042  35.659  33.026  1.00  0.00    -0.237 OA
ATOM     91  O   UNL A   1      48.007  34.339  32.305  1.00  0.00    -0.237 OA
ATOM     92  O   UNL A   1      47.897  36.754  31.825  1.00  0.00    -0.744 OA
ENDBRANCH  85  89
ENDBRANCH  59  82
ENDBRANCH  33  34
ENDBRANCH  26  28
ENDBRANCH  25  26
ENDBRANCH  24  25
ENDBRANCH   1  24
TORSDOF 18
ENDMDL
