MODEL 1
REMARK VINA RESULT:     -13.1      0.000      0.000
REMARK SMILES C[C@H]1[C@@H](C(=O)OCCOC(=O)c2ccc(-c3c4nc(c(-c5cc(S(=O)(=O)[O-])ccc5F)c5ccc([nH]5)c(-c5cc(S(=O)(=O)[O-])ccc5F)c5nc(c(-c6cc(S(=O)(=O)[O-])ccc6F)c6ccc3[nH]6)C=C5)C=C4)cc2)CCN1C(=O)c1cc2cc(F)ccc2s1
REMARK SMILES IDX 8 1 7 2 6 3 4 4 5 5 3 6 1 7 2 8 77 9 75 10 76 11 78 12 79 13
REMARK SMILES IDX 80 14 81 15 89 16 82 17 88 18 83 19 87 20 84 21 86 22 85 23
REMARK SMILES IDX 9 24 10 25 11 26 12 27 13 28 74 29 14 30 73 31 15 32 16 33
REMARK SMILES IDX 17 34 67 35 18 36 72 37 66 38 68 39 19 40 71 41 65 42 64 43
REMARK SMILES IDX 20 45 52 46 32 47 51 48 33 49 36 50 50 51 69 52 34 53 35 54
REMARK SMILES IDX 49 56 70 57 37 58 21 59 22 60 30 61 23 62 29 63 31 64 28 65
REMARK SMILES IDX 24 66 25 67 26 68 27 69 53 70 54 71 62 72 55 73 61 74 63 75
REMARK SMILES IDX 60 76 56 77 57 78 58 79 59 80 38 81 39 82 47 83 40 84 46 85
REMARK SMILES IDX 48 86 45 87 41 88 42 89 43 90 44 91
REMARK H PARENT 68 44 36 55
REMARK Flexibility Score: inf
ROOT
ATOM      1  C   UNL A   1      35.932  20.938  25.021  1.00  0.00     0.275 C 
ENDROOT
BRANCH   1   2
ATOM      2  C   UNL A   1      34.649  21.716  24.753  1.00  0.00     0.274 C 
BRANCH   2   3
ATOM      3  O   UNL A   1      33.689  21.504  25.806  1.00  0.00    -0.462 OA
BRANCH   3   4
ATOM      4  C   UNL A   1      32.439  21.152  25.438  1.00  0.00     0.311 C 
ATOM      5  O   UNL A   1      32.160  20.090  24.890  1.00  0.00    -0.252 OA
BRANCH   4   6
ATOM      6  C   UNL A   1      31.378  22.195  25.717  1.00  0.00     0.123 C 
ATOM      7  C   UNL A   1      31.419  23.154  23.235  1.00  0.00     0.032 C 
ATOM      8  C   UNL A   1      30.993  23.275  24.689  1.00  0.00     0.096 C 
ATOM      9  N   UNL A   1      31.430  24.549  25.255  1.00  0.00    -0.334 N 
ATOM     10  C   UNL A   1      31.716  23.005  26.977  1.00  0.00     0.039 C 
ATOM     11  C   UNL A   1      32.269  24.299  26.412  1.00  0.00     0.121 C 
BRANCH   9  12
ATOM     12  C   UNL A   1      30.419  25.488  25.414  1.00  0.00     0.264 C 
ATOM     13  O   UNL A   1      29.863  25.636  26.503  1.00  0.00    -0.268 OA
BRANCH  12  14
ATOM     14  C   UNL A   1      30.038  26.245  24.246  1.00  0.00     0.093 A 
ATOM     15  C   UNL A   1      28.757  26.642  23.932  1.00  0.00     0.034 A 
ATOM     16  S   UNL A   1      31.168  26.923  23.166  1.00  0.00    -0.130 S 
ATOM     17  C   UNL A   1      28.775  27.879  23.215  1.00  0.00    -0.004 A 
ATOM     18  C   UNL A   1      30.067  28.191  22.779  1.00  0.00     0.035 A 
ATOM     19  C   UNL A   1      27.746  28.824  23.027  1.00  0.00     0.048 A 
ATOM     20  C   UNL A   1      30.365  29.421  22.166  1.00  0.00     0.022 A 
ATOM     21  C   UNL A   1      28.066  30.075  22.512  1.00  0.00     0.123 A 
ATOM     22  C   UNL A   1      29.351  30.379  22.090  1.00  0.00     0.041 A 
ATOM     23  F   UNL A   1      27.117  31.019  22.464  1.00  0.00    -0.207 F 
ENDBRANCH  12  14
ENDBRANCH   9  12
ENDBRANCH   4   6
ENDBRANCH   3   4
ENDBRANCH   2   3
ENDBRANCH   1   2
BRANCH   1  24
ATOM     24  O   UNL A   1      36.834  21.740  25.797  1.00  0.00    -0.458 OA
BRANCH  24  25
ATOM     25  C   UNL A   1      38.125  21.351  25.765  1.00  0.00     0.338 C 
ATOM     26  O   UNL A   1      38.566  20.253  25.451  1.00  0.00    -0.246 OA
BRANCH  25  27
ATOM     27  C   UNL A   1      38.979  22.478  26.149  1.00  0.00     0.060 A 
ATOM     28  C   UNL A   1      40.234  22.227  26.702  1.00  0.00     0.016 A 
ATOM     29  C   UNL A   1      38.493  23.779  26.055  1.00  0.00     0.016 A 
ATOM     30  C   UNL A   1      40.975  23.271  27.247  1.00  0.00     0.010 A 
ATOM     31  C   UNL A   1      39.284  24.835  26.511  1.00  0.00     0.010 A 
ATOM     32  C   UNL A   1      40.522  24.592  27.136  1.00  0.00    -0.014 A 
BRANCH  32  33
ATOM     33  C   UNL A   1      41.314  25.734  27.671  1.00  0.00     0.031 A 
ATOM     34  C   UNL A   1      40.636  26.776  28.518  1.00  0.00     0.074 A 
ATOM     35  C   UNL A   1      42.618  25.871  27.356  1.00  0.00     0.049 A 
ATOM     36  N   UNL A   1      41.026  27.987  28.820  1.00  0.00    -0.248 NA
ATOM     37  C   UNL A   1      39.329  26.406  29.084  1.00  0.00     0.031 C 
ATOM     38  C   UNL A   1      43.417  24.904  26.601  1.00  0.00     0.029 A 
ATOM     39  N   UNL A   1      43.498  26.894  27.615  1.00  0.00    -0.354 N 
ATOM     40  C   UNL A   1      39.986  28.549  29.555  1.00  0.00     0.074 A 
ATOM     41  C   UNL A   1      38.951  27.541  29.654  1.00  0.00     0.031 C 
ATOM     42  C   UNL A   1      44.665  25.373  26.463  1.00  0.00     0.029 A 
ATOM     43  C   UNL A   1      44.729  26.718  27.023  1.00  0.00     0.049 A 
ATOM     44  H   UNL A   1      43.271  27.676  28.168  1.00  0.00     0.167 HD
ATOM     45  C   UNL A   1      39.906  29.796  30.082  1.00  0.00     0.034 A 
ATOM     46  C   UNL A   1      45.766  27.565  26.880  1.00  0.00     0.034 A 
ATOM     47  C   UNL A   1      40.972  30.766  30.000  1.00  0.00     0.049 A 
ATOM     48  C   UNL A   1      45.640  28.963  27.423  1.00  0.00     0.074 A 
ATOM     49  C   UNL A   1      41.010  32.057  30.500  1.00  0.00     0.029 A 
ATOM     50  N   UNL A   1      42.197  30.547  29.381  1.00  0.00    -0.354 N 
ATOM     51  N   UNL A   1      44.621  29.518  28.037  1.00  0.00    -0.248 NA
ATOM     52  C   UNL A   1      46.793  29.853  27.239  1.00  0.00     0.031 C 
ATOM     53  C   UNL A   1      42.234  32.633  30.142  1.00  0.00     0.029 A 
ATOM     54  C   UNL A   1      42.988  31.682  29.472  1.00  0.00     0.049 A 
ATOM     55  H   UNL A   1      42.465  29.708  28.942  1.00  0.00     0.167 HD
ATOM     56  C   UNL A   1      45.019  30.817  28.332  1.00  0.00     0.074 A 
ATOM     57  C   UNL A   1      46.372  30.962  27.831  1.00  0.00     0.031 C 
ATOM     58  C   UNL A   1      44.332  31.802  28.964  1.00  0.00     0.034 A 
BRANCH  45  59
ATOM     59  C   UNL A   1      38.602  30.202  30.724  1.00  0.00     0.023 A 
ATOM     60  C   UNL A   1      37.590  30.869  30.013  1.00  0.00     0.031 A 
ATOM     61  C   UNL A   1      38.381  29.938  32.089  1.00  0.00     0.131 A 
ATOM     62  C   UNL A   1      36.435  31.306  30.683  1.00  0.00     0.055 A 
ATOM     63  C   UNL A   1      37.199  30.308  32.732  1.00  0.00     0.041 A 
ATOM     64  F   UNL A   1      39.320  29.323  32.826  1.00  0.00    -0.206 F 
ATOM     65  C   UNL A   1      36.223  31.009  32.031  1.00  0.00     0.022 A 
BRANCH  62  66
ATOM     66  S   UNL A   1      35.274  32.385  29.802  1.00  0.00     0.124 S 
ATOM     67  O   UNL A   1      34.342  32.749  30.867  1.00  0.00    -0.237 OA
ATOM     68  O   UNL A   1      36.141  33.452  29.317  1.00  0.00    -0.237 OA
ATOM     69  O   UNL A   1      34.715  31.517  28.767  1.00  0.00    -0.744 OA
ENDBRANCH  62  66
ENDBRANCH  45  59
BRANCH  46  70
ATOM     70  C   UNL A   1      46.974  27.143  26.114  1.00  0.00     0.023 A 
ATOM     71  C   UNL A   1      47.171  27.552  24.787  1.00  0.00     0.031 A 
ATOM     72  C   UNL A   1      47.948  26.317  26.704  1.00  0.00     0.131 A 
ATOM     73  C   UNL A   1      48.305  27.115  24.085  1.00  0.00     0.055 A 
ATOM     74  C   UNL A   1      49.099  25.927  26.018  1.00  0.00     0.041 A 
ATOM     75  F   UNL A   1      47.807  25.899  27.972  1.00  0.00    -0.206 F 
ATOM     76  C   UNL A   1      49.278  26.320  24.696  1.00  0.00     0.022 A 
BRANCH  73  77
ATOM     77  S   UNL A   1      48.464  27.552  22.332  1.00  0.00     0.124 S 
ATOM     78  O   UNL A   1      47.276  28.370  22.120  1.00  0.00    -0.237 OA
ATOM     79  O   UNL A   1      49.742  28.257  22.310  1.00  0.00    -0.237 OA
ATOM     80  O   UNL A   1      48.459  26.256  21.656  1.00  0.00    -0.744 OA
ENDBRANCH  73  77
ENDBRANCH  46  70
BRANCH  58  81
ATOM     81  C   UNL A   1      45.063  33.096  29.201  1.00  0.00     0.023 A 
ATOM     82  C   UNL A   1      44.975  34.171  28.301  1.00  0.00     0.031 A 
ATOM     83  C   UNL A   1      45.856  33.249  30.351  1.00  0.00     0.131 A 
ATOM     84  C   UNL A   1      45.701  35.346  28.551  1.00  0.00     0.055 A 
ATOM     85  C   UNL A   1      46.540  34.434  30.616  1.00  0.00     0.041 A 
ATOM     86  F   UNL A   1      45.970  32.248  31.240  1.00  0.00    -0.206 F 
ATOM     87  C   UNL A   1      46.471  35.489  29.709  1.00  0.00     0.022 A 
BRANCH  84  88
ATOM     88  S   UNL A   1      45.664  36.674  27.317  1.00  0.00     0.124 S 
ATOM     89  O   UNL A   1      44.253  36.704  26.946  1.00  0.00    -0.237 OA
ATOM     90  O   UNL A   1      46.149  37.823  28.074  1.00  0.00    -0.237 OA
ATOM     91  O   UNL A   1      46.570  36.197  26.273  1.00  0.00    -0.744 OA
ENDBRANCH  84  88
ENDBRANCH  58  81
ENDBRANCH  32  33
ENDBRANCH  25  27
ENDBRANCH  24  25
ENDBRANCH   1  24
TORSDOF 16
ENDMDL
MODEL 2
REMARK VINA RESULT:     -13.1      1.333      1.685
REMARK SMILES C[C@H]1[C@@H](C(=O)OCCOC(=O)c2ccc(-c3c4nc(c(-c5cc(S(=O)(=O)[O-])ccc5F)c5ccc([nH]5)c(-c5cc(S(=O)(=O)[O-])ccc5F)c5nc(c(-c6cc(S(=O)(=O)[O-])ccc6F)c6ccc3[nH]6)C=C5)C=C4)cc2)CCN1C(=O)c1cc2cc(F)ccc2s1
REMARK SMILES IDX 8 1 7 2 6 3 4 4 5 5 3 6 1 7 2 8 77 9 75 10 76 11 78 12 79 13
REMARK SMILES IDX 80 14 81 15 89 16 82 17 88 18 83 19 87 20 84 21 86 22 85 23
REMARK SMILES IDX 9 24 10 25 11 26 12 27 13 28 74 29 14 30 73 31 15 32 16 33
REMARK SMILES IDX 17 34 67 35 18 36 72 37 66 38 68 39 19 40 71 41 65 42 64 43
REMARK SMILES IDX 20 45 52 46 32 47 51 48 33 49 36 50 50 51 69 52 34 53 35 54
REMARK SMILES IDX 49 56 70 57 37 58 21 59 22 60 30 61 23 62 29 63 31 64 28 65
REMARK SMILES IDX 24 66 25 67 26 68 27 69 53 70 54 71 62 72 55 73 61 74 63 75
REMARK SMILES IDX 60 76 56 77 57 78 58 79 59 80 38 81 39 82 47 83 40 84 46 85
REMARK SMILES IDX 48 86 45 87 41 88 42 89 43 90 44 91
REMARK H PARENT 68 44 36 55
REMARK Flexibility Score: inf
ROOT
ATOM      1  C   UNL A   1      36.100  21.432  24.591  1.00  0.00     0.275 C 
ENDROOT
BRANCH   1   2
ATOM      2  C   UNL A   1      34.826  20.694  24.980  1.00  0.00     0.274 C 
BRANCH   2   3
ATOM      3  O   UNL A   1      33.789  21.619  25.360  1.00  0.00    -0.462 OA
BRANCH   3   4
ATOM      4  C   UNL A   1      32.522  21.155  25.366  1.00  0.00     0.311 C 
ATOM      5  O   UNL A   1      32.216  19.992  25.121  1.00  0.00    -0.252 OA
BRANCH   4   6
ATOM      6  C   UNL A   1      31.466  22.198  25.667  1.00  0.00     0.123 C 
ATOM      7  C   UNL A   1      31.391  23.097  23.163  1.00  0.00     0.032 C 
ATOM      8  C   UNL A   1      31.029  23.251  24.631  1.00  0.00     0.096 C 
ATOM      9  N   UNL A   1      31.481  24.540  25.147  1.00  0.00    -0.334 N 
ATOM     10  C   UNL A   1      31.854  23.041  26.891  1.00  0.00     0.039 C 
ATOM     11  C   UNL A   1      32.372  24.324  26.271  1.00  0.00     0.121 C 
BRANCH   9  12
ATOM     12  C   UNL A   1      30.471  25.477  25.328  1.00  0.00     0.264 C 
ATOM     13  O   UNL A   1      29.927  25.611  26.424  1.00  0.00    -0.268 OA
BRANCH  12  14
ATOM     14  C   UNL A   1      30.077  26.247  24.172  1.00  0.00     0.093 A 
ATOM     15  C   UNL A   1      28.800  26.688  23.902  1.00  0.00     0.034 A 
ATOM     16  S   UNL A   1      31.193  26.886  23.055  1.00  0.00    -0.130 S 
ATOM     17  C   UNL A   1      28.837  27.923  23.184  1.00  0.00    -0.004 A 
ATOM     18  C   UNL A   1      30.122  28.192  22.704  1.00  0.00     0.035 A 
ATOM     19  C   UNL A   1      27.835  28.903  23.030  1.00  0.00     0.048 A 
ATOM     20  C   UNL A   1      30.442  29.410  22.081  1.00  0.00     0.022 A 
ATOM     21  C   UNL A   1      28.180  30.143  22.503  1.00  0.00     0.123 A 
ATOM     22  C   UNL A   1      29.460  30.403  22.038  1.00  0.00     0.041 A 
ATOM     23  F   UNL A   1      27.263  31.119  22.488  1.00  0.00    -0.207 F 
ENDBRANCH  12  14
ENDBRANCH   9  12
ENDBRANCH   4   6
ENDBRANCH   3   4
ENDBRANCH   2   3
ENDBRANCH   1   2
BRANCH   1  24
ATOM     24  O   UNL A   1      36.801  21.850  25.772  1.00  0.00    -0.458 OA
BRANCH  24  25
ATOM     25  C   UNL A   1      38.120  21.567  25.791  1.00  0.00     0.338 C 
ATOM     26  O   UNL A   1      38.675  20.568  25.352  1.00  0.00    -0.246 OA
BRANCH  25  27
ATOM     27  C   UNL A   1      38.844  22.680  26.411  1.00  0.00     0.060 A 
ATOM     28  C   UNL A   1      38.419  23.987  26.176  1.00  0.00     0.016 A 
ATOM     29  C   UNL A   1      40.003  22.431  27.140  1.00  0.00     0.016 A 
ATOM     30  C   UNL A   1      39.203  25.058  26.595  1.00  0.00     0.010 A 
ATOM     31  C   UNL A   1      40.732  23.508  27.647  1.00  0.00     0.010 A 
ATOM     32  C   UNL A   1      40.356  24.835  27.358  1.00  0.00    -0.014 A 
BRANCH  32  33
ATOM     33  C   UNL A   1      41.190  25.962  27.858  1.00  0.00     0.031 A 
ATOM     34  C   UNL A   1      40.558  27.035  28.705  1.00  0.00     0.074 A 
ATOM     35  C   UNL A   1      42.489  26.059  27.513  1.00  0.00     0.049 A 
ATOM     36  N   UNL A   1      40.987  28.238  28.980  1.00  0.00    -0.248 NA
ATOM     37  C   UNL A   1      39.255  26.708  29.304  1.00  0.00     0.031 C 
ATOM     38  C   UNL A   1      43.245  25.060  26.755  1.00  0.00     0.029 A 
ATOM     39  N   UNL A   1      43.402  27.062  27.737  1.00  0.00    -0.354 N 
ATOM     40  C   UNL A   1      39.980  28.839  29.729  1.00  0.00     0.074 A 
ATOM     41  C   UNL A   1      38.920  27.861  29.865  1.00  0.00     0.031 C 
ATOM     42  C   UNL A   1      44.501  25.493  26.583  1.00  0.00     0.029 A 
ATOM     43  C   UNL A   1      44.614  26.843  27.121  1.00  0.00     0.049 A 
ATOM     44  H   UNL A   1      43.208  27.857  28.283  1.00  0.00     0.167 HD
ATOM     45  C   UNL A   1      39.945  30.095  30.239  1.00  0.00     0.034 A 
ATOM     46  C   UNL A   1      45.670  27.660  26.942  1.00  0.00     0.034 A 
ATOM     47  C   UNL A   1      41.035  31.034  30.119  1.00  0.00     0.049 A 
ATOM     48  C   UNL A   1      45.594  29.069  27.467  1.00  0.00     0.074 A 
ATOM     49  C   UNL A   1      41.119  32.331  30.599  1.00  0.00     0.029 A 
ATOM     50  N   UNL A   1      42.240  30.774  29.477  1.00  0.00    -0.354 N 
ATOM     51  N   UNL A   1      44.604  29.660  28.096  1.00  0.00    -0.248 NA
ATOM     52  C   UNL A   1      46.766  29.924  27.244  1.00  0.00     0.031 C 
ATOM     53  C   UNL A   1      42.349  32.868  30.205  1.00  0.00     0.029 A 
ATOM     54  C   UNL A   1      43.062  31.887  29.534  1.00  0.00     0.049 A 
ATOM     55  H   UNL A   1      42.474  29.921  29.044  1.00  0.00     0.167 HD
ATOM     56  C   UNL A   1      45.044  30.952  28.362  1.00  0.00     0.074 A 
ATOM     57  C   UNL A   1      46.388  31.052  27.829  1.00  0.00     0.031 C 
ATOM     58  C   UNL A   1      44.397  31.964  28.994  1.00  0.00     0.034 A 
BRANCH  45  59
ATOM     59  C   UNL A   1      38.667  30.545  30.904  1.00  0.00     0.023 A 
ATOM     60  C   UNL A   1      37.604  31.112  30.181  1.00  0.00     0.031 A 
ATOM     61  C   UNL A   1      38.525  30.429  32.299  1.00  0.00     0.131 A 
ATOM     62  C   UNL A   1      36.475  31.598  30.861  1.00  0.00     0.055 A 
ATOM     63  C   UNL A   1      37.369  30.846  32.962  1.00  0.00     0.041 A 
ATOM     64  F   UNL A   1      39.516  29.917  33.046  1.00  0.00    -0.206 F 
ATOM     65  C   UNL A   1      36.341  31.448  32.244  1.00  0.00     0.022 A 
BRANCH  62  66
ATOM     66  S   UNL A   1      35.243  32.552  29.933  1.00  0.00     0.124 S 
ATOM     67  O   UNL A   1      35.977  33.782  29.645  1.00  0.00    -0.237 OA
ATOM     68  O   UNL A   1      34.971  31.688  28.791  1.00  0.00    -0.237 OA
ATOM     69  O   UNL A   1      34.139  32.701  30.879  1.00  0.00    -0.744 OA
ENDBRANCH  62  66
ENDBRANCH  45  59
BRANCH  46  70
ATOM     70  C   UNL A   1      46.848  27.195  26.156  1.00  0.00     0.023 A 
ATOM     71  C   UNL A   1      47.956  26.609  26.786  1.00  0.00     0.031 A 
ATOM     72  C   UNL A   1      46.882  27.336  24.757  1.00  0.00     0.131 A 
ATOM     73  C   UNL A   1      49.061  26.206  26.020  1.00  0.00     0.055 A 
ATOM     74  C   UNL A   1      47.961  26.888  23.995  1.00  0.00     0.041 A 
ATOM     75  F   UNL A   1      45.847  27.890  24.105  1.00  0.00    -0.206 F 
ATOM     76  C   UNL A   1      49.064  26.326  24.629  1.00  0.00     0.022 A 
BRANCH  73  77
ATOM     77  S   UNL A   1      50.529  25.574  26.878  1.00  0.00     0.124 S 
ATOM     78  O   UNL A   1      50.941  26.735  27.658  1.00  0.00    -0.237 OA
ATOM     79  O   UNL A   1      49.980  24.454  27.634  1.00  0.00    -0.237 OA
ATOM     80  O   UNL A   1      51.428  25.204  25.786  1.00  0.00    -0.744 OA
ENDBRANCH  73  77
ENDBRANCH  46  70
BRANCH  58  81
ATOM     81  C   UNL A   1      45.168  33.241  29.196  1.00  0.00     0.023 A 
ATOM     82  C   UNL A   1      45.107  34.296  28.271  1.00  0.00     0.031 A 
ATOM     83  C   UNL A   1      45.972  33.397  30.338  1.00  0.00     0.131 A 
ATOM     84  C   UNL A   1      45.869  35.454  28.488  1.00  0.00     0.055 A 
ATOM     85  C   UNL A   1      46.693  34.568  30.570  1.00  0.00     0.041 A 
ATOM     86  F   UNL A   1      46.062  32.415  31.249  1.00  0.00    -0.206 F 
ATOM     87  C   UNL A   1      46.649  35.601  29.638  1.00  0.00     0.022 A 
BRANCH  84  88
ATOM     88  S   UNL A   1      45.864  36.753  27.222  1.00  0.00     0.124 S 
ATOM     89  O   UNL A   1      46.438  36.059  26.074  1.00  0.00    -0.237 OA
ATOM     90  O   UNL A   1      44.448  37.090  27.120  1.00  0.00    -0.237 OA
ATOM     91  O   UNL A   1      46.706  37.798  27.801  1.00  0.00    -0.744 OA
ENDBRANCH  84  88
ENDBRANCH  58  81
ENDBRANCH  32  33
ENDBRANCH  25  27
ENDBRANCH  24  25
ENDBRANCH   1  24
TORSDOF 16
ENDMDL
MODEL 3
REMARK VINA RESULT:     -13.0      5.437     10.238
REMARK SMILES C[C@H]1[C@@H](C(=O)OCCOC(=O)c2ccc(-c3c4nc(c(-c5cc(S(=O)(=O)[O-])ccc5F)c5ccc([nH]5)c(-c5cc(S(=O)(=O)[O-])ccc5F)c5nc(c(-c6cc(S(=O)(=O)[O-])ccc6F)c6ccc3[nH]6)C=C5)C=C4)cc2)CCN1C(=O)c1cc2cc(F)ccc2s1
REMARK SMILES IDX 8 1 7 2 6 3 4 4 5 5 3 6 1 7 2 8 77 9 75 10 76 11 78 12 79 13
REMARK SMILES IDX 80 14 81 15 89 16 82 17 88 18 83 19 87 20 84 21 86 22 85 23
REMARK SMILES IDX 9 24 10 25 11 26 12 27 13 28 74 29 14 30 73 31 15 32 16 33
REMARK SMILES IDX 17 34 67 35 18 36 72 37 66 38 68 39 19 40 71 41 65 42 64 43
REMARK SMILES IDX 20 45 52 46 32 47 51 48 33 49 36 50 50 51 69 52 34 53 35 54
REMARK SMILES IDX 49 56 70 57 37 58 21 59 22 60 30 61 23 62 29 63 31 64 28 65
REMARK SMILES IDX 24 66 25 67 26 68 27 69 53 70 54 71 62 72 55 73 61 74 63 75
REMARK SMILES IDX 60 76 56 77 57 78 58 79 59 80 38 81 39 82 47 83 40 84 46 85
REMARK SMILES IDX 48 86 45 87 41 88 42 89 43 90 44 91
REMARK H PARENT 68 44 36 55
REMARK Flexibility Score: inf
ROOT
ATOM      1  C   UNL A   1      31.576  29.941  25.588  1.00  0.00     0.275 C 
ENDROOT
BRANCH   1   2
ATOM      2  C   UNL A   1      31.329  28.608  24.893  1.00  0.00     0.274 C 
BRANCH   2   3
ATOM      3  O   UNL A   1      31.816  28.635  23.538  1.00  0.00    -0.462 OA
BRANCH   3   4
ATOM      4  C   UNL A   1      31.080  27.993  22.606  1.00  0.00     0.311 C 
ATOM      5  O   UNL A   1      29.953  28.339  22.264  1.00  0.00    -0.252 OA
BRANCH   4   6
ATOM      6  C   UNL A   1      31.734  26.759  22.021  1.00  0.00     0.123 C 
ATOM      7  C   UNL A   1      30.250  25.078  23.454  1.00  0.00     0.032 C 
ATOM      8  C   UNL A   1      31.441  25.342  22.548  1.00  0.00     0.096 C 
ATOM      9  N   UNL A   1      32.679  24.875  23.167  1.00  0.00    -0.334 N 
ATOM     10  C   UNL A   1      33.264  26.858  22.092  1.00  0.00     0.039 C 
ATOM     11  C   UNL A   1      33.608  25.984  23.282  1.00  0.00     0.121 C 
BRANCH   9  12
ATOM     12  C   UNL A   1      33.185  23.697  22.632  1.00  0.00     0.264 C 
ATOM     13  O   UNL A   1      33.651  23.672  21.493  1.00  0.00    -0.268 OA
BRANCH  12  14
ATOM     14  C   UNL A   1      33.106  22.516  23.458  1.00  0.00     0.093 A 
ATOM     15  C   UNL A   1      32.209  21.483  23.293  1.00  0.00     0.034 A 
ATOM     16  S   UNL A   1      34.251  22.142  24.662  1.00  0.00    -0.130 S 
ATOM     17  C   UNL A   1      32.784  20.245  23.717  1.00  0.00    -0.004 A 
ATOM     18  C   UNL A   1      33.961  20.457  24.443  1.00  0.00     0.035 A 
ATOM     19  C   UNL A   1      32.410  18.924  23.399  1.00  0.00     0.048 A 
ATOM     20  C   UNL A   1      34.780  19.391  24.853  1.00  0.00     0.022 A 
ATOM     21  C   UNL A   1      33.273  17.883  23.721  1.00  0.00     0.123 A 
ATOM     22  C   UNL A   1      34.442  18.103  24.432  1.00  0.00     0.041 A 
ATOM     23  F   UNL A   1      32.985  16.646  23.294  1.00  0.00    -0.207 F 
ENDBRANCH  12  14
ENDBRANCH   9  12
ENDBRANCH   4   6
ENDBRANCH   3   4
ENDBRANCH   2   3
ENDBRANCH   1   2
BRANCH   1  24
ATOM     24  O   UNL A   1      32.923  29.991  26.082  1.00  0.00    -0.458 OA
BRANCH  24  25
ATOM     25  C   UNL A   1      33.193  31.013  26.919  1.00  0.00     0.338 C 
ATOM     26  O   UNL A   1      32.462  31.950  27.213  1.00  0.00    -0.246 OA
BRANCH  25  27
ATOM     27  C   UNL A   1      34.534  30.835  27.482  1.00  0.00     0.060 A 
ATOM     28  C   UNL A   1      34.980  29.550  27.791  1.00  0.00     0.016 A 
ATOM     29  C   UNL A   1      35.306  31.949  27.799  1.00  0.00     0.016 A 
ATOM     30  C   UNL A   1      36.165  29.378  28.501  1.00  0.00     0.010 A 
ATOM     31  C   UNL A   1      36.543  31.765  28.420  1.00  0.00     0.010 A 
ATOM     32  C   UNL A   1      36.975  30.480  28.802  1.00  0.00    -0.014 A 
BRANCH  32  33
ATOM     33  C   UNL A   1      38.269  30.322  29.522  1.00  0.00     0.031 A 
ATOM     34  C   UNL A   1      39.347  29.454  28.929  1.00  0.00     0.074 A 
ATOM     35  C   UNL A   1      38.461  30.904  30.722  1.00  0.00     0.049 A 
ATOM     36  N   UNL A   1      40.396  28.924  29.501  1.00  0.00    -0.248 NA
ATOM     37  C   UNL A   1      39.206  29.124  27.502  1.00  0.00     0.031 C 
ATOM     38  C   UNL A   1      37.530  31.823  31.381  1.00  0.00     0.029 A 
ATOM     39  N   UNL A   1      39.499  30.790  31.616  1.00  0.00    -0.354 N 
ATOM     40  C   UNL A   1      41.007  28.144  28.524  1.00  0.00     0.074 A 
ATOM     41  C   UNL A   1      40.209  28.276  27.323  1.00  0.00     0.031 C 
ATOM     42  C   UNL A   1      38.039  32.192  32.565  1.00  0.00     0.029 A 
ATOM     43  C   UNL A   1      39.276  31.458  32.799  1.00  0.00     0.049 A 
ATOM     44  H   UNL A   1      40.320  30.281  31.428  1.00  0.00     0.167 HD
ATOM     45  C   UNL A   1      42.123  27.381  28.632  1.00  0.00     0.034 A 
ATOM     46  C   UNL A   1      39.946  31.427  33.967  1.00  0.00     0.034 A 
ATOM     47  C   UNL A   1      42.920  27.301  29.833  1.00  0.00     0.049 A 
ATOM     48  C   UNL A   1      41.151  30.533  34.087  1.00  0.00     0.074 A 
ATOM     49  C   UNL A   1      44.073  26.568  30.061  1.00  0.00     0.029 A 
ATOM     50  N   UNL A   1      42.650  27.986  31.012  1.00  0.00    -0.354 N 
ATOM     51  N   UNL A   1      41.672  29.729  33.190  1.00  0.00    -0.248 NA
ATOM     52  C   UNL A   1      41.846  30.528  35.380  1.00  0.00     0.031 C 
ATOM     53  C   UNL A   1      44.470  26.771  31.387  1.00  0.00     0.029 A 
ATOM     54  C   UNL A   1      43.602  27.680  31.971  1.00  0.00     0.049 A 
ATOM     55  H   UNL A   1      41.892  28.600  31.145  1.00  0.00     0.167 HD
ATOM     56  C   UNL A   1      42.770  29.138  33.804  1.00  0.00     0.074 A 
ATOM     57  C   UNL A   1      42.838  29.680  35.147  1.00  0.00     0.031 C 
ATOM     58  C   UNL A   1      43.647  28.232  33.303  1.00  0.00     0.034 A 
BRANCH  45  59
ATOM     59  C   UNL A   1      42.501  26.521  27.450  1.00  0.00     0.023 A 
ATOM     60  C   UNL A   1      42.062  25.193  27.317  1.00  0.00     0.031 A 
ATOM     61  C   UNL A   1      43.343  27.039  26.449  1.00  0.00     0.131 A 
ATOM     62  C   UNL A   1      42.518  24.410  26.244  1.00  0.00     0.055 A 
ATOM     63  C   UNL A   1      43.733  26.279  25.345  1.00  0.00     0.041 A 
ATOM     64  F   UNL A   1      43.813  28.294  26.532  1.00  0.00    -0.206 F 
ATOM     65  C   UNL A   1      43.332  24.950  25.246  1.00  0.00     0.022 A 
BRANCH  62  66
ATOM     66  S   UNL A   1      42.144  22.635  26.242  1.00  0.00     0.124 S 
ATOM     67  O   UNL A   1      42.641  22.226  27.554  1.00  0.00    -0.237 OA
ATOM     68  O   UNL A   1      40.697  22.618  26.073  1.00  0.00    -0.237 OA
ATOM     69  O   UNL A   1      42.911  22.123  25.108  1.00  0.00    -0.744 OA
ENDBRANCH  62  66
ENDBRANCH  45  59
BRANCH  46  70
ATOM     70  C   UNL A   1      39.439  32.197  35.139  1.00  0.00     0.023 A 
ATOM     71  C   UNL A   1      39.875  33.506  35.391  1.00  0.00     0.031 A 
ATOM     72  C   UNL A   1      38.511  31.626  36.029  1.00  0.00     0.131 A 
ATOM     73  C   UNL A   1      39.398  34.195  36.518  1.00  0.00     0.055 A 
ATOM     74  C   UNL A   1      38.002  32.333  37.119  1.00  0.00     0.041 A 
ATOM     75  F   UNL A   1      38.062  30.376  35.833  1.00  0.00    -0.206 F 
ATOM     76  C   UNL A   1      38.454  33.623  37.373  1.00  0.00     0.022 A 
BRANCH  73  77
ATOM     77  S   UNL A   1      40.080  35.834  36.887  1.00  0.00     0.124 S 
ATOM     78  O   UNL A   1      41.504  35.545  37.005  1.00  0.00    -0.237 OA
ATOM     79  O   UNL A   1      39.676  36.602  35.714  1.00  0.00    -0.237 OA
ATOM     80  O   UNL A   1      39.412  36.207  38.133  1.00  0.00    -0.744 OA
ENDBRANCH  73  77
ENDBRANCH  46  70
BRANCH  58  81
ATOM     81  C   UNL A   1      44.789  27.826  34.196  1.00  0.00     0.023 A 
ATOM     82  C   UNL A   1      44.693  26.728  35.066  1.00  0.00     0.031 A 
ATOM     83  C   UNL A   1      45.991  28.554  34.166  1.00  0.00     0.131 A 
ATOM     84  C   UNL A   1      45.774  26.408  35.902  1.00  0.00     0.055 A 
ATOM     85  C   UNL A   1      47.077  28.205  34.968  1.00  0.00     0.041 A 
ATOM     86  F   UNL A   1      46.129  29.612  33.351  1.00  0.00    -0.206 F 
ATOM     87  C   UNL A   1      46.969  27.131  35.848  1.00  0.00     0.022 A 
BRANCH  84  88
ATOM     88  S   UNL A   1      45.583  25.059  37.099  1.00  0.00     0.124 S 
ATOM     89  O   UNL A   1      46.639  24.140  36.689  1.00  0.00    -0.237 OA
ATOM     90  O   UNL A   1      45.787  25.737  38.375  1.00  0.00    -0.237 OA
ATOM     91  O   UNL A   1      44.220  24.584  36.865  1.00  0.00    -0.744 OA
ENDBRANCH  84  88
ENDBRANCH  58  81
ENDBRANCH  32  33
ENDBRANCH  25  27
ENDBRANCH  24  25
ENDBRANCH   1  24
TORSDOF 16
ENDMDL
