MODEL 1
REMARK VINA RESULT:     -11.8      0.000      0.000
REMARK SMILES CC[C@@H]1SC[C@@H](C(=O)OCCOC(=O)c2ccc(-c3c4nc(c(-c5cc(S(=O)(=O)[O-])ccc5F)c5ccc([nH]5)c(-c5cc(S(=O)(=O)[O-])ccc5F)c5nc(c(-c6cc(S(=O)(=O)[O-])ccc6F)c6ccc3[nH]6)C=C5)C=C4)cc2)N1C(=O)c1nc(C(C)(C)C)n[nH]1
REMARK SMILES IDX 10 1 9 2 7 3 8 4 6 5 3 6 4 7 78 8 5 9 2 10 1 11 79 12 80 13
REMARK SMILES IDX 81 14 82 15 89 16 83 17 88 18 84 20 85 21 86 22 87 23 11 24
REMARK SMILES IDX 12 25 13 26 14 27 15 28 16 29 77 30 17 31 76 32 18 33 19 34
REMARK SMILES IDX 20 35 70 36 21 37 75 38 69 39 71 40 22 41 74 42 68 43 67 44
REMARK SMILES IDX 23 46 55 47 35 48 54 49 36 50 39 51 53 52 72 53 37 54 38 55
REMARK SMILES IDX 52 57 73 58 40 59 24 60 25 61 33 62 26 63 32 64 34 65 31 66
REMARK SMILES IDX 27 67 28 68 29 69 30 70 56 71 57 72 65 73 58 74 64 75 66 76
REMARK SMILES IDX 63 77 59 78 60 79 61 80 62 81 41 82 42 83 50 84 43 85 49 86
REMARK SMILES IDX 51 87 48 88 44 89 45 90 46 91 47 92
REMARK H PARENT 89 19 71 45 39 56
REMARK Flexibility Score: inf
ROOT
ATOM      1  C   UNL A   1      37.021  22.984  23.796  1.00  0.00     0.274 C 
ENDROOT
BRANCH   1   2
ATOM      2  O   UNL A   1      35.959  22.944  22.823  1.00  0.00    -0.461 OA
BRANCH   2   3
ATOM      3  C   UNL A   1      34.776  23.501  23.204  1.00  0.00     0.329 C 
ATOM      4  O   UNL A   1      34.624  24.690  23.471  1.00  0.00    -0.250 OA
BRANCH   3   5
ATOM      5  C   UNL A   1      33.642  22.473  23.369  1.00  0.00     0.206 C 
ATOM      6  C   UNL A   1      31.941  23.274  24.966  1.00  0.00     0.144 C 
ATOM      7  S   UNL A   1      31.508  23.989  23.318  1.00  0.00    -0.134 SA
ATOM      8  N   UNL A   1      33.049  22.355  24.712  1.00  0.00    -0.309 N 
ATOM      9  C   UNL A   1      32.532  22.818  22.395  1.00  0.00     0.109 C 
BRANCH   6  10
ATOM     10  C   UNL A   1      30.651  22.686  25.571  1.00  0.00     0.033 C 
ATOM     11  C   UNL A   1      30.274  23.162  26.968  1.00  0.00     0.007 C 
ENDBRANCH   6  10
BRANCH   8  12
ATOM     12  C   UNL A   1      33.616  21.439  25.594  1.00  0.00     0.292 C 
ATOM     13  O   UNL A   1      34.405  21.842  26.453  1.00  0.00    -0.265 OA
BRANCH  12  14
ATOM     14  C   UNL A   1      33.399  20.024  25.432  1.00  0.00     0.214 A 
ATOM     15  N   UNL A   1      34.261  19.078  25.100  1.00  0.00    -0.207 NA
ATOM     16  N   UNL A   1      32.163  19.462  25.583  1.00  0.00    -0.255 N 
ATOM     17  C   UNL A   1      33.478  17.942  25.064  1.00  0.00     0.156 A 
ATOM     18  N   UNL A   1      32.211  18.132  25.451  1.00  0.00    -0.158 NA
ATOM     19  H   UNL A   1      31.342  19.973  25.765  1.00  0.00     0.192 HD
BRANCH  17  20
ATOM     20  C   UNL A   1      33.959  16.595  24.583  1.00  0.00     0.024 C 
ATOM     21  C   UNL A   1      32.945  15.509  25.000  1.00  0.00     0.019 C 
ATOM     22  C   UNL A   1      34.096  16.562  23.049  1.00  0.00     0.019 C 
ATOM     23  C   UNL A   1      35.331  16.258  25.200  1.00  0.00     0.019 C 
ENDBRANCH  17  20
ENDBRANCH  12  14
ENDBRANCH   8  12
ENDBRANCH   3   5
ENDBRANCH   2   3
ENDBRANCH   1   2
BRANCH   1  24
ATOM     24  C   UNL A   1      37.220  21.623  24.460  1.00  0.00     0.275 C 
BRANCH  24  25
ATOM     25  O   UNL A   1      37.593  21.777  25.838  1.00  0.00    -0.458 OA
BRANCH  25  26
ATOM     26  C   UNL A   1      38.911  21.587  26.090  1.00  0.00     0.338 C 
ATOM     27  O   UNL A   1      39.582  20.608  25.822  1.00  0.00    -0.246 OA
BRANCH  26  28
ATOM     28  C   UNL A   1      39.457  22.802  26.704  1.00  0.00     0.060 A 
ATOM     29  C   UNL A   1      38.932  24.037  26.325  1.00  0.00     0.016 A 
ATOM     30  C   UNL A   1      40.554  22.726  27.561  1.00  0.00     0.016 A 
ATOM     31  C   UNL A   1      39.537  25.212  26.758  1.00  0.00     0.010 A 
ATOM     32  C   UNL A   1      41.132  23.909  28.032  1.00  0.00     0.010 A 
ATOM     33  C   UNL A   1      40.644  25.160  27.613  1.00  0.00    -0.014 A 
BRANCH  33  34
ATOM     34  C   UNL A   1      41.326  26.414  28.018  1.00  0.00     0.031 A 
ATOM     35  C   UNL A   1      40.569  27.462  28.786  1.00  0.00     0.074 A 
ATOM     36  C   UNL A   1      42.623  26.603  27.711  1.00  0.00     0.049 A 
ATOM     37  N   UNL A   1      40.940  28.668  29.129  1.00  0.00    -0.248 NA
ATOM     38  C   UNL A   1      39.209  27.102  29.214  1.00  0.00     0.031 C 
ATOM     39  C   UNL A   1      43.475  25.635  27.018  1.00  0.00     0.029 A 
ATOM     40  N   UNL A   1      43.451  27.672  27.941  1.00  0.00    -0.354 N 
ATOM     41  C   UNL A   1      39.848  29.228  29.786  1.00  0.00     0.074 A 
ATOM     42  C   UNL A   1      38.796  28.231  29.771  1.00  0.00     0.031 C 
ATOM     43  C   UNL A   1      44.708  26.151  26.889  1.00  0.00     0.029 A 
ATOM     44  C   UNL A   1      44.717  27.506  27.430  1.00  0.00     0.049 A 
ATOM     45  H   UNL A   1      43.166  28.479  28.426  1.00  0.00     0.167 HD
ATOM     46  C   UNL A   1      39.738  30.459  30.345  1.00  0.00     0.034 A 
ATOM     47  C   UNL A   1      45.753  28.363  27.370  1.00  0.00     0.034 A 
ATOM     48  C   UNL A   1      40.805  31.431  30.364  1.00  0.00     0.049 A 
ATOM     49  C   UNL A   1      45.585  29.749  27.935  1.00  0.00     0.074 A 
ATOM     50  C   UNL A   1      40.813  32.695  30.926  1.00  0.00     0.029 A 
ATOM     51  N   UNL A   1      42.056  31.248  29.786  1.00  0.00    -0.354 N 
ATOM     52  N   UNL A   1      44.538  30.279  28.525  1.00  0.00    -0.248 NA
ATOM     53  C   UNL A   1      46.735  30.654  27.816  1.00  0.00     0.031 C 
ATOM     54  C   UNL A   1      42.043  33.299  30.635  1.00  0.00     0.029 A 
ATOM     55  C   UNL A   1      42.830  32.387  29.950  1.00  0.00     0.049 A 
ATOM     56  H   UNL A   1      42.351  30.429  29.327  1.00  0.00     0.167 HD
ATOM     57  C   UNL A   1      44.912  31.576  28.863  1.00  0.00     0.074 A 
ATOM     58  C   UNL A   1      46.284  31.740  28.425  1.00  0.00     0.031 C 
ATOM     59  C   UNL A   1      44.188  32.544  29.483  1.00  0.00     0.034 A 
BRANCH  46  60
ATOM     60  C   UNL A   1      38.394  30.838  30.921  1.00  0.00     0.023 A 
ATOM     61  C   UNL A   1      37.389  31.436  30.141  1.00  0.00     0.031 A 
ATOM     62  C   UNL A   1      38.132  30.637  32.288  1.00  0.00     0.131 A 
ATOM     63  C   UNL A   1      36.205  31.883  30.747  1.00  0.00     0.055 A 
ATOM     64  C   UNL A   1      36.920  31.014  32.871  1.00  0.00     0.041 A 
ATOM     65  F   UNL A   1      39.060  30.088  33.088  1.00  0.00    -0.206 F 
ATOM     66  C   UNL A   1      35.954  31.656  32.103  1.00  0.00     0.022 A 
BRANCH  63  67
ATOM     67  S   UNL A   1      35.060  32.899  29.772  1.00  0.00     0.124 S 
ATOM     68  O   UNL A   1      34.505  31.916  28.847  1.00  0.00    -0.237 OA
ATOM     69  O   UNL A   1      34.147  33.406  30.790  1.00  0.00    -0.237 OA
ATOM     70  O   UNL A   1      35.929  33.901  29.158  1.00  0.00    -0.744 OA
ENDBRANCH  63  67
ENDBRANCH  46  60
BRANCH  47  71
ATOM     71  C   UNL A   1      47.023  27.961  26.703  1.00  0.00     0.023 A 
ATOM     72  C   UNL A   1      47.157  28.018  25.308  1.00  0.00     0.031 A 
ATOM     73  C   UNL A   1      48.113  27.486  27.454  1.00  0.00     0.131 A 
ATOM     74  C   UNL A   1      48.345  27.578  24.703  1.00  0.00     0.055 A 
ATOM     75  C   UNL A   1      49.308  27.093  26.852  1.00  0.00     0.041 A 
ATOM     76  F   UNL A   1      48.035  27.413  28.793  1.00  0.00    -0.206 F 
ATOM     77  C   UNL A   1      49.425  27.128  25.466  1.00  0.00     0.022 A 
BRANCH  74  78
ATOM     78  S   UNL A   1      48.437  27.545  22.892  1.00  0.00     0.124 S 
ATOM     79  O   UNL A   1      49.711  28.211  22.646  1.00  0.00    -0.237 OA
ATOM     80  O   UNL A   1      48.396  26.114  22.612  1.00  0.00    -0.237 OA
ATOM     81  O   UNL A   1      47.251  28.292  22.478  1.00  0.00    -0.744 OA
ENDBRANCH  74  78
ENDBRANCH  47  71
BRANCH  59  82
ATOM     82  C   UNL A   1      44.893  33.850  29.747  1.00  0.00     0.023 A 
ATOM     83  C   UNL A   1      44.839  34.915  28.830  1.00  0.00     0.031 A 
ATOM     84  C   UNL A   1      45.652  34.020  30.918  1.00  0.00     0.131 A 
ATOM     85  C   UNL A   1      45.577  36.083  29.074  1.00  0.00     0.055 A 
ATOM     86  C   UNL A   1      46.340  35.205  31.181  1.00  0.00     0.041 A 
ATOM     87  F   UNL A   1      45.739  33.034  31.825  1.00  0.00    -0.206 F 
ATOM     88  C   UNL A   1      46.316  36.240  30.249  1.00  0.00     0.022 A 
BRANCH  85  89
ATOM     89  S   UNL A   1      45.633  37.364  27.789  1.00  0.00     0.124 S 
ATOM     90  O   UNL A   1      46.726  36.897  26.943  1.00  0.00    -0.237 OA
ATOM     91  O   UNL A   1      44.297  37.281  27.209  1.00  0.00    -0.237 OA
ATOM     92  O   UNL A   1      45.907  38.589  28.538  1.00  0.00    -0.744 OA
ENDBRANCH  85  89
ENDBRANCH  59  82
ENDBRANCH  33  34
ENDBRANCH  26  28
ENDBRANCH  25  26
ENDBRANCH  24  25
ENDBRANCH   1  24
TORSDOF 18
ENDMDL
MODEL 2
REMARK VINA RESULT:     -11.6      1.789      3.604
REMARK SMILES CC[C@@H]1SC[C@@H](C(=O)OCCOC(=O)c2ccc(-c3c4nc(c(-c5cc(S(=O)(=O)[O-])ccc5F)c5ccc([nH]5)c(-c5cc(S(=O)(=O)[O-])ccc5F)c5nc(c(-c6cc(S(=O)(=O)[O-])ccc6F)c6ccc3[nH]6)C=C5)C=C4)cc2)N1C(=O)c1nc(C(C)(C)C)n[nH]1
REMARK SMILES IDX 10 1 9 2 7 3 8 4 6 5 3 6 4 7 78 8 5 9 2 10 1 11 79 12 80 13
REMARK SMILES IDX 81 14 82 15 89 16 83 17 88 18 84 20 85 21 86 22 87 23 11 24
REMARK SMILES IDX 12 25 13 26 14 27 15 28 16 29 77 30 17 31 76 32 18 33 19 34
REMARK SMILES IDX 20 35 70 36 21 37 75 38 69 39 71 40 22 41 74 42 68 43 67 44
REMARK SMILES IDX 23 46 55 47 35 48 54 49 36 50 39 51 53 52 72 53 37 54 38 55
REMARK SMILES IDX 52 57 73 58 40 59 24 60 25 61 33 62 26 63 32 64 34 65 31 66
REMARK SMILES IDX 27 67 28 68 29 69 30 70 56 71 57 72 65 73 58 74 64 75 66 76
REMARK SMILES IDX 63 77 59 78 60 79 61 80 62 81 41 82 42 83 50 84 43 85 49 86
REMARK SMILES IDX 51 87 48 88 44 89 45 90 46 91 47 92
REMARK H PARENT 89 19 71 45 39 56
REMARK Flexibility Score: inf
ROOT
ATOM      1  C   UNL A   1      36.001  21.059  24.564  1.00  0.00     0.274 C 
ENDROOT
BRANCH   1   2
ATOM      2  O   UNL A   1      34.966  20.761  25.521  1.00  0.00    -0.461 OA
BRANCH   2   3
ATOM      3  C   UNL A   1      34.343  21.833  26.085  1.00  0.00     0.329 C 
ATOM      4  O   UNL A   1      34.917  22.711  26.723  1.00  0.00    -0.250 OA
BRANCH   3   5
ATOM      5  C   UNL A   1      32.811  21.796  25.935  1.00  0.00     0.206 C 
ATOM      6  C   UNL A   1      32.063  23.262  24.096  1.00  0.00     0.144 C 
ATOM      7  S   UNL A   1      32.514  21.637  23.338  1.00  0.00    -0.134 SA
ATOM      8  N   UNL A   1      32.157  23.056  25.540  1.00  0.00    -0.309 N 
ATOM      9  C   UNL A   1      32.452  20.740  24.908  1.00  0.00     0.109 C 
BRANCH   6  10
ATOM     10  C   UNL A   1      30.695  23.679  23.522  1.00  0.00     0.033 C 
ATOM     11  C   UNL A   1      30.561  25.125  23.062  1.00  0.00     0.007 C 
ENDBRANCH   6  10
BRANCH   8  12
ATOM     12  C   UNL A   1      31.747  23.920  26.552  1.00  0.00     0.292 C 
ATOM     13  O   UNL A   1      31.224  23.452  27.567  1.00  0.00    -0.265 OA
BRANCH  12  14
ATOM     14  C   UNL A   1      31.802  25.349  26.373  1.00  0.00     0.214 A 
ATOM     15  N   UNL A   1      32.830  26.112  26.045  1.00  0.00    -0.207 NA
ATOM     16  N   UNL A   1      30.709  26.142  26.576  1.00  0.00    -0.255 N 
ATOM     17  C   UNL A   1      32.292  27.383  26.064  1.00  0.00     0.156 A 
ATOM     18  N   UNL A   1      30.974  27.422  26.289  1.00  0.00    -0.158 NA
ATOM     19  H   UNL A   1      29.837  25.814  26.892  1.00  0.00     0.192 HD
BRANCH  17  20
ATOM     20  C   UNL A   1      33.099  28.648  25.904  1.00  0.00     0.024 C 
ATOM     21  C   UNL A   1      34.295  28.621  26.880  1.00  0.00     0.019 C 
ATOM     22  C   UNL A   1      33.650  28.787  24.472  1.00  0.00     0.019 C 
ATOM     23  C   UNL A   1      32.233  29.885  26.214  1.00  0.00     0.019 C 
ENDBRANCH  17  20
ENDBRANCH  12  14
ENDBRANCH   8  12
ENDBRANCH   3   5
ENDBRANCH   2   3
ENDBRANCH   1   2
BRANCH   1  24
ATOM     24  C   UNL A   1      37.353  20.510  25.015  1.00  0.00     0.275 C 
BRANCH  24  25
ATOM     25  O   UNL A   1      37.883  21.286  26.101  1.00  0.00    -0.458 OA
BRANCH  25  26
ATOM     26  C   UNL A   1      39.230  21.227  26.231  1.00  0.00     0.338 C 
ATOM     27  O   UNL A   1      39.965  20.313  25.908  1.00  0.00    -0.246 OA
BRANCH  26  28
ATOM     28  C   UNL A   1      39.711  22.496  26.788  1.00  0.00     0.060 A 
ATOM     29  C   UNL A   1      39.270  23.687  26.212  1.00  0.00     0.016 A 
ATOM     30  C   UNL A   1      40.676  22.504  27.794  1.00  0.00     0.016 A 
ATOM     31  C   UNL A   1      39.833  24.898  26.602  1.00  0.00     0.010 A 
ATOM     32  C   UNL A   1      41.207  23.727  28.217  1.00  0.00     0.010 A 
ATOM     33  C   UNL A   1      40.809  24.929  27.605  1.00  0.00    -0.014 A 
BRANCH  33  34
ATOM     34  C   UNL A   1      41.454  26.215  27.971  1.00  0.00     0.031 A 
ATOM     35  C   UNL A   1      40.669  27.261  28.713  1.00  0.00     0.074 A 
ATOM     36  C   UNL A   1      42.742  26.435  27.650  1.00  0.00     0.049 A 
ATOM     37  N   UNL A   1      41.003  28.487  29.020  1.00  0.00    -0.248 NA
ATOM     38  C   UNL A   1      39.323  26.872  29.160  1.00  0.00     0.031 C 
ATOM     39  C   UNL A   1      43.621  25.474  26.979  1.00  0.00     0.029 A 
ATOM     40  N   UNL A   1      43.538  27.535  27.844  1.00  0.00    -0.354 N 
ATOM     41  C   UNL A   1      39.899  29.031  29.667  1.00  0.00     0.074 A 
ATOM     42  C   UNL A   1      38.878  28.003  29.688  1.00  0.00     0.031 C 
ATOM     43  C   UNL A   1      44.836  26.024  26.827  1.00  0.00     0.029 A 
ATOM     44  C   UNL A   1      44.805  27.394  27.330  1.00  0.00     0.049 A 
ATOM     45  H   UNL A   1      43.231  28.347  28.307  1.00  0.00     0.167 HD
ATOM     46  C   UNL A   1      39.753  30.274  30.192  1.00  0.00     0.034 A 
ATOM     47  C   UNL A   1      45.815  28.281  27.239  1.00  0.00     0.034 A 
ATOM     48  C   UNL A   1      40.790  31.279  30.176  1.00  0.00     0.049 A 
ATOM     49  C   UNL A   1      45.606  29.676  27.765  1.00  0.00     0.074 A 
ATOM     50  C   UNL A   1      40.762  32.558  30.702  1.00  0.00     0.029 A 
ATOM     51  N   UNL A   1      42.043  31.118  29.595  1.00  0.00    -0.354 N 
ATOM     52  N   UNL A   1      44.547  30.190  28.347  1.00  0.00    -0.248 NA
ATOM     53  C   UNL A   1      46.727  30.613  27.614  1.00  0.00     0.031 C 
ATOM     54  C   UNL A   1      41.971  33.191  30.386  1.00  0.00     0.029 A 
ATOM     55  C   UNL A   1      42.782  32.285  29.722  1.00  0.00     0.049 A 
ATOM     56  H   UNL A   1      42.360  30.296  29.158  1.00  0.00     0.167 HD
ATOM     57  C   UNL A   1      44.882  31.507  28.646  1.00  0.00     0.074 A 
ATOM     58  C   UNL A   1      46.246  31.701  28.195  1.00  0.00     0.031 C 
ATOM     59  C   UNL A   1      44.132  32.470  29.242  1.00  0.00     0.034 A 
BRANCH  46  60
ATOM     60  C   UNL A   1      38.402  30.627  30.765  1.00  0.00     0.023 A 
ATOM     61  C   UNL A   1      37.407  31.260  29.998  1.00  0.00     0.031 A 
ATOM     62  C   UNL A   1      38.121  30.368  32.118  1.00  0.00     0.131 A 
ATOM     63  C   UNL A   1      36.214  31.679  30.607  1.00  0.00     0.055 A 
ATOM     64  C   UNL A   1      36.901  30.718  32.700  1.00  0.00     0.041 A 
ATOM     65  F   UNL A   1      39.039  29.784  32.906  1.00  0.00    -0.206 F 
ATOM     66  C   UNL A   1      35.945  31.393  31.948  1.00  0.00     0.022 A 
BRANCH  63  67
ATOM     67  S   UNL A   1      35.083  32.737  29.662  1.00  0.00     0.124 S 
ATOM     68  O   UNL A   1      34.360  31.755  28.858  1.00  0.00    -0.237 OA
ATOM     69  O   UNL A   1      34.314  33.392  30.713  1.00  0.00    -0.237 OA
ATOM     70  O   UNL A   1      35.979  33.611  28.908  1.00  0.00    -0.744 OA
ENDBRANCH  63  67
ENDBRANCH  46  60
BRANCH  47  71
ATOM     71  C   UNL A   1      47.092  27.899  26.575  1.00  0.00     0.023 A 
ATOM     72  C   UNL A   1      47.226  27.949  25.180  1.00  0.00     0.031 A 
ATOM     73  C   UNL A   1      48.191  27.451  27.331  1.00  0.00     0.131 A 
ATOM     74  C   UNL A   1      48.423  27.527  24.579  1.00  0.00     0.055 A 
ATOM     75  C   UNL A   1      49.395  27.077  26.732  1.00  0.00     0.041 A 
ATOM     76  F   UNL A   1      48.113  27.387  28.670  1.00  0.00    -0.206 F 
ATOM     77  C   UNL A   1      49.511  27.105  25.346  1.00  0.00     0.022 A 
BRANCH  74  78
ATOM     78  S   UNL A   1      48.517  27.483  22.769  1.00  0.00     0.124 S 
ATOM     79  O   UNL A   1      47.299  28.189  22.389  1.00  0.00    -0.237 OA
ATOM     80  O   UNL A   1      49.772  28.182  22.512  1.00  0.00    -0.237 OA
ATOM     81  O   UNL A   1      48.531  26.053  22.464  1.00  0.00    -0.744 OA
ENDBRANCH  74  78
ENDBRANCH  47  71
BRANCH  59  82
ATOM     82  C   UNL A   1      44.798  33.804  29.465  1.00  0.00     0.023 A 
ATOM     83  C   UNL A   1      44.842  34.782  28.455  1.00  0.00     0.031 A 
ATOM     84  C   UNL A   1      45.420  34.088  30.692  1.00  0.00     0.131 A 
ATOM     85  C   UNL A   1      45.543  35.978  28.673  1.00  0.00     0.055 A 
ATOM     86  C   UNL A   1      46.070  35.302  30.922  1.00  0.00     0.041 A 
ATOM     87  F   UNL A   1      45.409  33.187  31.688  1.00  0.00    -0.206 F 
ATOM     88  C   UNL A   1      46.145  36.249  29.905  1.00  0.00     0.022 A 
BRANCH  85  89
ATOM     89  S   UNL A   1      45.736  37.140  27.293  1.00  0.00     0.124 S 
ATOM     90  O   UNL A   1      44.447  37.824  27.290  1.00  0.00    -0.237 OA
ATOM     91  O   UNL A   1      46.880  37.940  27.717  1.00  0.00    -0.237 OA
ATOM     92  O   UNL A   1      45.980  36.270  26.144  1.00  0.00    -0.744 OA
ENDBRANCH  85  89
ENDBRANCH  59  82
ENDBRANCH  33  34
ENDBRANCH  26  28
ENDBRANCH  25  26
ENDBRANCH  24  25
ENDBRANCH   1  24
TORSDOF 18
ENDMDL
MODEL 3
REMARK VINA RESULT:     -11.5      5.650     10.535
REMARK SMILES CC[C@@H]1SC[C@@H](C(=O)OCCOC(=O)c2ccc(-c3c4nc(c(-c5cc(S(=O)(=O)[O-])ccc5F)c5ccc([nH]5)c(-c5cc(S(=O)(=O)[O-])ccc5F)c5nc(c(-c6cc(S(=O)(=O)[O-])ccc6F)c6ccc3[nH]6)C=C5)C=C4)cc2)N1C(=O)c1nc(C(C)(C)C)n[nH]1
REMARK SMILES IDX 10 1 9 2 7 3 8 4 6 5 3 6 4 7 78 8 5 9 2 10 1 11 79 12 80 13
REMARK SMILES IDX 81 14 82 15 89 16 83 17 88 18 84 20 85 21 86 22 87 23 11 24
REMARK SMILES IDX 12 25 13 26 14 27 15 28 16 29 77 30 17 31 76 32 18 33 19 34
REMARK SMILES IDX 20 35 70 36 21 37 75 38 69 39 71 40 22 41 74 42 68 43 67 44
REMARK SMILES IDX 23 46 55 47 35 48 54 49 36 50 39 51 53 52 72 53 37 54 38 55
REMARK SMILES IDX 52 57 73 58 40 59 24 60 25 61 33 62 26 63 32 64 34 65 31 66
REMARK SMILES IDX 27 67 28 68 29 69 30 70 56 71 57 72 65 73 58 74 64 75 66 76
REMARK SMILES IDX 63 77 59 78 60 79 61 80 62 81 41 82 42 83 50 84 43 85 49 86
REMARK SMILES IDX 51 87 48 88 44 89 45 90 46 91 47 92
REMARK H PARENT 89 19 71 45 39 56
REMARK Flexibility Score: inf
ROOT
ATOM      1  C   UNL A   1      31.776  28.787  27.588  1.00  0.00     0.274 C 
ENDROOT
BRANCH   1   2
ATOM      2  O   UNL A   1      31.139  27.533  27.276  1.00  0.00    -0.461 OA
BRANCH   2   3
ATOM      3  C   UNL A   1      31.793  26.733  26.388  1.00  0.00     0.329 C 
ATOM      4  O   UNL A   1      33.010  26.569  26.370  1.00  0.00    -0.250 OA
BRANCH   3   5
ATOM      5  C   UNL A   1      30.867  26.116  25.324  1.00  0.00     0.206 C 
ATOM      6  C   UNL A   1      31.882  24.104  24.320  1.00  0.00     0.144 C 
ATOM      7  S   UNL A   1      31.028  23.559  25.867  1.00  0.00    -0.134 SA
ATOM      8  N   UNL A   1      31.521  25.510  24.152  1.00  0.00    -0.309 N 
ATOM      9  C   UNL A   1      30.013  25.052  25.987  1.00  0.00     0.109 C 
BRANCH   6  10
ATOM     10  C   UNL A   1      31.483  23.125  23.199  1.00  0.00     0.033 C 
ATOM     11  C   UNL A   1      32.267  21.822  23.120  1.00  0.00     0.007 C 
ENDBRANCH   6  10
BRANCH   8  12
ATOM     12  C   UNL A   1      31.763  26.326  23.050  1.00  0.00     0.292 C 
ATOM     13  O   UNL A   1      32.689  26.043  22.286  1.00  0.00    -0.265 OA
BRANCH  12  14
ATOM     14  C   UNL A   1      31.039  27.558  22.867  1.00  0.00     0.214 A 
ATOM     15  N   UNL A   1      29.773  27.832  23.131  1.00  0.00    -0.207 NA
ATOM     16  N   UNL A   1      31.626  28.664  22.319  1.00  0.00    -0.255 N 
ATOM     17  C   UNL A   1      29.645  29.142  22.717  1.00  0.00     0.156 A 
ATOM     18  N   UNL A   1      30.787  29.706  22.307  1.00  0.00    -0.158 NA
ATOM     19  H   UNL A   1      32.548  28.689  21.978  1.00  0.00     0.192 HD
BRANCH  17  20
ATOM     20  C   UNL A   1      28.336  29.891  22.663  1.00  0.00     0.024 C 
ATOM     21  C   UNL A   1      28.409  31.120  23.594  1.00  0.00     0.019 C 
ATOM     22  C   UNL A   1      28.028  30.384  21.237  1.00  0.00     0.019 C 
ATOM     23  C   UNL A   1      27.176  28.986  23.125  1.00  0.00     0.019 C 
ENDBRANCH  17  20
ENDBRANCH  12  14
ENDBRANCH   8  12
ENDBRANCH   3   5
ENDBRANCH   2   3
ENDBRANCH   1   2
BRANCH   1  24
ATOM     24  C   UNL A   1      31.777  29.726  26.384  1.00  0.00     0.275 C 
BRANCH  24  25
ATOM     25  O   UNL A   1      33.080  30.295  26.181  1.00  0.00    -0.458 OA
BRANCH  25  26
ATOM     26  C   UNL A   1      33.415  31.265  27.064  1.00  0.00     0.338 C 
ATOM     27  O   UNL A   1      32.742  32.220  27.406  1.00  0.00    -0.246 OA
BRANCH  26  28
ATOM     28  C   UNL A   1      34.737  30.964  27.624  1.00  0.00     0.060 A 
ATOM     29  C   UNL A   1      35.052  29.637  27.915  1.00  0.00     0.016 A 
ATOM     30  C   UNL A   1      35.612  31.996  27.962  1.00  0.00     0.016 A 
ATOM     31  C   UNL A   1      36.225  29.335  28.600  1.00  0.00     0.010 A 
ATOM     32  C   UNL A   1      36.812  31.685  28.609  1.00  0.00     0.010 A 
ATOM     33  C   UNL A   1      37.114  30.356  28.956  1.00  0.00    -0.014 A 
BRANCH  33  34
ATOM     34  C   UNL A   1      38.331  30.036  29.744  1.00  0.00     0.031 A 
ATOM     35  C   UNL A   1      39.363  29.100  29.179  1.00  0.00     0.074 A 
ATOM     36  C   UNL A   1      38.513  30.597  30.954  1.00  0.00     0.049 A 
ATOM     37  N   UNL A   1      40.429  28.601  29.747  1.00  0.00    -0.248 NA
ATOM     38  C   UNL A   1      39.157  28.664  27.790  1.00  0.00     0.031 C 
ATOM     39  C   UNL A   1      37.608  31.562  31.582  1.00  0.00     0.029 A 
ATOM     40  N   UNL A   1      39.520  30.437  31.872  1.00  0.00    -0.354 N 
ATOM     41  C   UNL A   1      41.007  27.763  28.799  1.00  0.00     0.074 A 
ATOM     42  C   UNL A   1      40.157  27.809  27.626  1.00  0.00     0.031 C 
ATOM     43  C   UNL A   1      38.107  31.915  32.778  1.00  0.00     0.029 A 
ATOM     44  C   UNL A   1      39.328  31.156  33.028  1.00  0.00     0.049 A 
ATOM     45  H   UNL A   1      40.304  29.862  31.717  1.00  0.00     0.167 HD
ATOM     46  C   UNL A   1      42.141  27.024  28.901  1.00  0.00     0.034 A 
ATOM     47  C   UNL A   1      40.035  31.172  34.174  1.00  0.00     0.034 A 
ATOM     48  C   UNL A   1      42.984  27.005  30.074  1.00  0.00     0.049 A 
ATOM     49  C   UNL A   1      41.251  30.290  34.291  1.00  0.00     0.074 A 
ATOM     50  C   UNL A   1      44.167  26.318  30.277  1.00  0.00     0.029 A 
ATOM     51  N   UNL A   1      42.727  27.704  31.248  1.00  0.00    -0.354 N 
ATOM     52  N   UNL A   1      41.771  29.478  33.400  1.00  0.00    -0.248 NA
ATOM     53  C   UNL A   1      41.968  30.322  35.572  1.00  0.00     0.031 C 
ATOM     54  C   UNL A   1      44.592  26.551  31.591  1.00  0.00     0.029 A 
ATOM     55  C   UNL A   1      43.711  27.438  32.188  1.00  0.00     0.049 A 
ATOM     56  H   UNL A   1      41.959  28.302  31.392  1.00  0.00     0.167 HD
ATOM     57  C   UNL A   1      42.887  28.914  34.009  1.00  0.00     0.074 A 
ATOM     58  C   UNL A   1      42.973  29.492  35.336  1.00  0.00     0.031 C 
ATOM     59  C   UNL A   1      43.766  28.003  33.516  1.00  0.00     0.034 A 
BRANCH  46  60
ATOM     60  C   UNL A   1      42.489  26.129  27.736  1.00  0.00     0.023 A 
ATOM     61  C   UNL A   1      42.034  24.802  27.651  1.00  0.00     0.031 A 
ATOM     62  C   UNL A   1      43.333  26.601  26.715  1.00  0.00     0.131 A 
ATOM     63  C   UNL A   1      42.485  23.972  26.613  1.00  0.00     0.055 A 
ATOM     64  C   UNL A   1      43.717  25.794  25.642  1.00  0.00     0.041 A 
ATOM     65  F   UNL A   1      43.816  27.853  26.751  1.00  0.00    -0.206 F 
ATOM     66  C   UNL A   1      43.306  24.465  25.595  1.00  0.00     0.022 A 
BRANCH  63  67
ATOM     67  S   UNL A   1      42.108  22.199  26.693  1.00  0.00     0.124 S 
ATOM     68  O   UNL A   1      43.164  21.633  25.859  1.00  0.00    -0.237 OA
ATOM     69  O   UNL A   1      42.204  21.922  28.121  1.00  0.00    -0.237 OA
ATOM     70  O   UNL A   1      40.762  22.109  26.128  1.00  0.00    -0.744 OA
ENDBRANCH  63  67
ENDBRANCH  46  60
BRANCH  47  71
ATOM     71  C   UNL A   1      39.584  32.005  35.323  1.00  0.00     0.023 A 
ATOM     72  C   UNL A   1      38.794  31.461  36.346  1.00  0.00     0.031 A 
ATOM     73  C   UNL A   1      39.917  33.370  35.398  1.00  0.00     0.131 A 
ATOM     74  C   UNL A   1      38.335  32.284  37.386  1.00  0.00     0.055 A 
ATOM     75  C   UNL A   1      39.498  34.174  36.459  1.00  0.00     0.041 A 
ATOM     76  F   UNL A   1      40.673  33.938  34.445  1.00  0.00    -0.206 F 
ATOM     77  C   UNL A   1      38.693  33.633  37.456  1.00  0.00     0.022 A 
BRANCH  74  78
ATOM     78  S   UNL A   1      37.210  31.579  38.621  1.00  0.00     0.124 S 
ATOM     79  O   UNL A   1      36.056  32.463  38.512  1.00  0.00    -0.237 OA
ATOM     80  O   UNL A   1      37.028  30.219  38.125  1.00  0.00    -0.237 OA
ATOM     81  O   UNL A   1      37.965  31.687  39.869  1.00  0.00    -0.744 OA
ENDBRANCH  74  78
ENDBRANCH  47  71
BRANCH  59  82
ATOM     82  C   UNL A   1      44.910  27.612  34.417  1.00  0.00     0.023 A 
ATOM     83  C   UNL A   1      44.809  26.527  35.306  1.00  0.00     0.031 A 
ATOM     84  C   UNL A   1      46.105  28.352  34.406  1.00  0.00     0.131 A 
ATOM     85  C   UNL A   1      45.865  26.247  36.187  1.00  0.00     0.055 A 
ATOM     86  C   UNL A   1      47.172  28.035  35.246  1.00  0.00     0.041 A 
ATOM     87  F   UNL A   1      46.251  29.400  33.578  1.00  0.00    -0.206 F 
ATOM     88  C   UNL A   1      47.051  26.985  36.153  1.00  0.00     0.022 A 
BRANCH  85  89
ATOM     89  S   UNL A   1      45.635  24.958  37.443  1.00  0.00     0.124 S 
ATOM     90  O   UNL A   1      44.251  25.178  37.853  1.00  0.00    -0.237 OA
ATOM     91  O   UNL A   1      45.889  23.737  36.688  1.00  0.00    -0.237 OA
ATOM     92  O   UNL A   1      46.640  25.281  38.455  1.00  0.00    -0.744 OA
ENDBRANCH  85  89
ENDBRANCH  59  82
ENDBRANCH  33  34
ENDBRANCH  26  28
ENDBRANCH  25  26
ENDBRANCH  24  25
ENDBRANCH   1  24
TORSDOF 18
ENDMDL
