MODEL 1
REMARK VINA RESULT:     -11.7      0.000      0.000
REMARK SMILES C=CCn1c(=S)[nH]c2cc(C(=O)OCCOC(=O)c3ccc(-c4c5nc(c(-c6cc(S(=O)(=O)[O-])ccc6F)c6ccc([nH]6)c(-c6cc(S(=O)(=O)[O-])ccc6F)c6nc(c(-c7cc(S(=O)(=O)[O-])ccc7F)c7ccc4[nH]7)C=C6)C=C5)cc3)ccc2c1=O
REMARK SMILES IDX 15 1 14 2 13 3 11 4 12 5 10 6 4 7 5 8 85 9 6 10 7 11 84 12
REMARK SMILES IDX 86 13 8 14 83 16 9 17 82 18 3 19 2 20 1 21 16 22 17 23 18 24
REMARK SMILES IDX 19 25 20 26 81 27 21 28 80 29 22 30 23 31 24 32 74 33 25 34
REMARK SMILES IDX 79 35 73 36 75 37 26 38 78 39 72 40 71 41 27 43 59 44 39 45
REMARK SMILES IDX 58 46 40 47 43 48 57 49 76 50 41 51 42 52 56 54 77 55 44 56
REMARK SMILES IDX 28 57 29 58 37 59 30 60 36 61 38 62 35 63 31 64 32 65 33 66
REMARK SMILES IDX 34 67 60 68 61 69 69 70 62 71 68 72 70 73 67 74 63 75 64 76
REMARK SMILES IDX 65 77 66 78 45 79 46 80 54 81 47 82 53 83 55 84 52 85 48 86
REMARK SMILES IDX 49 87 50 88 51 89
REMARK H PARENT 7 15 75 42 43 53
REMARK Flexibility Score: inf
ROOT
ATOM      1  C   UNL A   1      37.320  20.547  24.996  1.00  0.00     0.275 C 
ENDROOT
BRANCH   1   2
ATOM      2  C   UNL A   1      35.846  20.842  25.294  1.00  0.00     0.275 C 
BRANCH   2   3
ATOM      3  O   UNL A   1      35.333  21.928  24.490  1.00  0.00    -0.458 OA
BRANCH   3   4
ATOM      4  C   UNL A   1      35.089  23.072  25.167  1.00  0.00     0.338 C 
ATOM      5  O   UNL A   1      35.394  23.311  26.326  1.00  0.00    -0.246 OA
BRANCH   4   6
ATOM      6  C   UNL A   1      34.427  24.086  24.320  1.00  0.00     0.062 A 
ATOM      7  N   UNL A   1      31.561  28.047  23.084  1.00  0.00    -0.281 N 
ATOM      8  C   UNL A   1      32.071  28.326  24.353  1.00  0.00     0.180 A 
ATOM      9  C   UNL A   1      31.847  26.868  22.372  1.00  0.00     0.262 A 
ATOM     10  S   UNL A   1      31.768  29.673  25.303  1.00  0.00    -0.040 S 
ATOM     11  N   UNL A   1      32.912  27.393  24.890  1.00  0.00    -0.332 N 
ATOM     12  C   UNL A   1      32.780  25.911  22.995  1.00  0.00     0.064 A 
ATOM     13  O   UNL A   1      31.361  26.572  21.280  1.00  0.00    -0.269 OA
ATOM     14  C   UNL A   1      33.271  26.213  24.250  1.00  0.00     0.054 A 
ATOM     15  H   UNL A   1      33.286  27.568  25.784  1.00  0.00     0.169 HD
ATOM     16  C   UNL A   1      33.150  24.708  22.370  1.00  0.00     0.017 A 
ATOM     17  C   UNL A   1      34.102  25.315  24.901  1.00  0.00     0.042 A 
ATOM     18  C   UNL A   1      33.973  23.787  23.036  1.00  0.00     0.016 A 
BRANCH   7  19
ATOM     19  C   UNL A   1      30.683  28.993  22.399  1.00  0.00     0.155 C 
BRANCH  19  20
ATOM     20  C   UNL A   1      29.260  28.665  22.761  1.00  0.00    -0.013 C 
ATOM     21  C   UNL A   1      28.288  29.580  22.888  1.00  0.00     0.006 C 
ENDBRANCH  19  20
ENDBRANCH   7  19
ENDBRANCH   4   6
ENDBRANCH   3   4
ENDBRANCH   2   3
ENDBRANCH   1   2
BRANCH   1  22
ATOM     22  O   UNL A   1      38.164  21.676  25.285  1.00  0.00    -0.458 OA
BRANCH  22  23
ATOM     23  C   UNL A   1      39.219  21.404  26.085  1.00  0.00     0.338 C 
ATOM     24  O   UNL A   1      39.799  20.338  26.203  1.00  0.00    -0.246 OA
BRANCH  23  25
ATOM     25  C   UNL A   1      39.681  22.630  26.749  1.00  0.00     0.060 A 
ATOM     26  C   UNL A   1      40.754  22.621  27.632  1.00  0.00     0.016 A 
ATOM     27  C   UNL A   1      39.136  23.837  26.328  1.00  0.00     0.016 A 
ATOM     28  C   UNL A   1      41.261  23.844  28.091  1.00  0.00     0.010 A 
ATOM     29  C   UNL A   1      39.757  25.037  26.635  1.00  0.00     0.010 A 
ATOM     30  C   UNL A   1      40.795  25.070  27.568  1.00  0.00    -0.014 A 
BRANCH  30  31
ATOM     31  C   UNL A   1      41.353  26.381  28.009  1.00  0.00     0.031 A 
ATOM     32  C   UNL A   1      42.773  26.774  27.663  1.00  0.00     0.074 A 
ATOM     33  C   UNL A   1      40.595  27.211  28.756  1.00  0.00     0.049 A 
ATOM     34  N   UNL A   1      43.411  27.883  27.940  1.00  0.00    -0.248 NA
ATOM     35  C   UNL A   1      43.604  25.782  26.955  1.00  0.00     0.031 C 
ATOM     36  C   UNL A   1      39.253  26.902  29.252  1.00  0.00     0.029 A 
ATOM     37  N   UNL A   1      40.830  28.484  29.214  1.00  0.00    -0.354 N 
ATOM     38  C   UNL A   1      44.706  27.708  27.460  1.00  0.00     0.074 A 
ATOM     39  C   UNL A   1      44.797  26.357  26.968  1.00  0.00     0.031 C 
ATOM     40  C   UNL A   1      38.752  27.980  29.869  1.00  0.00     0.029 A 
ATOM     41  C   UNL A   1      39.752  29.044  29.866  1.00  0.00     0.049 A 
ATOM     42  H   UNL A   1      41.686  28.952  29.090  1.00  0.00     0.167 HD
ATOM     43  C   UNL A   1      45.713  28.610  27.379  1.00  0.00     0.034 A 
ATOM     44  C   UNL A   1      39.580  30.278  30.385  1.00  0.00     0.034 A 
ATOM     45  C   UNL A   1      45.587  29.974  27.817  1.00  0.00     0.049 A 
ATOM     46  C   UNL A   1      40.693  31.286  30.240  1.00  0.00     0.074 A 
ATOM     47  C   UNL A   1      46.512  30.995  27.701  1.00  0.00     0.029 A 
ATOM     48  N   UNL A   1      44.469  30.513  28.437  1.00  0.00    -0.354 N 
ATOM     49  N   UNL A   1      41.867  31.140  29.669  1.00  0.00    -0.248 NA
ATOM     50  C   UNL A   1      40.461  32.628  30.791  1.00  0.00     0.031 C 
ATOM     51  C   UNL A   1      45.982  32.131  28.311  1.00  0.00     0.029 A 
ATOM     52  C   UNL A   1      44.692  31.846  28.733  1.00  0.00     0.049 A 
ATOM     53  H   UNL A   1      43.641  30.020  28.638  1.00  0.00     0.167 HD
ATOM     54  C   UNL A   1      42.502  32.374  29.774  1.00  0.00     0.074 A 
ATOM     55  C   UNL A   1      41.569  33.264  30.433  1.00  0.00     0.031 C 
ATOM     56  C   UNL A   1      43.746  32.732  29.370  1.00  0.00     0.034 A 
BRANCH  43  57
ATOM     57  C   UNL A   1      47.022  28.192  26.746  1.00  0.00     0.023 A 
ATOM     58  C   UNL A   1      47.161  28.188  25.345  1.00  0.00     0.031 A 
ATOM     59  C   UNL A   1      48.077  27.668  27.517  1.00  0.00     0.131 A 
ATOM     60  C   UNL A   1      48.309  27.636  24.760  1.00  0.00     0.055 A 
ATOM     61  C   UNL A   1      49.242  27.173  26.931  1.00  0.00     0.041 A 
ATOM     62  F   UNL A   1      47.995  27.638  28.857  1.00  0.00    -0.206 F 
ATOM     63  C   UNL A   1      49.355  27.141  25.546  1.00  0.00     0.022 A 
BRANCH  60  64
ATOM     64  S   UNL A   1      48.457  27.465  22.961  1.00  0.00     0.124 S 
ATOM     65  O   UNL A   1      48.388  26.016  22.791  1.00  0.00    -0.237 OA
ATOM     66  O   UNL A   1      47.290  28.204  22.489  1.00  0.00    -0.237 OA
ATOM     67  O   UNL A   1      49.751  28.064  22.656  1.00  0.00    -0.744 OA
ENDBRANCH  60  64
ENDBRANCH  43  57
BRANCH  44  68
ATOM     68  C   UNL A   1      38.259  30.634  30.989  1.00  0.00     0.023 A 
ATOM     69  C   UNL A   1      37.263  31.277  30.231  1.00  0.00     0.031 A 
ATOM     70  C   UNL A   1      38.025  30.451  32.363  1.00  0.00     0.131 A 
ATOM     71  C   UNL A   1      36.122  31.785  30.867  1.00  0.00     0.055 A 
ATOM     72  C   UNL A   1      36.849  30.887  32.977  1.00  0.00     0.041 A 
ATOM     73  F   UNL A   1      38.950  29.860  33.134  1.00  0.00    -0.206 F 
ATOM     74  C   UNL A   1      35.899  31.577  32.232  1.00  0.00     0.022 A 
BRANCH  71  75
ATOM     75  S   UNL A   1      34.965  32.865  29.978  1.00  0.00     0.124 S 
ATOM     76  O   UNL A   1      34.439  31.970  28.952  1.00  0.00    -0.237 OA
ATOM     77  O   UNL A   1      34.028  33.232  31.038  1.00  0.00    -0.237 OA
ATOM     78  O   UNL A   1      35.810  33.951  29.496  1.00  0.00    -0.744 OA
ENDBRANCH  71  75
ENDBRANCH  44  68
BRANCH  56  79
ATOM     79  C   UNL A   1      44.211  34.150  29.608  1.00  0.00     0.023 A 
ATOM     80  C   UNL A   1      44.035  35.122  28.605  1.00  0.00     0.031 A 
ATOM     81  C   UNL A   1      44.985  34.486  30.731  1.00  0.00     0.131 A 
ATOM     82  C   UNL A   1      44.673  36.363  28.717  1.00  0.00     0.055 A 
ATOM     83  C   UNL A   1      45.570  35.745  30.866  1.00  0.00     0.041 A 
ATOM     84  F   UNL A   1      45.196  33.588  31.708  1.00  0.00    -0.206 F 
ATOM     85  C   UNL A   1      45.431  36.683  29.847  1.00  0.00     0.022 A 
BRANCH  82  86
ATOM     86  S   UNL A   1      44.637  37.560  27.354  1.00  0.00     0.124 S 
ATOM     87  O   UNL A   1      43.296  37.360  26.811  1.00  0.00    -0.237 OA
ATOM     88  O   UNL A   1      44.845  38.826  28.052  1.00  0.00    -0.237 OA
ATOM     89  O   UNL A   1      45.728  37.136  26.483  1.00  0.00    -0.744 OA
ENDBRANCH  82  86
ENDBRANCH  56  79
ENDBRANCH  30  31
ENDBRANCH  23  25
ENDBRANCH  22  23
ENDBRANCH   1  22
TORSDOF 16
ENDMDL
MODEL 2
REMARK VINA RESULT:     -11.4      5.002     10.255
REMARK SMILES C=CCn1c(=S)[nH]c2cc(C(=O)OCCOC(=O)c3ccc(-c4c5nc(c(-c6cc(S(=O)(=O)[O-])ccc6F)c6ccc([nH]6)c(-c6cc(S(=O)(=O)[O-])ccc6F)c6nc(c(-c7cc(S(=O)(=O)[O-])ccc7F)c7ccc4[nH]7)C=C6)C=C5)cc3)ccc2c1=O
REMARK SMILES IDX 15 1 14 2 13 3 11 4 12 5 10 6 4 7 5 8 85 9 6 10 7 11 84 12
REMARK SMILES IDX 86 13 8 14 83 16 9 17 82 18 3 19 2 20 1 21 16 22 17 23 18 24
REMARK SMILES IDX 19 25 20 26 81 27 21 28 80 29 22 30 23 31 24 32 74 33 25 34
REMARK SMILES IDX 79 35 73 36 75 37 26 38 78 39 72 40 71 41 27 43 59 44 39 45
REMARK SMILES IDX 58 46 40 47 43 48 57 49 76 50 41 51 42 52 56 54 77 55 44 56
REMARK SMILES IDX 28 57 29 58 37 59 30 60 36 61 38 62 35 63 31 64 32 65 33 66
REMARK SMILES IDX 34 67 60 68 61 69 69 70 62 71 68 72 70 73 67 74 63 75 64 76
REMARK SMILES IDX 65 77 66 78 45 79 46 80 54 81 47 82 53 83 55 84 52 85 48 86
REMARK SMILES IDX 49 87 50 88 51 89
REMARK H PARENT 7 15 75 42 43 53
REMARK Flexibility Score: inf
ROOT
ATOM      1  C   UNL A   1      31.785  31.152  26.461  1.00  0.00     0.275 C 
ENDROOT
BRANCH   1   2
ATOM      2  C   UNL A   1      31.553  30.102  25.370  1.00  0.00     0.275 C 
BRANCH   2   3
ATOM      3  O   UNL A   1      32.546  29.053  25.402  1.00  0.00    -0.458 OA
BRANCH   3   4
ATOM      4  C   UNL A   1      33.037  28.695  24.194  1.00  0.00     0.338 C 
ATOM      5  O   UNL A   1      33.495  29.443  23.344  1.00  0.00    -0.246 OA
BRANCH   4   6
ATOM      6  C   UNL A   1      33.016  27.230  24.001  1.00  0.00     0.062 A 
ATOM      7  N   UNL A   1      33.842  22.343  24.935  1.00  0.00    -0.281 N 
ATOM      8  C   UNL A   1      33.699  22.951  26.183  1.00  0.00     0.180 A 
ATOM      9  C   UNL A   1      33.756  23.039  23.716  1.00  0.00     0.262 A 
ATOM     10  S   UNL A   1      33.818  22.230  27.692  1.00  0.00    -0.040 S 
ATOM     11  N   UNL A   1      33.435  24.292  26.181  1.00  0.00    -0.332 N 
ATOM     12  C   UNL A   1      33.446  24.479  23.779  1.00  0.00     0.064 A 
ATOM     13  O   UNL A   1      33.940  22.537  22.607  1.00  0.00    -0.269 OA
ATOM     14  C   UNL A   1      33.308  25.055  25.027  1.00  0.00     0.054 A 
ATOM     15  H   UNL A   1      33.328  24.744  27.049  1.00  0.00     0.169 HD
ATOM     16  C   UNL A   1      33.322  25.272  22.625  1.00  0.00     0.017 A 
ATOM     17  C   UNL A   1      33.077  26.417  25.137  1.00  0.00     0.042 A 
ATOM     18  C   UNL A   1      33.112  26.655  22.734  1.00  0.00     0.016 A 
BRANCH   7  19
ATOM     19  C   UNL A   1      34.087  20.907  24.820  1.00  0.00     0.155 C 
BRANCH  19  20
ATOM     20  C   UNL A   1      32.766  20.216  24.620  1.00  0.00    -0.013 C 
ATOM     21  C   UNL A   1      32.491  19.408  23.587  1.00  0.00     0.006 C 
ENDBRANCH  19  20
ENDBRANCH   7  19
ENDBRANCH   4   6
ENDBRANCH   3   4
ENDBRANCH   2   3
ENDBRANCH   1   2
BRANCH   1  22
ATOM     22  O   UNL A   1      32.942  30.851  27.262  1.00  0.00    -0.458 OA
BRANCH  22  23
ATOM     23  C   UNL A   1      33.704  31.921  27.581  1.00  0.00     0.338 C 
ATOM     24  O   UNL A   1      33.350  33.086  27.642  1.00  0.00    -0.246 OA
BRANCH  23  25
ATOM     25  C   UNL A   1      35.051  31.486  27.971  1.00  0.00     0.060 A 
ATOM     26  C   UNL A   1      36.085  32.394  28.161  1.00  0.00     0.016 A 
ATOM     27  C   UNL A   1      35.220  30.154  28.331  1.00  0.00     0.016 A 
ATOM     28  C   UNL A   1      37.292  31.939  28.708  1.00  0.00     0.010 A 
ATOM     29  C   UNL A   1      36.341  29.751  29.040  1.00  0.00     0.010 A 
ATOM     30  C   UNL A   1      37.423  30.620  29.191  1.00  0.00    -0.014 A 
BRANCH  30  31
ATOM     31  C   UNL A   1      38.684  30.129  29.818  1.00  0.00     0.031 A 
ATOM     32  C   UNL A   1      39.092  30.591  31.201  1.00  0.00     0.074 A 
ATOM     33  C   UNL A   1      39.489  29.292  29.131  1.00  0.00     0.049 A 
ATOM     34  N   UNL A   1      40.138  30.247  31.908  1.00  0.00    -0.248 NA
ATOM     35  C   UNL A   1      38.248  31.604  31.861  1.00  0.00     0.031 C 
ATOM     36  C   UNL A   1      39.267  28.862  27.750  1.00  0.00     0.029 A 
ATOM     37  N   UNL A   1      40.640  28.639  29.497  1.00  0.00    -0.354 N 
ATOM     38  C   UNL A   1      40.081  31.009  33.072  1.00  0.00     0.074 A 
ATOM     39  C   UNL A   1      38.961  31.905  32.935  1.00  0.00     0.031 C 
ATOM     40  C   UNL A   1      40.196  27.957  27.415  1.00  0.00     0.029 A 
ATOM     41  C   UNL A   1      41.117  27.778  28.534  1.00  0.00     0.049 A 
ATOM     42  H   UNL A   1      41.083  28.774  30.366  1.00  0.00     0.167 HD
ATOM     43  C   UNL A   1      40.852  30.930  34.181  1.00  0.00     0.034 A 
ATOM     44  C   UNL A   1      42.165  26.927  28.552  1.00  0.00     0.034 A 
ATOM     45  C   UNL A   1      41.928  29.986  34.328  1.00  0.00     0.049 A 
ATOM     46  C   UNL A   1      42.983  26.813  29.815  1.00  0.00     0.074 A 
ATOM     47  C   UNL A   1      42.716  29.758  35.441  1.00  0.00     0.029 A 
ATOM     48  N   UNL A   1      42.357  29.106  33.345  1.00  0.00    -0.354 N 
ATOM     49  N   UNL A   1      42.834  27.453  30.952  1.00  0.00    -0.248 NA
ATOM     50  C   UNL A   1      44.098  25.856  29.810  1.00  0.00     0.031 C 
ATOM     51  C   UNL A   1      43.664  28.791  35.110  1.00  0.00     0.029 A 
ATOM     52  C   UNL A   1      43.416  28.352  33.818  1.00  0.00     0.049 A 
ATOM     53  H   UNL A   1      41.966  29.030  32.444  1.00  0.00     0.167 HD
ATOM     54  C   UNL A   1      43.821  26.962  31.802  1.00  0.00     0.074 A 
ATOM     55  C   UNL A   1      44.539  25.948  31.059  1.00  0.00     0.031 C 
ATOM     56  C   UNL A   1      44.111  27.326  33.077  1.00  0.00     0.034 A 
BRANCH  43  57
ATOM     57  C   UNL A   1      40.542  31.832  35.355  1.00  0.00     0.023 A 
ATOM     58  C   UNL A   1      39.453  31.547  36.199  1.00  0.00     0.031 A 
ATOM     59  C   UNL A   1      41.236  33.041  35.556  1.00  0.00     0.131 A 
ATOM     60  C   UNL A   1      39.065  32.475  37.175  1.00  0.00     0.055 A 
ATOM     61  C   UNL A   1      40.881  33.935  36.567  1.00  0.00     0.041 A 
ATOM     62  F   UNL A   1      42.278  33.369  34.775  1.00  0.00    -0.206 F 
ATOM     63  C   UNL A   1      39.781  33.660  37.371  1.00  0.00     0.022 A 
BRANCH  60  64
ATOM     64  S   UNL A   1      37.572  32.222  38.173  1.00  0.00     0.124 S 
ATOM     65  O   UNL A   1      38.014  32.671  39.492  1.00  0.00    -0.237 OA
ATOM     66  O   UNL A   1      36.610  33.095  37.507  1.00  0.00    -0.237 OA
ATOM     67  O   UNL A   1      37.312  30.791  38.060  1.00  0.00    -0.744 OA
ENDBRANCH  60  64
ENDBRANCH  43  57
BRANCH  44  68
ATOM     68  C   UNL A   1      42.413  26.054  27.364  1.00  0.00     0.023 A 
ATOM     69  C   UNL A   1      41.901  24.745  27.304  1.00  0.00     0.031 A 
ATOM     70  C   UNL A   1      43.272  26.472  26.332  1.00  0.00     0.131 A 
ATOM     71  C   UNL A   1      42.316  23.879  26.283  1.00  0.00     0.055 A 
ATOM     72  C   UNL A   1      43.619  25.631  25.273  1.00  0.00     0.041 A 
ATOM     73  F   UNL A   1      43.803  27.704  26.351  1.00  0.00    -0.206 F 
ATOM     74  C   UNL A   1      43.157  24.319  25.256  1.00  0.00     0.022 A 
BRANCH  71  75
ATOM     75  S   UNL A   1      41.905  22.111  26.339  1.00  0.00     0.124 S 
ATOM     76  O   UNL A   1      42.292  21.750  27.699  1.00  0.00    -0.237 OA
ATOM     77  O   UNL A   1      40.467  22.134  26.076  1.00  0.00    -0.237 OA
ATOM     78  O   UNL A   1      42.719  21.535  25.275  1.00  0.00    -0.744 OA
ENDBRANCH  71  75
ENDBRANCH  44  68
BRANCH  56  79
ATOM     79  C   UNL A   1      45.250  26.638  33.791  1.00  0.00     0.023 A 
ATOM     80  C   UNL A   1      45.007  25.462  34.528  1.00  0.00     0.031 A 
ATOM     81  C   UNL A   1      46.516  27.239  33.897  1.00  0.00     0.131 A 
ATOM     82  C   UNL A   1      45.995  24.960  35.383  1.00  0.00     0.055 A 
ATOM     83  C   UNL A   1      47.516  26.700  34.705  1.00  0.00     0.041 A 
ATOM     84  F   UNL A   1      46.792  28.370  33.226  1.00  0.00    -0.206 F 
ATOM     85  C   UNL A   1      47.252  25.566  35.467  1.00  0.00     0.022 A 
BRANCH  82  86
ATOM     86  S   UNL A   1      45.647  23.571  36.498  1.00  0.00     0.124 S 
ATOM     87  O   UNL A   1      45.146  24.256  37.687  1.00  0.00    -0.237 OA
ATOM     88  O   UNL A   1      44.650  22.815  35.746  1.00  0.00    -0.237 OA
ATOM     89  O   UNL A   1      46.942  22.916  36.660  1.00  0.00    -0.744 OA
ENDBRANCH  82  86
ENDBRANCH  56  79
ENDBRANCH  30  31
ENDBRANCH  23  25
ENDBRANCH  22  23
ENDBRANCH   1  22
TORSDOF 16
ENDMDL
MODEL 3
REMARK VINA RESULT:     -11.4      5.040     10.250
REMARK SMILES C=CCn1c(=S)[nH]c2cc(C(=O)OCCOC(=O)c3ccc(-c4c5nc(c(-c6cc(S(=O)(=O)[O-])ccc6F)c6ccc([nH]6)c(-c6cc(S(=O)(=O)[O-])ccc6F)c6nc(c(-c7cc(S(=O)(=O)[O-])ccc7F)c7ccc4[nH]7)C=C6)C=C5)cc3)ccc2c1=O
REMARK SMILES IDX 15 1 14 2 13 3 11 4 12 5 10 6 4 7 5 8 85 9 6 10 7 11 84 12
REMARK SMILES IDX 86 13 8 14 83 16 9 17 82 18 3 19 2 20 1 21 16 22 17 23 18 24
REMARK SMILES IDX 19 25 20 26 81 27 21 28 80 29 22 30 23 31 24 32 74 33 25 34
REMARK SMILES IDX 79 35 73 36 75 37 26 38 78 39 72 40 71 41 27 43 59 44 39 45
REMARK SMILES IDX 58 46 40 47 43 48 57 49 76 50 41 51 42 52 56 54 77 55 44 56
REMARK SMILES IDX 28 57 29 58 37 59 30 60 36 61 38 62 35 63 31 64 32 65 33 66
REMARK SMILES IDX 34 67 60 68 61 69 69 70 62 71 68 72 70 73 67 74 63 75 64 76
REMARK SMILES IDX 65 77 66 78 45 79 46 80 54 81 47 82 53 83 55 84 52 85 48 86
REMARK SMILES IDX 49 87 50 88 51 89
REMARK H PARENT 7 15 75 42 43 53
REMARK Flexibility Score: inf
ROOT
ATOM      1  C   UNL A   1      31.438  30.430  25.372  1.00  0.00     0.275 C 
ENDROOT
BRANCH   1   2
ATOM      2  C   UNL A   1      31.012  29.168  24.614  1.00  0.00     0.275 C 
BRANCH   2   3
ATOM      3  O   UNL A   1      31.874  28.889  23.488  1.00  0.00    -0.458 OA
BRANCH   3   4
ATOM      4  C   UNL A   1      31.678  27.686  22.905  1.00  0.00     0.338 C 
ATOM      5  O   UNL A   1      30.905  27.437  21.993  1.00  0.00    -0.246 OA
BRANCH   4   6
ATOM      6  C   UNL A   1      32.569  26.648  23.465  1.00  0.00     0.062 A 
ATOM      7  N   UNL A   1      34.064  22.141  25.164  1.00  0.00    -0.281 N 
ATOM      8  C   UNL A   1      33.113  21.880  24.176  1.00  0.00     0.180 A 
ATOM      9  C   UNL A   1      34.460  23.437  25.540  1.00  0.00     0.262 A 
ATOM     10  S   UNL A   1      32.541  20.386  23.676  1.00  0.00    -0.040 S 
ATOM     11  N   UNL A   1      32.579  22.966  23.543  1.00  0.00    -0.332 N 
ATOM     12  C   UNL A   1      33.865  24.567  24.803  1.00  0.00     0.064 A 
ATOM     13  O   UNL A   1      35.250  23.693  26.449  1.00  0.00    -0.269 OA
ATOM     14  C   UNL A   1      32.928  24.280  23.830  1.00  0.00     0.054 A 
ATOM     15  H   UNL A   1      31.907  22.808  22.840  1.00  0.00     0.169 HD
ATOM     16  C   UNL A   1      34.197  25.903  25.082  1.00  0.00     0.017 A 
ATOM     17  C   UNL A   1      32.297  25.312  23.154  1.00  0.00     0.042 A 
ATOM     18  C   UNL A   1      33.543  26.951  24.416  1.00  0.00     0.016 A 
BRANCH   7  19
ATOM     19  C   UNL A   1      34.728  21.052  25.878  1.00  0.00     0.155 C 
BRANCH  19  20
ATOM     20  C   UNL A   1      35.853  20.541  25.020  1.00  0.00    -0.013 C 
ATOM     21  C   UNL A   1      36.993  21.211  24.802  1.00  0.00     0.006 C 
ENDBRANCH  19  20
ENDBRANCH   7  19
ENDBRANCH   4   6
ENDBRANCH   3   4
ENDBRANCH   2   3
ENDBRANCH   1   2
BRANCH   1  22
ATOM     22  O   UNL A   1      32.516  30.169  26.289  1.00  0.00    -0.458 OA
BRANCH  22  23
ATOM     23  C   UNL A   1      32.973  31.256  26.949  1.00  0.00     0.338 C 
ATOM     24  O   UNL A   1      32.361  32.282  27.194  1.00  0.00    -0.246 OA
BRANCH  23  25
ATOM     25  C   UNL A   1      34.327  31.007  27.460  1.00  0.00     0.060 A 
ATOM     26  C   UNL A   1      35.170  32.048  27.833  1.00  0.00     0.016 A 
ATOM     27  C   UNL A   1      34.679  29.692  27.741  1.00  0.00     0.016 A 
ATOM     28  C   UNL A   1      36.374  31.743  28.481  1.00  0.00     0.010 A 
ATOM     29  C   UNL A   1      35.774  29.410  28.544  1.00  0.00     0.010 A 
ATOM     30  C   UNL A   1      36.674  30.423  28.881  1.00  0.00    -0.014 A 
BRANCH  30  31
ATOM     31  C   UNL A   1      37.928  30.085  29.613  1.00  0.00     0.031 A 
ATOM     32  C   UNL A   1      38.167  30.595  31.018  1.00  0.00     0.074 A 
ATOM     33  C   UNL A   1      38.878  29.345  29.002  1.00  0.00     0.049 A 
ATOM     34  N   UNL A   1      39.186  30.376  31.811  1.00  0.00    -0.248 NA
ATOM     35  C   UNL A   1      37.160  31.504  31.596  1.00  0.00     0.031 C 
ATOM     36  C   UNL A   1      38.820  28.888  27.613  1.00  0.00     0.029 A 
ATOM     37  N   UNL A   1      40.064  28.832  29.467  1.00  0.00    -0.354 N 
ATOM     38  C   UNL A   1      38.946  31.129  32.956  1.00  0.00     0.074 A 
ATOM     39  C   UNL A   1      37.744  31.889  32.720  1.00  0.00     0.031 C 
ATOM     40  C   UNL A   1      39.872  28.097  27.364  1.00  0.00     0.029 A 
ATOM     41  C   UNL A   1      40.714  28.029  28.555  1.00  0.00     0.049 A 
ATOM     42  H   UNL A   1      40.417  29.020  30.366  1.00  0.00     0.167 HD
ATOM     43  C   UNL A   1      39.629  31.144  34.125  1.00  0.00     0.034 A 
ATOM     44  C   UNL A   1      41.848  27.306  28.668  1.00  0.00     0.034 A 
ATOM     45  C   UNL A   1      40.792  30.332  34.369  1.00  0.00     0.049 A 
ATOM     46  C   UNL A   1      42.569  27.293  29.993  1.00  0.00     0.074 A 
ATOM     47  C   UNL A   1      41.509  30.201  35.543  1.00  0.00     0.029 A 
ATOM     48  N   UNL A   1      41.398  29.506  33.434  1.00  0.00    -0.354 N 
ATOM     49  N   UNL A   1      42.255  27.914  31.107  1.00  0.00    -0.248 NA
ATOM     50  C   UNL A   1      43.785  26.472  30.089  1.00  0.00     0.031 C 
ATOM     51  C   UNL A   1      42.586  29.351  35.301  1.00  0.00     0.029 A 
ATOM     52  C   UNL A   1      42.496  28.881  33.999  1.00  0.00     0.049 A 
ATOM     53  H   UNL A   1      41.093  29.382  32.505  1.00  0.00     0.167 HD
ATOM     54  C   UNL A   1      43.221  27.543  32.038  1.00  0.00     0.074 A 
ATOM     55  C   UNL A   1      44.110  26.619  31.367  1.00  0.00     0.031 C 
ATOM     56  C   UNL A   1      43.363  27.942  33.328  1.00  0.00     0.034 A 
BRANCH  43  57
ATOM     57  C   UNL A   1      39.123  32.007  35.260  1.00  0.00     0.023 A 
ATOM     58  C   UNL A   1      39.605  33.318  35.421  1.00  0.00     0.031 A 
ATOM     59  C   UNL A   1      38.274  31.486  36.256  1.00  0.00     0.131 A 
ATOM     60  C   UNL A   1      39.267  34.049  36.569  1.00  0.00     0.055 A 
ATOM     61  C   UNL A   1      37.895  32.240  37.367  1.00  0.00     0.041 A 
ATOM     62  F   UNL A   1      37.791  30.237  36.158  1.00  0.00    -0.206 F 
ATOM     63  C   UNL A   1      38.405  33.522  37.535  1.00  0.00     0.022 A 
BRANCH  60  64
ATOM     64  S   UNL A   1      39.995  35.679  36.893  1.00  0.00     0.124 S 
ATOM     65  O   UNL A   1      39.298  36.080  38.114  1.00  0.00    -0.237 OA
ATOM     66  O   UNL A   1      41.408  35.352  37.063  1.00  0.00    -0.237 OA
ATOM     67  O   UNL A   1      39.662  36.455  35.705  1.00  0.00    -0.744 OA
ENDBRANCH  60  64
ENDBRANCH  43  57
BRANCH  44  68
ATOM     68  C   UNL A   1      42.291  26.466  27.514  1.00  0.00     0.023 A 
ATOM     69  C   UNL A   1      41.842  25.140  27.365  1.00  0.00     0.031 A 
ATOM     70  C   UNL A   1      43.269  26.933  26.617  1.00  0.00     0.131 A 
ATOM     71  C   UNL A   1      42.428  24.309  26.400  1.00  0.00     0.055 A 
ATOM     72  C   UNL A   1      43.790  26.125  25.605  1.00  0.00     0.041 A 
ATOM     73  F   UNL A   1      43.745  28.183  26.726  1.00  0.00    -0.206 F 
ATOM     74  C   UNL A   1      43.384  24.798  25.506  1.00  0.00     0.022 A 
BRANCH  71  75
ATOM     75  S   UNL A   1      42.080  22.528  26.374  1.00  0.00     0.124 S 
ATOM     76  O   UNL A   1      42.694  22.114  25.116  1.00  0.00    -0.237 OA
ATOM     77  O   UNL A   1      42.760  22.076  27.587  1.00  0.00    -0.237 OA
ATOM     78  O   UNL A   1      40.624  22.461  26.419  1.00  0.00    -0.744 OA
ENDBRANCH  71  75
ENDBRANCH  44  68
BRANCH  56  79
ATOM     79  C   UNL A   1      44.513  27.394  34.139  1.00  0.00     0.023 A 
ATOM     80  C   UNL A   1      44.319  26.260  34.952  1.00  0.00     0.031 A 
ATOM     81  C   UNL A   1      45.726  28.092  34.252  1.00  0.00     0.131 A 
ATOM     82  C   UNL A   1      45.298  25.894  35.883  1.00  0.00     0.055 A 
ATOM     83  C   UNL A   1      46.724  27.688  35.140  1.00  0.00     0.041 A 
ATOM     84  F   UNL A   1      45.953  29.189  33.509  1.00  0.00    -0.206 F 
ATOM     85  C   UNL A   1      46.504  26.596  35.974  1.00  0.00     0.022 A 
BRANCH  82  86
ATOM     86  S   UNL A   1      44.997  24.569  37.085  1.00  0.00     0.124 S 
ATOM     87  O   UNL A   1      43.628  24.849  37.508  1.00  0.00    -0.237 OA
ATOM     88  O   UNL A   1      45.165  23.370  36.268  1.00  0.00    -0.237 OA
ATOM     89  O   UNL A   1      46.018  24.780  38.107  1.00  0.00    -0.744 OA
ENDBRANCH  82  86
ENDBRANCH  56  79
ENDBRANCH  30  31
ENDBRANCH  23  25
ENDBRANCH  22  23
ENDBRANCH   1  22
TORSDOF 16
ENDMDL
