MODEL 1
REMARK VINA RESULT:     -12.5      0.000      0.000
REMARK SMILES CC(C)Cc1cc2c(cc1Cl)C=C(C(=O)OCCOC(=O)c1ccc(-c3c4nc(c(-c5cc(S(=O)(=O)[O-])ccc5F)c5ccc([nH]5)c(-c5cc(S(=O)(=O)[O-])ccc5F)c5nc(c(-c6cc(S(=O)(=O)[O-])ccc6F)c6ccc3[nH]6)C=C5)C=C4)cc1)[C@@H](C(F)(F)F)O2
REMARK SMILES IDX 18 1 17 2 16 3 14 4 15 5 13 6 5 7 6 8 10 9 7 10 9 11 11 12
REMARK SMILES IDX 8 13 90 14 12 15 85 16 4 17 2 18 1 19 3 20 86 21 87 22 88 23
REMARK SMILES IDX 89 24 19 25 20 26 21 27 22 28 23 29 84 30 24 31 83 32 25 33
REMARK SMILES IDX 26 34 27 35 77 36 28 37 82 38 76 39 78 40 29 41 81 42 75 43
REMARK SMILES IDX 74 44 30 46 62 47 42 48 61 49 43 50 46 51 60 52 79 53 44 54
REMARK SMILES IDX 45 55 59 57 80 58 47 59 31 60 32 61 40 62 33 63 39 64 41 65
REMARK SMILES IDX 38 66 34 67 35 68 36 69 37 70 63 71 64 72 72 73 65 74 71 75
REMARK SMILES IDX 73 76 70 77 66 78 67 79 68 80 69 81 48 82 49 83 57 84 50 85
REMARK SMILES IDX 56 86 58 87 55 88 51 89 52 90 53 91 54 92
REMARK H PARENT 78 45 46 56
REMARK Flexibility Score: inf
ROOT
ATOM      1  C   UNL A   1      35.655  21.374  25.028  1.00  0.00     0.275 C 
ENDROOT
BRANCH   1   2
ATOM      2  C   UNL A   1      34.896  21.935  26.235  1.00  0.00     0.275 C 
BRANCH   2   3
ATOM      3  O   UNL A   1      34.548  23.328  26.065  1.00  0.00    -0.459 OA
BRANCH   3   4
ATOM      4  C   UNL A   1      33.296  23.672  26.453  1.00  0.00     0.338 C 
ATOM      5  O   UNL A   1      32.695  23.241  27.425  1.00  0.00    -0.246 OA
BRANCH   4   6
ATOM      6  C   UNL A   1      32.749  24.727  25.576  1.00  0.00     0.087 C 
ATOM      7  C   UNL A   1      30.640  29.025  24.040  1.00  0.00    -0.025 A 
ATOM      8  C   UNL A   1      30.748  27.734  23.474  1.00  0.00     0.052 A 
ATOM      9  C   UNL A   1      31.381  29.319  25.195  1.00  0.00     0.045 A 
ATOM     10  C   UNL A   1      31.484  26.733  24.108  1.00  0.00     0.128 A 
ATOM     11  C   UNL A   1      32.062  28.307  25.858  1.00  0.00     0.032 A 
ATOM     12  Cl  UNL A   1      31.458  30.901  25.883  1.00  0.00    -0.084 Cl
ATOM     13  C   UNL A   1      32.058  27.010  25.339  1.00  0.00     0.019 A 
ATOM     14  O   UNL A   1      31.558  25.506  23.510  1.00  0.00    -0.475 OA
ATOM     15  C   UNL A   1      32.579  25.929  26.133  1.00  0.00     0.027 C 
ATOM     16  C   UNL A   1      32.306  24.429  24.171  1.00  0.00     0.316 C 
BRANCH   7  17
ATOM     17  C   UNL A   1      29.653  30.009  23.454  1.00  0.00     0.040 C 
BRANCH  17  18
ATOM     18  C   UNL A   1      28.645  29.351  22.481  1.00  0.00    -0.013 C 
ATOM     19  C   UNL A   1      27.337  28.903  23.142  1.00  0.00     0.008 C 
ATOM     20  C   UNL A   1      28.315  30.324  21.347  1.00  0.00     0.008 C 
ENDBRANCH  17  18
ENDBRANCH   7  17
BRANCH  16  21
ATOM     21  C   UNL A   1      31.413  23.177  24.120  1.00  0.00     0.430 C 
ATOM     22  F   UNL A   1      32.156  22.044  24.066  1.00  0.00    -0.167 F 
ATOM     23  F   UNL A   1      30.627  23.064  25.218  1.00  0.00    -0.167 F 
ATOM     24  F   UNL A   1      30.599  23.177  23.040  1.00  0.00    -0.167 F 
ENDBRANCH  16  21
ENDBRANCH   4   6
ENDBRANCH   3   4
ENDBRANCH   2   3
ENDBRANCH   1   2
BRANCH   1  25
ATOM     25  O   UNL A   1      36.918  22.040  24.845  1.00  0.00    -0.458 OA
BRANCH  25  26
ATOM     26  C   UNL A   1      37.968  21.446  25.458  1.00  0.00     0.338 C 
ATOM     27  O   UNL A   1      38.351  20.298  25.313  1.00  0.00    -0.246 OA
BRANCH  26  28
ATOM     28  C   UNL A   1      38.729  22.448  26.217  1.00  0.00     0.060 A 
ATOM     29  C   UNL A   1      39.916  22.172  26.878  1.00  0.00     0.016 A 
ATOM     30  C   UNL A   1      38.289  23.759  26.115  1.00  0.00     0.016 A 
ATOM     31  C   UNL A   1      40.636  23.236  27.442  1.00  0.00     0.010 A 
ATOM     32  C   UNL A   1      39.081  24.824  26.526  1.00  0.00     0.010 A 
ATOM     33  C   UNL A   1      40.249  24.584  27.246  1.00  0.00    -0.014 A 
BRANCH  33  34
ATOM     34  C   UNL A   1      41.058  25.718  27.792  1.00  0.00     0.031 A 
ATOM     35  C   UNL A   1      42.501  25.935  27.384  1.00  0.00     0.074 A 
ATOM     36  C   UNL A   1      40.493  26.562  28.682  1.00  0.00     0.049 A 
ATOM     37  N   UNL A   1      43.289  26.946  27.661  1.00  0.00    -0.248 NA
ATOM     38  C   UNL A   1      43.167  24.876  26.608  1.00  0.00     0.031 C 
ATOM     39  C   UNL A   1      39.168  26.384  29.276  1.00  0.00     0.029 A 
ATOM     40  N   UNL A   1      40.937  27.747  29.218  1.00  0.00    -0.354 N 
ATOM     41  C   UNL A   1      44.526  26.637  27.100  1.00  0.00     0.074 A 
ATOM     42  C   UNL A   1      44.420  25.305  26.560  1.00  0.00     0.031 C 
ATOM     43  C   UNL A   1      38.863  27.466  30.006  1.00  0.00     0.029 A 
ATOM     44  C   UNL A   1      39.985  28.401  29.971  1.00  0.00     0.049 A 
ATOM     45  H   UNL A   1      41.847  28.096  29.079  1.00  0.00     0.167 HD
ATOM     46  C   UNL A   1      45.633  27.411  26.989  1.00  0.00     0.034 A 
ATOM     47  C   UNL A   1      39.992  29.628  30.534  1.00  0.00     0.034 A 
ATOM     48  C   UNL A   1      45.707  28.759  27.490  1.00  0.00     0.049 A 
ATOM     49  C   UNL A   1      41.192  30.516  30.320  1.00  0.00     0.074 A 
ATOM     50  C   UNL A   1      46.747  29.662  27.366  1.00  0.00     0.029 A 
ATOM     51  N   UNL A   1      44.699  29.403  28.193  1.00  0.00    -0.354 N 
ATOM     52  N   UNL A   1      42.301  30.259  29.664  1.00  0.00    -0.248 NA
ATOM     53  C   UNL A   1      41.140  31.869  30.893  1.00  0.00     0.031 C 
ATOM     54  C   UNL A   1      46.393  30.828  28.042  1.00  0.00     0.029 A 
ATOM     55  C   UNL A   1      45.098  30.688  28.515  1.00  0.00     0.049 A 
ATOM     56  H   UNL A   1      43.829  29.005  28.427  1.00  0.00     0.167 HD
ATOM     57  C   UNL A   1      43.058  31.426  29.715  1.00  0.00     0.074 A 
ATOM     58  C   UNL A   1      42.273  32.398  30.446  1.00  0.00     0.031 C 
ATOM     59  C   UNL A   1      44.293  31.666  29.206  1.00  0.00     0.034 A 
BRANCH  46  60
ATOM     60  C   UNL A   1      46.834  26.871  26.244  1.00  0.00     0.023 A 
ATOM     61  C   UNL A   1      47.897  26.271  26.945  1.00  0.00     0.031 A 
ATOM     62  C   UNL A   1      46.989  27.078  24.859  1.00  0.00     0.131 A 
ATOM     63  C   UNL A   1      49.077  25.932  26.267  1.00  0.00     0.055 A 
ATOM     64  C   UNL A   1      48.144  26.688  24.180  1.00  0.00     0.041 A 
ATOM     65  F   UNL A   1      46.013  27.658  24.141  1.00  0.00    -0.206 F 
ATOM     66  C   UNL A   1      49.201  26.126  24.888  1.00  0.00     0.022 A 
BRANCH  63  67
ATOM     67  S   UNL A   1      50.526  25.301  27.157  1.00  0.00     0.124 S 
ATOM     68  O   UNL A   1      50.905  26.455  27.971  1.00  0.00    -0.237 OA
ATOM     69  O   UNL A   1      49.962  24.175  27.898  1.00  0.00    -0.237 OA
ATOM     70  O   UNL A   1      51.466  24.952  26.098  1.00  0.00    -0.744 OA
ENDBRANCH  63  67
ENDBRANCH  46  60
BRANCH  47  71
ATOM     71  C   UNL A   1      38.761  30.115  31.229  1.00  0.00     0.023 A 
ATOM     72  C   UNL A   1      37.729  30.754  30.518  1.00  0.00     0.031 A 
ATOM     73  C   UNL A   1      38.658  30.062  32.631  1.00  0.00     0.131 A 
ATOM     74  C   UNL A   1      36.681  31.373  31.214  1.00  0.00     0.055 A 
ATOM     75  C   UNL A   1      37.572  30.612  33.315  1.00  0.00     0.041 A 
ATOM     76  F   UNL A   1      39.627  29.484  33.359  1.00  0.00    -0.206 F 
ATOM     77  C   UNL A   1      36.585  31.289  32.607  1.00  0.00     0.022 A 
BRANCH  74  78
ATOM     78  S   UNL A   1      35.491  32.437  30.350  1.00  0.00     0.124 S 
ATOM     79  O   UNL A   1      36.256  33.667  30.173  1.00  0.00    -0.237 OA
ATOM     80  O   UNL A   1      35.238  31.672  29.132  1.00  0.00    -0.237 OA
ATOM     81  O   UNL A   1      34.367  32.518  31.276  1.00  0.00    -0.744 OA
ENDBRANCH  74  78
ENDBRANCH  47  71
BRANCH  59  82
ATOM     82  C   UNL A   1      44.899  33.040  29.366  1.00  0.00     0.023 A 
ATOM     83  C   UNL A   1      44.914  33.922  28.267  1.00  0.00     0.031 A 
ATOM     84  C   UNL A   1      45.613  33.404  30.520  1.00  0.00     0.131 A 
ATOM     85  C   UNL A   1      45.670  35.099  28.327  1.00  0.00     0.055 A 
ATOM     86  C   UNL A   1      46.320  34.604  30.594  1.00  0.00     0.041 A 
ATOM     87  F   UNL A   1      45.646  32.589  31.586  1.00  0.00    -0.206 F 
ATOM     88  C   UNL A   1      46.365  35.449  29.488  1.00  0.00     0.022 A 
BRANCH  85  89
ATOM     89  S   UNL A   1      45.871  36.157  26.866  1.00  0.00     0.124 S 
ATOM     90  O   UNL A   1      45.475  35.256  25.787  1.00  0.00    -0.237 OA
ATOM     91  O   UNL A   1      44.937  37.246  27.145  1.00  0.00    -0.237 OA
ATOM     92  O   UNL A   1      47.283  36.522  26.886  1.00  0.00    -0.744 OA
ENDBRANCH  85  89
ENDBRANCH  59  82
ENDBRANCH  33  34
ENDBRANCH  26  28
ENDBRANCH  25  26
ENDBRANCH   1  25
TORSDOF 17
ENDMDL
MODEL 2
REMARK VINA RESULT:     -12.3      5.897     11.813
REMARK SMILES CC(C)Cc1cc2c(cc1Cl)C=C(C(=O)OCCOC(=O)c1ccc(-c3c4nc(c(-c5cc(S(=O)(=O)[O-])ccc5F)c5ccc([nH]5)c(-c5cc(S(=O)(=O)[O-])ccc5F)c5nc(c(-c6cc(S(=O)(=O)[O-])ccc6F)c6ccc3[nH]6)C=C5)C=C4)cc1)[C@@H](C(F)(F)F)O2
REMARK SMILES IDX 18 1 17 2 16 3 14 4 15 5 13 6 5 7 6 8 10 9 7 10 9 11 11 12
REMARK SMILES IDX 8 13 90 14 12 15 85 16 4 17 2 18 1 19 3 20 86 21 87 22 88 23
REMARK SMILES IDX 89 24 19 25 20 26 21 27 22 28 23 29 84 30 24 31 83 32 25 33
REMARK SMILES IDX 26 34 27 35 77 36 28 37 82 38 76 39 78 40 29 41 81 42 75 43
REMARK SMILES IDX 74 44 30 46 62 47 42 48 61 49 43 50 46 51 60 52 79 53 44 54
REMARK SMILES IDX 45 55 59 57 80 58 47 59 31 60 32 61 40 62 33 63 39 64 41 65
REMARK SMILES IDX 38 66 34 67 35 68 36 69 37 70 63 71 64 72 72 73 65 74 71 75
REMARK SMILES IDX 73 76 70 77 66 78 67 79 68 80 69 81 48 82 49 83 57 84 50 85
REMARK SMILES IDX 56 86 58 87 55 88 51 89 52 90 53 91 54 92
REMARK H PARENT 78 45 46 56
REMARK Flexibility Score: inf
ROOT
ATOM      1  C   UNL A   1      33.506  33.494  28.065  1.00  0.00     0.275 C 
ENDROOT
BRANCH   1   2
ATOM      2  C   UNL A   1      34.361  34.624  28.648  1.00  0.00     0.275 C 
BRANCH   2   3
ATOM      3  O   UNL A   1      34.209  34.743  30.082  1.00  0.00    -0.459 OA
BRANCH   3   4
ATOM      4  C   UNL A   1      34.729  33.729  30.813  1.00  0.00     0.338 C 
ATOM      5  O   UNL A   1      34.327  32.575  30.841  1.00  0.00    -0.246 OA
BRANCH   4   6
ATOM      6  C   UNL A   1      35.933  34.175  31.543  1.00  0.00     0.087 C 
ATOM      7  C   UNL A   1      40.731  34.682  32.957  1.00  0.00    -0.025 A 
ATOM      8  C   UNL A   1      39.494  34.868  33.617  1.00  0.00     0.052 A 
ATOM      9  C   UNL A   1      40.730  34.470  31.570  1.00  0.00     0.045 A 
ATOM     10  C   UNL A   1      38.288  34.730  32.929  1.00  0.00     0.128 A 
ATOM     11  C   UNL A   1      39.531  34.273  30.899  1.00  0.00     0.032 A 
ATOM     12  Cl  UNL A   1      42.179  34.392  30.631  1.00  0.00    -0.084 Cl
ATOM     13  C   UNL A   1      38.324  34.347  31.597  1.00  0.00     0.019 A 
ATOM     14  O   UNL A   1      37.124  34.928  33.618  1.00  0.00    -0.475 OA
ATOM     15  C   UNL A   1      37.106  33.933  30.952  1.00  0.00     0.027 C 
ATOM     16  C   UNL A   1      35.841  34.765  32.922  1.00  0.00     0.316 C 
BRANCH   7  17
ATOM     17  C   UNL A   1      42.001  34.608  33.773  1.00  0.00     0.040 C 
BRANCH  17  18
ATOM     18  C   UNL A   1      42.428  35.978  34.356  1.00  0.00    -0.013 C 
ATOM     19  C   UNL A   1      43.204  35.884  35.674  1.00  0.00     0.008 C 
ATOM     20  C   UNL A   1      43.284  36.728  33.333  1.00  0.00     0.008 C 
ENDBRANCH  17  18
ENDBRANCH   7  17
BRANCH  16  21
ATOM     21  C   UNL A   1      34.950  33.909  33.838  1.00  0.00     0.430 C 
ATOM     22  F   UNL A   1      35.038  34.316  35.129  1.00  0.00    -0.167 F 
ATOM     23  F   UNL A   1      33.640  33.991  33.502  1.00  0.00    -0.167 F 
ATOM     24  F   UNL A   1      35.293  32.601  33.804  1.00  0.00    -0.167 F 
ENDBRANCH  16  21
ENDBRANCH   4   6
ENDBRANCH   3   4
ENDBRANCH   2   3
ENDBRANCH   1   2
BRANCH   1  25
ATOM     25  O   UNL A   1      34.287  32.621  27.228  1.00  0.00    -0.458 OA
BRANCH  25  26
ATOM     26  C   UNL A   1      34.284  31.321  27.604  1.00  0.00     0.338 C 
ATOM     27  O   UNL A   1      33.360  30.531  27.514  1.00  0.00    -0.246 OA
BRANCH  26  28
ATOM     28  C   UNL A   1      35.644  30.914  27.987  1.00  0.00     0.060 A 
ATOM     29  C   UNL A   1      36.690  31.804  28.168  1.00  0.00     0.016 A 
ATOM     30  C   UNL A   1      35.810  29.580  28.327  1.00  0.00     0.016 A 
ATOM     31  C   UNL A   1      37.904  31.321  28.681  1.00  0.00     0.010 A 
ATOM     32  C   UNL A   1      36.949  29.136  28.986  1.00  0.00     0.010 A 
ATOM     33  C   UNL A   1      38.043  29.986  29.131  1.00  0.00    -0.014 A 
BRANCH  33  34
ATOM     34  C   UNL A   1      39.319  29.495  29.741  1.00  0.00     0.031 A 
ATOM     35  C   UNL A   1      39.740  29.897  31.139  1.00  0.00     0.074 A 
ATOM     36  C   UNL A   1      40.123  28.683  29.020  1.00  0.00     0.049 A 
ATOM     37  N   UNL A   1      40.742  29.448  31.856  1.00  0.00    -0.248 NA
ATOM     38  C   UNL A   1      38.979  30.964  31.811  1.00  0.00     0.031 C 
ATOM     39  C   UNL A   1      39.918  28.339  27.613  1.00  0.00     0.029 A 
ATOM     40  N   UNL A   1      41.248  27.976  29.370  1.00  0.00    -0.354 N 
ATOM     41  C   UNL A   1      40.726  30.177  33.043  1.00  0.00     0.074 A 
ATOM     42  C   UNL A   1      39.687  31.167  32.912  1.00  0.00     0.031 C 
ATOM     43  C   UNL A   1      40.815  27.411  27.251  1.00  0.00     0.029 A 
ATOM     44  C   UNL A   1      41.690  27.121  28.384  1.00  0.00     0.049 A 
ATOM     45  H   UNL A   1      41.696  28.071  30.243  1.00  0.00     0.167 HD
ATOM     46  C   UNL A   1      41.466  30.002  34.164  1.00  0.00     0.034 A 
ATOM     47  C   UNL A   1      42.657  26.180  28.397  1.00  0.00     0.034 A 
ATOM     48  C   UNL A   1      42.467  28.976  34.298  1.00  0.00     0.049 A 
ATOM     49  C   UNL A   1      43.407  25.929  29.682  1.00  0.00     0.074 A 
ATOM     50  C   UNL A   1      43.221  28.657  35.413  1.00  0.00     0.029 A 
ATOM     51  N   UNL A   1      42.839  28.093  33.295  1.00  0.00    -0.354 N 
ATOM     52  N   UNL A   1      43.282  26.535  30.841  1.00  0.00    -0.248 NA
ATOM     53  C   UNL A   1      44.410  24.854  29.679  1.00  0.00     0.031 C 
ATOM     54  C   UNL A   1      44.090  27.622  35.067  1.00  0.00     0.029 A 
ATOM     55  C   UNL A   1      43.819  27.236  33.764  1.00  0.00     0.049 A 
ATOM     56  H   UNL A   1      42.463  28.079  32.385  1.00  0.00     0.167 HD
ATOM     57  C   UNL A   1      44.159  25.892  31.709  1.00  0.00     0.074 A 
ATOM     58  C   UNL A   1      44.793  24.836  30.949  1.00  0.00     0.031 C 
ATOM     59  C   UNL A   1      44.417  26.157  33.014  1.00  0.00     0.034 A 
BRANCH  46  60
ATOM     60  C   UNL A   1      41.191  30.877  35.368  1.00  0.00     0.023 A 
ATOM     61  C   UNL A   1      39.901  30.933  35.930  1.00  0.00     0.031 A 
ATOM     62  C   UNL A   1      42.168  31.760  35.868  1.00  0.00     0.131 A 
ATOM     63  C   UNL A   1      39.616  31.872  36.931  1.00  0.00     0.055 A 
ATOM     64  C   UNL A   1      41.892  32.655  36.903  1.00  0.00     0.041 A 
ATOM     65  F   UNL A   1      43.412  31.760  35.363  1.00  0.00    -0.206 F 
ATOM     66  C   UNL A   1      40.607  32.723  37.429  1.00  0.00     0.022 A 
BRANCH  63  67
ATOM     67  S   UNL A   1      37.932  32.082  37.572  1.00  0.00     0.124 S 
ATOM     68  O   UNL A   1      38.144  33.023  38.672  1.00  0.00    -0.237 OA
ATOM     69  O   UNL A   1      37.231  32.628  36.414  1.00  0.00    -0.237 OA
ATOM     70  O   UNL A   1      37.537  30.737  37.973  1.00  0.00    -0.744 OA
ENDBRANCH  63  67
ENDBRANCH  46  60
BRANCH  47  71
ATOM     71  C   UNL A   1      42.857  25.326  27.186  1.00  0.00     0.023 A 
ATOM     72  C   UNL A   1      42.287  24.043  27.097  1.00  0.00     0.031 A 
ATOM     73  C   UNL A   1      43.725  25.732  26.155  1.00  0.00     0.131 A 
ATOM     74  C   UNL A   1      42.648  23.190  26.044  1.00  0.00     0.055 A 
ATOM     75  C   UNL A   1      44.019  24.908  25.067  1.00  0.00     0.041 A 
ATOM     76  F   UNL A   1      44.313  26.939  26.202  1.00  0.00    -0.206 F 
ATOM     77  C   UNL A   1      43.494  23.621  25.018  1.00  0.00     0.022 A 
BRANCH  74  78
ATOM     78  S   UNL A   1      42.153  21.444  26.052  1.00  0.00     0.124 S 
ATOM     79  O   UNL A   1      43.132  20.846  25.149  1.00  0.00    -0.237 OA
ATOM     80  O   UNL A   1      42.303  21.098  27.462  1.00  0.00    -0.237 OA
ATOM     81  O   UNL A   1      40.779  21.475  25.563  1.00  0.00    -0.744 OA
ENDBRANCH  74  78
ENDBRANCH  47  71
BRANCH  59  82
ATOM     82  C   UNL A   1      45.399  25.287  33.761  1.00  0.00     0.023 A 
ATOM     83  C   UNL A   1      46.780  25.550  33.652  1.00  0.00     0.031 A 
ATOM     84  C   UNL A   1      44.997  24.110  34.414  1.00  0.00     0.131 A 
ATOM     85  C   UNL A   1      47.707  24.625  34.144  1.00  0.00     0.055 A 
ATOM     86  C   UNL A   1      45.926  23.217  34.951  1.00  0.00     0.041 A 
ATOM     87  F   UNL A   1      43.695  23.803  34.526  1.00  0.00    -0.206 F 
ATOM     88  C   UNL A   1      47.287  23.465  34.801  1.00  0.00     0.022 A 
BRANCH  85  89
ATOM     89  S   UNL A   1      49.485  24.836  33.847  1.00  0.00     0.124 S 
ATOM     90  O   UNL A   1      49.951  25.322  35.144  1.00  0.00    -0.237 OA
ATOM     91  O   UNL A   1      49.902  23.478  33.503  1.00  0.00    -0.237 OA
ATOM     92  O   UNL A   1      49.550  25.806  32.759  1.00  0.00    -0.744 OA
ENDBRANCH  85  89
ENDBRANCH  59  82
ENDBRANCH  33  34
ENDBRANCH  26  28
ENDBRANCH  25  26
ENDBRANCH   1  25
TORSDOF 17
ENDMDL
MODEL 3
REMARK VINA RESULT:     -12.2      4.598      9.767
REMARK SMILES CC(C)Cc1cc2c(cc1Cl)C=C(C(=O)OCCOC(=O)c1ccc(-c3c4nc(c(-c5cc(S(=O)(=O)[O-])ccc5F)c5ccc([nH]5)c(-c5cc(S(=O)(=O)[O-])ccc5F)c5nc(c(-c6cc(S(=O)(=O)[O-])ccc6F)c6ccc3[nH]6)C=C5)C=C4)cc1)[C@@H](C(F)(F)F)O2
REMARK SMILES IDX 18 1 17 2 16 3 14 4 15 5 13 6 5 7 6 8 10 9 7 10 9 11 11 12
REMARK SMILES IDX 8 13 90 14 12 15 85 16 4 17 2 18 1 19 3 20 86 21 87 22 88 23
REMARK SMILES IDX 89 24 19 25 20 26 21 27 22 28 23 29 84 30 24 31 83 32 25 33
REMARK SMILES IDX 26 34 27 35 77 36 28 37 82 38 76 39 78 40 29 41 81 42 75 43
REMARK SMILES IDX 74 44 30 46 62 47 42 48 61 49 43 50 46 51 60 52 79 53 44 54
REMARK SMILES IDX 45 55 59 57 80 58 47 59 31 60 32 61 40 62 33 63 39 64 41 65
REMARK SMILES IDX 38 66 34 67 35 68 36 69 37 70 63 71 64 72 72 73 65 74 71 75
REMARK SMILES IDX 73 76 70 77 66 78 67 79 68 80 69 81 48 82 49 83 57 84 50 85
REMARK SMILES IDX 56 86 58 87 55 88 51 89 52 90 53 91 54 92
REMARK H PARENT 78 45 46 56
REMARK Flexibility Score: inf
ROOT
ATOM      1  C   UNL A   1      31.567  29.670  25.243  1.00  0.00     0.275 C 
ENDROOT
BRANCH   1   2
ATOM      2  C   UNL A   1      31.983  28.742  24.097  1.00  0.00     0.275 C 
BRANCH   2   3
ATOM      3  O   UNL A   1      32.813  27.648  24.551  1.00  0.00    -0.459 OA
BRANCH   3   4
ATOM      4  C   UNL A   1      33.294  26.834  23.581  1.00  0.00     0.338 C 
ATOM      5  O   UNL A   1      33.766  27.185  22.510  1.00  0.00    -0.246 OA
BRANCH   4   6
ATOM      6  C   UNL A   1      33.253  25.423  24.014  1.00  0.00     0.087 C 
ATOM      7  C   UNL A   1      34.550  20.617  24.720  1.00  0.00    -0.025 A 
ATOM      8  C   UNL A   1      33.312  21.300  24.692  1.00  0.00     0.052 A 
ATOM      9  C   UNL A   1      35.736  21.369  24.724  1.00  0.00     0.045 A 
ATOM     10  C   UNL A   1      33.263  22.687  24.556  1.00  0.00     0.128 A 
ATOM     11  C   UNL A   1      35.686  22.742  24.527  1.00  0.00     0.032 A 
ATOM     12  Cl  UNL A   1      37.297  20.658  24.920  1.00  0.00    -0.084 Cl
ATOM     13  C   UNL A   1      34.452  23.381  24.386  1.00  0.00     0.019 A 
ATOM     14  O   UNL A   1      32.038  23.293  24.542  1.00  0.00    -0.475 OA
ATOM     15  C   UNL A   1      34.410  24.758  23.970  1.00  0.00     0.027 C 
ATOM     16  C   UNL A   1      31.959  24.750  24.375  1.00  0.00     0.316 C 
BRANCH   7  17
ATOM     17  C   UNL A   1      34.565  19.108  24.634  1.00  0.00     0.040 C 
BRANCH  17  18
ATOM     18  C   UNL A   1      33.193  18.510  24.236  1.00  0.00    -0.013 C 
ATOM     19  C   UNL A   1      33.267  17.457  23.124  1.00  0.00     0.008 C 
ATOM     20  C   UNL A   1      32.530  17.882  25.464  1.00  0.00     0.008 C 
ENDBRANCH  17  18
ENDBRANCH   7  17
BRANCH  16  21
ATOM     21  C   UNL A   1      30.877  25.013  23.313  1.00  0.00     0.430 C 
ATOM     22  F   UNL A   1      31.430  25.288  22.105  1.00  0.00    -0.167 F 
ATOM     23  F   UNL A   1      30.071  23.940  23.126  1.00  0.00    -0.167 F 
ATOM     24  F   UNL A   1      30.085  26.060  23.641  1.00  0.00    -0.167 F 
ENDBRANCH  16  21
ENDBRANCH   4   6
ENDBRANCH   3   4
ENDBRANCH   2   3
ENDBRANCH   1   2
BRANCH   1  25
ATOM     25  O   UNL A   1      32.521  29.637  26.320  1.00  0.00    -0.458 OA
BRANCH  25  26
ATOM     26  C   UNL A   1      32.915  30.851  26.768  1.00  0.00     0.338 C 
ATOM     27  O   UNL A   1      32.226  31.850  26.886  1.00  0.00    -0.246 OA
BRANCH  26  28
ATOM     28  C   UNL A   1      34.288  30.767  27.284  1.00  0.00     0.060 A 
ATOM     29  C   UNL A   1      35.033  31.871  27.668  1.00  0.00     0.016 A 
ATOM     30  C   UNL A   1      34.773  29.492  27.533  1.00  0.00     0.016 A 
ATOM     31  C   UNL A   1      36.275  31.663  28.289  1.00  0.00     0.010 A 
ATOM     32  C   UNL A   1      35.917  29.285  28.292  1.00  0.00     0.010 A 
ATOM     33  C   UNL A   1      36.722  30.367  28.643  1.00  0.00    -0.014 A 
BRANCH  33  34
ATOM     34  C   UNL A   1      38.016  30.156  29.366  1.00  0.00     0.031 A 
ATOM     35  C   UNL A   1      38.250  30.711  30.756  1.00  0.00     0.074 A 
ATOM     36  C   UNL A   1      39.004  29.466  28.759  1.00  0.00     0.049 A 
ATOM     37  N   UNL A   1      39.260  30.498  31.566  1.00  0.00    -0.248 NA
ATOM     38  C   UNL A   1      37.261  31.657  31.299  1.00  0.00     0.031 C 
ATOM     39  C   UNL A   1      38.972  29.007  27.369  1.00  0.00     0.029 A 
ATOM     40  N   UNL A   1      40.209  29.000  29.230  1.00  0.00    -0.354 N 
ATOM     41  C   UNL A   1      39.023  31.280  32.693  1.00  0.00     0.074 A 
ATOM     42  C   UNL A   1      37.835  32.053  32.425  1.00  0.00     0.031 C 
ATOM     43  C   UNL A   1      40.046  28.241  27.133  1.00  0.00     0.029 A 
ATOM     44  C   UNL A   1      40.870  28.184  28.338  1.00  0.00     0.049 A 
ATOM     45  H   UNL A   1      40.565  29.227  30.120  1.00  0.00     0.167 HD
ATOM     46  C   UNL A   1      39.694  31.312  33.869  1.00  0.00     0.034 A 
ATOM     47  C   UNL A   1      41.987  27.440  28.480  1.00  0.00     0.034 A 
ATOM     48  C   UNL A   1      40.850  30.497  34.140  1.00  0.00     0.049 A 
ATOM     49  C   UNL A   1      42.670  27.408  29.825  1.00  0.00     0.074 A 
ATOM     50  C   UNL A   1      41.563  30.389  35.321  1.00  0.00     0.029 A 
ATOM     51  N   UNL A   1      41.451  29.640  33.230  1.00  0.00    -0.354 N 
ATOM     52  N   UNL A   1      42.350  28.048  30.927  1.00  0.00    -0.248 NA
ATOM     53  C   UNL A   1      43.847  26.538  29.963  1.00  0.00     0.031 C 
ATOM     54  C   UNL A   1      42.627  29.514  35.107  1.00  0.00     0.029 A 
ATOM     55  C   UNL A   1      42.530  29.008  33.820  1.00  0.00     0.049 A 
ATOM     56  H   UNL A   1      41.153  29.503  32.301  1.00  0.00     0.167 HD
ATOM     57  C   UNL A   1      43.260  27.629  31.893  1.00  0.00     0.074 A 
ATOM     58  C   UNL A   1      44.130  26.665  31.253  1.00  0.00     0.031 C 
ATOM     59  C   UNL A   1      43.367  28.014  33.190  1.00  0.00     0.034 A 
BRANCH  46  60
ATOM     60  C   UNL A   1      39.177  32.191  34.987  1.00  0.00     0.023 A 
ATOM     61  C   UNL A   1      39.686  33.490  35.167  1.00  0.00     0.031 A 
ATOM     62  C   UNL A   1      38.285  31.691  35.957  1.00  0.00     0.131 A 
ATOM     63  C   UNL A   1      39.328  34.230  36.303  1.00  0.00     0.055 A 
ATOM     64  C   UNL A   1      37.890  32.453  37.057  1.00  0.00     0.041 A 
ATOM     65  F   UNL A   1      37.776  30.453  35.844  1.00  0.00    -0.206 F 
ATOM     66  C   UNL A   1      38.424  33.723  37.241  1.00  0.00     0.022 A 
BRANCH  63  67
ATOM     67  S   UNL A   1      40.080  35.843  36.652  1.00  0.00     0.124 S 
ATOM     68  O   UNL A   1      39.654  36.630  35.495  1.00  0.00    -0.237 OA
ATOM     69  O   UNL A   1      39.449  36.207  37.918  1.00  0.00    -0.237 OA
ATOM     70  O   UNL A   1      41.509  35.560  36.717  1.00  0.00    -0.744 OA
ENDBRANCH  63  67
ENDBRANCH  46  60
BRANCH  47  71
ATOM     71  C   UNL A   1      42.428  26.568  27.348  1.00  0.00     0.023 A 
ATOM     72  C   UNL A   1      41.959  25.247  27.221  1.00  0.00     0.031 A 
ATOM     73  C   UNL A   1      43.422  27.001  26.452  1.00  0.00     0.131 A 
ATOM     74  C   UNL A   1      42.533  24.391  26.271  1.00  0.00     0.055 A 
ATOM     75  C   UNL A   1      43.935  26.168  25.455  1.00  0.00     0.041 A 
ATOM     76  F   UNL A   1      43.921  28.244  26.543  1.00  0.00    -0.206 F 
ATOM     77  C   UNL A   1      43.504  24.848  25.374  1.00  0.00     0.022 A 
BRANCH  74  78
ATOM     78  S   UNL A   1      42.151  22.617  26.268  1.00  0.00     0.124 S 
ATOM     79  O   UNL A   1      40.692  22.620  26.317  1.00  0.00    -0.237 OA
ATOM     80  O   UNL A   1      42.738  22.188  25.001  1.00  0.00    -0.237 OA
ATOM     81  O   UNL A   1      42.823  22.118  27.463  1.00  0.00    -0.744 OA
ENDBRANCH  74  78
ENDBRANCH  47  71
BRANCH  59  82
ATOM     82  C   UNL A   1      44.430  27.386  34.058  1.00  0.00     0.023 A 
ATOM     83  C   UNL A   1      45.735  27.920  34.052  1.00  0.00     0.031 A 
ATOM     84  C   UNL A   1      44.212  26.174  34.734  1.00  0.00     0.131 A 
ATOM     85  C   UNL A   1      46.779  27.218  34.665  1.00  0.00     0.055 A 
ATOM     86  C   UNL A   1      45.246  25.506  35.390  1.00  0.00     0.041 A 
ATOM     87  F   UNL A   1      42.992  25.614  34.752  1.00  0.00    -0.206 F 
ATOM     88  C   UNL A   1      46.539  26.019  35.342  1.00  0.00     0.022 A 
BRANCH  85  89
ATOM     89  S   UNL A   1      48.499  27.775  34.506  1.00  0.00     0.124 S 
ATOM     90  O   UNL A   1      48.664  27.832  33.056  1.00  0.00    -0.237 OA
ATOM     91  O   UNL A   1      48.465  29.070  35.182  1.00  0.00    -0.237 OA
ATOM     92  O   UNL A   1      49.270  26.736  35.180  1.00  0.00    -0.744 OA
ENDBRANCH  85  89
ENDBRANCH  59  82
ENDBRANCH  33  34
ENDBRANCH  26  28
ENDBRANCH  25  26
ENDBRANCH   1  25
TORSDOF 17
ENDMDL
