MODEL 1
REMARK VINA RESULT:     -10.8      0.000      0.000
REMARK SMILES C[C@H](CCC[C@@H](C)[NH3+])C(=O)N[C@H]1C=C[C@@H](C(=O)OCCOC(=O)c2ccc(-c3c4nc(c(-c5cc(S(=O)(=O)[O-])ccc5F)c5ccc([nH]5)c(-c5cc(S(=O)(=O)[O-])ccc5F)c5nc(c(-c6cc(S(=O)(=O)[O-])ccc6F)c6ccc3[nH]6)C=C5)C=C4)cc2)C1
REMARK SMILES IDX 16 1 17 2 15 3 12 4 13 5 87 6 14 7 11 8 9 9 10 10 2 12 1 13
REMARK SMILES IDX 3 14 4 15 5 16 6 17 7 18 8 19 18 23 19 24 20 25 21 26 22 27
REMARK SMILES IDX 23 28 24 29 25 30 86 31 26 32 85 33 27 34 28 35 29 36 79 37
REMARK SMILES IDX 30 38 84 39 78 40 80 41 31 42 83 43 77 44 76 45 32 47 64 48
REMARK SMILES IDX 44 49 63 50 45 51 48 52 62 53 81 54 46 55 47 56 61 58 82 59
REMARK SMILES IDX 49 60 33 61 34 62 42 63 35 64 41 65 43 66 40 67 36 68 37 69
REMARK SMILES IDX 38 70 39 71 65 72 66 73 74 74 67 75 73 76 75 77 72 78 68 79
REMARK SMILES IDX 69 80 70 81 71 82 50 83 51 84 59 85 52 86 58 87 60 88 57 89
REMARK SMILES IDX 53 90 54 91 55 92 56 93
REMARK H PARENT 11 11 8 20 8 21 8 22 80 46 48 57
REMARK Flexibility Score: inf
ROOT
ATOM      1  C   UNL A   1      34.817  23.375  23.837  1.00  0.00     0.312 C 
ATOM      2  O   UNL A   1      34.829  24.484  24.357  1.00  0.00    -0.252 OA
ENDROOT
BRANCH   1   3
ATOM      3  C   UNL A   1      33.759  22.326  24.145  1.00  0.00     0.124 C 
ATOM      4  C   UNL A   1      31.710  21.801  25.338  1.00  0.00     0.106 C 
ATOM      5  C   UNL A   1      31.443  22.096  23.887  1.00  0.00    -0.006 C 
ATOM      6  C   UNL A   1      33.077  22.455  25.508  1.00  0.00     0.048 C 
ATOM      7  C   UNL A   1      32.576  22.372  23.224  1.00  0.00    -0.014 C 
BRANCH   4   8
ATOM      8  N   UNL A   1      30.653  22.341  26.155  1.00  0.00    -0.350 N 
ATOM      9  C   UNL A   1      30.326  23.604  26.528  1.00  0.00     0.223 C 
ATOM     10  O   UNL A   1      29.531  23.681  27.477  1.00  0.00    -0.275 OA
ATOM     11  H   UNL A   1      30.046  21.655  26.517  1.00  0.00     0.164 HD
BRANCH   9  12
ATOM     12  C   UNL A   1      30.824  24.901  25.872  1.00  0.00     0.075 C 
ATOM     13  C   UNL A   1      31.891  25.684  26.625  1.00  0.00     0.018 C 
BRANCH  12  14
ATOM     14  C   UNL A   1      29.802  25.776  25.114  1.00  0.00     0.013 C 
BRANCH  14  15
ATOM     15  C   UNL A   1      30.159  26.384  23.755  1.00  0.00     0.007 C 
BRANCH  15  16
ATOM     16  C   UNL A   1      31.384  25.803  23.052  1.00  0.00     0.064 C 
BRANCH  16  17
ATOM     17  C   UNL A   1      31.993  26.627  21.918  1.00  0.00     0.177 C 
ATOM     18  C   UNL A   1      33.487  26.872  22.094  1.00  0.00     0.075 C 
BRANCH  17  19
ATOM     19  N   UNL A   1      31.797  25.846  20.693  1.00  0.00    -0.355 N 
ATOM     20  H   UNL A   1      32.229  24.928  20.803  1.00  0.00     0.344 HD
ATOM     21  H   UNL A   1      32.228  26.332  19.907  1.00  0.00     0.344 HD
ATOM     22  H   UNL A   1      30.799  25.733  20.518  1.00  0.00     0.344 HD
ENDBRANCH  17  19
ENDBRANCH  16  17
ENDBRANCH  15  16
ENDBRANCH  14  15
ENDBRANCH  12  14
ENDBRANCH   9  12
ENDBRANCH   4   8
ENDBRANCH   1   3
BRANCH   1  23
ATOM     23  O   UNL A   1      35.718  22.939  22.922  1.00  0.00    -0.462 OA
BRANCH  23  24
ATOM     24  C   UNL A   1      37.043  22.628  23.382  1.00  0.00     0.274 C 
BRANCH  24  25
ATOM     25  C   UNL A   1      36.976  21.347  24.210  1.00  0.00     0.275 C 
BRANCH  25  26
ATOM     26  O   UNL A   1      37.337  21.625  25.577  1.00  0.00    -0.458 OA
BRANCH  26  27
ATOM     27  C   UNL A   1      38.620  21.348  25.909  1.00  0.00     0.338 C 
ATOM     28  O   UNL A   1      39.221  20.304  25.735  1.00  0.00    -0.246 OA
BRANCH  27  29
ATOM     29  C   UNL A   1      39.224  22.542  26.519  1.00  0.00     0.060 A 
ATOM     30  C   UNL A   1      38.700  23.797  26.220  1.00  0.00     0.016 A 
ATOM     31  C   UNL A   1      40.379  22.424  27.296  1.00  0.00     0.016 A 
ATOM     32  C   UNL A   1      39.372  24.944  26.656  1.00  0.00     0.010 A 
ATOM     33  C   UNL A   1      41.017  23.579  27.769  1.00  0.00     0.010 A 
ATOM     34  C   UNL A   1      40.545  24.858  27.426  1.00  0.00    -0.014 A 
BRANCH  34  35
ATOM     35  C   UNL A   1      41.295  26.091  27.829  1.00  0.00     0.031 A 
ATOM     36  C   UNL A   1      40.630  27.159  28.670  1.00  0.00     0.074 A 
ATOM     37  C   UNL A   1      42.580  26.263  27.460  1.00  0.00     0.049 A 
ATOM     38  N   UNL A   1      41.051  28.366  28.963  1.00  0.00    -0.248 NA
ATOM     39  C   UNL A   1      39.321  26.827  29.251  1.00  0.00     0.031 C 
ATOM     40  C   UNL A   1      43.375  25.303  26.692  1.00  0.00     0.029 A 
ATOM     41  N   UNL A   1      43.450  27.305  27.684  1.00  0.00    -0.354 N 
ATOM     42  C   UNL A   1      40.037  28.958  29.713  1.00  0.00     0.074 A 
ATOM     43  C   UNL A   1      38.981  27.973  29.828  1.00  0.00     0.031 C 
ATOM     44  C   UNL A   1      44.620  25.780  26.545  1.00  0.00     0.029 A 
ATOM     45  C   UNL A   1      44.690  27.121  27.115  1.00  0.00     0.049 A 
ATOM     46  H   UNL A   1      43.208  28.106  28.202  1.00  0.00     0.167 HD
ATOM     47  C   UNL A   1      39.989  30.205  30.250  1.00  0.00     0.034 A 
ATOM     48  C   UNL A   1      45.749  27.947  27.008  1.00  0.00     0.034 A 
ATOM     49  C   UNL A   1      41.063  31.168  30.169  1.00  0.00     0.049 A 
ATOM     50  C   UNL A   1      45.657  29.341  27.569  1.00  0.00     0.074 A 
ATOM     51  C   UNL A   1      41.114  32.451  30.693  1.00  0.00     0.029 A 
ATOM     52  N   UNL A   1      42.280  30.956  29.536  1.00  0.00    -0.354 N 
ATOM     53  N   UNL A   1      44.657  29.913  28.197  1.00  0.00    -0.248 NA
ATOM     54  C   UNL A   1      46.831  30.207  27.386  1.00  0.00     0.031 C 
ATOM     55  C   UNL A   1      42.335  33.031  30.329  1.00  0.00     0.029 A 
ATOM     56  C   UNL A   1      43.076  32.089  29.637  1.00  0.00     0.049 A 
ATOM     57  H   UNL A   1      42.541  30.124  29.080  1.00  0.00     0.167 HD
ATOM     58  C   UNL A   1      45.086  31.204  28.490  1.00  0.00     0.074 A 
ATOM     59  C   UNL A   1      46.441  31.318  27.991  1.00  0.00     0.031 C 
ATOM     60  C   UNL A   1      44.416  32.206  29.114  1.00  0.00     0.034 A 
BRANCH  47  61
ATOM     61  C   UNL A   1      38.704  30.628  30.925  1.00  0.00     0.023 A 
ATOM     62  C   UNL A   1      37.638  31.203  30.215  1.00  0.00     0.031 A 
ATOM     63  C   UNL A   1      38.548  30.448  32.313  1.00  0.00     0.131 A 
ATOM     64  C   UNL A   1      36.488  31.630  30.900  1.00  0.00     0.055 A 
ATOM     65  C   UNL A   1      37.374  30.808  32.978  1.00  0.00     0.041 A 
ATOM     66  F   UNL A   1      39.539  29.919  33.048  1.00  0.00    -0.206 F 
ATOM     67  C   UNL A   1      36.340  31.414  32.273  1.00  0.00     0.022 A 
BRANCH  64  68
ATOM     68  S   UNL A   1      35.240  32.584  29.994  1.00  0.00     0.124 S 
ATOM     69  O   UNL A   1      34.862  31.647  28.939  1.00  0.00    -0.237 OA
ATOM     70  O   UNL A   1      34.232  32.835  31.017  1.00  0.00    -0.237 OA
ATOM     71  O   UNL A   1      35.974  33.763  29.538  1.00  0.00    -0.744 OA
ENDBRANCH  64  68
ENDBRANCH  47  61
BRANCH  48  72
ATOM     72  C   UNL A   1      46.966  27.507  26.268  1.00  0.00     0.023 A 
ATOM     73  C   UNL A   1      47.141  27.813  24.911  1.00  0.00     0.031 A 
ATOM     74  C   UNL A   1      47.963  26.751  26.910  1.00  0.00     0.131 A 
ATOM     75  C   UNL A   1      48.277  27.344  24.231  1.00  0.00     0.055 A 
ATOM     76  C   UNL A   1      49.115  26.332  26.245  1.00  0.00     0.041 A 
ATOM     77  F   UNL A   1      47.841  26.428  28.208  1.00  0.00    -0.206 F 
ATOM     78  C   UNL A   1      49.272  26.622  24.893  1.00  0.00     0.022 A 
BRANCH  75  79
ATOM     79  S   UNL A   1      48.404  27.636  22.445  1.00  0.00     0.124 S 
ATOM     80  O   UNL A   1      48.502  26.276  21.928  1.00  0.00    -0.237 OA
ATOM     81  O   UNL A   1      47.158  28.342  22.165  1.00  0.00    -0.237 OA
ATOM     82  O   UNL A   1      49.617  28.441  22.318  1.00  0.00    -0.744 OA
ENDBRANCH  75  79
ENDBRANCH  48  72
BRANCH  60  83
ATOM     83  C   UNL A   1      45.164  33.500  29.315  1.00  0.00     0.023 A 
ATOM     84  C   UNL A   1      45.085  34.548  28.382  1.00  0.00     0.031 A 
ATOM     85  C   UNL A   1      45.993  33.671  30.437  1.00  0.00     0.131 A 
ATOM     86  C   UNL A   1      45.865  35.702  28.560  1.00  0.00     0.055 A 
ATOM     87  C   UNL A   1      46.729  34.841  30.634  1.00  0.00     0.041 A 
ATOM     88  F   UNL A   1      46.106  32.699  31.357  1.00  0.00    -0.206 F 
ATOM     89  C   UNL A   1      46.677  35.859  29.686  1.00  0.00     0.022 A 
BRANCH  86  90
ATOM     90  S   UNL A   1      45.870  36.961  27.255  1.00  0.00     0.124 S 
ATOM     91  O   UNL A   1      44.444  37.183  27.039  1.00  0.00    -0.237 OA
ATOM     92  O   UNL A   1      46.599  38.059  27.882  1.00  0.00    -0.237 OA
ATOM     93  O   UNL A   1      46.569  36.307  26.149  1.00  0.00    -0.744 OA
ENDBRANCH  86  90
ENDBRANCH  60  83
ENDBRANCH  34  35
ENDBRANCH  27  29
ENDBRANCH  26  27
ENDBRANCH  25  26
ENDBRANCH  24  25
ENDBRANCH  23  24
ENDBRANCH   1  23
TORSDOF 21
ENDMDL
MODEL 2
REMARK VINA RESULT:     -10.7      1.523      2.261
REMARK SMILES C[C@H](CCC[C@@H](C)[NH3+])C(=O)N[C@H]1C=C[C@@H](C(=O)OCCOC(=O)c2ccc(-c3c4nc(c(-c5cc(S(=O)(=O)[O-])ccc5F)c5ccc([nH]5)c(-c5cc(S(=O)(=O)[O-])ccc5F)c5nc(c(-c6cc(S(=O)(=O)[O-])ccc6F)c6ccc3[nH]6)C=C5)C=C4)cc2)C1
REMARK SMILES IDX 16 1 17 2 15 3 12 4 13 5 87 6 14 7 11 8 9 9 10 10 2 12 1 13
REMARK SMILES IDX 3 14 4 15 5 16 6 17 7 18 8 19 18 23 19 24 20 25 21 26 22 27
REMARK SMILES IDX 23 28 24 29 25 30 86 31 26 32 85 33 27 34 28 35 29 36 79 37
REMARK SMILES IDX 30 38 84 39 78 40 80 41 31 42 83 43 77 44 76 45 32 47 64 48
REMARK SMILES IDX 44 49 63 50 45 51 48 52 62 53 81 54 46 55 47 56 61 58 82 59
REMARK SMILES IDX 49 60 33 61 34 62 42 63 35 64 41 65 43 66 40 67 36 68 37 69
REMARK SMILES IDX 38 70 39 71 65 72 66 73 74 74 67 75 73 76 75 77 72 78 68 79
REMARK SMILES IDX 69 80 70 81 71 82 50 83 51 84 59 85 52 86 58 87 60 88 57 89
REMARK SMILES IDX 53 90 54 91 55 92 56 93
REMARK H PARENT 11 11 8 20 8 21 8 22 80 46 48 57
REMARK Flexibility Score: inf
ROOT
ATOM      1  C   UNL A   1      34.049  23.270  25.961  1.00  0.00     0.312 C 
ATOM      2  O   UNL A   1      32.866  23.064  26.204  1.00  0.00    -0.252 OA
ENDROOT
BRANCH   1   3
ATOM      3  C   UNL A   1      34.534  24.453  25.137  1.00  0.00     0.124 C 
ATOM      4  C   UNL A   1      34.126  25.898  23.228  1.00  0.00     0.106 C 
ATOM      5  C   UNL A   1      33.723  26.561  24.517  1.00  0.00    -0.006 C 
ATOM      6  C   UNL A   1      34.139  24.435  23.660  1.00  0.00     0.048 C 
ATOM      7  C   UNL A   1      33.961  25.769  25.574  1.00  0.00    -0.014 C 
BRANCH   4   8
ATOM      8  N   UNL A   1      33.190  26.235  22.186  1.00  0.00    -0.350 N 
ATOM      9  C   UNL A   1      31.838  26.157  22.097  1.00  0.00     0.223 C 
ATOM     10  O   UNL A   1      31.382  26.252  20.948  1.00  0.00    -0.275 OA
ATOM     11  H   UNL A   1      33.616  26.593  21.374  1.00  0.00     0.164 HD
BRANCH   9  12
ATOM     12  C   UNL A   1      30.860  25.993  23.270  1.00  0.00     0.075 C 
ATOM     13  C   UNL A   1      30.554  24.568  23.713  1.00  0.00     0.018 C 
BRANCH  12  14
ATOM     14  C   UNL A   1      29.664  26.965  23.366  1.00  0.00     0.013 C 
BRANCH  14  15
ATOM     15  C   UNL A   1      29.899  28.471  23.509  1.00  0.00     0.007 C 
BRANCH  15  16
ATOM     16  C   UNL A   1      30.069  29.258  22.212  1.00  0.00     0.064 C 
BRANCH  16  17
ATOM     17  C   UNL A   1      28.961  30.244  21.844  1.00  0.00     0.177 C 
ATOM     18  C   UNL A   1      27.741  30.136  22.752  1.00  0.00     0.075 C 
BRANCH  17  19
ATOM     19  N   UNL A   1      29.534  31.583  22.004  1.00  0.00    -0.355 N 
ATOM     20  H   UNL A   1      29.969  31.659  22.924  1.00  0.00     0.344 HD
ATOM     21  H   UNL A   1      28.796  32.282  21.920  1.00  0.00     0.344 HD
ATOM     22  H   UNL A   1      30.237  31.742  21.282  1.00  0.00     0.344 HD
ENDBRANCH  17  19
ENDBRANCH  16  17
ENDBRANCH  15  16
ENDBRANCH  14  15
ENDBRANCH  12  14
ENDBRANCH   9  12
ENDBRANCH   4   8
ENDBRANCH   1   3
BRANCH   1  23
ATOM     23  O   UNL A   1      35.074  22.495  26.395  1.00  0.00    -0.462 OA
BRANCH  23  24
ATOM     24  C   UNL A   1      35.076  21.110  26.014  1.00  0.00     0.274 C 
BRANCH  24  25
ATOM     25  C   UNL A   1      35.924  20.959  24.754  1.00  0.00     0.275 C 
BRANCH  25  26
ATOM     26  O   UNL A   1      37.057  21.848  24.813  1.00  0.00    -0.458 OA
BRANCH  26  27
ATOM     27  C   UNL A   1      38.142  21.366  25.464  1.00  0.00     0.338 C 
ATOM     28  O   UNL A   1      38.532  20.213  25.501  1.00  0.00    -0.246 OA
BRANCH  27  29
ATOM     29  C   UNL A   1      38.828  22.479  26.137  1.00  0.00     0.060 A 
ATOM     30  C   UNL A   1      38.324  23.770  26.003  1.00  0.00     0.016 A 
ATOM     31  C   UNL A   1      40.034  22.256  26.806  1.00  0.00     0.016 A 
ATOM     32  C   UNL A   1      39.063  24.851  26.493  1.00  0.00     0.010 A 
ATOM     33  C   UNL A   1      40.743  23.343  27.337  1.00  0.00     0.010 A 
ATOM     34  C   UNL A   1      40.288  24.660  27.157  1.00  0.00    -0.014 A 
BRANCH  34  35
ATOM     35  C   UNL A   1      41.105  25.828  27.617  1.00  0.00     0.031 A 
ATOM     36  C   UNL A   1      40.499  26.896  28.502  1.00  0.00     0.074 A 
ATOM     37  C   UNL A   1      42.401  25.942  27.260  1.00  0.00     0.049 A 
ATOM     38  N   UNL A   1      40.987  28.062  28.850  1.00  0.00    -0.248 NA
ATOM     39  C   UNL A   1      39.170  26.615  29.063  1.00  0.00     0.031 C 
ATOM     40  C   UNL A   1      43.144  24.973  26.453  1.00  0.00     0.029 A 
ATOM     41  N   UNL A   1      43.328  26.921  27.533  1.00  0.00    -0.354 N 
ATOM     42  C   UNL A   1      40.005  28.678  29.622  1.00  0.00     0.074 A 
ATOM     43  C   UNL A   1      38.893  27.752  29.690  1.00  0.00     0.031 C 
ATOM     44  C   UNL A   1      44.415  25.382  26.331  1.00  0.00     0.029 A 
ATOM     45  C   UNL A   1      44.559  26.690  26.961  1.00  0.00     0.049 A 
ATOM     46  H   UNL A   1      43.130  27.711  28.086  1.00  0.00     0.167 HD
ATOM     47  C   UNL A   1      40.025  29.901  30.214  1.00  0.00     0.034 A 
ATOM     48  C   UNL A   1      45.665  27.458  26.895  1.00  0.00     0.034 A 
ATOM     49  C   UNL A   1      41.154  30.802  30.180  1.00  0.00     0.049 A 
ATOM     50  C   UNL A   1      45.650  28.828  27.517  1.00  0.00     0.074 A 
ATOM     51  C   UNL A   1      41.276  32.056  30.760  1.00  0.00     0.029 A 
ATOM     52  N   UNL A   1      42.361  30.548  29.542  1.00  0.00    -0.354 N 
ATOM     53  N   UNL A   1      44.681  29.429  28.166  1.00  0.00    -0.248 NA
ATOM     54  C   UNL A   1      46.873  29.632  27.377  1.00  0.00     0.031 C 
ATOM     55  C   UNL A   1      42.531  32.579  30.427  1.00  0.00     0.029 A 
ATOM     56  C   UNL A   1      43.221  31.627  29.696  1.00  0.00     0.049 A 
ATOM     57  H   UNL A   1      42.576  29.723  29.051  1.00  0.00     0.167 HD
ATOM     58  C   UNL A   1      45.182  30.679  28.518  1.00  0.00     0.074 A 
ATOM     59  C   UNL A   1      46.545  30.736  28.029  1.00  0.00     0.031 C 
ATOM     60  C   UNL A   1      44.568  31.689  29.183  1.00  0.00     0.034 A 
BRANCH  47  61
ATOM     61  C   UNL A   1      38.764  30.368  30.903  1.00  0.00     0.023 A 
ATOM     62  C   UNL A   1      37.875  31.276  30.305  1.00  0.00     0.031 A 
ATOM     63  C   UNL A   1      38.447  29.888  32.188  1.00  0.00     0.131 A 
ATOM     64  C   UNL A   1      36.745  31.720  31.012  1.00  0.00     0.055 A 
ATOM     65  C   UNL A   1      37.285  30.277  32.857  1.00  0.00     0.041 A 
ATOM     66  F   UNL A   1      39.266  29.031  32.818  1.00  0.00    -0.206 F 
ATOM     67  C   UNL A   1      36.432  31.208  32.275  1.00  0.00     0.022 A 
BRANCH  64  68
ATOM     68  S   UNL A   1      35.757  33.069  30.311  1.00  0.00     0.124 S 
ATOM     69  O   UNL A   1      36.313  33.174  28.965  1.00  0.00    -0.237 OA
ATOM     70  O   UNL A   1      34.399  32.545  30.402  1.00  0.00    -0.237 OA
ATOM     71  O   UNL A   1      36.049  34.200  31.189  1.00  0.00    -0.744 OA
ENDBRANCH  64  68
ENDBRANCH  47  61
BRANCH  48  72
ATOM     72  C   UNL A   1      46.859  26.981  26.140  1.00  0.00     0.023 A 
ATOM     73  C   UNL A   1      47.135  27.449  24.847  1.00  0.00     0.031 A 
ATOM     74  C   UNL A   1      47.729  26.028  26.699  1.00  0.00     0.131 A 
ATOM     75  C   UNL A   1      48.242  26.945  24.145  1.00  0.00     0.055 A 
ATOM     76  C   UNL A   1      48.857  25.570  26.019  1.00  0.00     0.041 A 
ATOM     77  F   UNL A   1      47.506  25.546  27.933  1.00  0.00    -0.206 F 
ATOM     78  C   UNL A   1      49.114  26.023  24.729  1.00  0.00     0.022 A 
BRANCH  75  79
ATOM     79  S   UNL A   1      48.491  27.464  22.425  1.00  0.00     0.124 S 
ATOM     80  O   UNL A   1      49.732  28.224  22.520  1.00  0.00    -0.237 OA
ATOM     81  O   UNL A   1      48.574  26.182  21.732  1.00  0.00    -0.237 OA
ATOM     82  O   UNL A   1      47.296  28.251  22.131  1.00  0.00    -0.744 OA
ENDBRANCH  75  79
ENDBRANCH  48  72
BRANCH  60  83
ATOM     83  C   UNL A   1      45.388  32.927  29.444  1.00  0.00     0.023 A 
ATOM     84  C   UNL A   1      45.387  34.013  28.550  1.00  0.00     0.031 A 
ATOM     85  C   UNL A   1      46.207  33.006  30.584  1.00  0.00     0.131 A 
ATOM     86  C   UNL A   1      46.232  35.110  28.783  1.00  0.00     0.055 A 
ATOM     87  C   UNL A   1      47.008  34.122  30.836  1.00  0.00     0.041 A 
ATOM     88  F   UNL A   1      46.247  31.996  31.468  1.00  0.00    -0.206 F 
ATOM     89  C   UNL A   1      47.033  35.176  29.927  1.00  0.00     0.022 A 
BRANCH  86  90
ATOM     90  S   UNL A   1      46.334  36.414  27.527  1.00  0.00     0.124 S 
ATOM     91  O   UNL A   1      45.364  35.959  26.536  1.00  0.00    -0.237 OA
ATOM     92  O   UNL A   1      45.964  37.606  28.283  1.00  0.00    -0.237 OA
ATOM     93  O   UNL A   1      47.730  36.365  27.095  1.00  0.00    -0.744 OA
ENDBRANCH  86  90
ENDBRANCH  60  83
ENDBRANCH  34  35
ENDBRANCH  27  29
ENDBRANCH  26  27
ENDBRANCH  25  26
ENDBRANCH  24  25
ENDBRANCH  23  24
ENDBRANCH   1  23
TORSDOF 21
ENDMDL
MODEL 3
REMARK VINA RESULT:     -10.7      1.388      7.733
REMARK SMILES C[C@H](CCC[C@@H](C)[NH3+])C(=O)N[C@H]1C=C[C@@H](C(=O)OCCOC(=O)c2ccc(-c3c4nc(c(-c5cc(S(=O)(=O)[O-])ccc5F)c5ccc([nH]5)c(-c5cc(S(=O)(=O)[O-])ccc5F)c5nc(c(-c6cc(S(=O)(=O)[O-])ccc6F)c6ccc3[nH]6)C=C5)C=C4)cc2)C1
REMARK SMILES IDX 16 1 17 2 15 3 12 4 13 5 87 6 14 7 11 8 9 9 10 10 2 12 1 13
REMARK SMILES IDX 3 14 4 15 5 16 6 17 7 18 8 19 18 23 19 24 20 25 21 26 22 27
REMARK SMILES IDX 23 28 24 29 25 30 86 31 26 32 85 33 27 34 28 35 29 36 79 37
REMARK SMILES IDX 30 38 84 39 78 40 80 41 31 42 83 43 77 44 76 45 32 47 64 48
REMARK SMILES IDX 44 49 63 50 45 51 48 52 62 53 81 54 46 55 47 56 61 58 82 59
REMARK SMILES IDX 49 60 33 61 34 62 42 63 35 64 41 65 43 66 40 67 36 68 37 69
REMARK SMILES IDX 38 70 39 71 65 72 66 73 74 74 67 75 73 76 75 77 72 78 68 79
REMARK SMILES IDX 69 80 70 81 71 82 50 83 51 84 59 85 52 86 58 87 60 88 57 89
REMARK SMILES IDX 53 90 54 91 55 92 56 93
REMARK H PARENT 11 11 8 20 8 21 8 22 80 46 48 57
REMARK Flexibility Score: inf
ROOT
ATOM      1  C   UNL A   1      33.777  21.697  26.712  1.00  0.00     0.312 C 
ATOM      2  O   UNL A   1      33.943  21.739  27.925  1.00  0.00    -0.252 OA
ENDROOT
BRANCH   1   3
ATOM      3  C   UNL A   1      33.307  22.893  25.897  1.00  0.00     0.124 C 
ATOM      4  C   UNL A   1      32.171  25.040  25.916  1.00  0.00     0.106 C 
ATOM      5  C   UNL A   1      33.666  25.207  25.882  1.00  0.00    -0.006 C 
ATOM      6  C   UNL A   1      32.064  23.607  26.429  1.00  0.00     0.048 C 
ATOM      7  C   UNL A   1      34.294  24.022  25.857  1.00  0.00    -0.014 C 
BRANCH   4   8
ATOM      8  N   UNL A   1      31.579  26.051  26.755  1.00  0.00    -0.350 N 
ATOM      9  C   UNL A   1      31.391  27.386  26.601  1.00  0.00     0.223 C 
ATOM     10  O   UNL A   1      31.118  28.000  27.643  1.00  0.00    -0.275 OA
ATOM     11  H   UNL A   1      31.244  25.704  27.613  1.00  0.00     0.164 HD
BRANCH   9  12
ATOM     12  C   UNL A   1      31.461  28.165  25.279  1.00  0.00     0.075 C 
ATOM     13  C   UNL A   1      31.586  29.680  25.383  1.00  0.00     0.018 C 
BRANCH  12  14
ATOM     14  C   UNL A   1      30.605  27.672  24.093  1.00  0.00     0.013 C 
BRANCH  14  15
ATOM     15  C   UNL A   1      31.209  27.573  22.690  1.00  0.00     0.007 C 
BRANCH  15  16
ATOM     16  C   UNL A   1      32.626  27.013  22.598  1.00  0.00     0.064 C 
BRANCH  16  17
ATOM     17  C   UNL A   1      32.818  25.727  21.794  1.00  0.00     0.177 C 
ATOM     18  C   UNL A   1      32.179  24.511  22.455  1.00  0.00     0.075 C 
BRANCH  17  19
ATOM     19  N   UNL A   1      32.159  25.948  20.504  1.00  0.00    -0.355 N 
ATOM     20  H   UNL A   1      31.218  25.555  20.531  1.00  0.00     0.344 HD
ATOM     21  H   UNL A   1      32.696  25.494  19.765  1.00  0.00     0.344 HD
ATOM     22  H   UNL A   1      32.103  26.950  20.318  1.00  0.00     0.344 HD
ENDBRANCH  17  19
ENDBRANCH  16  17
ENDBRANCH  15  16
ENDBRANCH  14  15
ENDBRANCH  12  14
ENDBRANCH   9  12
ENDBRANCH   4   8
ENDBRANCH   1   3
BRANCH   1  23
ATOM     23  O   UNL A   1      33.996  20.605  25.938  1.00  0.00    -0.462 OA
BRANCH  23  24
ATOM     24  C   UNL A   1      34.750  20.781  24.729  1.00  0.00     0.274 C 
BRANCH  24  25
ATOM     25  C   UNL A   1      36.191  20.354  24.994  1.00  0.00     0.275 C 
BRANCH  25  26
ATOM     26  O   UNL A   1      36.908  21.420  25.649  1.00  0.00    -0.458 OA
BRANCH  26  27
ATOM     27  C   UNL A   1      38.249  21.250  25.741  1.00  0.00     0.338 C 
ATOM     28  O   UNL A   1      38.893  20.263  25.434  1.00  0.00    -0.246 OA
BRANCH  27  29
ATOM     29  C   UNL A   1      38.851  22.483  26.268  1.00  0.00     0.060 A 
ATOM     30  C   UNL A   1      38.176  23.691  26.111  1.00  0.00     0.016 A 
ATOM     31  C   UNL A   1      40.136  22.456  26.815  1.00  0.00     0.016 A 
ATOM     32  C   UNL A   1      38.817  24.886  26.453  1.00  0.00     0.010 A 
ATOM     33  C   UNL A   1      40.750  23.657  27.201  1.00  0.00     0.010 A 
ATOM     34  C   UNL A   1      40.116  24.893  26.991  1.00  0.00    -0.014 A 
BRANCH  34  35
ATOM     35  C   UNL A   1      40.819  26.182  27.289  1.00  0.00     0.031 A 
ATOM     36  C   UNL A   1      42.206  26.450  26.745  1.00  0.00     0.074 A 
ATOM     37  C   UNL A   1      40.222  27.132  28.037  1.00  0.00     0.049 A 
ATOM     38  N   UNL A   1      43.041  27.417  27.039  1.00  0.00    -0.248 NA
ATOM     39  C   UNL A   1      42.719  25.504  25.744  1.00  0.00     0.031 C 
ATOM     40  C   UNL A   1      38.871  27.046  28.593  1.00  0.00     0.029 A 
ATOM     41  N   UNL A   1      40.672  28.362  28.458  1.00  0.00    -0.354 N 
ATOM     42  C   UNL A   1      44.198  27.166  26.305  1.00  0.00     0.074 A 
ATOM     43  C   UNL A   1      43.953  25.954  25.551  1.00  0.00     0.031 C 
ATOM     44  C   UNL A   1      38.587  28.184  29.243  1.00  0.00     0.029 A 
ATOM     45  C   UNL A   1      39.767  29.041  29.242  1.00  0.00     0.049 A 
ATOM     46  H   UNL A   1      41.557  28.722  28.221  1.00  0.00     0.167 HD
ATOM     47  C   UNL A   1      45.355  27.876  26.267  1.00  0.00     0.034 A 
ATOM     48  C   UNL A   1      39.880  30.195  29.931  1.00  0.00     0.034 A 
ATOM     49  C   UNL A   1      45.579  29.109  26.987  1.00  0.00     0.049 A 
ATOM     50  C   UNL A   1      41.187  30.940  29.913  1.00  0.00     0.074 A 
ATOM     51  C   UNL A   1      46.712  29.908  27.001  1.00  0.00     0.029 A 
ATOM     52  N   UNL A   1      44.651  29.732  27.811  1.00  0.00    -0.354 N 
ATOM     53  N   UNL A   1      42.299  30.641  29.284  1.00  0.00    -0.248 NA
ATOM     54  C   UNL A   1      41.259  32.170  30.716  1.00  0.00     0.031 C 
ATOM     55  C   UNL A   1      46.489  30.980  27.874  1.00  0.00     0.029 A 
ATOM     56  C   UNL A   1      45.194  30.889  28.353  1.00  0.00     0.049 A 
ATOM     57  H   UNL A   1      43.741  29.401  27.987  1.00  0.00     0.167 HD
ATOM     58  C   UNL A   1      43.200  31.650  29.611  1.00  0.00     0.074 A 
ATOM     59  C   UNL A   1      42.495  32.577  30.473  1.00  0.00     0.031 C 
ATOM     60  C   UNL A   1      44.495  31.795  29.233  1.00  0.00     0.034 A 
BRANCH  47  61
ATOM     61  C   UNL A   1      46.502  27.306  25.462  1.00  0.00     0.023 A 
ATOM     62  C   UNL A   1      46.898  27.853  24.231  1.00  0.00     0.031 A 
ATOM     63  C   UNL A   1      47.212  26.191  25.945  1.00  0.00     0.131 A 
ATOM     64  C   UNL A   1      47.934  27.250  23.498  1.00  0.00     0.055 A 
ATOM     65  C   UNL A   1      48.288  25.640  25.247  1.00  0.00     0.041 A 
ATOM     66  F   UNL A   1      46.869  25.614  27.109  1.00  0.00    -0.206 F 
ATOM     67  C   UNL A   1      48.647  26.162  24.008  1.00  0.00     0.022 A 
BRANCH  64  68
ATOM     68  S   UNL A   1      48.255  27.831  21.810  1.00  0.00     0.124 S 
ATOM     69  O   UNL A   1      47.086  28.670  21.559  1.00  0.00    -0.237 OA
ATOM     70  O   UNL A   1      49.525  28.532  21.954  1.00  0.00    -0.237 OA
ATOM     71  O   UNL A   1      48.308  26.597  21.027  1.00  0.00    -0.744 OA
ENDBRANCH  64  68
ENDBRANCH  47  61
BRANCH  48  72
ATOM     72  C   UNL A   1      38.744  30.677  30.768  1.00  0.00     0.023 A 
ATOM     73  C   UNL A   1      37.812  31.597  30.266  1.00  0.00     0.031 A 
ATOM     74  C   UNL A   1      38.591  30.236  32.095  1.00  0.00     0.131 A 
ATOM     75  C   UNL A   1      36.780  32.067  31.095  1.00  0.00     0.055 A 
ATOM     76  C   UNL A   1      37.535  30.665  32.898  1.00  0.00     0.041 A 
ATOM     77  F   UNL A   1      39.460  29.359  32.623  1.00  0.00    -0.206 F 
ATOM     78  C   UNL A   1      36.626  31.594  32.401  1.00  0.00     0.022 A 
BRANCH  75  79
ATOM     79  S   UNL A   1      35.678  33.361  30.464  1.00  0.00     0.124 S 
ATOM     80  O   UNL A   1      34.429  32.628  30.291  1.00  0.00    -0.237 OA
ATOM     81  O   UNL A   1      35.705  34.337  31.548  1.00  0.00    -0.237 OA
ATOM     82  O   UNL A   1      36.328  33.788  29.227  1.00  0.00    -0.744 OA
ENDBRANCH  75  79
ENDBRANCH  48  72
BRANCH  60  83
ATOM     83  C   UNL A   1      45.215  33.022  29.732  1.00  0.00     0.023 A 
ATOM     84  C   UNL A   1      45.114  34.256  29.066  1.00  0.00     0.031 A 
ATOM     85  C   UNL A   1      46.040  32.946  30.868  1.00  0.00     0.131 A 
ATOM     86  C   UNL A   1      45.870  35.353  29.510  1.00  0.00     0.055 A 
ATOM     87  C   UNL A   1      46.751  34.053  31.333  1.00  0.00     0.041 A 
ATOM     88  F   UNL A   1      46.173  31.791  31.539  1.00  0.00    -0.206 F 
ATOM     89  C   UNL A   1      46.678  35.262  30.646  1.00  0.00     0.022 A 
BRANCH  86  90
ATOM     90  S   UNL A   1      45.850  36.879  28.531  1.00  0.00     0.124 S 
ATOM     91  O   UNL A   1      44.820  36.591  27.538  1.00  0.00    -0.237 OA
ATOM     92  O   UNL A   1      45.509  37.887  29.530  1.00  0.00    -0.237 OA
ATOM     93  O   UNL A   1      47.211  36.967  28.003  1.00  0.00    -0.744 OA
ENDBRANCH  86  90
ENDBRANCH  60  83
ENDBRANCH  34  35
ENDBRANCH  27  29
ENDBRANCH  26  27
ENDBRANCH  25  26
ENDBRANCH  24  25
ENDBRANCH  23  24
ENDBRANCH   1  23
TORSDOF 21
ENDMDL
