MODEL 1
REMARK VINA RESULT:     -11.5      0.000      0.000
REMARK SMILES CC(C)[C@H](CO)NS(=O)(=O)c1ccc(Cl)c(C(=O)OCCOC(=O)c2ccc(-c3c4nc(c(-c5cc(S(=O)(=O)[O-])ccc5F)c5ccc([nH]5)c(-c5cc(S(=O)(=O)[O-])ccc5F)c5nc(c(-c6cc(S(=O)(=O)[O-])ccc6F)c6ccc3[nH]6)C=C5)C=C4)cc2)c1
REMARK SMILES IDX 20 1 19 2 17 3 18 4 16 5 11 6 12 7 88 8 13 9 14 10 15 11
REMARK SMILES IDX 8 12 9 13 10 14 7 15 4 17 2 18 1 19 3 20 5 21 6 22 21 24
REMARK SMILES IDX 22 25 23 26 24 27 25 28 26 29 87 30 27 31 86 32 28 33 29 34
REMARK SMILES IDX 30 35 80 36 31 37 85 38 79 39 81 40 32 41 84 42 78 43 77 44
REMARK SMILES IDX 33 46 65 47 45 48 64 49 46 50 49 51 63 52 82 53 47 54 48 55
REMARK SMILES IDX 62 57 83 58 50 59 34 60 35 61 43 62 36 63 42 64 44 65 41 66
REMARK SMILES IDX 37 67 38 68 39 69 40 70 66 71 67 72 75 73 68 74 74 75 76 76
REMARK SMILES IDX 73 77 69 78 70 79 71 80 72 81 51 82 52 83 60 84 53 85 59 86
REMARK SMILES IDX 61 87 58 88 54 89 55 90 56 91 57 92
REMARK H PARENT 7 16 6 23 81 45 49 56
REMARK Flexibility Score: inf
ROOT
ATOM      1  C   UNL A   1      32.729  28.015  24.721  1.00  0.00     0.275 C 
ENDROOT
BRANCH   1   2
ATOM      2  O   UNL A   1      32.853  27.093  25.821  1.00  0.00    -0.458 OA
BRANCH   2   3
ATOM      3  C   UNL A   1      31.792  26.294  26.087  1.00  0.00     0.339 C 
ATOM      4  O   UNL A   1      30.889  26.505  26.876  1.00  0.00    -0.246 OA
BRANCH   3   5
ATOM      5  C   UNL A   1      31.792  25.149  25.151  1.00  0.00     0.080 A 
ATOM      6  C   UNL A   1      32.792  23.030  24.530  1.00  0.00     0.083 A 
ATOM      7  C   UNL A   1      31.768  22.821  23.604  1.00  0.00     0.023 A 
ATOM      8  C   UNL A   1      32.823  24.203  25.286  1.00  0.00     0.039 A 
ATOM      9  C   UNL A   1      30.793  23.800  23.409  1.00  0.00     0.023 A 
ATOM     10  C   UNL A   1      30.797  24.965  24.183  1.00  0.00     0.055 A 
ATOM     11  Cl  UNL A   1      29.574  26.139  23.850  1.00  0.00    -0.083 Cl
BRANCH   6  12
ATOM     12  S   UNL A   1      33.899  21.686  24.912  1.00  0.00     0.240 S 
ATOM     13  O   UNL A   1      33.916  21.553  26.346  1.00  0.00    -0.207 OA
ATOM     14  O   UNL A   1      35.109  21.909  24.154  1.00  0.00    -0.207 OA
BRANCH  12  15
ATOM     15  N   UNL A   1      33.188  20.343  24.232  1.00  0.00    -0.206 NA
ATOM     16  H   UNL A   1      32.202  20.400  24.488  1.00  0.00     0.141 HD
BRANCH  15  17
ATOM     17  C   UNL A   1      33.579  18.950  24.493  1.00  0.00     0.098 C 
BRANCH  17  18
ATOM     18  C   UNL A   1      33.624  18.042  23.235  1.00  0.00     0.003 C 
ATOM     19  C   UNL A   1      34.030  16.585  23.474  1.00  0.00     0.009 C 
ATOM     20  C   UNL A   1      32.310  18.106  22.449  1.00  0.00     0.009 C 
ENDBRANCH  17  18
BRANCH  17  21
ATOM     21  C   UNL A   1      32.602  18.373  25.552  1.00  0.00     0.176 C 
BRANCH  21  22
ATOM     22  O   UNL A   1      32.903  18.795  26.878  1.00  0.00    -0.395 OA
ATOM     23  H   UNL A   1      32.511  19.668  27.036  1.00  0.00     0.210 HD
ENDBRANCH  21  22
ENDBRANCH  17  21
ENDBRANCH  15  17
ENDBRANCH  12  15
ENDBRANCH   6  12
ENDBRANCH   3   5
ENDBRANCH   2   3
ENDBRANCH   1   2
BRANCH   1  24
ATOM     24  C   UNL A   1      32.117  29.325  25.211  1.00  0.00     0.275 C 
BRANCH  24  25
ATOM     25  O   UNL A   1      32.464  29.512  26.593  1.00  0.00    -0.458 OA
BRANCH  25  26
ATOM     26  C   UNL A   1      32.881  30.752  26.938  1.00  0.00     0.338 C 
ATOM     27  O   UNL A   1      32.276  31.802  26.819  1.00  0.00    -0.246 OA
BRANCH  26  28
ATOM     28  C   UNL A   1      34.209  30.635  27.559  1.00  0.00     0.060 A 
ATOM     29  C   UNL A   1      34.697  29.365  27.846  1.00  0.00     0.016 A 
ATOM     30  C   UNL A   1      34.929  31.766  27.935  1.00  0.00     0.016 A 
ATOM     31  C   UNL A   1      35.871  29.218  28.582  1.00  0.00     0.010 A 
ATOM     32  C   UNL A   1      36.166  31.610  28.576  1.00  0.00     0.010 A 
ATOM     33  C   UNL A   1      36.646  30.333  28.927  1.00  0.00    -0.014 A 
BRANCH  33  34
ATOM     34  C   UNL A   1      37.945  30.168  29.651  1.00  0.00     0.031 A 
ATOM     35  C   UNL A   1      39.051  29.338  29.048  1.00  0.00     0.074 A 
ATOM     36  C   UNL A   1      38.144  30.750  30.853  1.00  0.00     0.049 A 
ATOM     37  N   UNL A   1      40.130  28.857  29.611  1.00  0.00    -0.248 NA
ATOM     38  C   UNL A   1      38.913  28.991  27.625  1.00  0.00     0.031 C 
ATOM     39  C   UNL A   1      37.197  31.637  31.535  1.00  0.00     0.029 A 
ATOM     40  N   UNL A   1      39.207  30.683  31.723  1.00  0.00    -0.354 N 
ATOM     41  C   UNL A   1      40.769  28.101  28.632  1.00  0.00     0.074 A 
ATOM     42  C   UNL A   1      39.950  28.185  27.440  1.00  0.00     0.031 C 
ATOM     43  C   UNL A   1      37.737  32.061  32.687  1.00  0.00     0.029 A 
ATOM     44  C   UNL A   1      39.009  31.381  32.894  1.00  0.00     0.049 A 
ATOM     45  H   UNL A   1      40.033  30.182  31.527  1.00  0.00     0.167 HD
ATOM     46  C   UNL A   1      41.927  27.400  28.726  1.00  0.00     0.034 A 
ATOM     47  C   UNL A   1      39.723  31.418  34.038  1.00  0.00     0.034 A 
ATOM     48  C   UNL A   1      42.760  27.375  29.907  1.00  0.00     0.049 A 
ATOM     49  C   UNL A   1      40.956  30.563  34.150  1.00  0.00     0.074 A 
ATOM     50  C   UNL A   1      43.966  26.723  30.098  1.00  0.00     0.029 A 
ATOM     51  N   UNL A   1      42.478  28.036  31.095  1.00  0.00    -0.354 N 
ATOM     52  N   UNL A   1      41.506  29.784  33.248  1.00  0.00    -0.248 NA
ATOM     53  C   UNL A   1      41.649  30.567  35.446  1.00  0.00     0.031 C 
ATOM     54  C   UNL A   1      44.379  26.936  31.417  1.00  0.00     0.029 A 
ATOM     55  C   UNL A   1      43.467  27.777  32.032  1.00  0.00     0.049 A 
ATOM     56  H   UNL A   1      41.690  28.605  31.250  1.00  0.00     0.167 HD
ATOM     57  C   UNL A   1      42.609  29.207  33.869  1.00  0.00     0.074 A 
ATOM     58  C   UNL A   1      42.665  29.749  35.211  1.00  0.00     0.031 C 
ATOM     59  C   UNL A   1      43.494  28.304  33.375  1.00  0.00     0.034 A 
BRANCH  46  60
ATOM     60  C   UNL A   1      42.336  26.551  27.545  1.00  0.00     0.023 A 
ATOM     61  C   UNL A   1      41.976  25.198  27.426  1.00  0.00     0.031 A 
ATOM     62  C   UNL A   1      43.106  27.119  26.512  1.00  0.00     0.131 A 
ATOM     63  C   UNL A   1      42.431  24.446  26.331  1.00  0.00     0.055 A 
ATOM     64  C   UNL A   1      43.496  26.385  25.391  1.00  0.00     0.041 A 
ATOM     65  F   UNL A   1      43.497  28.402  26.578  1.00  0.00    -0.206 F 
ATOM     66  C   UNL A   1      43.168  25.036  25.301  1.00  0.00     0.022 A 
BRANCH  63  67
ATOM     67  S   UNL A   1      42.145  22.655  26.322  1.00  0.00     0.124 S 
ATOM     68  O   UNL A   1      42.650  22.281  25.004  1.00  0.00    -0.237 OA
ATOM     69  O   UNL A   1      42.937  22.204  27.462  1.00  0.00    -0.237 OA
ATOM     70  O   UNL A   1      40.698  22.537  26.484  1.00  0.00    -0.744 OA
ENDBRANCH  63  67
ENDBRANCH  46  60
BRANCH  47  71
ATOM     71  C   UNL A   1      39.236  32.208  35.207  1.00  0.00     0.023 A 
ATOM     72  C   UNL A   1      38.620  31.582  36.301  1.00  0.00     0.031 A 
ATOM     73  C   UNL A   1      39.344  33.612  35.227  1.00  0.00     0.131 A 
ATOM     74  C   UNL A   1      38.110  32.359  37.355  1.00  0.00     0.055 A 
ATOM     75  C   UNL A   1      38.892  34.374  36.304  1.00  0.00     0.041 A 
ATOM     76  F   UNL A   1      39.913  34.265  34.200  1.00  0.00    -0.206 F 
ATOM     77  C   UNL A   1      38.259  33.748  37.372  1.00  0.00     0.022 A 
BRANCH  74  78
ATOM     78  S   UNL A   1      37.170  31.534  38.668  1.00  0.00     0.124 S 
ATOM     79  O   UNL A   1      37.027  30.187  38.129  1.00  0.00    -0.237 OA
ATOM     80  O   UNL A   1      38.062  31.676  39.814  1.00  0.00    -0.237 OA
ATOM     81  O   UNL A   1      35.935  32.312  38.742  1.00  0.00    -0.744 OA
ENDBRANCH  74  78
ENDBRANCH  47  71
BRANCH  59  82
ATOM     82  C   UNL A   1      44.606  27.872  34.295  1.00  0.00     0.023 A 
ATOM     83  C   UNL A   1      44.441  26.802  35.191  1.00  0.00     0.031 A 
ATOM     84  C   UNL A   1      45.839  28.548  34.285  1.00  0.00     0.131 A 
ATOM     85  C   UNL A   1      45.478  26.466  36.075  1.00  0.00     0.055 A 
ATOM     86  C   UNL A   1      46.885  28.176  35.130  1.00  0.00     0.041 A 
ATOM     87  F   UNL A   1      46.046  29.579  33.452  1.00  0.00    -0.206 F 
ATOM     88  C   UNL A   1      46.705  27.136  36.038  1.00  0.00     0.022 A 
BRANCH  85  89
ATOM     89  S   UNL A   1      45.182  25.183  37.321  1.00  0.00     0.124 S 
ATOM     90  O   UNL A   1      43.748  24.947  37.177  1.00  0.00    -0.237 OA
ATOM     91  O   UNL A   1      46.054  24.102  36.875  1.00  0.00    -0.237 OA
ATOM     92  O   UNL A   1      45.581  25.822  38.574  1.00  0.00    -0.744 OA
ENDBRANCH  85  89
ENDBRANCH  59  82
ENDBRANCH  33  34
ENDBRANCH  26  28
ENDBRANCH  25  26
ENDBRANCH  24  25
ENDBRANCH   1  24
TORSDOF 20
ENDMDL
MODEL 2
REMARK VINA RESULT:     -11.3      1.914      2.434
REMARK SMILES CC(C)[C@H](CO)NS(=O)(=O)c1ccc(Cl)c(C(=O)OCCOC(=O)c2ccc(-c3c4nc(c(-c5cc(S(=O)(=O)[O-])ccc5F)c5ccc([nH]5)c(-c5cc(S(=O)(=O)[O-])ccc5F)c5nc(c(-c6cc(S(=O)(=O)[O-])ccc6F)c6ccc3[nH]6)C=C5)C=C4)cc2)c1
REMARK SMILES IDX 20 1 19 2 17 3 18 4 16 5 11 6 12 7 88 8 13 9 14 10 15 11
REMARK SMILES IDX 8 12 9 13 10 14 7 15 4 17 2 18 1 19 3 20 5 21 6 22 21 24
REMARK SMILES IDX 22 25 23 26 24 27 25 28 26 29 87 30 27 31 86 32 28 33 29 34
REMARK SMILES IDX 30 35 80 36 31 37 85 38 79 39 81 40 32 41 84 42 78 43 77 44
REMARK SMILES IDX 33 46 65 47 45 48 64 49 46 50 49 51 63 52 82 53 47 54 48 55
REMARK SMILES IDX 62 57 83 58 50 59 34 60 35 61 43 62 36 63 42 64 44 65 41 66
REMARK SMILES IDX 37 67 38 68 39 69 40 70 66 71 67 72 75 73 68 74 74 75 76 76
REMARK SMILES IDX 73 77 69 78 70 79 71 80 72 81 51 82 52 83 60 84 53 85 59 86
REMARK SMILES IDX 61 87 58 88 54 89 55 90 56 91 57 92
REMARK H PARENT 7 16 6 23 81 45 49 56
REMARK Flexibility Score: inf
ROOT
ATOM      1  C   UNL A   1      32.341  27.926  25.098  1.00  0.00     0.275 C 
ENDROOT
BRANCH   1   2
ATOM      2  O   UNL A   1      31.185  27.081  24.936  1.00  0.00    -0.458 OA
BRANCH   2   3
ATOM      3  C   UNL A   1      31.119  25.963  25.697  1.00  0.00     0.339 C 
ATOM      4  O   UNL A   1      30.422  25.778  26.679  1.00  0.00    -0.246 OA
BRANCH   3   5
ATOM      5  C   UNL A   1      31.929  24.895  25.072  1.00  0.00     0.080 A 
ATOM      6  C   UNL A   1      33.434  23.025  25.404  1.00  0.00     0.083 A 
ATOM      7  C   UNL A   1      33.324  22.698  24.051  1.00  0.00     0.023 A 
ATOM      8  C   UNL A   1      32.761  24.137  25.913  1.00  0.00     0.039 A 
ATOM      9  C   UNL A   1      32.566  23.502  23.199  1.00  0.00     0.023 A 
ATOM     10  C   UNL A   1      31.862  24.600  23.704  1.00  0.00     0.055 A 
ATOM     11  Cl  UNL A   1      30.979  25.562  22.572  1.00  0.00    -0.083 Cl
BRANCH   6  12
ATOM     12  S   UNL A   1      34.229  21.873  26.508  1.00  0.00     0.240 S 
ATOM     13  O   UNL A   1      34.221  20.591  25.852  1.00  0.00    -0.207 OA
ATOM     14  O   UNL A   1      33.637  22.064  27.813  1.00  0.00    -0.207 OA
BRANCH  12  15
ATOM     15  N   UNL A   1      35.794  22.424  26.644  1.00  0.00    -0.206 NA
ATOM     16  H   UNL A   1      35.819  22.956  27.515  1.00  0.00     0.141 HD
BRANCH  15  17
ATOM     17  C   UNL A   1      36.488  23.263  25.657  1.00  0.00     0.098 C 
BRANCH  17  18
ATOM     18  C   UNL A   1      37.209  22.477  24.529  1.00  0.00     0.003 C 
ATOM     19  C   UNL A   1      37.372  20.972  24.758  1.00  0.00     0.009 C 
ATOM     20  C   UNL A   1      36.564  22.740  23.163  1.00  0.00     0.009 C 
ENDBRANCH  17  18
BRANCH  17  21
ATOM     21  C   UNL A   1      37.492  24.167  26.422  1.00  0.00     0.176 C 
BRANCH  21  22
ATOM     22  O   UNL A   1      38.749  24.287  25.766  1.00  0.00    -0.395 OA
ATOM     23  H   UNL A   1      39.444  23.914  26.329  1.00  0.00     0.210 HD
ENDBRANCH  21  22
ENDBRANCH  17  21
ENDBRANCH  15  17
ENDBRANCH  12  15
ENDBRANCH   6  12
ENDBRANCH   3   5
ENDBRANCH   2   3
ENDBRANCH   1   2
BRANCH   1  24
ATOM     24  C   UNL A   1      31.906  29.309  25.576  1.00  0.00     0.275 C 
BRANCH  24  25
ATOM     25  O   UNL A   1      33.069  30.146  25.694  1.00  0.00    -0.458 OA
BRANCH  25  26
ATOM     26  C   UNL A   1      33.112  30.953  26.780  1.00  0.00     0.338 C 
ATOM     27  O   UNL A   1      32.225  31.664  27.216  1.00  0.00    -0.246 OA
BRANCH  26  28
ATOM     28  C   UNL A   1      34.425  30.792  27.422  1.00  0.00     0.060 A 
ATOM     29  C   UNL A   1      34.815  29.519  27.823  1.00  0.00     0.016 A 
ATOM     30  C   UNL A   1      35.228  31.894  27.703  1.00  0.00     0.016 A 
ATOM     31  C   UNL A   1      35.973  29.350  28.580  1.00  0.00     0.010 A 
ATOM     32  C   UNL A   1      36.447  31.703  28.367  1.00  0.00     0.010 A 
ATOM     33  C   UNL A   1      36.829  30.430  28.833  1.00  0.00    -0.014 A 
BRANCH  33  34
ATOM     34  C   UNL A   1      38.109  30.232  29.581  1.00  0.00     0.031 A 
ATOM     35  C   UNL A   1      39.205  29.374  28.998  1.00  0.00     0.074 A 
ATOM     36  C   UNL A   1      38.301  30.810  30.787  1.00  0.00     0.049 A 
ATOM     37  N   UNL A   1      40.261  28.866  29.582  1.00  0.00    -0.248 NA
ATOM     38  C   UNL A   1      39.084  29.028  27.573  1.00  0.00     0.031 C 
ATOM     39  C   UNL A   1      37.365  31.721  31.451  1.00  0.00     0.029 A 
ATOM     40  N   UNL A   1      39.346  30.716  31.675  1.00  0.00    -0.354 N 
ATOM     41  C   UNL A   1      40.898  28.093  28.615  1.00  0.00     0.074 A 
ATOM     42  C   UNL A   1      40.103  28.196  27.409  1.00  0.00     0.031 C 
ATOM     43  C   UNL A   1      37.895  32.133  32.612  1.00  0.00     0.029 A 
ATOM     44  C   UNL A   1      39.145  31.420  32.842  1.00  0.00     0.049 A 
ATOM     45  H   UNL A   1      40.163  30.195  31.495  1.00  0.00     0.167 HD
ATOM     46  C   UNL A   1      42.036  27.363  28.730  1.00  0.00     0.034 A 
ATOM     47  C   UNL A   1      39.838  31.441  33.999  1.00  0.00     0.034 A 
ATOM     48  C   UNL A   1      42.846  27.317  29.927  1.00  0.00     0.049 A 
ATOM     49  C   UNL A   1      41.047  30.554  34.135  1.00  0.00     0.074 A 
ATOM     50  C   UNL A   1      44.032  26.635  30.139  1.00  0.00     0.029 A 
ATOM     51  N   UNL A   1      42.559  27.986  31.109  1.00  0.00    -0.354 N 
ATOM     52  N   UNL A   1      41.593  29.760  33.243  1.00  0.00    -0.248 NA
ATOM     53  C   UNL A   1      41.717  30.542  35.443  1.00  0.00     0.031 C 
ATOM     54  C   UNL A   1      44.426  26.838  31.467  1.00  0.00     0.029 A 
ATOM     55  C   UNL A   1      43.524  27.703  32.064  1.00  0.00     0.049 A 
ATOM     56  H   UNL A   1      41.783  28.575  31.249  1.00  0.00     0.167 HD
ATOM     57  C   UNL A   1      42.669  29.156  33.884  1.00  0.00     0.074 A 
ATOM     58  C   UNL A   1      42.715  29.698  35.226  1.00  0.00     0.031 C 
ATOM     59  C   UNL A   1      43.540  28.231  33.407  1.00  0.00     0.034 A 
BRANCH  46  60
ATOM     60  C   UNL A   1      42.444  26.502  27.557  1.00  0.00     0.023 A 
ATOM     61  C   UNL A   1      42.061  25.156  27.438  1.00  0.00     0.031 A 
ATOM     62  C   UNL A   1      43.239  27.052  26.533  1.00  0.00     0.131 A 
ATOM     63  C   UNL A   1      42.516  24.392  26.351  1.00  0.00     0.055 A 
ATOM     64  C   UNL A   1      43.630  26.307  25.419  1.00  0.00     0.041 A 
ATOM     65  F   UNL A   1      43.652  28.328  26.600  1.00  0.00    -0.206 F 
ATOM     66  C   UNL A   1      43.278  24.965  25.329  1.00  0.00     0.022 A 
BRANCH  63  67
ATOM     67  S   UNL A   1      42.198  22.606  26.344  1.00  0.00     0.124 S 
ATOM     68  O   UNL A   1      42.809  22.201  25.081  1.00  0.00    -0.237 OA
ATOM     69  O   UNL A   1      42.876  22.160  27.556  1.00  0.00    -0.237 OA
ATOM     70  O   UNL A   1      40.739  22.518  26.378  1.00  0.00    -0.744 OA
ENDBRANCH  63  67
ENDBRANCH  46  60
BRANCH  47  71
ATOM     71  C   UNL A   1      39.351  32.243  35.159  1.00  0.00     0.023 A 
ATOM     72  C   UNL A   1      39.774  33.566  35.357  1.00  0.00     0.031 A 
ATOM     73  C   UNL A   1      38.481  31.681  36.114  1.00  0.00     0.131 A 
ATOM     74  C   UNL A   1      39.352  34.272  36.496  1.00  0.00     0.055 A 
ATOM     75  C   UNL A   1      38.016  32.407  37.210  1.00  0.00     0.041 A 
ATOM     76  F   UNL A   1      38.054  30.414  35.981  1.00  0.00    -0.206 F 
ATOM     77  C   UNL A   1      38.461  33.708  37.412  1.00  0.00     0.022 A 
BRANCH  74  78
ATOM     78  S   UNL A   1      40.053  35.915  36.810  1.00  0.00     0.124 S 
ATOM     79  O   UNL A   1      41.458  35.600  37.039  1.00  0.00    -0.237 OA
ATOM     80  O   UNL A   1      39.747  36.617  35.568  1.00  0.00    -0.237 OA
ATOM     81  O   UNL A   1      39.317  36.380  37.983  1.00  0.00    -0.744 OA
ENDBRANCH  74  78
ENDBRANCH  47  71
BRANCH  59  82
ATOM     82  C   UNL A   1      44.624  27.771  34.347  1.00  0.00     0.023 A 
ATOM     83  C   UNL A   1      44.470  26.616  35.134  1.00  0.00     0.031 A 
ATOM     84  C   UNL A   1      45.818  28.505  34.468  1.00  0.00     0.131 A 
ATOM     85  C   UNL A   1      45.475  26.252  36.042  1.00  0.00     0.055 A 
ATOM     86  C   UNL A   1      46.835  28.108  35.336  1.00  0.00     0.041 A 
ATOM     87  F   UNL A   1      46.012  29.617  33.743  1.00  0.00    -0.206 F 
ATOM     88  C   UNL A   1      46.664  26.982  36.136  1.00  0.00     0.022 A 
BRANCH  85  89
ATOM     89  S   UNL A   1      45.183  24.848  37.151  1.00  0.00     0.124 S 
ATOM     90  O   UNL A   1      44.478  23.914  36.277  1.00  0.00    -0.237 OA
ATOM     91  O   UNL A   1      46.537  24.462  37.536  1.00  0.00    -0.237 OA
ATOM     92  O   UNL A   1      44.374  25.421  38.225  1.00  0.00    -0.744 OA
ENDBRANCH  85  89
ENDBRANCH  59  82
ENDBRANCH  33  34
ENDBRANCH  26  28
ENDBRANCH  25  26
ENDBRANCH  24  25
ENDBRANCH   1  24
TORSDOF 20
ENDMDL
MODEL 3
REMARK VINA RESULT:     -11.2      1.840      2.360
REMARK SMILES CC(C)[C@H](CO)NS(=O)(=O)c1ccc(Cl)c(C(=O)OCCOC(=O)c2ccc(-c3c4nc(c(-c5cc(S(=O)(=O)[O-])ccc5F)c5ccc([nH]5)c(-c5cc(S(=O)(=O)[O-])ccc5F)c5nc(c(-c6cc(S(=O)(=O)[O-])ccc6F)c6ccc3[nH]6)C=C5)C=C4)cc2)c1
REMARK SMILES IDX 20 1 19 2 17 3 18 4 16 5 11 6 12 7 88 8 13 9 14 10 15 11
REMARK SMILES IDX 8 12 9 13 10 14 7 15 4 17 2 18 1 19 3 20 5 21 6 22 21 24
REMARK SMILES IDX 22 25 23 26 24 27 25 28 26 29 87 30 27 31 86 32 28 33 29 34
REMARK SMILES IDX 30 35 80 36 31 37 85 38 79 39 81 40 32 41 84 42 78 43 77 44
REMARK SMILES IDX 33 46 65 47 45 48 64 49 46 50 49 51 63 52 82 53 47 54 48 55
REMARK SMILES IDX 62 57 83 58 50 59 34 60 35 61 43 62 36 63 42 64 44 65 41 66
REMARK SMILES IDX 37 67 38 68 39 69 40 70 66 71 67 72 75 73 68 74 74 75 76 76
REMARK SMILES IDX 73 77 69 78 70 79 71 80 72 81 51 82 52 83 60 84 53 85 59 86
REMARK SMILES IDX 61 87 58 88 54 89 55 90 56 91 57 92
REMARK H PARENT 7 16 6 23 81 45 49 56
REMARK Flexibility Score: inf
ROOT
ATOM      1  C   UNL A   1      31.437  29.720  24.798  1.00  0.00     0.275 C 
ENDROOT
BRANCH   1   2
ATOM      2  O   UNL A   1      30.889  28.456  25.220  1.00  0.00    -0.458 OA
BRANCH   2   3
ATOM      3  C   UNL A   1      31.093  27.388  24.413  1.00  0.00     0.339 C 
ATOM      4  O   UNL A   1      30.678  27.231  23.279  1.00  0.00    -0.246 OA
BRANCH   3   5
ATOM      5  C   UNL A   1      32.044  26.459  25.059  1.00  0.00     0.080 A 
ATOM      6  C   UNL A   1      32.346  24.435  26.360  1.00  0.00     0.083 A 
ATOM      7  C   UNL A   1      33.723  24.499  26.134  1.00  0.00     0.023 A 
ATOM      8  C   UNL A   1      31.507  25.426  25.847  1.00  0.00     0.039 A 
ATOM      9  C   UNL A   1      34.265  25.571  25.424  1.00  0.00     0.023 A 
ATOM     10  C   UNL A   1      33.430  26.552  24.879  1.00  0.00     0.055 A 
ATOM     11  Cl  UNL A   1      34.189  27.862  24.047  1.00  0.00    -0.083 Cl
BRANCH   6  12
ATOM     12  S   UNL A   1      31.657  22.959  27.082  1.00  0.00     0.240 S 
ATOM     13  O   UNL A   1      30.328  23.293  27.527  1.00  0.00    -0.207 OA
ATOM     14  O   UNL A   1      32.651  22.428  27.986  1.00  0.00    -0.207 OA
BRANCH  12  15
ATOM     15  N   UNL A   1      31.571  21.871  25.825  1.00  0.00    -0.206 NA
ATOM     16  H   UNL A   1      31.095  21.053  26.208  1.00  0.00     0.141 HD
BRANCH  15  17
ATOM     17  C   UNL A   1      32.721  21.339  25.081  1.00  0.00     0.098 C 
BRANCH  17  18
ATOM     18  C   UNL A   1      32.838  21.845  23.618  1.00  0.00     0.003 C 
ATOM     19  C   UNL A   1      31.725  22.781  23.140  1.00  0.00     0.009 C 
ATOM     20  C   UNL A   1      34.211  22.471  23.349  1.00  0.00     0.009 C 
ENDBRANCH  17  18
BRANCH  17  21
ATOM     21  C   UNL A   1      32.638  19.789  25.121  1.00  0.00     0.176 C 
BRANCH  21  22
ATOM     22  O   UNL A   1      32.537  19.202  23.828  1.00  0.00    -0.395 OA
ATOM     23  H   UNL A   1      33.132  19.662  23.217  1.00  0.00     0.210 HD
ENDBRANCH  21  22
ENDBRANCH  17  21
ENDBRANCH  15  17
ENDBRANCH  12  15
ENDBRANCH   6  12
ENDBRANCH   3   5
ENDBRANCH   2   3
ENDBRANCH   1   2
BRANCH   1  24
ATOM     24  C   UNL A   1      31.551  30.659  25.997  1.00  0.00     0.275 C 
BRANCH  24  25
ATOM     25  O   UNL A   1      32.893  30.598  26.509  1.00  0.00    -0.458 OA
BRANCH  25  26
ATOM     26  C   UNL A   1      33.319  31.687  27.190  1.00  0.00     0.338 C 
ATOM     27  O   UNL A   1      32.729  32.738  27.359  1.00  0.00    -0.246 OA
BRANCH  26  28
ATOM     28  C   UNL A   1      34.634  31.381  27.772  1.00  0.00     0.060 A 
ATOM     29  C   UNL A   1      34.896  30.073  28.168  1.00  0.00     0.016 A 
ATOM     30  C   UNL A   1      35.569  32.386  28.006  1.00  0.00     0.016 A 
ATOM     31  C   UNL A   1      36.060  29.778  28.872  1.00  0.00     0.010 A 
ATOM     32  C   UNL A   1      36.788  32.060  28.615  1.00  0.00     0.010 A 
ATOM     33  C   UNL A   1      37.044  30.754  29.076  1.00  0.00    -0.014 A 
BRANCH  33  34
ATOM     34  C   UNL A   1      38.328  30.416  29.766  1.00  0.00     0.031 A 
ATOM     35  C   UNL A   1      39.311  29.471  29.121  1.00  0.00     0.074 A 
ATOM     36  C   UNL A   1      38.621  30.942  30.975  1.00  0.00     0.049 A 
ATOM     37  N   UNL A   1      40.335  28.849  29.650  1.00  0.00    -0.248 NA
ATOM     38  C   UNL A   1      39.103  29.175  27.695  1.00  0.00     0.031 C 
ATOM     39  C   UNL A   1      37.804  31.922  31.696  1.00  0.00     0.029 A 
ATOM     40  N   UNL A   1      39.686  30.726  31.818  1.00  0.00    -0.354 N 
ATOM     41  C   UNL A   1      40.856  28.043  28.642  1.00  0.00     0.074 A 
ATOM     42  C   UNL A   1      40.029  28.253  27.471  1.00  0.00     0.031 C 
ATOM     43  C   UNL A   1      38.416  32.251  32.843  1.00  0.00     0.029 A 
ATOM     44  C   UNL A   1      39.599  31.416  33.007  1.00  0.00     0.049 A 
ATOM     45  H   UNL A   1      40.440  30.133  31.593  1.00  0.00     0.167 HD
ATOM     46  C   UNL A   1      41.922  27.204  28.695  1.00  0.00     0.034 A 
ATOM     47  C   UNL A   1      40.335  31.341  34.135  1.00  0.00     0.034 A 
ATOM     48  C   UNL A   1      42.769  27.051  29.856  1.00  0.00     0.049 A 
ATOM     49  C   UNL A   1      41.457  30.339  34.202  1.00  0.00     0.074 A 
ATOM     50  C   UNL A   1      43.890  26.253  30.005  1.00  0.00     0.029 A 
ATOM     51  N   UNL A   1      42.594  27.715  31.063  1.00  0.00    -0.354 N 
ATOM     52  N   UNL A   1      41.888  29.519  33.272  1.00  0.00    -0.248 NA
ATOM     53  C   UNL A   1      42.172  30.230  35.481  1.00  0.00     0.031 C 
ATOM     54  C   UNL A   1      44.353  26.384  31.319  1.00  0.00     0.029 A 
ATOM     55  C   UNL A   1      43.563  27.317  31.972  1.00  0.00     0.049 A 
ATOM     56  H   UNL A   1      41.885  28.372  31.247  1.00  0.00     0.167 HD
ATOM     57  C   UNL A   1      42.925  28.798  33.856  1.00  0.00     0.074 A 
ATOM     58  C   UNL A   1      43.074  29.300  35.206  1.00  0.00     0.031 C 
ATOM     59  C   UNL A   1      43.682  27.806  33.324  1.00  0.00     0.034 A 
BRANCH  46  60
ATOM     60  C   UNL A   1      42.199  26.339  27.488  1.00  0.00     0.023 A 
ATOM     61  C   UNL A   1      41.809  24.990  27.420  1.00  0.00     0.031 A 
ATOM     62  C   UNL A   1      42.872  26.885  26.378  1.00  0.00     0.131 A 
ATOM     63  C   UNL A   1      42.142  24.221  26.292  1.00  0.00     0.055 A 
ATOM     64  C   UNL A   1      43.138  26.135  25.232  1.00  0.00     0.041 A 
ATOM     65  F   UNL A   1      43.286  28.162  26.393  1.00  0.00    -0.206 F 
ATOM     66  C   UNL A   1      42.783  24.791  25.189  1.00  0.00     0.022 A 
BRANCH  63  67
ATOM     67  S   UNL A   1      41.830  22.435  26.331  1.00  0.00     0.124 S 
ATOM     68  O   UNL A   1      42.598  21.975  25.177  1.00  0.00    -0.237 OA
ATOM     69  O   UNL A   1      42.349  22.052  27.639  1.00  0.00    -0.237 OA
ATOM     70  O   UNL A   1      40.379  22.337  26.184  1.00  0.00    -0.744 OA
ENDBRANCH  63  67
ENDBRANCH  46  60
BRANCH  47  71
ATOM     71  C   UNL A   1      39.973  32.158  35.330  1.00  0.00     0.023 A 
ATOM     72  C   UNL A   1      39.084  31.672  36.300  1.00  0.00     0.031 A 
ATOM     73  C   UNL A   1      40.482  33.461  35.498  1.00  0.00     0.131 A 
ATOM     74  C   UNL A   1      38.709  32.491  37.378  1.00  0.00     0.055 A 
ATOM     75  C   UNL A   1      40.155  34.247  36.602  1.00  0.00     0.041 A 
ATOM     76  F   UNL A   1      41.327  33.982  34.593  1.00  0.00    -0.206 F 
ATOM     77  C   UNL A   1      39.253  33.767  37.545  1.00  0.00     0.022 A 
BRANCH  74  78
ATOM     78  S   UNL A   1      37.429  31.898  38.518  1.00  0.00     0.124 S 
ATOM     79  O   UNL A   1      38.068  32.099  39.813  1.00  0.00    -0.237 OA
ATOM     80  O   UNL A   1      36.313  32.785  38.208  1.00  0.00    -0.237 OA
ATOM     81  O   UNL A   1      37.242  30.504  38.124  1.00  0.00    -0.744 OA
ENDBRANCH  74  78
ENDBRANCH  47  71
BRANCH  59  82
ATOM     82  C   UNL A   1      44.752  27.221  34.209  1.00  0.00     0.023 A 
ATOM     83  C   UNL A   1      46.039  27.781  34.270  1.00  0.00     0.031 A 
ATOM     84  C   UNL A   1      44.483  26.082  34.989  1.00  0.00     0.131 A 
ATOM     85  C   UNL A   1      47.027  27.173  35.059  1.00  0.00     0.055 A 
ATOM     86  C   UNL A   1      45.456  25.513  35.812  1.00  0.00     0.041 A 
ATOM     87  F   UNL A   1      43.272  25.507  34.964  1.00  0.00    -0.206 F 
ATOM     88  C   UNL A   1      46.739  26.052  35.843  1.00  0.00     0.022 A 
BRANCH  85  89
ATOM     89  S   UNL A   1      48.718  27.827  34.998  1.00  0.00     0.124 S 
ATOM     90  O   UNL A   1      49.033  27.983  36.415  1.00  0.00    -0.237 OA
ATOM     91  O   UNL A   1      49.440  26.770  34.297  1.00  0.00    -0.237 OA
ATOM     92  O   UNL A   1      48.575  29.077  34.254  1.00  0.00    -0.744 OA
ENDBRANCH  85  89
ENDBRANCH  59  82
ENDBRANCH  33  34
ENDBRANCH  26  28
ENDBRANCH  25  26
ENDBRANCH  24  25
ENDBRANCH   1  24
TORSDOF 20
ENDMDL
