MODEL 1
REMARK VINA RESULT:     -11.6      0.000      0.000
REMARK SMILES O=C(OCCOC(=O)[C@@H]1C=C[C@@H]([NH+]2CC3(CCOCC3)C2)C1)c1ccc(-c2c3nc(c(-c4cc(S(=O)(=O)[O-])ccc4F)c4ccc([nH]4)c(-c4cc(S(=O)(=O)[O-])ccc4F)c4nc(c(-c5cc(S(=O)(=O)[O-])ccc5F)c5ccc2[nH]5)C=C4)C=C3)cc1
REMARK SMILES IDX 4 1 3 2 2 3 1 4 23 5 24 6 85 7 25 8 84 9 26 10 27 11 28 12
REMARK SMILES IDX 78 13 29 14 83 15 77 16 79 17 30 18 82 19 76 20 75 21 31 23
REMARK SMILES IDX 63 24 43 25 62 26 44 27 47 28 61 29 80 30 45 31 46 32 60 34
REMARK SMILES IDX 81 35 48 36 32 37 33 38 41 39 34 40 40 41 42 42 39 43 35 44
REMARK SMILES IDX 36 45 37 46 38 47 64 48 65 49 73 50 66 51 72 52 74 53 71 54
REMARK SMILES IDX 67 55 68 56 69 57 70 58 49 59 50 60 58 61 51 62 57 63 59 64
REMARK SMILES IDX 56 65 52 66 53 67 54 68 55 69 5 70 6 71 7 72 8 73 9 74 10 75
REMARK SMILES IDX 22 76 11 77 12 78 13 79 14 80 21 81 15 83 16 84 20 85 17 86
REMARK SMILES IDX 19 87 18 88
REMARK H PARENT 79 22 47 33 13 82
REMARK Flexibility Score: inf
ROOT
ATOM      1  C   UNL A   1      37.146  20.397  25.285  1.00  0.00     0.275 C 
ENDROOT
BRANCH   1   2
ATOM      2  O   UNL A   1      38.373  21.122  25.206  1.00  0.00    -0.458 OA
BRANCH   2   3
ATOM      3  C   UNL A   1      39.333  21.270  26.143  1.00  0.00     0.338 C 
ATOM      4  O   UNL A   1      39.820  20.242  26.617  1.00  0.00    -0.246 OA
BRANCH   3   5
ATOM      5  C   UNL A   1      39.782  22.587  26.717  1.00  0.00     0.060 A 
ATOM      6  C   UNL A   1      40.790  22.845  27.657  1.00  0.00     0.016 A 
ATOM      7  C   UNL A   1      39.107  23.697  26.202  1.00  0.00     0.016 A 
ATOM      8  C   UNL A   1      41.181  24.159  27.995  1.00  0.00     0.010 A 
ATOM      9  C   UNL A   1      39.513  24.989  26.517  1.00  0.00     0.010 A 
ATOM     10  C   UNL A   1      40.583  25.255  27.383  1.00  0.00    -0.014 A 
BRANCH  10  11
ATOM     11  C   UNL A   1      41.027  26.678  27.553  1.00  0.00     0.031 A 
ATOM     12  C   UNL A   1      42.466  27.026  27.251  1.00  0.00     0.074 A 
ATOM     13  C   UNL A   1      40.269  27.574  28.223  1.00  0.00     0.049 A 
ATOM     14  N   UNL A   1      43.205  28.008  27.700  1.00  0.00    -0.248 NA
ATOM     15  C   UNL A   1      43.193  26.054  26.422  1.00  0.00     0.031 C 
ATOM     16  C   UNL A   1      38.898  27.365  28.696  1.00  0.00     0.029 A 
ATOM     17  N   UNL A   1      40.591  28.820  28.716  1.00  0.00    -0.354 N 
ATOM     18  C   UNL A   1      44.496  27.731  27.260  1.00  0.00     0.074 A 
ATOM     19  C   UNL A   1      44.443  26.423  26.640  1.00  0.00     0.031 C 
ATOM     20  C   UNL A   1      38.525  28.403  29.462  1.00  0.00     0.029 A 
ATOM     21  C   UNL A   1      39.627  29.352  29.546  1.00  0.00     0.049 A 
ATOM     22  H   UNL A   1      41.430  29.287  28.496  1.00  0.00     0.167 HD
ATOM     23  C   UNL A   1      45.606  28.512  27.303  1.00  0.00     0.034 A 
ATOM     24  C   UNL A   1      39.633  30.463  30.310  1.00  0.00     0.034 A 
ATOM     25  C   UNL A   1      45.610  29.856  27.823  1.00  0.00     0.049 A 
ATOM     26  C   UNL A   1      40.827  31.376  30.269  1.00  0.00     0.074 A 
ATOM     27  C   UNL A   1      46.613  30.810  27.762  1.00  0.00     0.029 A 
ATOM     28  N   UNL A   1      44.541  30.448  28.482  1.00  0.00    -0.354 N 
ATOM     29  N   UNL A   1      42.012  31.162  29.749  1.00  0.00    -0.248 NA
ATOM     30  C   UNL A   1      40.661  32.707  30.869  1.00  0.00     0.031 C 
ATOM     31  C   UNL A   1      46.155  31.971  28.396  1.00  0.00     0.029 A 
ATOM     32  C   UNL A   1      44.852  31.756  28.814  1.00  0.00     0.049 A 
ATOM     33  H   UNL A   1      43.686  30.003  28.684  1.00  0.00     0.167 HD
ATOM     34  C   UNL A   1      42.704  32.362  29.888  1.00  0.00     0.074 A 
ATOM     35  C   UNL A   1      41.818  33.280  30.572  1.00  0.00     0.031 C 
ATOM     36  C   UNL A   1      43.950  32.679  29.457  1.00  0.00     0.034 A 
BRANCH  23  37
ATOM     37  C   UNL A   1      46.878  27.939  26.717  1.00  0.00     0.023 A 
ATOM     38  C   UNL A   1      47.234  28.184  25.379  1.00  0.00     0.031 A 
ATOM     39  C   UNL A   1      47.701  27.075  27.460  1.00  0.00     0.131 A 
ATOM     40  C   UNL A   1      48.264  27.449  24.779  1.00  0.00     0.055 A 
ATOM     41  C   UNL A   1      48.812  26.445  26.889  1.00  0.00     0.041 A 
ATOM     42  F   UNL A   1      47.425  26.802  28.745  1.00  0.00    -0.206 F 
ATOM     43  C   UNL A   1      49.078  26.603  25.531  1.00  0.00     0.022 A 
BRANCH  40  44
ATOM     44  S   UNL A   1      48.361  27.452  22.967  1.00  0.00     0.124 S 
ATOM     45  O   UNL A   1      48.340  26.020  22.675  1.00  0.00    -0.237 OA
ATOM     46  O   UNL A   1      47.164  28.193  22.585  1.00  0.00    -0.237 OA
ATOM     47  O   UNL A   1      49.628  28.122  22.693  1.00  0.00    -0.744 OA
ENDBRANCH  40  44
ENDBRANCH  23  37
BRANCH  24  48
ATOM     48  C   UNL A   1      38.456  30.817  31.148  1.00  0.00     0.023 A 
ATOM     49  C   UNL A   1      37.366  31.503  30.591  1.00  0.00     0.031 A 
ATOM     50  C   UNL A   1      38.430  30.533  32.522  1.00  0.00     0.131 A 
ATOM     51  C   UNL A   1      36.318  31.936  31.415  1.00  0.00     0.055 A 
ATOM     52  C   UNL A   1      37.367  30.936  33.334  1.00  0.00     0.041 A 
ATOM     53  F   UNL A   1      39.444  29.866  33.095  1.00  0.00    -0.206 F 
ATOM     54  C   UNL A   1      36.309  31.655  32.783  1.00  0.00     0.022 A 
BRANCH  51  55
ATOM     55  S   UNL A   1      34.997  32.937  30.677  1.00  0.00     0.124 S 
ATOM     56  O   UNL A   1      35.704  34.170  30.351  1.00  0.00    -0.237 OA
ATOM     57  O   UNL A   1      34.594  32.112  29.543  1.00  0.00    -0.237 OA
ATOM     58  O   UNL A   1      34.010  33.043  31.748  1.00  0.00    -0.744 OA
ENDBRANCH  51  55
ENDBRANCH  24  48
BRANCH  36  59
ATOM     59  C   UNL A   1      44.373  34.118  29.581  1.00  0.00     0.023 A 
ATOM     60  C   UNL A   1      43.965  35.105  28.669  1.00  0.00     0.031 A 
ATOM     61  C   UNL A   1      45.222  34.496  30.638  1.00  0.00     0.131 A 
ATOM     62  C   UNL A   1      44.446  36.416  28.806  1.00  0.00     0.055 A 
ATOM     63  C   UNL A   1      45.656  35.811  30.796  1.00  0.00     0.041 A 
ATOM     64  F   UNL A   1      45.643  33.587  31.532  1.00  0.00    -0.206 F 
ATOM     65  C   UNL A   1      45.277  36.777  29.871  1.00  0.00     0.022 A 
BRANCH  62  66
ATOM     66  S   UNL A   1      44.027  37.637  27.532  1.00  0.00     0.124 S 
ATOM     67  O   UNL A   1      45.341  37.978  26.997  1.00  0.00    -0.237 OA
ATOM     68  O   UNL A   1      43.156  36.873  26.643  1.00  0.00    -0.237 OA
ATOM     69  O   UNL A   1      43.363  38.702  28.282  1.00  0.00    -0.744 OA
ENDBRANCH  62  66
ENDBRANCH  36  59
ENDBRANCH  10  11
ENDBRANCH   3   5
ENDBRANCH   2   3
ENDBRANCH   1   2
BRANCH   1  70
ATOM     70  C   UNL A   1      35.905  21.268  25.498  1.00  0.00     0.274 C 
BRANCH  70  71
ATOM     71  O   UNL A   1      34.794  20.996  24.619  1.00  0.00    -0.462 OA
BRANCH  71  72
ATOM     72  C   UNL A   1      33.572  21.354  25.114  1.00  0.00     0.313 C 
ATOM     73  O   UNL A   1      33.049  20.818  26.088  1.00  0.00    -0.252 OA
BRANCH  72  74
ATOM     74  C   UNL A   1      32.851  22.434  24.304  1.00  0.00     0.128 C 
ATOM     75  C   UNL A   1      32.844  22.221  22.826  1.00  0.00    -0.010 C 
ATOM     76  C   UNL A   1      33.374  23.868  24.473  1.00  0.00     0.089 C 
ATOM     77  C   UNL A   1      33.330  23.279  22.172  1.00  0.00     0.033 C 
ATOM     78  C   UNL A   1      33.849  24.360  23.083  1.00  0.00     0.208 C 
BRANCH  78  79
ATOM     79  N   UNL A   1      33.514  25.668  22.514  1.00  0.00    -0.328 N 
ATOM     80  C   UNL A   1      32.808  26.548  23.461  1.00  0.00     0.275 C 
ATOM     81  C   UNL A   1      32.422  25.792  21.547  1.00  0.00     0.275 C 
ATOM     82  H   UNL A   1      34.451  25.866  22.164  1.00  0.00     0.348 HD
ATOM     83  C   UNL A   1      31.505  26.427  22.632  1.00  0.00     0.073 C 
ATOM     84  C   UNL A   1      30.893  27.788  22.263  1.00  0.00     0.047 C 
ATOM     85  C   UNL A   1      30.410  25.461  23.112  1.00  0.00     0.047 C 
ATOM     86  C   UNL A   1      30.022  28.285  23.413  1.00  0.00     0.161 C 
ATOM     87  C   UNL A   1      29.496  26.118  24.141  1.00  0.00     0.161 C 
ATOM     88  O   UNL A   1      28.967  27.341  23.637  1.00  0.00    -0.381 OA
ENDBRANCH  78  79
ENDBRANCH  72  74
ENDBRANCH  71  72
ENDBRANCH  70  71
ENDBRANCH   1  70
TORSDOF 15
ENDMDL
MODEL 2
REMARK VINA RESULT:     -11.5      1.086      1.694
REMARK SMILES O=C(OCCOC(=O)[C@@H]1C=C[C@@H]([NH+]2CC3(CCOCC3)C2)C1)c1ccc(-c2c3nc(c(-c4cc(S(=O)(=O)[O-])ccc4F)c4ccc([nH]4)c(-c4cc(S(=O)(=O)[O-])ccc4F)c4nc(c(-c5cc(S(=O)(=O)[O-])ccc5F)c5ccc2[nH]5)C=C4)C=C3)cc1
REMARK SMILES IDX 4 1 3 2 2 3 1 4 23 5 24 6 85 7 25 8 84 9 26 10 27 11 28 12
REMARK SMILES IDX 78 13 29 14 83 15 77 16 79 17 30 18 82 19 76 20 75 21 31 23
REMARK SMILES IDX 63 24 43 25 62 26 44 27 47 28 61 29 80 30 45 31 46 32 60 34
REMARK SMILES IDX 81 35 48 36 32 37 33 38 41 39 34 40 40 41 42 42 39 43 35 44
REMARK SMILES IDX 36 45 37 46 38 47 64 48 65 49 73 50 66 51 72 52 74 53 71 54
REMARK SMILES IDX 67 55 68 56 69 57 70 58 49 59 50 60 58 61 51 62 57 63 59 64
REMARK SMILES IDX 56 65 52 66 53 67 54 68 55 69 5 70 6 71 7 72 8 73 9 74 10 75
REMARK SMILES IDX 22 76 11 77 12 78 13 79 14 80 21 81 15 83 16 84 20 85 17 86
REMARK SMILES IDX 19 87 18 88
REMARK H PARENT 79 22 47 33 13 82
REMARK Flexibility Score: inf
ROOT
ATOM      1  C   UNL A   1      36.897  21.515  25.886  1.00  0.00     0.275 C 
ENDROOT
BRANCH   1   2
ATOM      2  O   UNL A   1      38.268  21.470  25.491  1.00  0.00    -0.458 OA
BRANCH   2   3
ATOM      3  C   UNL A   1      39.372  21.694  26.234  1.00  0.00     0.338 C 
ATOM      4  O   UNL A   1      40.066  20.717  26.521  1.00  0.00    -0.246 OA
BRANCH   3   5
ATOM      5  C   UNL A   1      39.765  23.026  26.815  1.00  0.00     0.060 A 
ATOM      6  C   UNL A   1      40.674  23.309  27.845  1.00  0.00     0.016 A 
ATOM      7  C   UNL A   1      39.148  24.122  26.205  1.00  0.00     0.016 A 
ATOM      8  C   UNL A   1      41.032  24.632  28.185  1.00  0.00     0.010 A 
ATOM      9  C   UNL A   1      39.523  25.422  26.525  1.00  0.00     0.010 A 
ATOM     10  C   UNL A   1      40.501  25.711  27.487  1.00  0.00    -0.014 A 
BRANCH  10  11
ATOM     11  C   UNL A   1      40.930  27.139  27.662  1.00  0.00     0.031 A 
ATOM     12  C   UNL A   1      42.377  27.493  27.413  1.00  0.00     0.074 A 
ATOM     13  C   UNL A   1      40.141  28.035  28.295  1.00  0.00     0.049 A 
ATOM     14  N   UNL A   1      43.092  28.483  27.882  1.00  0.00    -0.248 NA
ATOM     15  C   UNL A   1      43.142  26.519  26.621  1.00  0.00     0.031 C 
ATOM     16  C   UNL A   1      38.754  27.821  28.715  1.00  0.00     0.029 A 
ATOM     17  N   UNL A   1      40.436  29.287  28.789  1.00  0.00    -0.354 N 
ATOM     18  C   UNL A   1      44.401  28.211  27.496  1.00  0.00     0.074 A 
ATOM     19  C   UNL A   1      44.381  26.898  26.885  1.00  0.00     0.031 C 
ATOM     20  C   UNL A   1      38.346  28.863  29.458  1.00  0.00     0.029 A 
ATOM     21  C   UNL A   1      39.438  29.819  29.578  1.00  0.00     0.049 A 
ATOM     22  H   UNL A   1      41.281  29.757  28.599  1.00  0.00     0.167 HD
ATOM     23  C   UNL A   1      45.505  29.000  27.575  1.00  0.00     0.034 A 
ATOM     24  C   UNL A   1      39.407  30.936  30.332  1.00  0.00     0.034 A 
ATOM     25  C   UNL A   1      45.480  30.348  28.084  1.00  0.00     0.049 A 
ATOM     26  C   UNL A   1      40.596  31.856  30.330  1.00  0.00     0.074 A 
ATOM     27  C   UNL A   1      46.478  31.307  28.055  1.00  0.00     0.029 A 
ATOM     28  N   UNL A   1      44.383  30.938  28.697  1.00  0.00    -0.354 N 
ATOM     29  N   UNL A   1      41.802  31.646  29.859  1.00  0.00    -0.248 NA
ATOM     30  C   UNL A   1      40.399  33.191  30.913  1.00  0.00     0.031 C 
ATOM     31  C   UNL A   1      45.990  32.471  28.661  1.00  0.00     0.029 A 
ATOM     32  C   UNL A   1      44.672  32.251  29.030  1.00  0.00     0.049 A 
ATOM     33  H   UNL A   1      43.523  30.489  28.868  1.00  0.00     0.167 HD
ATOM     34  C   UNL A   1      42.481  32.851  30.015  1.00  0.00     0.074 A 
ATOM     35  C   UNL A   1      41.564  33.769  30.656  1.00  0.00     0.031 C 
ATOM     36  C   UNL A   1      43.740  33.172  29.630  1.00  0.00     0.034 A 
BRANCH  23  37
ATOM     37  C   UNL A   1      46.802  28.430  27.044  1.00  0.00     0.023 A 
ATOM     38  C   UNL A   1      47.094  28.454  25.668  1.00  0.00     0.031 A 
ATOM     39  C   UNL A   1      47.718  27.783  27.891  1.00  0.00     0.131 A 
ATOM     40  C   UNL A   1      48.163  27.704  25.164  1.00  0.00     0.055 A 
ATOM     41  C   UNL A   1      48.860  27.147  27.392  1.00  0.00     0.041 A 
ATOM     42  F   UNL A   1      47.505  27.728  29.216  1.00  0.00    -0.206 F 
ATOM     43  C   UNL A   1      49.069  27.076  26.017  1.00  0.00     0.022 A 
BRANCH  40  44
ATOM     44  S   UNL A   1      48.204  27.385  23.378  1.00  0.00     0.124 S 
ATOM     45  O   UNL A   1      47.085  28.203  22.913  1.00  0.00    -0.237 OA
ATOM     46  O   UNL A   1      49.533  27.857  23.000  1.00  0.00    -0.237 OA
ATOM     47  O   UNL A   1      48.000  25.943  23.282  1.00  0.00    -0.744 OA
ENDBRANCH  40  44
ENDBRANCH  23  37
BRANCH  24  48
ATOM     48  C   UNL A   1      38.196  31.289  31.120  1.00  0.00     0.023 A 
ATOM     49  C   UNL A   1      37.113  31.938  30.509  1.00  0.00     0.031 A 
ATOM     50  C   UNL A   1      38.130  31.042  32.501  1.00  0.00     0.131 A 
ATOM     51  C   UNL A   1      36.029  32.372  31.286  1.00  0.00     0.055 A 
ATOM     52  C   UNL A   1      37.033  31.446  33.266  1.00  0.00     0.041 A 
ATOM     53  F   UNL A   1      39.137  30.412  33.125  1.00  0.00    -0.206 F 
ATOM     54  C   UNL A   1      35.980  32.128  32.661  1.00  0.00     0.022 A 
BRANCH  51  55
ATOM     55  S   UNL A   1      34.715  33.325  30.478  1.00  0.00     0.124 S 
ATOM     56  O   UNL A   1      34.123  32.327  29.594  1.00  0.00    -0.237 OA
ATOM     57  O   UNL A   1      33.899  33.736  31.615  1.00  0.00    -0.237 OA
ATOM     58  O   UNL A   1      35.437  34.405  29.810  1.00  0.00    -0.744 OA
ENDBRANCH  51  55
ENDBRANCH  24  48
BRANCH  36  59
ATOM     59  C   UNL A   1      44.149  34.615  29.758  1.00  0.00     0.023 A 
ATOM     60  C   UNL A   1      43.969  35.546  28.722  1.00  0.00     0.031 A 
ATOM     61  C   UNL A   1      44.751  35.055  30.952  1.00  0.00     0.131 A 
ATOM     62  C   UNL A   1      44.430  36.861  28.884  1.00  0.00     0.055 A 
ATOM     63  C   UNL A   1      45.161  36.376  31.125  1.00  0.00     0.041 A 
ATOM     64  F   UNL A   1      44.949  34.201  31.970  1.00  0.00    -0.206 F 
ATOM     65  C   UNL A   1      45.011  37.285  30.083  1.00  0.00     0.022 A 
BRANCH  62  66
ATOM     66  S   UNL A   1      44.322  38.002  27.478  1.00  0.00     0.124 S 
ATOM     67  O   UNL A   1      43.062  37.602  26.861  1.00  0.00    -0.237 OA
ATOM     68  O   UNL A   1      44.323  39.307  28.135  1.00  0.00    -0.237 OA
ATOM     69  O   UNL A   1      45.521  37.701  26.699  1.00  0.00    -0.744 OA
ENDBRANCH  62  66
ENDBRANCH  36  59
ENDBRANCH  10  11
ENDBRANCH   3   5
ENDBRANCH   2   3
ENDBRANCH   1   2
BRANCH   1  70
ATOM     70  C   UNL A   1      35.959  20.670  25.020  1.00  0.00     0.274 C 
BRANCH  70  71
ATOM     71  O   UNL A   1      34.711  21.295  24.657  1.00  0.00    -0.462 OA
BRANCH  71  72
ATOM     72  C   UNL A   1      33.863  21.532  25.702  1.00  0.00     0.313 C 
ATOM     73  O   UNL A   1      33.545  20.678  26.526  1.00  0.00    -0.252 OA
BRANCH  72  74
ATOM     74  C   UNL A   1      33.263  22.940  25.727  1.00  0.00     0.128 C 
ATOM     75  C   UNL A   1      32.378  23.232  26.894  1.00  0.00    -0.010 C 
ATOM     76  C   UNL A   1      32.417  23.336  24.507  1.00  0.00     0.089 C 
ATOM     77  C   UNL A   1      31.176  23.665  26.505  1.00  0.00     0.033 C 
ATOM     78  C   UNL A   1      30.987  23.650  25.013  1.00  0.00     0.208 C 
BRANCH  78  79
ATOM     79  N   UNL A   1      30.216  24.831  24.615  1.00  0.00    -0.328 N 
ATOM     80  C   UNL A   1      30.872  25.624  23.561  1.00  0.00     0.275 C 
ATOM     81  C   UNL A   1      30.157  26.002  25.492  1.00  0.00     0.275 C 
ATOM     82  H   UNL A   1      29.339  24.331  24.471  1.00  0.00     0.348 HD
ATOM     83  C   UNL A   1      31.140  26.772  24.565  1.00  0.00     0.073 C 
ATOM     84  C   UNL A   1      30.643  28.139  24.069  1.00  0.00     0.047 C 
ATOM     85  C   UNL A   1      32.543  26.905  25.179  1.00  0.00     0.047 C 
ATOM     86  C   UNL A   1      31.704  28.777  23.178  1.00  0.00     0.161 C 
ATOM     87  C   UNL A   1      33.477  27.703  24.274  1.00  0.00     0.161 C 
ATOM     88  O   UNL A   1      32.901  28.962  23.942  1.00  0.00    -0.381 OA
ENDBRANCH  78  79
ENDBRANCH  72  74
ENDBRANCH  71  72
ENDBRANCH  70  71
ENDBRANCH   1  70
TORSDOF 15
ENDMDL
MODEL 3
REMARK VINA RESULT:     -11.5      5.645      8.715
REMARK SMILES O=C(OCCOC(=O)[C@@H]1C=C[C@@H]([NH+]2CC3(CCOCC3)C2)C1)c1ccc(-c2c3nc(c(-c4cc(S(=O)(=O)[O-])ccc4F)c4ccc([nH]4)c(-c4cc(S(=O)(=O)[O-])ccc4F)c4nc(c(-c5cc(S(=O)(=O)[O-])ccc5F)c5ccc2[nH]5)C=C4)C=C3)cc1
REMARK SMILES IDX 4 1 3 2 2 3 1 4 23 5 24 6 85 7 25 8 84 9 26 10 27 11 28 12
REMARK SMILES IDX 78 13 29 14 83 15 77 16 79 17 30 18 82 19 76 20 75 21 31 23
REMARK SMILES IDX 63 24 43 25 62 26 44 27 47 28 61 29 80 30 45 31 46 32 60 34
REMARK SMILES IDX 81 35 48 36 32 37 33 38 41 39 34 40 40 41 42 42 39 43 35 44
REMARK SMILES IDX 36 45 37 46 38 47 64 48 65 49 73 50 66 51 72 52 74 53 71 54
REMARK SMILES IDX 67 55 68 56 69 57 70 58 49 59 50 60 58 61 51 62 57 63 59 64
REMARK SMILES IDX 56 65 52 66 53 67 54 68 55 69 5 70 6 71 7 72 8 73 9 74 10 75
REMARK SMILES IDX 22 76 11 77 12 78 13 79 14 80 21 81 15 83 16 84 20 85 17 86
REMARK SMILES IDX 19 87 18 88
REMARK H PARENT 79 22 47 33 13 82
REMARK Flexibility Score: inf
ROOT
ATOM      1  C   UNL A   1      32.561  33.292  27.054  1.00  0.00     0.275 C 
ENDROOT
BRANCH   1   2
ATOM      2  O   UNL A   1      32.401  34.325  28.026  1.00  0.00    -0.458 OA
BRANCH   2   3
ATOM      3  C   UNL A   1      33.060  34.505  29.190  1.00  0.00     0.338 C 
ATOM      4  O   UNL A   1      32.526  35.228  30.033  1.00  0.00    -0.246 OA
BRANCH   3   5
ATOM      5  C   UNL A   1      34.432  33.968  29.495  1.00  0.00     0.060 A 
ATOM      6  C   UNL A   1      35.668  34.332  28.941  1.00  0.00     0.016 A 
ATOM      7  C   UNL A   1      34.458  32.994  30.497  1.00  0.00     0.016 A 
ATOM      8  C   UNL A   1      36.889  33.823  29.434  1.00  0.00     0.010 A 
ATOM      9  C   UNL A   1      35.663  32.516  30.998  1.00  0.00     0.010 A 
ATOM     10  C   UNL A   1      36.907  32.946  30.513  1.00  0.00    -0.014 A 
BRANCH  10  11
ATOM     11  C   UNL A   1      38.148  32.471  31.210  1.00  0.00     0.031 A 
ATOM     12  C   UNL A   1      38.889  31.286  30.636  1.00  0.00     0.074 A 
ATOM     13  C   UNL A   1      38.451  32.884  32.461  1.00  0.00     0.049 A 
ATOM     14  N   UNL A   1      39.683  30.427  31.224  1.00  0.00    -0.248 NA
ATOM     15  C   UNL A   1      38.586  30.967  29.234  1.00  0.00     0.031 C 
ATOM     16  C   UNL A   1      37.766  33.937  33.214  1.00  0.00     0.029 A 
ATOM     17  N   UNL A   1      39.365  32.387  33.364  1.00  0.00    -0.354 N 
ATOM     18  C   UNL A   1      39.917  29.434  30.278  1.00  0.00     0.074 A 
ATOM     19  C   UNL A   1      39.066  29.738  29.147  1.00  0.00     0.031 C 
ATOM     20  C   UNL A   1      38.229  33.959  34.475  1.00  0.00     0.029 A 
ATOM     21  C   UNL A   1      39.238  32.921  34.630  1.00  0.00     0.049 A 
ATOM     22  H   UNL A   1      40.044  31.713  33.130  1.00  0.00     0.167 HD
ATOM     23  C   UNL A   1      40.804  28.405  30.312  1.00  0.00     0.034 A 
ATOM     24  C   UNL A   1      39.843  32.599  35.790  1.00  0.00     0.034 A 
ATOM     25  C   UNL A   1      41.723  28.186  31.401  1.00  0.00     0.049 A 
ATOM     26  C   UNL A   1      40.899  31.529  35.796  1.00  0.00     0.074 A 
ATOM     27  C   UNL A   1      42.782  27.298  31.479  1.00  0.00     0.029 A 
ATOM     28  N   UNL A   1      41.704  28.886  32.599  1.00  0.00    -0.354 N 
ATOM     29  N   UNL A   1      41.204  30.665  34.857  1.00  0.00    -0.248 NA
ATOM     30  C   UNL A   1      41.734  31.431  37.001  1.00  0.00     0.031 C 
ATOM     31  C   UNL A   1      43.394  27.451  32.729  1.00  0.00     0.029 A 
ATOM     32  C   UNL A   1      42.743  28.465  33.413  1.00  0.00     0.049 A 
ATOM     33  H   UNL A   1      41.048  29.581  32.836  1.00  0.00     0.167 HD
ATOM     34  C   UNL A   1      42.318  29.977  35.328  1.00  0.00     0.074 A 
ATOM     35  C   UNL A   1      42.608  30.500  36.646  1.00  0.00     0.031 C 
ATOM     36  C   UNL A   1      43.052  29.021  34.707  1.00  0.00     0.034 A 
BRANCH  23  37
ATOM     37  C   UNL A   1      40.847  27.489  29.108  1.00  0.00     0.023 A 
ATOM     38  C   UNL A   1      41.824  27.651  28.110  1.00  0.00     0.031 A 
ATOM     39  C   UNL A   1      39.866  26.504  28.903  1.00  0.00     0.131 A 
ATOM     40  C   UNL A   1      41.701  26.975  26.890  1.00  0.00     0.055 A 
ATOM     41  C   UNL A   1      39.828  25.735  27.735  1.00  0.00     0.041 A 
ATOM     42  F   UNL A   1      38.907  26.290  29.819  1.00  0.00    -0.206 F 
ATOM     43  C   UNL A   1      40.729  25.993  26.705  1.00  0.00     0.022 A 
BRANCH  40  44
ATOM     44  S   UNL A   1      42.688  27.570  25.489  1.00  0.00     0.124 S 
ATOM     45  O   UNL A   1      42.705  26.390  24.626  1.00  0.00    -0.237 OA
ATOM     46  O   UNL A   1      41.902  28.699  25.001  1.00  0.00    -0.237 OA
ATOM     47  O   UNL A   1      43.970  27.915  26.094  1.00  0.00    -0.744 OA
ENDBRANCH  40  44
ENDBRANCH  23  37
BRANCH  24  48
ATOM     48  C   UNL A   1      39.515  33.325  37.047  1.00  0.00     0.023 A 
ATOM     49  C   UNL A   1      38.741  32.710  38.042  1.00  0.00     0.031 A 
ATOM     50  C   UNL A   1      39.914  34.657  37.242  1.00  0.00     0.131 A 
ATOM     51  C   UNL A   1      38.338  33.445  39.167  1.00  0.00     0.055 A 
ATOM     52  C   UNL A   1      39.539  35.374  38.381  1.00  0.00     0.041 A 
ATOM     53  F   UNL A   1      40.667  35.280  36.323  1.00  0.00    -0.206 F 
ATOM     54  C   UNL A   1      38.734  34.772  39.345  1.00  0.00     0.022 A 
BRANCH  51  55
ATOM     55  S   UNL A   1      37.226  32.653  40.361  1.00  0.00     0.124 S 
ATOM     56  O   UNL A   1      35.940  32.747  39.680  1.00  0.00    -0.237 OA
ATOM     57  O   UNL A   1      37.799  31.314  40.463  1.00  0.00    -0.237 OA
ATOM     58  O   UNL A   1      37.364  33.480  41.557  1.00  0.00    -0.744 OA
ENDBRANCH  51  55
ENDBRANCH  24  48
BRANCH  36  59
ATOM     59  C   UNL A   1      44.323  28.584  35.383  1.00  0.00     0.023 A 
ATOM     60  C   UNL A   1      44.344  27.613  36.397  1.00  0.00     0.031 A 
ATOM     61  C   UNL A   1      45.541  29.179  35.004  1.00  0.00     0.131 A 
ATOM     62  C   UNL A   1      45.556  27.298  37.030  1.00  0.00     0.055 A 
ATOM     63  C   UNL A   1      46.749  28.826  35.604  1.00  0.00     0.041 A 
ATOM     64  F   UNL A   1      45.572  30.117  34.044  1.00  0.00    -0.206 F 
ATOM     65  C   UNL A   1      46.759  27.887  36.630  1.00  0.00     0.022 A 
BRANCH  62  66
ATOM     66  S   UNL A   1      45.534  26.152  38.436  1.00  0.00     0.124 S 
ATOM     67  O   UNL A   1      46.785  26.478  39.111  1.00  0.00    -0.237 OA
ATOM     68  O   UNL A   1      44.313  26.540  39.135  1.00  0.00    -0.237 OA
ATOM     69  O   UNL A   1      45.492  24.834  37.804  1.00  0.00    -0.744 OA
ENDBRANCH  62  66
ENDBRANCH  36  59
ENDBRANCH  10  11
ENDBRANCH   3   5
ENDBRANCH   2   3
ENDBRANCH   1   2
BRANCH   1  70
ATOM     70  C   UNL A   1      32.549  31.873  27.627  1.00  0.00     0.274 C 
BRANCH  70  71
ATOM     71  O   UNL A   1      33.455  30.940  27.004  1.00  0.00    -0.462 OA
BRANCH  71  72
ATOM     72  C   UNL A   1      33.055  29.635  27.049  1.00  0.00     0.313 C 
ATOM     73  O   UNL A   1      33.700  28.744  27.598  1.00  0.00    -0.252 OA
BRANCH  72  74
ATOM     74  C   UNL A   1      31.762  29.340  26.284  1.00  0.00     0.128 C 
ATOM     75  C   UNL A   1      31.380  27.898  26.216  1.00  0.00    -0.010 C 
ATOM     76  C   UNL A   1      31.720  29.809  24.822  1.00  0.00     0.089 C 
ATOM     77  C   UNL A   1      31.195  27.496  24.955  1.00  0.00     0.033 C 
ATOM     78  C   UNL A   1      31.514  28.556  23.935  1.00  0.00     0.208 C 
BRANCH  78  79
ATOM     79  N   UNL A   1      30.544  28.474  22.839  1.00  0.00    -0.328 N 
ATOM     80  C   UNL A   1      30.481  29.703  22.030  1.00  0.00     0.275 C 
ATOM     81  C   UNL A   1      29.110  28.554  23.118  1.00  0.00     0.275 C 
ATOM     82  H   UNL A   1      30.884  27.584  22.474  1.00  0.00     0.348 HD
ATOM     83  C   UNL A   1      29.064  30.011  22.576  1.00  0.00     0.073 C 
ATOM     84  C   UNL A   1      28.030  30.269  21.468  1.00  0.00     0.047 C 
ATOM     85  C   UNL A   1      28.914  31.050  23.699  1.00  0.00     0.047 C 
ATOM     86  C   UNL A   1      28.096  31.731  21.037  1.00  0.00     0.161 C 
ATOM     87  C   UNL A   1      28.824  32.467  23.142  1.00  0.00     0.161 C 
ATOM     88  O   UNL A   1      27.792  32.560  22.165  1.00  0.00    -0.381 OA
ENDBRANCH  78  79
ENDBRANCH  72  74
ENDBRANCH  71  72
ENDBRANCH  70  71
ENDBRANCH   1  70
TORSDOF 15
ENDMDL
