MODEL 1
REMARK VINA RESULT:     -14.7      0.000      0.000
REMARK SMILES O=C(OCCOC(=O)c1ccc(-c2c3nc(c(-c4cc(S(=O)(=O)[O-])ccc4F)c4ccc([nH]4)c(-c4cc(S(=O)(=O)[O-])ccc4F)c4nc(c(-c5cc(S(=O)(=O)[O-])ccc5F)c5ccc2[nH]5)C=C4)C=C3)cc1)C1=Cc2cc(Cl)cc(-c3ccccc3)c2O[C@@H]1C(F)(F)F
REMARK SMILES IDX 5 1 4 2 3 3 2 4 1 5 72 6 73 7 88 8 74 9 87 10 75 11 86 12
REMARK SMILES IDX 76 13 79 14 77 15 78 16 89 17 90 18 91 19 92 20 80 21 81 22
REMARK SMILES IDX 85 23 82 24 84 25 83 26 6 27 7 28 8 29 9 30 10 31 71 32
REMARK SMILES IDX 11 33 70 34 12 35 13 36 14 37 64 38 15 39 69 40 63 41 65 42
REMARK SMILES IDX 16 43 68 44 62 45 61 46 17 48 49 49 29 50 48 51 30 52 33 53
REMARK SMILES IDX 47 54 66 55 31 56 32 57 46 59 67 60 34 61 18 62 19 63 27 64
REMARK SMILES IDX 20 65 26 66 28 67 25 68 21 69 22 70 23 71 24 72 50 73 51 74
REMARK SMILES IDX 59 75 52 76 58 77 60 78 57 79 53 80 54 81 55 82 56 83 35 84
REMARK SMILES IDX 36 85 44 86 37 87 43 88 45 89 42 90 38 91 39 92 40 93 41 94
REMARK H PARENT 65 47 33 58
REMARK Flexibility Score: inf
ROOT
ATOM      1  C   UNL A   1      32.902  29.886  25.813  1.00  0.00     0.275 C 
ENDROOT
BRANCH   1   2
ATOM      2  C   UNL A   1      32.223  27.836  25.788  1.00  0.00     0.275 C 
BRANCH   2   3
ATOM      3  O   UNL A   1      32.951  26.609  26.432  1.00  0.00    -0.459 OA
BRANCH   3   4
ATOM      4  C   UNL A   1      32.304  25.454  26.252  1.00  0.00     0.338 C 
ATOM      5  O   UNL A   1      31.629  24.800  27.003  1.00  0.00    -0.246 OA
BRANCH   4   6
ATOM      6  C   UNL A   1      32.884  25.185  24.963  1.00  0.00     0.087 C 
ATOM      7  C   UNL A   1      34.342  24.992  25.100  1.00  0.00     0.027 C 
ATOM      8  C   UNL A   1      31.630  23.824  24.404  1.00  0.00     0.316 C 
ATOM      9  C   UNL A   1      35.149  23.385  24.900  1.00  0.00     0.019 A 
ATOM     10  O   UNL A   1      32.470  22.099  24.222  1.00  0.00    -0.475 OA
ATOM     11  C   UNL A   1      36.461  23.314  25.289  1.00  0.00     0.032 A 
ATOM     12  C   UNL A   1      34.252  21.920  24.568  1.00  0.00     0.135 A 
ATOM     13  C   UNL A   1      36.968  22.020  25.401  1.00  0.00     0.042 A 
ATOM     14  C   UNL A   1      34.836  20.686  24.750  1.00  0.00     0.026 A 
ATOM     15  Cl  UNL A   1      38.595  21.854  25.975  1.00  0.00    -0.084 Cl
ATOM     16  C   UNL A   1      36.214  20.808  25.148  1.00  0.00     0.033 A 
BRANCH   8  17
ATOM     17  C   UNL A   1      30.739  24.703  23.455  1.00  0.00     0.430 C 
ATOM     18  F   UNL A   1      31.447  25.233  22.449  1.00  0.00    -0.167 F 
ATOM     19  F   UNL A   1      29.843  23.870  22.840  1.00  0.00    -0.167 F 
ATOM     20  F   UNL A   1      29.945  25.615  24.039  1.00  0.00    -0.167 F 
ENDBRANCH   8  17
BRANCH  14  21
ATOM     21  C   UNL A   1      34.276  19.342  24.755  1.00  0.00    -0.015 A 
ATOM     22  C   UNL A   1      33.056  19.120  25.429  1.00  0.00     0.009 A 
ATOM     23  C   UNL A   1      35.027  18.230  24.362  1.00  0.00     0.009 A 
ATOM     24  C   UNL A   1      32.611  17.829  25.720  1.00  0.00     0.001 A 
ATOM     25  C   UNL A   1      34.580  16.936  24.653  1.00  0.00     0.001 A 
ATOM     26  C   UNL A   1      33.379  16.736  25.337  1.00  0.00     0.000 A 
ENDBRANCH  14  21
ENDBRANCH   4   6
ENDBRANCH   3   4
ENDBRANCH   2   3
ENDBRANCH   1   2
BRANCH   1  27
ATOM     27  O   UNL A   1      33.534  30.725  27.139  1.00  0.00    -0.458 OA
BRANCH  27  28
ATOM     28  C   UNL A   1      34.634  31.389  27.605  1.00  0.00     0.338 C 
ATOM     29  O   UNL A   1      34.743  32.541  27.974  1.00  0.00    -0.246 OA
BRANCH  28  30
ATOM     30  C   UNL A   1      35.632  30.306  27.887  1.00  0.00     0.060 A 
ATOM     31  C   UNL A   1      36.802  30.241  27.113  1.00  0.00     0.016 A 
ATOM     32  C   UNL A   1      35.583  29.646  29.118  1.00  0.00     0.016 A 
ATOM     33  C   UNL A   1      37.982  29.711  27.672  1.00  0.00     0.010 A 
ATOM     34  C   UNL A   1      36.750  29.097  29.659  1.00  0.00     0.010 A 
ATOM     35  C   UNL A   1      37.976  29.184  28.973  1.00  0.00    -0.014 A 
BRANCH  35  36
ATOM     36  C   UNL A   1      39.163  28.466  29.516  1.00  0.00     0.031 A 
ATOM     37  C   UNL A   1      39.715  29.017  30.799  1.00  0.00     0.074 A 
ATOM     38  C   UNL A   1      39.777  27.434  28.898  1.00  0.00     0.049 A 
ATOM     39  N   UNL A   1      40.769  28.663  31.484  1.00  0.00    -0.248 NA
ATOM     40  C   UNL A   1      38.979  30.161  31.360  1.00  0.00     0.031 C 
ATOM     41  C   UNL A   1      39.354  26.806  27.645  1.00  0.00     0.029 A 
ATOM     42  N   UNL A   1      40.912  26.731  29.245  1.00  0.00    -0.354 N 
ATOM     43  C   UNL A   1      40.811  29.536  32.564  1.00  0.00     0.074 A 
ATOM     44  C   UNL A   1      39.737  30.487  32.387  1.00  0.00     0.031 C 
ATOM     45  C   UNL A   1      40.218  25.817  27.332  1.00  0.00     0.029 A 
ATOM     46  C   UNL A   1      41.269  25.744  28.347  1.00  0.00     0.049 A 
ATOM     47  H   UNL A   1      41.426  26.919  30.064  1.00  0.00     0.167 HD
ATOM     48  C   UNL A   1      41.647  29.536  33.629  1.00  0.00     0.034 A 
ATOM     49  C   UNL A   1      42.319  24.891  28.357  1.00  0.00     0.034 A 
ATOM     50  C   UNL A   1      42.748  28.625  33.765  1.00  0.00     0.049 A 
ATOM     51  C   UNL A   1      43.308  24.969  29.510  1.00  0.00     0.074 A 
ATOM     52  C   UNL A   1      43.682  28.542  34.779  1.00  0.00     0.029 A 
ATOM     53  N   UNL A   1      43.077  27.647  32.833  1.00  0.00    -0.354 N 
ATOM     54  N   UNL A   1      43.300  25.760  30.559  1.00  0.00    -0.248 NA
ATOM     55  C   UNL A   1      44.440  24.030  29.482  1.00  0.00     0.031 C 
ATOM     56  C   UNL A   1      44.614  27.557  34.429  1.00  0.00     0.029 A 
ATOM     57  C   UNL A   1      44.214  26.971  33.238  1.00  0.00     0.049 A 
ATOM     58  H   UNL A   1      42.574  27.462  32.007  1.00  0.00     0.167 HD
ATOM     59  C   UNL A   1      44.391  25.374  31.339  1.00  0.00     0.074 A 
ATOM     60  C   UNL A   1      45.031  24.280  30.641  1.00  0.00     0.031 C 
ATOM     61  C   UNL A   1      44.823  25.869  32.529  1.00  0.00     0.034 A 
BRANCH  48  62
ATOM     62  C   UNL A   1      41.393  30.601  34.666  1.00  0.00     0.023 A 
ATOM     63  C   UNL A   1      40.275  30.523  35.521  1.00  0.00     0.031 A 
ATOM     64  C   UNL A   1      42.166  31.771  34.693  1.00  0.00     0.131 A 
ATOM     65  C   UNL A   1      39.886  31.646  36.262  1.00  0.00     0.055 A 
ATOM     66  C   UNL A   1      41.832  32.847  35.518  1.00  0.00     0.041 A 
ATOM     67  F   UNL A   1      43.222  31.914  33.878  1.00  0.00    -0.206 F 
ATOM     68  C   UNL A   1      40.672  32.800  36.288  1.00  0.00     0.022 A 
BRANCH  65  69
ATOM     69  S   UNL A   1      38.229  31.656  37.003  1.00  0.00     0.124 S 
ATOM     70  O   UNL A   1      37.497  32.512  36.071  1.00  0.00    -0.237 OA
ATOM     71  O   UNL A   1      37.867  30.244  36.993  1.00  0.00    -0.237 OA
ATOM     72  O   UNL A   1      38.450  32.235  38.326  1.00  0.00    -0.744 OA
ENDBRANCH  65  69
ENDBRANCH  48  62
BRANCH  49  73
ATOM     73  C   UNL A   1      42.539  23.882  27.267  1.00  0.00     0.023 A 
ATOM     74  C   UNL A   1      41.988  22.589  27.349  1.00  0.00     0.031 A 
ATOM     75  C   UNL A   1      43.401  24.149  26.189  1.00  0.00     0.131 A 
ATOM     76  C   UNL A   1      42.350  21.600  26.416  1.00  0.00     0.055 A 
ATOM     77  C   UNL A   1      43.717  23.178  25.232  1.00  0.00     0.041 A 
ATOM     78  F   UNL A   1      43.972  25.357  26.058  1.00  0.00    -0.206 F 
ATOM     79  C   UNL A   1      43.204  21.890  25.350  1.00  0.00     0.022 A 
BRANCH  76  80
ATOM     80  S   UNL A   1      41.777  19.894  26.674  1.00  0.00     0.124 S 
ATOM     81  O   UNL A   1      41.105  19.613  25.411  1.00  0.00    -0.237 OA
ATOM     82  O   UNL A   1      43.030  19.184  26.909  1.00  0.00    -0.237 OA
ATOM     83  O   UNL A   1      40.898  20.002  27.838  1.00  0.00    -0.744 OA
ENDBRANCH  76  80
ENDBRANCH  49  73
BRANCH  61  84
ATOM     84  C   UNL A   1      45.994  25.179  33.187  1.00  0.00     0.023 A 
ATOM     85  C   UNL A   1      45.832  24.058  34.019  1.00  0.00     0.031 A 
ATOM     86  C   UNL A   1      47.300  25.645  32.952  1.00  0.00     0.131 A 
ATOM     87  C   UNL A   1      46.955  23.471  34.625  1.00  0.00     0.055 A 
ATOM     88  C   UNL A   1      48.417  25.018  33.504  1.00  0.00     0.041 A 
ATOM     89  F   UNL A   1      47.513  26.712  32.164  1.00  0.00    -0.206 F 
ATOM     90  C   UNL A   1      48.247  23.932  34.357  1.00  0.00     0.022 A 
BRANCH  87  91
ATOM     91  S   UNL A   1      46.699  22.147  35.838  1.00  0.00     0.124 S 
ATOM     92  O   UNL A   1      47.739  22.431  36.821  1.00  0.00    -0.237 OA
ATOM     93  O   UNL A   1      45.327  22.385  36.275  1.00  0.00    -0.237 OA
ATOM     94  O   UNL A   1      46.898  20.926  35.060  1.00  0.00    -0.744 OA
ENDBRANCH  87  91
ENDBRANCH  61  84
ENDBRANCH  35  36
ENDBRANCH  28  30
ENDBRANCH  27  28
ENDBRANCH   1  27
TORSDOF 16
ENDMDL
MODEL 2
REMARK VINA RESULT:     -14.6      2.027      7.652
REMARK SMILES O=C(OCCOC(=O)c1ccc(-c2c3nc(c(-c4cc(S(=O)(=O)[O-])ccc4F)c4ccc([nH]4)c(-c4cc(S(=O)(=O)[O-])ccc4F)c4nc(c(-c5cc(S(=O)(=O)[O-])ccc5F)c5ccc2[nH]5)C=C4)C=C3)cc1)C1=Cc2cc(Cl)cc(-c3ccccc3)c2O[C@@H]1C(F)(F)F
REMARK SMILES IDX 5 1 4 2 3 3 2 4 1 5 72 6 73 7 88 8 74 9 87 10 75 11 86 12
REMARK SMILES IDX 76 13 79 14 77 15 78 16 89 17 90 18 91 19 92 20 80 21 81 22
REMARK SMILES IDX 85 23 82 24 84 25 83 26 6 27 7 28 8 29 9 30 10 31 71 32
REMARK SMILES IDX 11 33 70 34 12 35 13 36 14 37 64 38 15 39 69 40 63 41 65 42
REMARK SMILES IDX 16 43 68 44 62 45 61 46 17 48 49 49 29 50 48 51 30 52 33 53
REMARK SMILES IDX 47 54 66 55 31 56 32 57 46 59 67 60 34 61 18 62 19 63 27 64
REMARK SMILES IDX 20 65 26 66 28 67 25 68 21 69 22 70 23 71 24 72 50 73 51 74
REMARK SMILES IDX 59 75 52 76 58 77 60 78 57 79 53 80 54 81 55 82 56 83 35 84
REMARK SMILES IDX 36 85 44 86 37 87 43 88 45 89 42 90 38 91 39 92 40 93 41 94
REMARK H PARENT 65 47 33 58
REMARK Flexibility Score: inf
ROOT
ATOM      1  C   UNL A   1      31.682  29.617  25.665  1.00  0.00     0.275 C 
ENDROOT
BRANCH   1   2
ATOM      2  C   UNL A   1      31.559  27.461  25.704  1.00  0.00     0.275 C 
BRANCH   2   3
ATOM      3  O   UNL A   1      32.647  26.479  26.252  1.00  0.00    -0.459 OA
BRANCH   3   4
ATOM      4  C   UNL A   1      32.265  25.199  26.231  1.00  0.00     0.338 C 
ATOM      5  O   UNL A   1      31.804  24.496  27.093  1.00  0.00    -0.246 OA
BRANCH   4   6
ATOM      6  C   UNL A   1      32.806  24.928  24.926  1.00  0.00     0.087 C 
ATOM      7  C   UNL A   1      34.265  24.718  25.021  1.00  0.00     0.027 C 
ATOM      8  C   UNL A   1      31.521  23.584  24.397  1.00  0.00     0.316 C 
ATOM      9  C   UNL A   1      35.048  23.103  24.792  1.00  0.00     0.019 A 
ATOM     10  O   UNL A   1      32.337  21.850  24.185  1.00  0.00    -0.475 OA
ATOM     11  C   UNL A   1      36.369  23.017  25.144  1.00  0.00     0.032 A 
ATOM     12  C   UNL A   1      34.126  21.650  24.481  1.00  0.00     0.135 A 
ATOM     13  C   UNL A   1      36.864  21.716  25.236  1.00  0.00     0.042 A 
ATOM     14  C   UNL A   1      34.701  20.408  24.641  1.00  0.00     0.026 A 
ATOM     15  Cl  UNL A   1      38.506  21.530  25.765  1.00  0.00    -0.084 Cl
ATOM     16  C   UNL A   1      36.091  20.514  25.000  1.00  0.00     0.033 A 
BRANCH   8  17
ATOM     17  C   UNL A   1      30.614  24.476  23.476  1.00  0.00     0.430 C 
ATOM     18  F   UNL A   1      31.328  25.137  22.556  1.00  0.00    -0.167 F 
ATOM     19  F   UNL A   1      29.812  23.639  22.749  1.00  0.00    -0.167 F 
ATOM     20  F   UNL A   1      29.729  25.279  24.090  1.00  0.00    -0.167 F 
ENDBRANCH   8  17
BRANCH  14  21
ATOM     21  C   UNL A   1      34.126  19.071  24.657  1.00  0.00    -0.015 A 
ATOM     22  C   UNL A   1      32.961  18.844  25.421  1.00  0.00     0.009 A 
ATOM     23  C   UNL A   1      34.829  17.962  24.176  1.00  0.00     0.009 A 
ATOM     24  C   UNL A   1      32.525  17.551  25.714  1.00  0.00     0.001 A 
ATOM     25  C   UNL A   1      34.391  16.666  24.470  1.00  0.00     0.001 A 
ATOM     26  C   UNL A   1      33.247  16.461  25.242  1.00  0.00     0.000 A 
ENDBRANCH  14  21
ENDBRANCH   4   6
ENDBRANCH   3   4
ENDBRANCH   2   3
ENDBRANCH   1   2
BRANCH   1  27
ATOM     27  O   UNL A   1      32.271  30.618  26.895  1.00  0.00    -0.458 OA
BRANCH  27  28
ATOM     28  C   UNL A   1      32.849  31.830  27.153  1.00  0.00     0.338 C 
ATOM     29  O   UNL A   1      32.330  32.917  27.302  1.00  0.00    -0.246 OA
BRANCH  28  30
ATOM     30  C   UNL A   1      34.257  31.496  27.547  1.00  0.00     0.060 A 
ATOM     31  C   UNL A   1      35.102  32.526  27.990  1.00  0.00     0.016 A 
ATOM     32  C   UNL A   1      34.580  30.168  27.838  1.00  0.00     0.016 A 
ATOM     33  C   UNL A   1      36.133  32.240  28.907  1.00  0.00     0.010 A 
ATOM     34  C   UNL A   1      35.621  29.885  28.728  1.00  0.00     0.010 A 
ATOM     35  C   UNL A   1      36.365  30.920  29.324  1.00  0.00    -0.014 A 
BRANCH  35  36
ATOM     36  C   UNL A   1      37.554  30.574  30.153  1.00  0.00     0.031 A 
ATOM     37  C   UNL A   1      38.561  29.681  29.490  1.00  0.00     0.074 A 
ATOM     38  C   UNL A   1      37.721  30.953  31.439  1.00  0.00     0.049 A 
ATOM     39  N   UNL A   1      39.657  29.151  29.960  1.00  0.00    -0.248 NA
ATOM     40  C   UNL A   1      38.253  29.310  28.099  1.00  0.00     0.031 C 
ATOM     41  C   UNL A   1      36.818  31.809  32.208  1.00  0.00     0.029 A 
ATOM     42  N   UNL A   1      38.723  30.648  32.337  1.00  0.00    -0.354 N 
ATOM     43  C   UNL A   1      40.173  28.394  28.916  1.00  0.00     0.074 A 
ATOM     44  C   UNL A   1      39.224  28.462  27.829  1.00  0.00     0.031 C 
ATOM     45  C   UNL A   1      37.307  31.958  33.458  1.00  0.00     0.029 A 
ATOM     46  C   UNL A   1      38.549  31.197  33.593  1.00  0.00     0.049 A 
ATOM     47  H   UNL A   1      39.496  30.086  32.103  1.00  0.00     0.167 HD
ATOM     48  C   UNL A   1      41.348  27.724  28.847  1.00  0.00     0.034 A 
ATOM     49  C   UNL A   1      39.310  31.090  34.707  1.00  0.00     0.034 A 
ATOM     50  C   UNL A   1      42.257  27.612  29.954  1.00  0.00     0.049 A 
ATOM     51  C   UNL A   1      40.576  30.250  34.644  1.00  0.00     0.074 A 
ATOM     52  C   UNL A   1      43.460  26.938  30.020  1.00  0.00     0.029 A 
ATOM     53  N   UNL A   1      42.041  28.177  31.206  1.00  0.00    -0.354 N 
ATOM     54  N   UNL A   1      41.086  29.590  33.629  1.00  0.00    -0.248 NA
ATOM     55  C   UNL A   1      41.373  30.153  35.877  1.00  0.00     0.031 C 
ATOM     56  C   UNL A   1      43.941  27.041  31.331  1.00  0.00     0.029 A 
ATOM     57  C   UNL A   1      43.079  27.846  32.059  1.00  0.00     0.049 A 
ATOM     58  H   UNL A   1      41.264  28.730  31.449  1.00  0.00     0.167 HD
ATOM     59  C   UNL A   1      42.287  29.049  34.088  1.00  0.00     0.074 A 
ATOM     60  C   UNL A   1      42.426  29.462  35.467  1.00  0.00     0.031 C 
ATOM     61  C   UNL A   1      43.201  28.288  33.429  1.00  0.00     0.034 A 
BRANCH  48  62
ATOM     62  C   UNL A   1      41.639  27.036  27.537  1.00  0.00     0.023 A 
ATOM     63  C   UNL A   1      41.592  25.632  27.433  1.00  0.00     0.031 A 
ATOM     64  C   UNL A   1      42.122  27.765  26.440  1.00  0.00     0.131 A 
ATOM     65  C   UNL A   1      42.148  24.998  26.315  1.00  0.00     0.055 A 
ATOM     66  C   UNL A   1      42.574  27.127  25.282  1.00  0.00     0.041 A 
ATOM     67  F   UNL A   1      42.219  29.102  26.494  1.00  0.00    -0.206 F 
ATOM     68  C   UNL A   1      42.614  25.736  25.225  1.00  0.00     0.022 A 
BRANCH  65  69
ATOM     69  S   UNL A   1      42.460  23.212  26.405  1.00  0.00     0.124 S 
ATOM     70  O   UNL A   1      41.221  22.729  27.011  1.00  0.00    -0.237 OA
ATOM     71  O   UNL A   1      42.669  22.854  25.008  1.00  0.00    -0.237 OA
ATOM     72  O   UNL A   1      43.641  23.114  27.259  1.00  0.00    -0.744 OA
ENDBRANCH  65  69
ENDBRANCH  48  62
BRANCH  49  73
ATOM     73  C   UNL A   1      38.938  31.766  35.995  1.00  0.00     0.023 A 
ATOM     74  C   UNL A   1      38.179  31.097  36.976  1.00  0.00     0.031 A 
ATOM     75  C   UNL A   1      39.226  33.124  36.217  1.00  0.00     0.131 A 
ATOM     76  C   UNL A   1      37.684  31.797  38.092  1.00  0.00     0.055 A 
ATOM     77  C   UNL A   1      38.777  33.803  37.356  1.00  0.00     0.041 A 
ATOM     78  F   UNL A   1      39.933  33.825  35.316  1.00  0.00    -0.206 F 
ATOM     79  C   UNL A   1      37.988  33.144  38.294  1.00  0.00     0.022 A 
BRANCH  76  80
ATOM     80  S   UNL A   1      36.544  30.949  39.226  1.00  0.00     0.124 S 
ATOM     81  O   UNL A   1      36.277  29.710  38.506  1.00  0.00    -0.237 OA
ATOM     82  O   UNL A   1      37.351  30.830  40.436  1.00  0.00    -0.237 OA
ATOM     83  O   UNL A   1      35.412  31.870  39.324  1.00  0.00    -0.744 OA
ENDBRANCH  76  80
ENDBRANCH  49  73
BRANCH  61  84
ATOM     84  C   UNL A   1      44.466  27.921  34.169  1.00  0.00     0.023 A 
ATOM     85  C   UNL A   1      44.596  26.716  34.880  1.00  0.00     0.031 A 
ATOM     86  C   UNL A   1      45.571  28.791  34.135  1.00  0.00     0.131 A 
ATOM     87  C   UNL A   1      45.787  26.438  35.569  1.00  0.00     0.055 A 
ATOM     88  C   UNL A   1      46.774  28.480  34.767  1.00  0.00     0.041 A 
ATOM     89  F   UNL A   1      45.503  29.956  33.469  1.00  0.00    -0.206 F 
ATOM     90  C   UNL A   1      46.883  27.302  35.501  1.00  0.00     0.022 A 
BRANCH  87  91
ATOM     91  S   UNL A   1      45.858  24.968  36.630  1.00  0.00     0.124 S 
ATOM     92  O   UNL A   1      46.131  25.551  37.939  1.00  0.00    -0.237 OA
ATOM     93  O   UNL A   1      44.529  24.391  36.453  1.00  0.00    -0.237 OA
ATOM     94  O   UNL A   1      46.953  24.186  36.059  1.00  0.00    -0.744 OA
ENDBRANCH  87  91
ENDBRANCH  61  84
ENDBRANCH  35  36
ENDBRANCH  28  30
ENDBRANCH  27  28
ENDBRANCH   1  27
TORSDOF 16
ENDMDL
MODEL 3
REMARK VINA RESULT:     -14.4      2.028      2.639
REMARK SMILES O=C(OCCOC(=O)c1ccc(-c2c3nc(c(-c4cc(S(=O)(=O)[O-])ccc4F)c4ccc([nH]4)c(-c4cc(S(=O)(=O)[O-])ccc4F)c4nc(c(-c5cc(S(=O)(=O)[O-])ccc5F)c5ccc2[nH]5)C=C4)C=C3)cc1)C1=Cc2cc(Cl)cc(-c3ccccc3)c2O[C@@H]1C(F)(F)F
REMARK SMILES IDX 5 1 4 2 3 3 2 4 1 5 72 6 73 7 88 8 74 9 87 10 75 11 86 12
REMARK SMILES IDX 76 13 79 14 77 15 78 16 89 17 90 18 91 19 92 20 80 21 81 22
REMARK SMILES IDX 85 23 82 24 84 25 83 26 6 27 7 28 8 29 9 30 10 31 71 32
REMARK SMILES IDX 11 33 70 34 12 35 13 36 14 37 64 38 15 39 69 40 63 41 65 42
REMARK SMILES IDX 16 43 68 44 62 45 61 46 17 48 49 49 29 50 48 51 30 52 33 53
REMARK SMILES IDX 47 54 66 55 31 56 32 57 46 59 67 60 34 61 18 62 19 63 27 64
REMARK SMILES IDX 20 65 26 66 28 67 25 68 21 69 22 70 23 71 24 72 50 73 51 74
REMARK SMILES IDX 59 75 52 76 58 77 60 78 57 79 53 80 54 81 55 82 56 83 35 84
REMARK SMILES IDX 36 85 44 86 37 87 43 88 45 89 42 90 38 91 39 92 40 93 41 94
REMARK H PARENT 65 47 33 58
REMARK Flexibility Score: inf
ROOT
ATOM      1  C   UNL A   1      31.757  30.342  26.037  1.00  0.00     0.275 C 
ENDROOT
BRANCH   1   2
ATOM      2  C   UNL A   1      31.590  28.193  25.902  1.00  0.00     0.275 C 
BRANCH   2   3
ATOM      3  O   UNL A   1      32.727  27.154  26.184  1.00  0.00    -0.459 OA
BRANCH   3   4
ATOM      4  C   UNL A   1      32.318  25.885  26.098  1.00  0.00     0.338 C 
ATOM      5  O   UNL A   1      31.763  25.177  26.898  1.00  0.00    -0.246 OA
BRANCH   4   6
ATOM      6  C   UNL A   1      32.970  25.628  24.842  1.00  0.00     0.087 C 
ATOM      7  C   UNL A   1      34.416  25.418  25.061  1.00  0.00     0.027 C 
ATOM      8  C   UNL A   1      31.738  24.288  24.191  1.00  0.00     0.316 C 
ATOM      9  C   UNL A   1      35.218  23.806  24.885  1.00  0.00     0.019 A 
ATOM     10  O   UNL A   1      32.571  22.557  24.033  1.00  0.00    -0.475 OA
ATOM     11  C   UNL A   1      36.504  23.716  25.349  1.00  0.00     0.032 A 
ATOM     12  C   UNL A   1      34.328  22.355  24.480  1.00  0.00     0.135 A 
ATOM     13  C   UNL A   1      36.991  22.415  25.471  1.00  0.00     0.042 A 
ATOM     14  C   UNL A   1      34.889  21.112  24.677  1.00  0.00     0.026 A 
ATOM     15  Cl  UNL A   1      38.581  22.225  26.137  1.00  0.00    -0.084 Cl
ATOM     16  C   UNL A   1      36.243  21.216  25.157  1.00  0.00     0.033 A 
BRANCH   8  17
ATOM     17  C   UNL A   1      30.913  25.190  23.204  1.00  0.00     0.430 C 
ATOM     18  F   UNL A   1      31.555  25.386  22.046  1.00  0.00    -0.167 F 
ATOM     19  F   UNL A   1      29.785  24.496  22.856  1.00  0.00    -0.167 F 
ATOM     20  F   UNL A   1      30.416  26.335  23.699  1.00  0.00    -0.167 F 
ENDBRANCH   8  17
BRANCH  14  21
ATOM     21  C   UNL A   1      34.317  19.775  24.630  1.00  0.00    -0.015 A 
ATOM     22  C   UNL A   1      35.190  18.665  24.630  1.00  0.00     0.009 A 
ATOM     23  C   UNL A   1      32.973  19.560  24.311  1.00  0.00     0.009 A 
ATOM     24  C   UNL A   1      34.738  17.387  24.301  1.00  0.00     0.001 A 
ATOM     25  C   UNL A   1      32.521  18.277  23.981  1.00  0.00     0.001 A 
ATOM     26  C   UNL A   1      33.403  17.195  23.969  1.00  0.00     0.000 A 
ENDBRANCH  14  21
ENDBRANCH   4   6
ENDBRANCH   3   4
ENDBRANCH   2   3
ENDBRANCH   1   2
BRANCH   1  27
ATOM     27  O   UNL A   1      32.574  31.220  27.231  1.00  0.00    -0.458 OA
BRANCH  27  28
ATOM     28  C   UNL A   1      33.395  32.290  27.449  1.00  0.00     0.338 C 
ATOM     29  O   UNL A   1      33.111  33.450  27.670  1.00  0.00    -0.246 OA
BRANCH  28  30
ATOM     30  C   UNL A   1      34.745  31.682  27.690  1.00  0.00     0.060 A 
ATOM     31  C   UNL A   1      35.823  32.524  28.007  1.00  0.00     0.016 A 
ATOM     32  C   UNL A   1      34.829  30.317  27.977  1.00  0.00     0.016 A 
ATOM     33  C   UNL A   1      36.877  32.040  28.808  1.00  0.00     0.010 A 
ATOM     34  C   UNL A   1      35.890  29.834  28.751  1.00  0.00     0.010 A 
ATOM     35  C   UNL A   1      36.889  30.702  29.231  1.00  0.00    -0.014 A 
BRANCH  35  36
ATOM     36  C   UNL A   1      38.073  30.127  29.929  1.00  0.00     0.031 A 
ATOM     37  C   UNL A   1      38.298  30.625  31.328  1.00  0.00     0.074 A 
ATOM     38  C   UNL A   1      38.952  29.274  29.361  1.00  0.00     0.049 A 
ATOM     39  N   UNL A   1      39.266  30.374  32.166  1.00  0.00    -0.248 NA
ATOM     40  C   UNL A   1      37.291  31.576  31.826  1.00  0.00     0.031 C 
ATOM     41  C   UNL A   1      38.861  28.718  28.010  1.00  0.00     0.029 A 
ATOM     42  N   UNL A   1      40.117  28.727  29.858  1.00  0.00    -0.354 N 
ATOM     43  C   UNL A   1      38.974  31.128  33.296  1.00  0.00     0.074 A 
ATOM     44  C   UNL A   1      37.797  31.911  32.995  1.00  0.00     0.031 C 
ATOM     45  C   UNL A   1      39.923  27.915  27.789  1.00  0.00     0.029 A 
ATOM     46  C   UNL A   1      40.784  27.905  28.971  1.00  0.00     0.049 A 
ATOM     47  H   UNL A   1      40.444  28.909  30.768  1.00  0.00     0.167 HD
ATOM     48  C   UNL A   1      39.606  31.150  34.493  1.00  0.00     0.034 A 
ATOM     49  C   UNL A   1      41.950  27.231  29.111  1.00  0.00     0.034 A 
ATOM     50  C   UNL A   1      40.809  30.415  34.763  1.00  0.00     0.049 A 
ATOM     51  C   UNL A   1      42.702  27.346  30.428  1.00  0.00     0.074 A 
ATOM     52  C   UNL A   1      41.559  30.378  35.922  1.00  0.00     0.029 A 
ATOM     53  N   UNL A   1      41.454  29.601  33.838  1.00  0.00    -0.354 N 
ATOM     54  N   UNL A   1      42.380  28.015  31.513  1.00  0.00    -0.248 NA
ATOM     55  C   UNL A   1      43.967  26.605  30.540  1.00  0.00     0.031 C 
ATOM     56  C   UNL A   1      42.693  29.592  35.678  1.00  0.00     0.029 A 
ATOM     57  C   UNL A   1      42.607  29.075  34.394  1.00  0.00     0.049 A 
ATOM     58  H   UNL A   1      41.138  29.425  32.923  1.00  0.00     0.167 HD
ATOM     59  C   UNL A   1      43.374  27.727  32.449  1.00  0.00     0.074 A 
ATOM     60  C   UNL A   1      44.302  26.825  31.803  1.00  0.00     0.031 C 
ATOM     61  C   UNL A   1      43.508  28.160  33.731  1.00  0.00     0.034 A 
BRANCH  48  62
ATOM     62  C   UNL A   1      39.000  32.050  35.541  1.00  0.00     0.023 A 
ATOM     63  C   UNL A   1      39.390  33.400  35.645  1.00  0.00     0.031 A 
ATOM     64  C   UNL A   1      38.163  31.525  36.536  1.00  0.00     0.131 A 
ATOM     65  C   UNL A   1      39.055  34.135  36.790  1.00  0.00     0.055 A 
ATOM     66  C   UNL A   1      37.743  32.300  37.620  1.00  0.00     0.041 A 
ATOM     67  F   UNL A   1      37.785  30.238  36.506  1.00  0.00    -0.206 F 
ATOM     68  C   UNL A   1      38.211  33.603  37.767  1.00  0.00     0.022 A 
BRANCH  65  69
ATOM     69  S   UNL A   1      39.922  35.702  37.090  1.00  0.00     0.124 S 
ATOM     70  O   UNL A   1      41.297  35.245  37.279  1.00  0.00    -0.237 OA
ATOM     71  O   UNL A   1      39.659  36.450  35.867  1.00  0.00    -0.237 OA
ATOM     72  O   UNL A   1      39.276  36.225  38.292  1.00  0.00    -0.744 OA
ENDBRANCH  65  69
ENDBRANCH  48  62
BRANCH  49  73
ATOM     73  C   UNL A   1      42.521  26.386  28.009  1.00  0.00     0.023 A 
ATOM     74  C   UNL A   1      42.143  25.038  27.854  1.00  0.00     0.031 A 
ATOM     75  C   UNL A   1      43.542  26.871  27.173  1.00  0.00     0.131 A 
ATOM     76  C   UNL A   1      42.818  24.211  26.938  1.00  0.00     0.055 A 
ATOM     77  C   UNL A   1      44.175  26.058  26.225  1.00  0.00     0.041 A 
ATOM     78  F   UNL A   1      43.961  28.142  27.277  1.00  0.00    -0.206 F 
ATOM     79  C   UNL A   1      43.825  24.715  26.114  1.00  0.00     0.022 A 
BRANCH  76  80
ATOM     80  S   UNL A   1      42.438  22.433  26.913  1.00  0.00     0.124 S 
ATOM     81  O   UNL A   1      41.976  22.249  25.543  1.00  0.00    -0.237 OA
ATOM     82  O   UNL A   1      43.730  21.841  27.241  1.00  0.00    -0.237 OA
ATOM     83  O   UNL A   1      41.410  22.289  27.943  1.00  0.00    -0.744 OA
ENDBRANCH  76  80
ENDBRANCH  49  73
BRANCH  61  84
ATOM     84  C   UNL A   1      44.653  27.600  34.541  1.00  0.00     0.023 A 
ATOM     85  C   UNL A   1      44.509  26.464  35.355  1.00  0.00     0.031 A 
ATOM     86  C   UNL A   1      45.919  28.208  34.472  1.00  0.00     0.131 A 
ATOM     87  C   UNL A   1      45.601  26.000  36.105  1.00  0.00     0.055 A 
ATOM     88  C   UNL A   1      47.017  27.705  35.169  1.00  0.00     0.041 A 
ATOM     89  F   UNL A   1      46.114  29.297  33.709  1.00  0.00    -0.206 F 
ATOM     90  C   UNL A   1      46.859  26.602  36.002  1.00  0.00     0.022 A 
BRANCH  87  91
ATOM     91  S   UNL A   1      45.339  24.650  37.287  1.00  0.00     0.124 S 
ATOM     92  O   UNL A   1      46.586  24.661  38.044  1.00  0.00    -0.237 OA
ATOM     93  O   UNL A   1      44.151  25.094  38.009  1.00  0.00    -0.237 OA
ATOM     94  O   UNL A   1      45.141  23.480  36.433  1.00  0.00    -0.744 OA
ENDBRANCH  87  91
ENDBRANCH  61  84
ENDBRANCH  35  36
ENDBRANCH  28  30
ENDBRANCH  27  28
ENDBRANCH   1  27
TORSDOF 16
ENDMDL
