MODEL 1
REMARK VINA RESULT:     -10.5      0.000      0.000
REMARK SMILES CCC(CC)(NC(=O)N(C)CCS(C)(=O)=O)C(=O)OCCOC(=O)c1ccc(-c2c3nc(c(-c4cc(S(=O)(=O)[O-])ccc4F)c4ccc([nH]4)c(-c4cc(S(=O)(=O)[O-])ccc4F)c4nc(c(-c5cc(S(=O)(=O)[O-])ccc5F)c5ccc2[nH]5)C=C4)C=C3)cc1
REMARK SMILES IDX 20 1 19 2 17 3 18 4 3 5 2 6 1 7 4 8 5 9 6 10 7 11 8 13 9 14
REMARK SMILES IDX 10 15 11 16 12 17 13 18 14 19 15 20 16 21 21 22 22 23 23 24
REMARK SMILES IDX 24 25 25 26 26 27 87 28 27 29 86 30 28 31 29 32 30 33 80 34
REMARK SMILES IDX 31 35 85 36 79 37 81 38 32 39 84 40 78 41 77 42 33 44 65 45
REMARK SMILES IDX 45 46 64 47 46 48 49 49 63 50 82 51 47 52 48 53 62 55 83 56
REMARK SMILES IDX 50 57 34 58 35 59 43 60 36 61 42 62 44 63 41 64 37 65 38 66
REMARK SMILES IDX 39 67 40 68 66 69 67 70 75 71 68 72 74 73 76 74 73 75 69 76
REMARK SMILES IDX 70 77 71 78 72 79 51 80 52 81 60 82 53 83 59 84 61 85 58 86
REMARK SMILES IDX 54 87 55 88 56 89 57 90
REMARK H PARENT 6 12 81 43 49 54
REMARK Flexibility Score: inf
ROOT
ATOM      1  C   UNL A   1      33.031  29.710  25.212  1.00  0.00     0.274 C 
ENDROOT
BRANCH   1   2
ATOM      2  O   UNL A   1      32.358  28.497  24.805  1.00  0.00    -0.460 OA
BRANCH   2   3
ATOM      3  C   UNL A   1      32.469  28.103  23.517  1.00  0.00     0.332 C 
ATOM      4  O   UNL A   1      33.392  28.477  22.801  1.00  0.00    -0.249 OA
BRANCH   3   5
ATOM      5  C   UNL A   1      31.256  27.235  23.009  1.00  0.00     0.139 C 
BRANCH   5   6
ATOM      6  C   UNL A   1      30.250  28.108  22.192  1.00  0.00     0.037 C 
ATOM      7  C   UNL A   1      29.982  29.523  22.722  1.00  0.00     0.007 C 
ENDBRANCH   5   6
BRANCH   5   8
ATOM      8  C   UNL A   1      30.604  26.735  24.339  1.00  0.00     0.037 C 
ATOM      9  C   UNL A   1      29.138  26.317  24.235  1.00  0.00     0.007 C 
ENDBRANCH   5   8
BRANCH   5  10
ATOM     10  N   UNL A   1      31.544  25.954  22.262  1.00  0.00    -0.322 N 
ATOM     11  C   UNL A   1      32.714  25.449  21.781  1.00  0.00     0.318 C 
ATOM     12  H   UNL A   1      30.754  25.391  22.094  1.00  0.00     0.166 HD
ATOM     13  O   UNL A   1      33.081  25.738  20.645  1.00  0.00    -0.249 OA
BRANCH  11  14
ATOM     14  N   UNL A   1      33.265  24.405  22.514  1.00  0.00    -0.327 N 
ATOM     15  C   UNL A   1      32.797  23.029  22.428  1.00  0.00     0.148 C 
BRANCH  14  16
ATOM     16  C   UNL A   1      34.348  24.679  23.464  1.00  0.00     0.137 C 
BRANCH  16  17
ATOM     17  C   UNL A   1      34.697  23.533  24.411  1.00  0.00     0.158 C 
BRANCH  17  18
ATOM     18  S   UNL A   1      36.276  22.765  24.113  1.00  0.00     0.149 S 
ATOM     19  C   UNL A   1      37.357  23.520  25.301  1.00  0.00     0.158 C 
ATOM     20  O   UNL A   1      36.134  21.370  24.498  1.00  0.00    -0.229 OA
ATOM     21  O   UNL A   1      36.744  23.090  22.781  1.00  0.00    -0.229 OA
ENDBRANCH  17  18
ENDBRANCH  16  17
ENDBRANCH  14  16
ENDBRANCH  11  14
ENDBRANCH   5  10
ENDBRANCH   3   5
ENDBRANCH   2   3
ENDBRANCH   1   2
BRANCH   1  22
ATOM     22  C   UNL A   1      32.182  30.388  26.286  1.00  0.00     0.275 C 
BRANCH  22  23
ATOM     23  O   UNL A   1      32.965  30.435  27.484  1.00  0.00    -0.458 OA
BRANCH  23  24
ATOM     24  C   UNL A   1      33.711  31.539  27.719  1.00  0.00     0.338 C 
ATOM     25  O   UNL A   1      33.344  32.704  27.669  1.00  0.00    -0.246 OA
BRANCH  24  26
ATOM     26  C   UNL A   1      35.079  31.064  28.018  1.00  0.00     0.060 A 
ATOM     27  C   UNL A   1      36.098  32.008  28.137  1.00  0.00     0.016 A 
ATOM     28  C   UNL A   1      35.359  29.722  28.252  1.00  0.00     0.016 A 
ATOM     29  C   UNL A   1      37.384  31.644  28.506  1.00  0.00     0.010 A 
ATOM     30  C   UNL A   1      36.632  29.364  28.723  1.00  0.00     0.010 A 
ATOM     31  C   UNL A   1      37.642  30.332  28.894  1.00  0.00    -0.014 A 
BRANCH  31  32
ATOM     32  C   UNL A   1      38.934  30.013  29.558  1.00  0.00     0.031 A 
ATOM     33  C   UNL A   1      39.865  29.013  28.946  1.00  0.00     0.074 A 
ATOM     34  C   UNL A   1      39.256  30.624  30.720  1.00  0.00     0.049 A 
ATOM     35  N   UNL A   1      40.897  28.416  29.478  1.00  0.00    -0.248 NA
ATOM     36  C   UNL A   1      39.597  28.636  27.551  1.00  0.00     0.031 C 
ATOM     37  C   UNL A   1      38.481  31.692  31.365  1.00  0.00     0.029 A 
ATOM     38  N   UNL A   1      40.313  30.433  31.577  1.00  0.00    -0.354 N 
ATOM     39  C   UNL A   1      41.377  27.551  28.502  1.00  0.00     0.074 A 
ATOM     40  C   UNL A   1      40.527  27.713  27.340  1.00  0.00     0.031 C 
ATOM     41  C   UNL A   1      39.087  32.057  32.503  1.00  0.00     0.029 A 
ATOM     42  C   UNL A   1      40.223  31.177  32.735  1.00  0.00     0.049 A 
ATOM     43  H   UNL A   1      41.063  29.824  31.384  1.00  0.00     0.167 HD
ATOM     44  C   UNL A   1      42.421  26.692  28.587  1.00  0.00     0.034 A 
ATOM     45  C   UNL A   1      40.919  31.103  33.888  1.00  0.00     0.034 A 
ATOM     46  C   UNL A   1      43.259  26.572  29.756  1.00  0.00     0.049 A 
ATOM     47  C   UNL A   1      42.001  30.058  33.997  1.00  0.00     0.074 A 
ATOM     48  C   UNL A   1      44.348  25.741  29.952  1.00  0.00     0.029 A 
ATOM     49  N   UNL A   1      43.098  27.298  30.930  1.00  0.00    -0.354 N 
ATOM     50  N   UNL A   1      42.416  29.203  33.089  1.00  0.00    -0.248 NA
ATOM     51  C   UNL A   1      42.697  29.953  35.286  1.00  0.00     0.031 C 
ATOM     52  C   UNL A   1      44.795  25.908  31.267  1.00  0.00     0.029 A 
ATOM     53  C   UNL A   1      44.038  26.902  31.868  1.00  0.00     0.049 A 
ATOM     54  H   UNL A   1      42.416  27.992  31.074  1.00  0.00     0.167 HD
ATOM     55  C   UNL A   1      43.430  28.470  33.696  1.00  0.00     0.074 A 
ATOM     56  C   UNL A   1      43.586  29.005  35.033  1.00  0.00     0.031 C 
ATOM     57  C   UNL A   1      44.166  27.443  33.200  1.00  0.00     0.034 A 
BRANCH  44  58
ATOM     58  C   UNL A   1      42.660  25.757  27.429  1.00  0.00     0.023 A 
ATOM     59  C   UNL A   1      42.107  24.468  27.373  1.00  0.00     0.031 A 
ATOM     60  C   UNL A   1      43.462  26.180  26.352  1.00  0.00     0.131 A 
ATOM     61  C   UNL A   1      42.399  23.631  26.282  1.00  0.00     0.055 A 
ATOM     62  C   UNL A   1      43.692  25.370  25.240  1.00  0.00     0.041 A 
ATOM     63  F   UNL A   1      44.037  27.393  26.365  1.00  0.00    -0.206 F 
ATOM     64  C   UNL A   1      43.165  24.083  25.205  1.00  0.00     0.022 A 
BRANCH  61  65
ATOM     65  S   UNL A   1      41.846  21.904  26.336  1.00  0.00     0.124 S 
ATOM     66  O   UNL A   1      42.543  21.335  25.185  1.00  0.00    -0.237 OA
ATOM     67  O   UNL A   1      42.309  21.464  27.646  1.00  0.00    -0.237 OA
ATOM     68  O   UNL A   1      40.395  22.004  26.189  1.00  0.00    -0.744 OA
ENDBRANCH  61  65
ENDBRANCH  44  58
BRANCH  45  69
ATOM     69  C   UNL A   1      40.548  31.942  35.069  1.00  0.00     0.023 A 
ATOM     70  C   UNL A   1      39.529  31.548  35.951  1.00  0.00     0.031 A 
ATOM     71  C   UNL A   1      41.149  33.197  35.286  1.00  0.00     0.131 A 
ATOM     72  C   UNL A   1      39.102  32.420  36.965  1.00  0.00     0.055 A 
ATOM     73  C   UNL A   1      40.773  34.029  36.342  1.00  0.00     0.041 A 
ATOM     74  F   UNL A   1      42.119  33.639  34.469  1.00  0.00    -0.206 F 
ATOM     75  C   UNL A   1      39.730  33.649  37.178  1.00  0.00     0.022 A 
BRANCH  72  76
ATOM     76  S   UNL A   1      37.624  31.983  37.922  1.00  0.00     0.124 S 
ATOM     77  O   UNL A   1      38.078  32.213  39.289  1.00  0.00    -0.237 OA
ATOM     78  O   UNL A   1      36.639  32.927  37.405  1.00  0.00    -0.237 OA
ATOM     79  O   UNL A   1      37.391  30.584  37.569  1.00  0.00    -0.744 OA
ENDBRANCH  72  76
ENDBRANCH  45  69
BRANCH  57  80
ATOM     80  C   UNL A   1      45.221  26.865  34.107  1.00  0.00     0.023 A 
ATOM     81  C   UNL A   1      44.934  25.805  34.986  1.00  0.00     0.031 A 
ATOM     82  C   UNL A   1      46.524  27.390  34.103  1.00  0.00     0.131 A 
ATOM     83  C   UNL A   1      45.924  25.341  35.865  1.00  0.00     0.055 A 
ATOM     84  C   UNL A   1      47.523  26.880  34.933  1.00  0.00     0.041 A 
ATOM     85  F   UNL A   1      46.850  28.406  33.287  1.00  0.00    -0.206 F 
ATOM     86  C   UNL A   1      47.222  25.859  35.830  1.00  0.00     0.022 A 
BRANCH  83  87
ATOM     87  S   UNL A   1      45.467  24.112  37.117  1.00  0.00     0.124 S 
ATOM     88  O   UNL A   1      46.669  24.061  37.942  1.00  0.00    -0.237 OA
ATOM     89  O   UNL A   1      44.293  24.717  37.736  1.00  0.00    -0.237 OA
ATOM     90  O   UNL A   1      45.201  22.907  36.333  1.00  0.00    -0.744 OA
ENDBRANCH  83  87
ENDBRANCH  57  80
ENDBRANCH  31  32
ENDBRANCH  24  26
ENDBRANCH  23  24
ENDBRANCH  22  23
ENDBRANCH   1  22
TORSDOF 21
ENDMDL
MODEL 2
REMARK VINA RESULT:     -10.5      2.320      3.788
REMARK SMILES CCC(CC)(NC(=O)N(C)CCS(C)(=O)=O)C(=O)OCCOC(=O)c1ccc(-c2c3nc(c(-c4cc(S(=O)(=O)[O-])ccc4F)c4ccc([nH]4)c(-c4cc(S(=O)(=O)[O-])ccc4F)c4nc(c(-c5cc(S(=O)(=O)[O-])ccc5F)c5ccc2[nH]5)C=C4)C=C3)cc1
REMARK SMILES IDX 20 1 19 2 17 3 18 4 3 5 2 6 1 7 4 8 5 9 6 10 7 11 8 13 9 14
REMARK SMILES IDX 10 15 11 16 12 17 13 18 14 19 15 20 16 21 21 22 22 23 23 24
REMARK SMILES IDX 24 25 25 26 26 27 87 28 27 29 86 30 28 31 29 32 30 33 80 34
REMARK SMILES IDX 31 35 85 36 79 37 81 38 32 39 84 40 78 41 77 42 33 44 65 45
REMARK SMILES IDX 45 46 64 47 46 48 49 49 63 50 82 51 47 52 48 53 62 55 83 56
REMARK SMILES IDX 50 57 34 58 35 59 43 60 36 61 42 62 44 63 41 64 37 65 38 66
REMARK SMILES IDX 39 67 40 68 66 69 67 70 75 71 68 72 74 73 76 74 73 75 69 76
REMARK SMILES IDX 70 77 71 78 72 79 51 80 52 81 60 82 53 83 59 84 61 85 58 86
REMARK SMILES IDX 54 87 55 88 56 89 57 90
REMARK H PARENT 6 12 81 43 49 54
REMARK Flexibility Score: inf
ROOT
ATOM      1  C   UNL A   1      31.590  28.360  27.290  1.00  0.00     0.274 C 
ENDROOT
BRANCH   1   2
ATOM      2  O   UNL A   1      32.184  27.527  26.268  1.00  0.00    -0.460 OA
BRANCH   2   3
ATOM      3  C   UNL A   1      31.686  26.283  26.086  1.00  0.00     0.332 C 
ATOM      4  O   UNL A   1      31.126  25.669  26.988  1.00  0.00    -0.249 OA
BRANCH   3   5
ATOM      5  C   UNL A   1      32.000  25.673  24.668  1.00  0.00     0.139 C 
BRANCH   5   6
ATOM      6  C   UNL A   1      31.708  24.138  24.644  1.00  0.00     0.037 C 
ATOM      7  C   UNL A   1      30.930  23.606  23.433  1.00  0.00     0.007 C 
ENDBRANCH   5   6
BRANCH   5   8
ATOM      8  C   UNL A   1      33.530  25.950  24.500  1.00  0.00     0.037 C 
ATOM      9  C   UNL A   1      34.453  25.064  25.334  1.00  0.00     0.007 C 
ENDBRANCH   5   8
BRANCH   5  10
ATOM     10  N   UNL A   1      31.395  26.326  23.447  1.00  0.00    -0.322 N 
ATOM     11  C   UNL A   1      30.481  27.329  23.338  1.00  0.00     0.318 C 
ATOM     12  H   UNL A   1      31.714  25.966  22.588  1.00  0.00     0.166 HD
ATOM     13  O   UNL A   1      29.282  27.061  23.309  1.00  0.00    -0.249 OA
BRANCH  11  14
ATOM     14  N   UNL A   1      30.989  28.570  22.971  1.00  0.00    -0.327 N 
ATOM     15  C   UNL A   1      32.392  28.935  23.106  1.00  0.00     0.148 C 
BRANCH  14  16
ATOM     16  C   UNL A   1      30.081  29.602  22.460  1.00  0.00     0.137 C 
BRANCH  16  17
ATOM     17  C   UNL A   1      29.355  30.422  23.523  1.00  0.00     0.158 C 
BRANCH  17  18
ATOM     18  S   UNL A   1      28.089  31.509  22.900  1.00  0.00     0.149 S 
ATOM     19  C   UNL A   1      28.877  33.098  22.829  1.00  0.00     0.158 C 
ATOM     20  O   UNL A   1      27.836  31.103  21.527  1.00  0.00    -0.229 OA
ATOM     21  O   UNL A   1      26.984  31.575  23.835  1.00  0.00    -0.229 OA
ENDBRANCH  17  18
ENDBRANCH  16  17
ENDBRANCH  14  16
ENDBRANCH  11  14
ENDBRANCH   5  10
ENDBRANCH   3   5
ENDBRANCH   2   3
ENDBRANCH   1   2
BRANCH   1  22
ATOM     22  C   UNL A   1      31.558  29.797  26.772  1.00  0.00     0.275 C 
BRANCH  22  23
ATOM     23  O   UNL A   1      32.912  30.199  26.538  1.00  0.00    -0.458 OA
BRANCH  23  24
ATOM     24  C   UNL A   1      33.401  31.245  27.242  1.00  0.00     0.338 C 
ATOM     25  O   UNL A   1      32.829  32.294  27.500  1.00  0.00    -0.246 OA
BRANCH  24  26
ATOM     26  C   UNL A   1      34.787  30.889  27.614  1.00  0.00     0.060 A 
ATOM     27  C   UNL A   1      35.693  31.920  27.861  1.00  0.00     0.016 A 
ATOM     28  C   UNL A   1      35.187  29.570  27.790  1.00  0.00     0.016 A 
ATOM     29  C   UNL A   1      36.982  31.661  28.304  1.00  0.00     0.010 A 
ATOM     30  C   UNL A   1      36.456  29.309  28.334  1.00  0.00     0.010 A 
ATOM     31  C   UNL A   1      37.347  30.359  28.634  1.00  0.00    -0.014 A 
BRANCH  31  32
ATOM     32  C   UNL A   1      38.616  30.127  29.373  1.00  0.00     0.031 A 
ATOM     33  C   UNL A   1      39.652  29.203  28.812  1.00  0.00     0.074 A 
ATOM     34  C   UNL A   1      38.823  30.747  30.555  1.00  0.00     0.049 A 
ATOM     35  N   UNL A   1      40.690  28.676  29.401  1.00  0.00    -0.248 NA
ATOM     36  C   UNL A   1      39.495  28.822  27.400  1.00  0.00     0.031 C 
ATOM     37  C   UNL A   1      37.936  31.750  31.159  1.00  0.00     0.029 A 
ATOM     38  N   UNL A   1      39.838  30.624  31.473  1.00  0.00    -0.354 N 
ATOM     39  C   UNL A   1      41.289  27.858  28.450  1.00  0.00     0.074 A 
ATOM     40  C   UNL A   1      40.501  27.970  27.240  1.00  0.00     0.031 C 
ATOM     41  C   UNL A   1      38.445  32.146  32.334  1.00  0.00     0.029 A 
ATOM     42  C   UNL A   1      39.626  31.347  32.628  1.00  0.00     0.049 A 
ATOM     43  H   UNL A   1      40.641  30.073  31.322  1.00  0.00     0.167 HD
ATOM     44  C   UNL A   1      42.386  27.076  28.594  1.00  0.00     0.034 A 
ATOM     45  C   UNL A   1      40.256  31.312  33.820  1.00  0.00     0.034 A 
ATOM     46  C   UNL A   1      43.160  27.004  29.810  1.00  0.00     0.049 A 
ATOM     47  C   UNL A   1      41.402  30.346  33.988  1.00  0.00     0.074 A 
ATOM     48  C   UNL A   1      44.292  26.252  30.066  1.00  0.00     0.029 A 
ATOM     49  N   UNL A   1      42.877  27.704  30.977  1.00  0.00    -0.354 N 
ATOM     50  N   UNL A   1      41.931  29.533  33.102  1.00  0.00    -0.248 NA
ATOM     51  C   UNL A   1      42.025  30.278  35.316  1.00  0.00     0.031 C 
ATOM     52  C   UNL A   1      44.647  26.437  31.406  1.00  0.00     0.029 A 
ATOM     53  C   UNL A   1      43.786  27.367  31.967  1.00  0.00     0.049 A 
ATOM     54  H   UNL A   1      42.139  28.346  31.083  1.00  0.00     0.167 HD
ATOM     55  C   UNL A   1      42.958  28.869  33.764  1.00  0.00     0.074 A 
ATOM     56  C   UNL A   1      42.994  29.399  35.112  1.00  0.00     0.031 C 
ATOM     57  C   UNL A   1      43.794  27.902  33.307  1.00  0.00     0.034 A 
BRANCH  44  58
ATOM     58  C   UNL A   1      42.761  26.172  27.446  1.00  0.00     0.023 A 
ATOM     59  C   UNL A   1      42.304  24.848  27.347  1.00  0.00     0.031 A 
ATOM     60  C   UNL A   1      43.596  26.661  26.424  1.00  0.00     0.131 A 
ATOM     61  C   UNL A   1      42.720  24.046  26.272  1.00  0.00     0.055 A 
ATOM     62  C   UNL A   1      43.950  25.882  25.323  1.00  0.00     0.041 A 
ATOM     63  F   UNL A   1      44.082  27.912  26.481  1.00  0.00    -0.206 F 
ATOM     64  C   UNL A   1      43.517  24.561  25.247  1.00  0.00     0.022 A 
BRANCH  61  65
ATOM     65  S   UNL A   1      42.287  22.284  26.279  1.00  0.00     0.124 S 
ATOM     66  O   UNL A   1      40.845  22.333  26.054  1.00  0.00    -0.237 OA
ATOM     67  O   UNL A   1      43.089  21.756  25.182  1.00  0.00    -0.237 OA
ATOM     68  O   UNL A   1      42.687  21.838  27.613  1.00  0.00    -0.744 OA
ENDBRANCH  61  65
ENDBRANCH  44  58
BRANCH  45  69
ATOM     69  C   UNL A   1      39.755  32.110  34.982  1.00  0.00     0.023 A 
ATOM     70  C   UNL A   1      40.218  33.412  35.225  1.00  0.00     0.031 A 
ATOM     71  C   UNL A   1      38.867  31.547  35.920  1.00  0.00     0.131 A 
ATOM     72  C   UNL A   1      39.842  34.083  36.400  1.00  0.00     0.055 A 
ATOM     73  C   UNL A   1      38.437  32.247  37.049  1.00  0.00     0.041 A 
ATOM     74  F   UNL A   1      38.400  30.299  35.754  1.00  0.00    -0.206 F 
ATOM     75  C   UNL A   1      38.940  33.516  37.304  1.00  0.00     0.022 A 
BRANCH  72  76
ATOM     76  S   UNL A   1      40.652  35.656  36.799  1.00  0.00     0.124 S 
ATOM     77  O   UNL A   1      39.658  36.624  36.348  1.00  0.00    -0.237 OA
ATOM     78  O   UNL A   1      40.831  35.546  38.243  1.00  0.00    -0.237 OA
ATOM     79  O   UNL A   1      41.883  35.615  36.014  1.00  0.00    -0.744 OA
ENDBRANCH  72  76
ENDBRANCH  45  69
BRANCH  57  80
ATOM     80  C   UNL A   1      44.832  27.392  34.273  1.00  0.00     0.023 A 
ATOM     81  C   UNL A   1      44.640  26.202  34.997  1.00  0.00     0.031 A 
ATOM     82  C   UNL A   1      46.021  28.112  34.481  1.00  0.00     0.131 A 
ATOM     83  C   UNL A   1      45.598  25.797  35.938  1.00  0.00     0.055 A 
ATOM     84  C   UNL A   1      47.000  27.669  35.371  1.00  0.00     0.041 A 
ATOM     85  F   UNL A   1      46.252  29.257  33.819  1.00  0.00    -0.206 F 
ATOM     86  C   UNL A   1      46.786  26.513  36.115  1.00  0.00     0.022 A 
BRANCH  83  87
ATOM     87  S   UNL A   1      45.229  24.370  36.994  1.00  0.00     0.124 S 
ATOM     88  O   UNL A   1      46.561  23.832  37.250  1.00  0.00    -0.237 OA
ATOM     89  O   UNL A   1      44.560  24.987  38.134  1.00  0.00    -0.237 OA
ATOM     90  O   UNL A   1      44.374  23.534  36.153  1.00  0.00    -0.744 OA
ENDBRANCH  83  87
ENDBRANCH  57  80
ENDBRANCH  31  32
ENDBRANCH  24  26
ENDBRANCH  23  24
ENDBRANCH  22  23
ENDBRANCH   1  22
TORSDOF 21
ENDMDL
MODEL 3
REMARK VINA RESULT:     -10.4      2.300      3.773
REMARK SMILES CCC(CC)(NC(=O)N(C)CCS(C)(=O)=O)C(=O)OCCOC(=O)c1ccc(-c2c3nc(c(-c4cc(S(=O)(=O)[O-])ccc4F)c4ccc([nH]4)c(-c4cc(S(=O)(=O)[O-])ccc4F)c4nc(c(-c5cc(S(=O)(=O)[O-])ccc5F)c5ccc2[nH]5)C=C4)C=C3)cc1
REMARK SMILES IDX 20 1 19 2 17 3 18 4 3 5 2 6 1 7 4 8 5 9 6 10 7 11 8 13 9 14
REMARK SMILES IDX 10 15 11 16 12 17 13 18 14 19 15 20 16 21 21 22 22 23 23 24
REMARK SMILES IDX 24 25 25 26 26 27 87 28 27 29 86 30 28 31 29 32 30 33 80 34
REMARK SMILES IDX 31 35 85 36 79 37 81 38 32 39 84 40 78 41 77 42 33 44 65 45
REMARK SMILES IDX 45 46 64 47 46 48 49 49 63 50 82 51 47 52 48 53 62 55 83 56
REMARK SMILES IDX 50 57 34 58 35 59 43 60 36 61 42 62 44 63 41 64 37 65 38 66
REMARK SMILES IDX 39 67 40 68 66 69 67 70 75 71 68 72 74 73 76 74 73 75 69 76
REMARK SMILES IDX 70 77 71 78 72 79 51 80 52 81 60 82 53 83 59 84 61 85 58 86
REMARK SMILES IDX 54 87 55 88 56 89 57 90
REMARK H PARENT 6 12 81 43 49 54
REMARK Flexibility Score: inf
ROOT
ATOM      1  C   UNL A   1      32.029  28.412  27.268  1.00  0.00     0.274 C 
ENDROOT
BRANCH   1   2
ATOM      2  O   UNL A   1      32.418  27.574  26.155  1.00  0.00    -0.460 OA
BRANCH   2   3
ATOM      3  C   UNL A   1      31.841  26.357  26.037  1.00  0.00     0.332 C 
ATOM      4  O   UNL A   1      31.262  25.818  26.975  1.00  0.00    -0.249 OA
BRANCH   3   5
ATOM      5  C   UNL A   1      32.089  25.667  24.642  1.00  0.00     0.139 C 
BRANCH   5   6
ATOM      6  C   UNL A   1      31.707  24.153  24.693  1.00  0.00     0.037 C 
ATOM      7  C   UNL A   1      30.812  23.633  23.560  1.00  0.00     0.007 C 
ENDBRANCH   5   6
BRANCH   5   8
ATOM      8  C   UNL A   1      33.629  25.845  24.435  1.00  0.00     0.037 C 
ATOM      9  C   UNL A   1      34.516  24.999  25.346  1.00  0.00     0.007 C 
ENDBRANCH   5   8
BRANCH   5  10
ATOM     10  N   UNL A   1      31.498  26.302  23.405  1.00  0.00    -0.322 N 
ATOM     11  C   UNL A   1      30.583  27.300  23.269  1.00  0.00     0.318 C 
ATOM     12  H   UNL A   1      31.831  25.930  22.555  1.00  0.00     0.166 HD
ATOM     13  O   UNL A   1      29.386  27.028  23.227  1.00  0.00    -0.249 OA
BRANCH  11  14
ATOM     14  N   UNL A   1      31.093  28.537  22.892  1.00  0.00    -0.327 N 
ATOM     15  C   UNL A   1      32.501  28.891  22.996  1.00  0.00     0.148 C 
BRANCH  14  16
ATOM     16  C   UNL A   1      30.182  29.576  22.399  1.00  0.00     0.137 C 
BRANCH  16  17
ATOM     17  C   UNL A   1      29.438  30.360  23.477  1.00  0.00     0.158 C 
BRANCH  17  18
ATOM     18  S   UNL A   1      28.088  31.359  22.884  1.00  0.00     0.149 S 
ATOM     19  C   UNL A   1      28.771  32.994  22.777  1.00  0.00     0.158 C 
ATOM     20  O   UNL A   1      27.820  30.924  21.523  1.00  0.00    -0.229 OA
ATOM     21  O   UNL A   1      27.010  31.364  23.852  1.00  0.00    -0.229 OA
ENDBRANCH  17  18
ENDBRANCH  16  17
ENDBRANCH  14  16
ENDBRANCH  11  14
ENDBRANCH   5  10
ENDBRANCH   3   5
ENDBRANCH   2   3
ENDBRANCH   1   2
BRANCH   1  22
ATOM     22  C   UNL A   1      31.933  29.852  26.768  1.00  0.00     0.275 C 
BRANCH  22  23
ATOM     23  O   UNL A   1      33.270  30.326  26.568  1.00  0.00    -0.458 OA
BRANCH  23  24
ATOM     24  C   UNL A   1      33.751  31.263  27.416  1.00  0.00     0.338 C 
ATOM     25  O   UNL A   1      33.169  32.257  27.827  1.00  0.00    -0.246 OA
BRANCH  24  26
ATOM     26  C   UNL A   1      35.142  30.871  27.728  1.00  0.00     0.060 A 
ATOM     27  C   UNL A   1      36.063  31.874  28.025  1.00  0.00     0.016 A 
ATOM     28  C   UNL A   1      35.534  29.539  27.802  1.00  0.00     0.016 A 
ATOM     29  C   UNL A   1      37.359  31.576  28.417  1.00  0.00     0.010 A 
ATOM     30  C   UNL A   1      36.812  29.231  28.294  1.00  0.00     0.010 A 
ATOM     31  C   UNL A   1      37.720  30.251  28.646  1.00  0.00    -0.014 A 
BRANCH  31  32
ATOM     32  C   UNL A   1      39.004  29.957  29.336  1.00  0.00     0.031 A 
ATOM     33  C   UNL A   1      39.949  28.947  28.763  1.00  0.00     0.074 A 
ATOM     34  C   UNL A   1      39.307  30.601  30.484  1.00  0.00     0.049 A 
ATOM     35  N   UNL A   1      40.976  28.370  29.324  1.00  0.00    -0.248 NA
ATOM     36  C   UNL A   1      39.701  28.531  27.374  1.00  0.00     0.031 C 
ATOM     37  C   UNL A   1      38.518  31.681  31.090  1.00  0.00     0.029 A 
ATOM     38  N   UNL A   1      40.354  30.439  31.360  1.00  0.00    -0.354 N 
ATOM     39  C   UNL A   1      41.474  27.482  28.378  1.00  0.00     0.074 A 
ATOM     40  C   UNL A   1      40.639  27.608  27.201  1.00  0.00     0.031 C 
ATOM     41  C   UNL A   1      39.107  32.080  32.226  1.00  0.00     0.029 A 
ATOM     42  C   UNL A   1      40.244  31.213  32.496  1.00  0.00     0.049 A 
ATOM     43  H   UNL A   1      41.110  29.830  31.193  1.00  0.00     0.167 HD
ATOM     44  C   UNL A   1      42.522  26.632  28.500  1.00  0.00     0.034 A 
ATOM     45  C   UNL A   1      40.926  31.174  33.660  1.00  0.00     0.034 A 
ATOM     46  C   UNL A   1      43.345  26.548  29.683  1.00  0.00     0.049 A 
ATOM     47  C   UNL A   1      42.012  30.139  33.811  1.00  0.00     0.074 A 
ATOM     48  C   UNL A   1      44.436  25.729  29.915  1.00  0.00     0.029 A 
ATOM     49  N   UNL A   1      43.165  27.305  30.835  1.00  0.00    -0.354 N 
ATOM     50  N   UNL A   1      42.443  29.263  32.933  1.00  0.00    -0.248 NA
ATOM     51  C   UNL A   1      42.690  30.072  35.111  1.00  0.00     0.031 C 
ATOM     52  C   UNL A   1      44.865  25.934  31.231  1.00  0.00     0.029 A 
ATOM     53  C   UNL A   1      44.094  26.939  31.795  1.00  0.00     0.049 A 
ATOM     54  H   UNL A   1      42.477  27.998  30.951  1.00  0.00     0.167 HD
ATOM     55  C   UNL A   1      43.453  28.552  33.572  1.00  0.00     0.074 A 
ATOM     56  C   UNL A   1      43.588  29.124  34.897  1.00  0.00     0.031 C 
ATOM     57  C   UNL A   1      44.201  27.516  33.114  1.00  0.00     0.034 A 
BRANCH  44  58
ATOM     58  C   UNL A   1      42.782  25.668  27.370  1.00  0.00     0.023 A 
ATOM     59  C   UNL A   1      42.260  24.364  27.355  1.00  0.00     0.031 A 
ATOM     60  C   UNL A   1      43.571  26.076  26.279  1.00  0.00     0.131 A 
ATOM     61  C   UNL A   1      42.570  23.502  26.291  1.00  0.00     0.055 A 
ATOM     62  C   UNL A   1      43.819  25.238  25.193  1.00  0.00     0.041 A 
ATOM     63  F   UNL A   1      44.118  27.303  26.254  1.00  0.00    -0.206 F 
ATOM     64  C   UNL A   1      43.323  23.938  25.198  1.00  0.00     0.022 A 
BRANCH  61  65
ATOM     65  S   UNL A   1      42.058  21.764  26.399  1.00  0.00     0.124 S 
ATOM     66  O   UNL A   1      42.316  21.468  27.806  1.00  0.00    -0.237 OA
ATOM     67  O   UNL A   1      40.656  21.821  26.004  1.00  0.00    -0.237 OA
ATOM     68  O   UNL A   1      42.945  21.086  25.455  1.00  0.00    -0.744 OA
ENDBRANCH  61  65
ENDBRANCH  44  58
BRANCH  45  69
ATOM     69  C   UNL A   1      40.534  32.042  34.813  1.00  0.00     0.023 A 
ATOM     70  C   UNL A   1      39.602  31.607  35.769  1.00  0.00     0.031 A 
ATOM     71  C   UNL A   1      41.022  33.358  34.930  1.00  0.00     0.131 A 
ATOM     72  C   UNL A   1      39.144  32.494  36.757  1.00  0.00     0.055 A 
ATOM     73  C   UNL A   1      40.620  34.212  35.959  1.00  0.00     0.041 A 
ATOM     74  F   UNL A   1      41.903  33.841  34.039  1.00  0.00    -0.206 F 
ATOM     75  C   UNL A   1      39.661  33.787  36.870  1.00  0.00     0.022 A 
BRANCH  72  76
ATOM     76  S   UNL A   1      37.763  31.978  37.815  1.00  0.00     0.124 S 
ATOM     77  O   UNL A   1      38.344  32.114  39.146  1.00  0.00    -0.237 OA
ATOM     78  O   UNL A   1      36.732  32.947  37.461  1.00  0.00    -0.237 OA
ATOM     79  O   UNL A   1      37.501  30.606  37.387  1.00  0.00    -0.744 OA
ENDBRANCH  72  76
ENDBRANCH  45  69
BRANCH  57  80
ATOM     80  C   UNL A   1      45.247  26.969  34.050  1.00  0.00     0.023 A 
ATOM     81  C   UNL A   1      46.551  27.494  34.083  1.00  0.00     0.031 A 
ATOM     82  C   UNL A   1      44.940  25.899  34.907  1.00  0.00     0.131 A 
ATOM     83  C   UNL A   1      47.516  26.912  34.917  1.00  0.00     0.055 A 
ATOM     84  C   UNL A   1      45.887  25.366  35.783  1.00  0.00     0.041 A 
ATOM     85  F   UNL A   1      43.712  25.356  34.911  1.00  0.00    -0.206 F 
ATOM     86  C   UNL A   1      47.186  25.864  35.782  1.00  0.00     0.022 A 
BRANCH  83  87
ATOM     87  S   UNL A   1      49.231  27.485  34.793  1.00  0.00     0.124 S 
ATOM     88  O   UNL A   1      49.975  26.232  34.872  1.00  0.00    -0.237 OA
ATOM     89  O   UNL A   1      49.246  28.154  33.497  1.00  0.00    -0.237 OA
ATOM     90  O   UNL A   1      49.382  28.369  35.947  1.00  0.00    -0.744 OA
ENDBRANCH  83  87
ENDBRANCH  57  80
ENDBRANCH  31  32
ENDBRANCH  24  26
ENDBRANCH  23  24
ENDBRANCH  22  23
ENDBRANCH   1  22
TORSDOF 21
ENDMDL
