MODEL 1
REMARK VINA RESULT:     -12.1      0.000      0.000
REMARK SMILES Cn1c(=O)c2c(nc(Nc3cccc(Cl)c3Cl)n2CC(=O)OCCOC(=O)c2ccc(-c3c4nc(c(-c5cc(S(=O)(=O)[O-])ccc5F)c5ccc([nH]5)c(-c5cc(S(=O)(=O)[O-])ccc5F)c5nc(c(-c6cc(S(=O)(=O)[O-])ccc6F)c6ccc3[nH]6)C=C5)C=C4)cc2)n(C)c1=O
REMARK SMILES IDX 23 1 22 2 20 3 21 4 19 5 18 6 1 7 2 8 3 9 93 10 4 11 5 12
REMARK SMILES IDX 91 13 94 14 6 15 92 16 7 17 8 18 9 19 10 21 11 22 16 23
REMARK SMILES IDX 12 24 14 25 17 26 13 27 15 28 24 29 25 30 26 31 27 32 28 33
REMARK SMILES IDX 29 34 90 35 30 36 89 37 31 38 32 39 33 40 83 41 34 42 88 43
REMARK SMILES IDX 82 44 84 45 35 46 87 47 81 48 80 49 36 51 68 52 48 53 67 54
REMARK SMILES IDX 49 55 52 56 66 57 85 58 50 59 51 60 65 62 86 63 53 64 37 65
REMARK SMILES IDX 38 66 46 67 39 68 45 69 47 70 44 71 40 72 41 73 42 74 43 75
REMARK SMILES IDX 69 76 70 77 78 78 71 79 77 80 79 81 76 82 72 83 73 84 74 85
REMARK SMILES IDX 75 86 54 87 55 88 63 89 56 90 62 91 64 92 61 93 57 94 58 95
REMARK SMILES IDX 59 96 60 97
REMARK H PARENT 9 20 84 50 52 61
REMARK Flexibility Score: inf
ROOT
ATOM      1  C   UNL A   1      36.451  20.812  24.837  1.00  0.00     0.274 C 
ENDROOT
BRANCH   1   2
ATOM      2  O   UNL A   1      36.588  21.928  23.922  1.00  0.00    -0.461 OA
BRANCH   2   3
ATOM      3  C   UNL A   1      35.516  22.759  23.853  1.00  0.00     0.326 C 
ATOM      4  O   UNL A   1      35.096  23.221  22.790  1.00  0.00    -0.250 OA
BRANCH   3   5
ATOM      5  C   UNL A   1      34.793  23.051  25.146  1.00  0.00     0.248 C 
BRANCH   5   6
ATOM      6  N   UNL A   1      33.400  23.476  25.137  1.00  0.00    -0.293 N 
ATOM      7  C   UNL A   1      33.541  28.326  24.186  1.00  0.00     0.159 C 
ATOM      8  N   UNL A   1      32.879  27.083  24.535  1.00  0.00    -0.261 N 
ATOM      9  C   UNL A   1      33.647  26.050  25.068  1.00  0.00     0.282 A 
ATOM     10  C   UNL A   1      31.481  27.068  24.496  1.00  0.00     0.332 A 
ATOM     11  O   UNL A   1      34.742  26.205  25.608  1.00  0.00    -0.267 OA
ATOM     12  C   UNL A   1      32.976  24.792  25.056  1.00  0.00     0.154 A 
ATOM     13  N   UNL A   1      30.856  25.865  24.832  1.00  0.00    -0.279 N 
ATOM     14  O   UNL A   1      30.819  28.064  24.204  1.00  0.00    -0.247 OA
ATOM     15  C   UNL A   1      31.620  24.736  24.998  1.00  0.00     0.170 A 
ATOM     16  C   UNL A   1      29.420  25.830  24.999  1.00  0.00     0.157 C 
ATOM     17  N   UNL A   1      31.168  23.479  25.203  1.00  0.00    -0.194 NA
ATOM     18  C   UNL A   1      32.247  22.735  25.369  1.00  0.00     0.210 A 
BRANCH  18  19
ATOM     19  N   UNL A   1      32.123  21.427  25.671  1.00  0.00    -0.324 N 
ATOM     20  H   UNL A   1      31.796  21.276  26.588  1.00  0.00     0.170 HD
BRANCH  19  21
ATOM     21  C   UNL A   1      32.356  20.233  24.972  1.00  0.00     0.061 A 
ATOM     22  C   UNL A   1      32.769  19.141  25.756  1.00  0.00     0.028 A 
ATOM     23  C   UNL A   1      32.288  20.067  23.573  1.00  0.00     0.083 A 
ATOM     24  C   UNL A   1      33.002  17.890  25.195  1.00  0.00     0.004 A 
ATOM     25  C   UNL A   1      32.461  18.788  23.018  1.00  0.00     0.061 A 
ATOM     26  Cl  UNL A   1      32.055  21.446  22.536  1.00  0.00    -0.080 Cl
ATOM     27  C   UNL A   1      32.812  17.705  23.831  1.00  0.00     0.022 A 
ATOM     28  Cl  UNL A   1      32.245  18.465  21.331  1.00  0.00    -0.083 Cl
ENDBRANCH  19  21
ENDBRANCH  18  19
ENDBRANCH   5   6
ENDBRANCH   3   5
ENDBRANCH   2   3
ENDBRANCH   1   2
BRANCH   1  29
ATOM     29  C   UNL A   1      37.748  20.009  24.983  1.00  0.00     0.275 C 
BRANCH  29  30
ATOM     30  O   UNL A   1      38.877  20.800  25.379  1.00  0.00    -0.458 OA
BRANCH  30  31
ATOM     31  C   UNL A   1      39.948  20.030  25.675  1.00  0.00     0.338 C 
ATOM     32  O   UNL A   1      40.001  18.819  25.611  1.00  0.00    -0.246 OA
BRANCH  31  33
ATOM     33  C   UNL A   1      40.983  20.767  26.388  1.00  0.00     0.060 A 
ATOM     34  C   UNL A   1      40.848  20.846  27.772  1.00  0.00     0.016 A 
ATOM     35  C   UNL A   1      41.665  21.737  25.651  1.00  0.00     0.016 A 
ATOM     36  C   UNL A   1      41.187  22.029  28.393  1.00  0.00     0.010 A 
ATOM     37  C   UNL A   1      42.049  22.899  26.284  1.00  0.00     0.010 A 
ATOM     38  C   UNL A   1      41.724  23.079  27.629  1.00  0.00    -0.014 A 
BRANCH  38  39
ATOM     39  C   UNL A   1      42.219  24.254  28.342  1.00  0.00     0.031 A 
ATOM     40  C   UNL A   1      41.296  25.398  28.110  1.00  0.00     0.074 A 
ATOM     41  C   UNL A   1      43.249  24.230  29.216  1.00  0.00     0.049 A 
ATOM     42  N   UNL A   1      41.558  26.523  27.531  1.00  0.00    -0.248 NA
ATOM     43  C   UNL A   1      39.846  25.155  28.294  1.00  0.00     0.031 C 
ATOM     44  C   UNL A   1      44.063  23.070  29.594  1.00  0.00     0.029 A 
ATOM     45  N   UNL A   1      43.726  25.197  30.055  1.00  0.00    -0.354 N 
ATOM     46  C   UNL A   1      40.360  27.228  27.569  1.00  0.00     0.074 A 
ATOM     47  C   UNL A   1      39.318  26.267  27.786  1.00  0.00     0.031 C 
ATOM     48  C   UNL A   1      44.720  23.332  30.746  1.00  0.00     0.029 A 
ATOM     49  C   UNL A   1      44.467  24.708  31.139  1.00  0.00     0.049 A 
ATOM     50  H   UNL A   1      43.562  26.158  29.910  1.00  0.00     0.167 HD
ATOM     51  C   UNL A   1      40.371  28.560  27.832  1.00  0.00     0.034 A 
ATOM     52  C   UNL A   1      44.782  25.366  32.294  1.00  0.00     0.034 A 
ATOM     53  C   UNL A   1      41.653  29.139  27.516  1.00  0.00     0.049 A 
ATOM     54  C   UNL A   1      44.670  26.809  31.979  1.00  0.00     0.074 A 
ATOM     55  C   UNL A   1      42.423  29.264  26.378  1.00  0.00     0.029 A 
ATOM     56  N   UNL A   1      42.495  29.326  28.581  1.00  0.00    -0.354 N 
ATOM     57  N   UNL A   1      45.434  27.422  31.117  1.00  0.00    -0.248 NA
ATOM     58  C   UNL A   1      43.417  27.477  32.290  1.00  0.00     0.031 C 
ATOM     59  C   UNL A   1      43.774  29.150  26.819  1.00  0.00     0.029 A 
ATOM     60  C   UNL A   1      43.782  29.043  28.213  1.00  0.00     0.049 A 
ATOM     61  H   UNL A   1      42.216  29.621  29.479  1.00  0.00     0.167 HD
ATOM     62  C   UNL A   1      44.586  28.293  30.454  1.00  0.00     0.074 A 
ATOM     63  C   UNL A   1      43.395  28.372  31.299  1.00  0.00     0.031 C 
ATOM     64  C   UNL A   1      44.811  28.621  29.148  1.00  0.00     0.034 A 
BRANCH  51  65
ATOM     65  C   UNL A   1      39.426  29.182  28.840  1.00  0.00     0.023 A 
ATOM     66  C   UNL A   1      39.621  28.879  30.197  1.00  0.00     0.031 A 
ATOM     67  C   UNL A   1      38.190  29.801  28.517  1.00  0.00     0.131 A 
ATOM     68  C   UNL A   1      38.615  29.152  31.142  1.00  0.00     0.055 A 
ATOM     69  C   UNL A   1      37.224  30.126  29.467  1.00  0.00     0.041 A 
ATOM     70  F   UNL A   1      37.797  30.032  27.259  1.00  0.00    -0.206 F 
ATOM     71  C   UNL A   1      37.424  29.782  30.790  1.00  0.00     0.022 A 
BRANCH  68  72
ATOM     72  S   UNL A   1      38.839  28.567  32.839  1.00  0.00     0.124 S 
ATOM     73  O   UNL A   1      40.281  28.705  33.013  1.00  0.00    -0.237 OA
ATOM     74  O   UNL A   1      38.005  29.500  33.591  1.00  0.00    -0.237 OA
ATOM     75  O   UNL A   1      38.343  27.193  32.791  1.00  0.00    -0.744 OA
ENDBRANCH  68  72
ENDBRANCH  51  65
BRANCH  52  76
ATOM     76  C   UNL A   1      44.792  24.852  33.709  1.00  0.00     0.023 A 
ATOM     77  C   UNL A   1      45.544  25.478  34.741  1.00  0.00     0.031 A 
ATOM     78  C   UNL A   1      43.843  23.899  34.136  1.00  0.00     0.131 A 
ATOM     79  C   UNL A   1      45.310  25.163  36.105  1.00  0.00     0.055 A 
ATOM     80  C   UNL A   1      43.617  23.593  35.483  1.00  0.00     0.041 A 
ATOM     81  F   UNL A   1      43.026  23.285  33.269  1.00  0.00    -0.206 F 
ATOM     82  C   UNL A   1      44.338  24.235  36.474  1.00  0.00     0.022 A 
BRANCH  79  83
ATOM     83  S   UNL A   1      46.179  26.048  37.449  1.00  0.00     0.124 S 
ATOM     84  O   UNL A   1      45.755  27.427  37.233  1.00  0.00    -0.237 OA
ATOM     85  O   UNL A   1      45.668  25.393  38.647  1.00  0.00    -0.237 OA
ATOM     86  O   UNL A   1      47.592  25.789  37.167  1.00  0.00    -0.744 OA
ENDBRANCH  79  83
ENDBRANCH  52  76
BRANCH  64  87
ATOM     87  C   UNL A   1      46.202  28.418  28.585  1.00  0.00     0.023 A 
ATOM     88  C   UNL A   1      46.684  27.252  27.949  1.00  0.00     0.031 A 
ATOM     89  C   UNL A   1      47.038  29.549  28.602  1.00  0.00     0.131 A 
ATOM     90  C   UNL A   1      47.966  27.261  27.354  1.00  0.00     0.055 A 
ATOM     91  C   UNL A   1      48.289  29.561  27.993  1.00  0.00     0.041 A 
ATOM     92  F   UNL A   1      46.623  30.689  29.179  1.00  0.00    -0.206 F 
ATOM     93  C   UNL A   1      48.759  28.415  27.366  1.00  0.00     0.022 A 
BRANCH  90  94
ATOM     94  S   UNL A   1      48.619  25.778  26.519  1.00  0.00     0.124 S 
ATOM     95  O   UNL A   1      47.483  24.863  26.530  1.00  0.00    -0.237 OA
ATOM     96  O   UNL A   1      49.011  26.300  25.213  1.00  0.00    -0.237 OA
ATOM     97  O   UNL A   1      49.737  25.368  27.370  1.00  0.00    -0.744 OA
ENDBRANCH  90  94
ENDBRANCH  64  87
ENDBRANCH  38  39
ENDBRANCH  31  33
ENDBRANCH  30  31
ENDBRANCH  29  30
ENDBRANCH   1  29
TORSDOF 17
ENDMDL
MODEL 2
REMARK VINA RESULT:     -12.1      3.167      7.264
REMARK SMILES Cn1c(=O)c2c(nc(Nc3cccc(Cl)c3Cl)n2CC(=O)OCCOC(=O)c2ccc(-c3c4nc(c(-c5cc(S(=O)(=O)[O-])ccc5F)c5ccc([nH]5)c(-c5cc(S(=O)(=O)[O-])ccc5F)c5nc(c(-c6cc(S(=O)(=O)[O-])ccc6F)c6ccc3[nH]6)C=C5)C=C4)cc2)n(C)c1=O
REMARK SMILES IDX 23 1 22 2 20 3 21 4 19 5 18 6 1 7 2 8 3 9 93 10 4 11 5 12
REMARK SMILES IDX 91 13 94 14 6 15 92 16 7 17 8 18 9 19 10 21 11 22 16 23
REMARK SMILES IDX 12 24 14 25 17 26 13 27 15 28 24 29 25 30 26 31 27 32 28 33
REMARK SMILES IDX 29 34 90 35 30 36 89 37 31 38 32 39 33 40 83 41 34 42 88 43
REMARK SMILES IDX 82 44 84 45 35 46 87 47 81 48 80 49 36 51 68 52 48 53 67 54
REMARK SMILES IDX 49 55 52 56 66 57 85 58 50 59 51 60 65 62 86 63 53 64 37 65
REMARK SMILES IDX 38 66 46 67 39 68 45 69 47 70 44 71 40 72 41 73 42 74 43 75
REMARK SMILES IDX 69 76 70 77 78 78 71 79 77 80 79 81 76 82 72 83 73 84 74 85
REMARK SMILES IDX 75 86 54 87 55 88 63 89 56 90 62 91 64 92 61 93 57 94 58 95
REMARK SMILES IDX 59 96 60 97
REMARK H PARENT 9 20 84 50 52 61
REMARK Flexibility Score: inf
ROOT
ATOM      1  C   UNL A   1      36.931  21.728  24.440  1.00  0.00     0.274 C 
ENDROOT
BRANCH   1   2
ATOM      2  O   UNL A   1      36.666  23.135  24.213  1.00  0.00    -0.461 OA
BRANCH   2   3
ATOM      3  C   UNL A   1      35.381  23.443  23.903  1.00  0.00     0.326 C 
ATOM      4  O   UNL A   1      34.971  23.512  22.742  1.00  0.00    -0.250 OA
BRANCH   3   5
ATOM      5  C   UNL A   1      34.426  23.632  25.057  1.00  0.00     0.248 C 
BRANCH   5   6
ATOM      6  N   UNL A   1      33.044  24.026  24.819  1.00  0.00    -0.293 N 
ATOM      7  C   UNL A   1      33.275  28.771  23.453  1.00  0.00     0.159 C 
ATOM      8  N   UNL A   1      32.582  27.552  23.822  1.00  0.00    -0.261 N 
ATOM      9  C   UNL A   1      33.277  26.587  24.547  1.00  0.00     0.282 A 
ATOM     10  C   UNL A   1      31.203  27.505  23.594  1.00  0.00     0.332 A 
ATOM     11  O   UNL A   1      34.287  26.813  25.215  1.00  0.00    -0.267 OA
ATOM     12  C   UNL A   1      32.625  25.320  24.560  1.00  0.00     0.154 A 
ATOM     13  N   UNL A   1      30.546  26.325  23.952  1.00  0.00    -0.279 N 
ATOM     14  O   UNL A   1      30.580  28.457  23.125  1.00  0.00    -0.247 OA
ATOM     15  C   UNL A   1      31.290  25.232  24.324  1.00  0.00     0.170 A 
ATOM     16  C   UNL A   1      29.102  26.276  23.924  1.00  0.00     0.157 C 
ATOM     17  N   UNL A   1      30.824  23.989  24.581  1.00  0.00    -0.194 NA
ATOM     18  C   UNL A   1      31.876  23.285  24.960  1.00  0.00     0.210 A 
BRANCH  18  19
ATOM     19  N   UNL A   1      31.721  22.007  25.361  1.00  0.00    -0.324 N 
ATOM     20  H   UNL A   1      31.161  21.925  26.168  1.00  0.00     0.170 HD
BRANCH  19  21
ATOM     21  C   UNL A   1      32.181  20.769  24.889  1.00  0.00     0.061 A 
ATOM     22  C   UNL A   1      32.760  19.927  25.856  1.00  0.00     0.028 A 
ATOM     23  C   UNL A   1      32.181  20.346  23.544  1.00  0.00     0.083 A 
ATOM     24  C   UNL A   1      33.226  18.658  25.530  1.00  0.00     0.004 A 
ATOM     25  C   UNL A   1      32.594  19.039  23.229  1.00  0.00     0.061 A 
ATOM     26  Cl  UNL A   1      31.737  21.452  22.276  1.00  0.00    -0.080 Cl
ATOM     27  C   UNL A   1      33.109  18.200  24.222  1.00  0.00     0.022 A 
ATOM     28  Cl  UNL A   1      32.484  18.386  21.630  1.00  0.00    -0.083 Cl
ENDBRANCH  19  21
ENDBRANCH  18  19
ENDBRANCH   5   6
ENDBRANCH   3   5
ENDBRANCH   2   3
ENDBRANCH   1   2
BRANCH   1  29
ATOM     29  C   UNL A   1      38.092  21.498  25.414  1.00  0.00     0.275 C 
BRANCH  29  30
ATOM     30  O   UNL A   1      38.482  22.674  26.138  1.00  0.00    -0.458 OA
BRANCH  30  31
ATOM     31  C   UNL A   1      39.692  22.524  26.720  1.00  0.00     0.338 C 
ATOM     32  O   UNL A   1      40.097  21.532  27.290  1.00  0.00    -0.246 OA
BRANCH  31  33
ATOM     33  C   UNL A   1      40.394  23.791  26.881  1.00  0.00     0.060 A 
ATOM     34  C   UNL A   1      41.451  23.805  27.787  1.00  0.00     0.016 A 
ATOM     35  C   UNL A   1      39.665  24.940  26.570  1.00  0.00     0.016 A 
ATOM     36  C   UNL A   1      41.621  24.927  28.571  1.00  0.00     0.010 A 
ATOM     37  C   UNL A   1      39.871  26.077  27.321  1.00  0.00     0.010 A 
ATOM     38  C   UNL A   1      40.781  26.036  28.379  1.00  0.00    -0.014 A 
BRANCH  38  39
ATOM     39  C   UNL A   1      41.091  27.260  29.113  1.00  0.00     0.031 A 
ATOM     40  C   UNL A   1      42.323  27.876  28.549  1.00  0.00     0.074 A 
ATOM     41  C   UNL A   1      40.271  27.820  30.030  1.00  0.00     0.049 A 
ATOM     42  N   UNL A   1      43.450  28.082  29.145  1.00  0.00    -0.248 NA
ATOM     43  C   UNL A   1      42.398  28.027  27.077  1.00  0.00     0.031 C 
ATOM     44  C   UNL A   1      38.966  27.320  30.474  1.00  0.00     0.029 A 
ATOM     45  N   UNL A   1      40.354  29.018  30.682  1.00  0.00    -0.354 N 
ATOM     46  C   UNL A   1      44.258  28.671  28.179  1.00  0.00     0.074 A 
ATOM     47  C   UNL A   1      43.675  28.365  26.905  1.00  0.00     0.031 C 
ATOM     48  C   UNL A   1      38.284  28.314  31.087  1.00  0.00     0.029 A 
ATOM     49  C   UNL A   1      39.132  29.489  31.181  1.00  0.00     0.049 A 
ATOM     50  H   UNL A   1      41.201  29.509  30.792  1.00  0.00     0.167 HD
ATOM     51  C   UNL A   1      45.086  29.690  28.524  1.00  0.00     0.034 A 
ATOM     52  C   UNL A   1      38.831  30.764  31.571  1.00  0.00     0.034 A 
ATOM     53  C   UNL A   1      45.385  29.658  29.935  1.00  0.00     0.049 A 
ATOM     54  C   UNL A   1      40.129  31.411  31.872  1.00  0.00     0.074 A 
ATOM     55  C   UNL A   1      45.982  28.759  30.795  1.00  0.00     0.029 A 
ATOM     56  N   UNL A   1      44.653  30.518  30.712  1.00  0.00    -0.354 N 
ATOM     57  N   UNL A   1      40.920  31.027  32.835  1.00  0.00    -0.248 NA
ATOM     58  C   UNL A   1      40.755  32.197  30.822  1.00  0.00     0.031 C 
ATOM     59  C   UNL A   1      45.280  28.892  32.029  1.00  0.00     0.029 A 
ATOM     60  C   UNL A   1      44.340  29.917  31.902  1.00  0.00     0.049 A 
ATOM     61  H   UNL A   1      44.391  31.432  30.455  1.00  0.00     0.167 HD
ATOM     62  C   UNL A   1      42.195  31.131  32.303  1.00  0.00     0.074 A 
ATOM     63  C   UNL A   1      42.038  31.970  31.115  1.00  0.00     0.031 C 
ATOM     64  C   UNL A   1      43.186  30.283  32.706  1.00  0.00     0.034 A 
BRANCH  51  65
ATOM     65  C   UNL A   1      45.171  30.962  27.706  1.00  0.00     0.023 A 
ATOM     66  C   UNL A   1      46.444  31.412  27.322  1.00  0.00     0.031 A 
ATOM     67  C   UNL A   1      44.113  31.894  27.546  1.00  0.00     0.131 A 
ATOM     68  C   UNL A   1      46.626  32.724  26.849  1.00  0.00     0.055 A 
ATOM     69  C   UNL A   1      44.289  33.172  27.017  1.00  0.00     0.041 A 
ATOM     70  F   UNL A   1      42.870  31.668  27.985  1.00  0.00    -0.206 F 
ATOM     71  C   UNL A   1      45.558  33.603  26.683  1.00  0.00     0.022 A 
BRANCH  68  72
ATOM     72  S   UNL A   1      48.311  33.314  26.553  1.00  0.00     0.124 S 
ATOM     73  O   UNL A   1      48.559  34.114  27.747  1.00  0.00    -0.237 OA
ATOM     74  O   UNL A   1      49.054  32.061  26.449  1.00  0.00    -0.237 OA
ATOM     75  O   UNL A   1      48.192  34.069  25.308  1.00  0.00    -0.744 OA
ENDBRANCH  68  72
ENDBRANCH  51  65
BRANCH  52  76
ATOM     76  C   UNL A   1      37.574  31.558  31.336  1.00  0.00     0.023 A 
ATOM     77  C   UNL A   1      37.057  31.797  30.033  1.00  0.00     0.031 A 
ATOM     78  C   UNL A   1      36.703  31.862  32.404  1.00  0.00     0.131 A 
ATOM     79  C   UNL A   1      35.736  32.284  29.852  1.00  0.00     0.055 A 
ATOM     80  C   UNL A   1      35.401  32.342  32.219  1.00  0.00     0.041 A 
ATOM     81  F   UNL A   1      37.044  31.622  33.677  1.00  0.00    -0.206 F 
ATOM     82  C   UNL A   1      34.906  32.540  30.942  1.00  0.00     0.022 A 
BRANCH  79  83
ATOM     83  S   UNL A   1      35.013  32.479  28.183  1.00  0.00     0.124 S 
ATOM     84  O   UNL A   1      33.664  32.944  28.487  1.00  0.00    -0.237 OA
ATOM     85  O   UNL A   1      35.906  33.445  27.557  1.00  0.00    -0.237 OA
ATOM     86  O   UNL A   1      35.085  31.129  27.623  1.00  0.00    -0.744 OA
ENDBRANCH  79  83
ENDBRANCH  52  76
BRANCH  64  87
ATOM     87  C   UNL A   1      43.026  29.568  34.031  1.00  0.00     0.023 A 
ATOM     88  C   UNL A   1      42.552  28.250  34.218  1.00  0.00     0.031 A 
ATOM     89  C   UNL A   1      43.512  30.256  35.158  1.00  0.00     0.131 A 
ATOM     90  C   UNL A   1      42.586  27.673  35.508  1.00  0.00     0.055 A 
ATOM     91  C   UNL A   1      43.566  29.674  36.421  1.00  0.00     0.041 A 
ATOM     92  F   UNL A   1      43.990  31.505  35.034  1.00  0.00    -0.206 F 
ATOM     93  C   UNL A   1      43.102  28.378  36.601  1.00  0.00     0.022 A 
BRANCH  90  94
ATOM     94  S   UNL A   1      41.988  25.973  35.786  1.00  0.00     0.124 S 
ATOM     95  O   UNL A   1      42.967  25.157  35.077  1.00  0.00    -0.237 OA
ATOM     96  O   UNL A   1      41.998  25.871  37.242  1.00  0.00    -0.237 OA
ATOM     97  O   UNL A   1      40.652  25.977  35.186  1.00  0.00    -0.744 OA
ENDBRANCH  90  94
ENDBRANCH  64  87
ENDBRANCH  38  39
ENDBRANCH  31  33
ENDBRANCH  30  31
ENDBRANCH  29  30
ENDBRANCH   1  29
TORSDOF 17
ENDMDL
MODEL 3
REMARK VINA RESULT:     -12.0      4.415      9.526
REMARK SMILES Cn1c(=O)c2c(nc(Nc3cccc(Cl)c3Cl)n2CC(=O)OCCOC(=O)c2ccc(-c3c4nc(c(-c5cc(S(=O)(=O)[O-])ccc5F)c5ccc([nH]5)c(-c5cc(S(=O)(=O)[O-])ccc5F)c5nc(c(-c6cc(S(=O)(=O)[O-])ccc6F)c6ccc3[nH]6)C=C5)C=C4)cc2)n(C)c1=O
REMARK SMILES IDX 23 1 22 2 20 3 21 4 19 5 18 6 1 7 2 8 3 9 93 10 4 11 5 12
REMARK SMILES IDX 91 13 94 14 6 15 92 16 7 17 8 18 9 19 10 21 11 22 16 23
REMARK SMILES IDX 12 24 14 25 17 26 13 27 15 28 24 29 25 30 26 31 27 32 28 33
REMARK SMILES IDX 29 34 90 35 30 36 89 37 31 38 32 39 33 40 83 41 34 42 88 43
REMARK SMILES IDX 82 44 84 45 35 46 87 47 81 48 80 49 36 51 68 52 48 53 67 54
REMARK SMILES IDX 49 55 52 56 66 57 85 58 50 59 51 60 65 62 86 63 53 64 37 65
REMARK SMILES IDX 38 66 46 67 39 68 45 69 47 70 44 71 40 72 41 73 42 74 43 75
REMARK SMILES IDX 69 76 70 77 78 78 71 79 77 80 79 81 76 82 72 83 73 84 74 85
REMARK SMILES IDX 75 86 54 87 55 88 63 89 56 90 62 91 64 92 61 93 57 94 58 95
REMARK SMILES IDX 59 96 60 97
REMARK H PARENT 9 20 84 50 52 61
REMARK Flexibility Score: inf
ROOT
ATOM      1  C   UNL A   1      32.392  30.241  26.108  1.00  0.00     0.274 C 
ENDROOT
BRANCH   1   2
ATOM      2  O   UNL A   1      31.370  29.226  26.275  1.00  0.00    -0.461 OA
BRANCH   2   3
ATOM      3  C   UNL A   1      31.817  27.944  26.265  1.00  0.00     0.326 C 
ATOM      4  O   UNL A   1      31.377  27.077  27.024  1.00  0.00    -0.250 OA
BRANCH   3   5
ATOM      5  C   UNL A   1      32.844  27.586  25.218  1.00  0.00     0.248 C 
BRANCH   5   6
ATOM      6  N   UNL A   1      32.627  26.461  24.320  1.00  0.00    -0.293 N 
ATOM      7  C   UNL A   1      34.545  22.551  26.660  1.00  0.00     0.159 C 
ATOM      8  N   UNL A   1      33.938  23.227  25.529  1.00  0.00    -0.261 N 
ATOM      9  C   UNL A   1      34.039  24.614  25.452  1.00  0.00     0.282 A 
ATOM     10  C   UNL A   1      33.458  22.427  24.487  1.00  0.00     0.332 A 
ATOM     11  O   UNL A   1      34.891  25.282  26.039  1.00  0.00    -0.267 OA
ATOM     12  C   UNL A   1      33.139  25.188  24.508  1.00  0.00     0.154 A 
ATOM     13  N   UNL A   1      32.873  23.088  23.405  1.00  0.00    -0.279 N 
ATOM     14  O   UNL A   1      33.558  21.200  24.499  1.00  0.00    -0.247 OA
ATOM     15  C   UNL A   1      32.635  24.437  23.494  1.00  0.00     0.170 A 
ATOM     16  C   UNL A   1      32.531  22.342  22.214  1.00  0.00     0.157 C 
ATOM     17  N   UNL A   1      31.974  25.201  22.595  1.00  0.00    -0.194 NA
ATOM     18  C   UNL A   1      32.043  26.437  23.058  1.00  0.00     0.210 A 
BRANCH  18  19
ATOM     19  N   UNL A   1      31.533  27.455  22.336  1.00  0.00    -0.324 N 
ATOM     20  H   UNL A   1      32.102  27.703  21.571  1.00  0.00     0.170 HD
BRANCH  19  21
ATOM     21  C   UNL A   1      30.375  28.240  22.432  1.00  0.00     0.061 A 
ATOM     22  C   UNL A   1      30.482  29.545  21.914  1.00  0.00     0.028 A 
ATOM     23  C   UNL A   1      29.170  27.864  23.059  1.00  0.00     0.083 A 
ATOM     24  C   UNL A   1      29.399  30.417  21.915  1.00  0.00     0.004 A 
ATOM     25  C   UNL A   1      28.060  28.724  23.001  1.00  0.00     0.061 A 
ATOM     26  Cl  UNL A   1      29.076  26.375  23.956  1.00  0.00    -0.080 Cl
ATOM     27  C   UNL A   1      28.177  29.993  22.425  1.00  0.00     0.022 A 
ATOM     28  Cl  UNL A   1      26.502  28.280  23.609  1.00  0.00    -0.083 Cl
ENDBRANCH  19  21
ENDBRANCH  18  19
ENDBRANCH   5   6
ENDBRANCH   3   5
ENDBRANCH   2   3
ENDBRANCH   1   2
BRANCH   1  29
ATOM     29  C   UNL A   1      32.139  31.478  26.977  1.00  0.00     0.275 C 
BRANCH  29  30
ATOM     30  O   UNL A   1      33.111  32.518  26.800  1.00  0.00    -0.458 OA
BRANCH  30  31
ATOM     31  C   UNL A   1      33.036  33.444  27.782  1.00  0.00     0.338 C 
ATOM     32  O   UNL A   1      32.177  34.292  27.905  1.00  0.00    -0.246 OA
BRANCH  31  33
ATOM     33  C   UNL A   1      34.272  33.545  28.547  1.00  0.00     0.060 A 
ATOM     34  C   UNL A   1      35.402  33.968  27.851  1.00  0.00     0.016 A 
ATOM     35  C   UNL A   1      34.358  32.739  29.684  1.00  0.00     0.016 A 
ATOM     36  C   UNL A   1      36.611  33.379  28.152  1.00  0.00     0.010 A 
ATOM     37  C   UNL A   1      35.579  32.191  30.014  1.00  0.00     0.010 A 
ATOM     38  C   UNL A   1      36.679  32.437  29.192  1.00  0.00    -0.014 A 
BRANCH  38  39
ATOM     39  C   UNL A   1      38.000  31.955  29.587  1.00  0.00     0.031 A 
ATOM     40  C   UNL A   1      38.088  30.491  29.335  1.00  0.00     0.074 A 
ATOM     41  C   UNL A   1      39.023  32.762  29.946  1.00  0.00     0.049 A 
ATOM     42  N   UNL A   1      38.272  29.548  30.198  1.00  0.00    -0.248 NA
ATOM     43  C   UNL A   1      37.644  29.998  28.009  1.00  0.00     0.031 C 
ATOM     44  C   UNL A   1      39.008  34.226  30.032  1.00  0.00     0.029 A 
ATOM     45  N   UNL A   1      40.335  32.475  30.197  1.00  0.00    -0.354 N 
ATOM     46  C   UNL A   1      38.268  28.377  29.448  1.00  0.00     0.074 A 
ATOM     47  C   UNL A   1      37.622  28.681  28.204  1.00  0.00     0.031 C 
ATOM     48  C   UNL A   1      40.278  34.692  30.040  1.00  0.00     0.029 A 
ATOM     49  C   UNL A   1      41.200  33.570  30.070  1.00  0.00     0.049 A 
ATOM     50  H   UNL A   1      40.647  31.574  30.445  1.00  0.00     0.167 HD
ATOM     51  C   UNL A   1      39.149  27.387  29.741  1.00  0.00     0.034 A 
ATOM     52  C   UNL A   1      42.559  33.543  29.931  1.00  0.00     0.034 A 
ATOM     53  C   UNL A   1      39.600  27.484  31.107  1.00  0.00     0.049 A 
ATOM     54  C   UNL A   1      42.993  32.230  30.460  1.00  0.00     0.074 A 
ATOM     55  C   UNL A   1      38.999  27.441  32.348  1.00  0.00     0.029 A 
ATOM     56  N   UNL A   1      40.822  28.080  31.284  1.00  0.00    -0.354 N 
ATOM     57  N   UNL A   1      42.855  31.873  31.707  1.00  0.00    -0.248 NA
ATOM     58  C   UNL A   1      43.170  31.142  29.514  1.00  0.00     0.031 C 
ATOM     59  C   UNL A   1      39.734  28.356  33.158  1.00  0.00     0.029 A 
ATOM     60  C   UNL A   1      40.801  28.860  32.409  1.00  0.00     0.049 A 
ATOM     61  H   UNL A   1      41.600  27.966  30.691  1.00  0.00     0.167 HD
ATOM     62  C   UNL A   1      42.485  30.539  31.651  1.00  0.00     0.074 A 
ATOM     63  C   UNL A   1      42.817  30.115  30.291  1.00  0.00     0.031 C 
ATOM     64  C   UNL A   1      41.674  30.004  32.609  1.00  0.00     0.034 A 
BRANCH  51  65
ATOM     65  C   UNL A   1      39.964  26.699  28.665  1.00  0.00     0.023 A 
ATOM     66  C   UNL A   1      40.969  27.443  28.026  1.00  0.00     0.031 A 
ATOM     67  C   UNL A   1      39.611  25.475  28.040  1.00  0.00     0.131 A 
ATOM     68  C   UNL A   1      41.540  26.989  26.823  1.00  0.00     0.055 A 
ATOM     69  C   UNL A   1      40.225  25.000  26.882  1.00  0.00     0.041 A 
ATOM     70  F   UNL A   1      38.587  24.717  28.447  1.00  0.00    -0.206 F 
ATOM     71  C   UNL A   1      41.184  25.769  26.252  1.00  0.00     0.022 A 
BRANCH  68  72
ATOM     72  S   UNL A   1      42.688  28.076  25.943  1.00  0.00     0.124 S 
ATOM     73  O   UNL A   1      43.966  27.701  26.538  1.00  0.00    -0.237 OA
ATOM     74  O   UNL A   1      42.479  27.674  24.556  1.00  0.00    -0.237 OA
ATOM     75  O   UNL A   1      42.210  29.415  26.279  1.00  0.00    -0.744 OA
ENDBRANCH  68  72
ENDBRANCH  51  65
BRANCH  52  76
ATOM     76  C   UNL A   1      43.440  34.382  29.044  1.00  0.00     0.023 A 
ATOM     77  C   UNL A   1      43.971  33.895  27.818  1.00  0.00     0.031 A 
ATOM     78  C   UNL A   1      43.552  35.774  29.248  1.00  0.00     0.131 A 
ATOM     79  C   UNL A   1      44.543  34.782  26.869  1.00  0.00     0.055 A 
ATOM     80  C   UNL A   1      44.118  36.644  28.308  1.00  0.00     0.041 A 
ATOM     81  F   UNL A   1      43.035  36.368  30.332  1.00  0.00    -0.206 F 
ATOM     82  C   UNL A   1      44.601  36.154  27.108  1.00  0.00     0.022 A 
BRANCH  79  83
ATOM     83  S   UNL A   1      45.116  34.190  25.236  1.00  0.00     0.124 S 
ATOM     84  O   UNL A   1      45.228  32.752  25.454  1.00  0.00    -0.237 OA
ATOM     85  O   UNL A   1      44.051  34.629  24.343  1.00  0.00    -0.237 OA
ATOM     86  O   UNL A   1      46.392  34.884  25.053  1.00  0.00    -0.744 OA
ENDBRANCH  79  83
ENDBRANCH  52  76
BRANCH  64  87
ATOM     87  C   UNL A   1      41.570  30.714  33.943  1.00  0.00     0.023 A 
ATOM     88  C   UNL A   1      42.431  30.544  35.050  1.00  0.00     0.031 A 
ATOM     89  C   UNL A   1      40.587  31.717  34.025  1.00  0.00     0.131 A 
ATOM     90  C   UNL A   1      42.286  31.378  36.181  1.00  0.00     0.055 A 
ATOM     91  C   UNL A   1      40.465  32.553  35.131  1.00  0.00     0.041 A 
ATOM     92  F   UNL A   1      39.752  31.933  32.995  1.00  0.00    -0.206 F 
ATOM     93  C   UNL A   1      41.315  32.385  36.216  1.00  0.00     0.022 A 
BRANCH  90  94
ATOM     94  S   UNL A   1      43.384  31.192  37.625  1.00  0.00     0.124 S 
ATOM     95  O   UNL A   1      43.775  29.789  37.567  1.00  0.00    -0.237 OA
ATOM     96  O   UNL A   1      44.437  32.165  37.346  1.00  0.00    -0.237 OA
ATOM     97  O   UNL A   1      42.524  31.537  38.758  1.00  0.00    -0.744 OA
ENDBRANCH  90  94
ENDBRANCH  64  87
ENDBRANCH  38  39
ENDBRANCH  31  33
ENDBRANCH  30  31
ENDBRANCH  29  30
ENDBRANCH   1  29
TORSDOF 17
ENDMDL
