MODEL 1
REMARK VINA RESULT:     -10.6      0.000      0.000
REMARK SMILES CC(C)(Cn1ccnc1C(N)=S)C(=O)OCCOC(=O)c1ccc(-c2c3nc(c(-c4cc(S(=O)(=O)[O-])ccc4F)c4ccc([nH]4)c(-c4cc(S(=O)(=O)[O-])ccc4F)c4nc(c(-c5cc(S(=O)(=O)[O-])ccc5F)c5ccc2[nH]5)C=C4)C=C3)cc1
REMARK SMILES IDX 16 1 15 2 13 3 14 4 2 5 1 6 3 7 4 8 5 9 6 10 9 11 7 12 8 13
REMARK SMILES IDX 10 14 12 15 11 16 17 19 18 20 19 21 20 22 21 23 22 24 83 25
REMARK SMILES IDX 23 26 82 27 24 28 25 29 26 30 76 31 27 32 81 33 75 34 77 35
REMARK SMILES IDX 28 36 80 37 74 38 73 39 29 41 61 42 41 43 60 44 42 45 45 46
REMARK SMILES IDX 59 47 78 48 43 49 44 50 58 52 79 53 46 54 30 55 31 56 39 57
REMARK SMILES IDX 32 58 38 59 40 60 37 61 33 62 34 63 35 64 36 65 62 66 63 67
REMARK SMILES IDX 71 68 64 69 70 70 72 71 69 72 65 73 66 74 67 75 68 76 47 77
REMARK SMILES IDX 48 78 56 79 49 80 55 81 57 82 54 83 50 84 51 85 52 86 53 87
REMARK H PARENT 11 17 11 18 77 40 45 51
REMARK Flexibility Score: inf
ROOT
ATOM      1  C   UNL A   1      37.721  21.468  25.037  1.00  0.00     0.274 C 
ENDROOT
BRANCH   1   2
ATOM      2  O   UNL A   1      36.468  21.681  25.728  1.00  0.00    -0.462 OA
BRANCH   2   3
ATOM      3  C   UNL A   1      35.531  22.387  25.033  1.00  0.00     0.313 C 
ATOM      4  O   UNL A   1      35.661  22.698  23.850  1.00  0.00    -0.252 OA
BRANCH   3   5
ATOM      5  C   UNL A   1      34.314  22.813  25.881  1.00  0.00     0.080 C 
ATOM      6  C   UNL A   1      34.132  24.342  25.767  1.00  0.00     0.025 C 
ATOM      7  C   UNL A   1      34.795  22.505  27.315  1.00  0.00     0.025 C 
BRANCH   5   8
ATOM      8  C   UNL A   1      32.976  22.027  25.662  1.00  0.00     0.142 C 
BRANCH   8   9
ATOM      9  N   UNL A   1      32.605  21.466  24.369  1.00  0.00    -0.328 N 
ATOM     10  C   UNL A   1      32.582  20.107  24.118  1.00  0.00     0.108 A 
ATOM     11  C   UNL A   1      32.082  22.085  23.240  1.00  0.00     0.167 A 
ATOM     12  C   UNL A   1      32.212  19.970  22.804  1.00  0.00     0.131 A 
ATOM     13  N   UNL A   1      31.947  21.194  22.265  1.00  0.00    -0.235 NA
BRANCH  11  14
ATOM     14  C   UNL A   1      31.741  23.461  22.942  1.00  0.00     0.140 C 
ATOM     15  S   UNL A   1      32.824  24.604  22.406  1.00  0.00    -0.057 S 
BRANCH  14  16
ATOM     16  N   UNL A   1      30.448  23.811  23.236  1.00  0.00    -0.387 N 
ATOM     17  H   UNL A   1      30.038  24.592  22.798  1.00  0.00     0.157 HD
ATOM     18  H   UNL A   1      29.929  23.282  23.884  1.00  0.00     0.157 HD
ENDBRANCH  14  16
ENDBRANCH  11  14
ENDBRANCH   8   9
ENDBRANCH   5   8
ENDBRANCH   3   5
ENDBRANCH   2   3
ENDBRANCH   1   2
BRANCH   1  19
ATOM     19  C   UNL A   1      38.918  21.748  25.950  1.00  0.00     0.275 C 
BRANCH  19  20
ATOM     20  O   UNL A   1      39.000  23.099  26.433  1.00  0.00    -0.458 OA
BRANCH  20  21
ATOM     21  C   UNL A   1      40.256  23.514  26.667  1.00  0.00     0.338 C 
ATOM     22  O   UNL A   1      41.284  22.927  26.362  1.00  0.00    -0.246 OA
BRANCH  21  23
ATOM     23  C   UNL A   1      40.351  24.589  27.632  1.00  0.00     0.060 A 
ATOM     24  C   UNL A   1      39.312  25.533  27.593  1.00  0.00     0.016 A 
ATOM     25  C   UNL A   1      41.556  24.824  28.288  1.00  0.00     0.016 A 
ATOM     26  C   UNL A   1      39.548  26.797  28.061  1.00  0.00     0.010 A 
ATOM     27  C   UNL A   1      41.775  26.080  28.796  1.00  0.00     0.010 A 
ATOM     28  C   UNL A   1      40.797  27.065  28.620  1.00  0.00    -0.014 A 
BRANCH  28  29
ATOM     29  C   UNL A   1      40.963  28.337  29.290  1.00  0.00     0.031 A 
ATOM     30  C   UNL A   1      42.063  29.132  28.671  1.00  0.00     0.074 A 
ATOM     31  C   UNL A   1      40.060  28.769  30.189  1.00  0.00     0.049 A 
ATOM     32  N   UNL A   1      43.117  29.612  29.243  1.00  0.00    -0.248 NA
ATOM     33  C   UNL A   1      42.117  29.204  27.193  1.00  0.00     0.031 C 
ATOM     34  C   UNL A   1      38.848  28.091  30.651  1.00  0.00     0.029 A 
ATOM     35  N   UNL A   1      39.949  29.990  30.767  1.00  0.00    -0.354 N 
ATOM     36  C   UNL A   1      43.817  30.271  28.238  1.00  0.00     0.074 A 
ATOM     37  C   UNL A   1      43.298  29.783  26.992  1.00  0.00     0.031 C 
ATOM     38  C   UNL A   1      38.008  29.002  31.195  1.00  0.00     0.029 A 
ATOM     39  C   UNL A   1      38.666  30.298  31.214  1.00  0.00     0.049 A 
ATOM     40  H   UNL A   1      40.710  30.606  30.864  1.00  0.00     0.167 HD
ATOM     41  C   UNL A   1      44.554  31.379  28.511  1.00  0.00     0.034 A 
ATOM     42  C   UNL A   1      38.177  31.549  31.447  1.00  0.00     0.034 A 
ATOM     43  C   UNL A   1      44.901  31.434  29.911  1.00  0.00     0.049 A 
ATOM     44  C   UNL A   1      39.370  32.429  31.624  1.00  0.00     0.074 A 
ATOM     45  C   UNL A   1      45.563  30.561  30.756  1.00  0.00     0.029 A 
ATOM     46  N   UNL A   1      44.175  32.269  30.733  1.00  0.00    -0.354 N 
ATOM     47  N   UNL A   1      40.210  32.289  32.618  1.00  0.00    -0.248 NA
ATOM     48  C   UNL A   1      39.927  33.062  30.433  1.00  0.00     0.031 C 
ATOM     49  C   UNL A   1      44.790  30.564  31.954  1.00  0.00     0.029 A 
ATOM     50  C   UNL A   1      43.782  31.523  31.823  1.00  0.00     0.049 A 
ATOM     51  H   UNL A   1      43.973  33.217  30.571  1.00  0.00     0.167 HD
ATOM     52  C   UNL A   1      41.470  32.405  32.048  1.00  0.00     0.074 A 
ATOM     53  C   UNL A   1      41.232  32.947  30.707  1.00  0.00     0.031 C 
ATOM     54  C   UNL A   1      42.558  31.760  32.569  1.00  0.00     0.034 A 
BRANCH  41  55
ATOM     55  C   UNL A   1      44.618  32.576  27.594  1.00  0.00     0.023 A 
ATOM     56  C   UNL A   1      43.930  33.736  27.992  1.00  0.00     0.031 A 
ATOM     57  C   UNL A   1      45.063  32.554  26.249  1.00  0.00     0.131 A 
ATOM     58  C   UNL A   1      43.645  34.754  27.066  1.00  0.00     0.055 A 
ATOM     59  C   UNL A   1      44.839  33.600  25.353  1.00  0.00     0.041 A 
ATOM     60  F   UNL A   1      45.645  31.487  25.691  1.00  0.00    -0.206 F 
ATOM     61  C   UNL A   1      44.100  34.698  25.751  1.00  0.00     0.022 A 
BRANCH  58  62
ATOM     62  S   UNL A   1      42.517  36.077  27.567  1.00  0.00     0.124 S 
ATOM     63  O   UNL A   1      43.039  36.427  28.883  1.00  0.00    -0.237 OA
ATOM     64  O   UNL A   1      42.720  37.060  26.508  1.00  0.00    -0.237 OA
ATOM     65  O   UNL A   1      41.210  35.423  27.567  1.00  0.00    -0.744 OA
ENDBRANCH  58  62
ENDBRANCH  41  55
BRANCH  42  66
ATOM     66  C   UNL A   1      36.801  32.050  31.124  1.00  0.00     0.023 A 
ATOM     67  C   UNL A   1      35.957  32.675  32.073  1.00  0.00     0.031 A 
ATOM     68  C   UNL A   1      36.368  32.110  29.777  1.00  0.00     0.131 A 
ATOM     69  C   UNL A   1      34.751  33.303  31.661  1.00  0.00     0.055 A 
ATOM     70  C   UNL A   1      35.179  32.727  29.379  1.00  0.00     0.041 A 
ATOM     71  F   UNL A   1      37.127  31.643  28.775  1.00  0.00    -0.206 F 
ATOM     72  C   UNL A   1      34.368  33.335  30.320  1.00  0.00     0.022 A 
BRANCH  69  73
ATOM     73  S   UNL A   1      33.683  34.173  32.860  1.00  0.00     0.124 S 
ATOM     74  O   UNL A   1      32.976  35.124  32.011  1.00  0.00    -0.237 OA
ATOM     75  O   UNL A   1      32.887  33.087  33.423  1.00  0.00    -0.237 OA
ATOM     76  O   UNL A   1      34.636  34.776  33.794  1.00  0.00    -0.744 OA
ENDBRANCH  69  73
ENDBRANCH  42  66
BRANCH  54  77
ATOM     77  C   UNL A   1      42.438  31.068  33.919  1.00  0.00     0.023 A 
ATOM     78  C   UNL A   1      42.153  29.695  34.118  1.00  0.00     0.031 A 
ATOM     79  C   UNL A   1      42.783  31.825  35.054  1.00  0.00     0.131 A 
ATOM     80  C   UNL A   1      42.216  29.138  35.414  1.00  0.00     0.055 A 
ATOM     81  C   UNL A   1      42.872  31.265  36.327  1.00  0.00     0.041 A 
ATOM     82  F   UNL A   1      43.086  33.129  34.935  1.00  0.00    -0.206 F 
ATOM     83  C   UNL A   1      42.584  29.920  36.513  1.00  0.00     0.022 A 
BRANCH  80  84
ATOM     84  S   UNL A   1      41.792  27.388  35.709  1.00  0.00     0.124 S 
ATOM     85  O   UNL A   1      41.066  27.422  36.974  1.00  0.00    -0.237 OA
ATOM     86  O   UNL A   1      41.004  27.047  34.529  1.00  0.00    -0.237 OA
ATOM     87  O   UNL A   1      43.098  26.728  35.777  1.00  0.00    -0.744 OA
ENDBRANCH  80  84
ENDBRANCH  54  77
ENDBRANCH  28  29
ENDBRANCH  21  23
ENDBRANCH  20  21
ENDBRANCH  19  20
ENDBRANCH   1  19
TORSDOF 18
ENDMDL
MODEL 2
REMARK VINA RESULT:     -10.5      5.137     10.363
REMARK SMILES CC(C)(Cn1ccnc1C(N)=S)C(=O)OCCOC(=O)c1ccc(-c2c3nc(c(-c4cc(S(=O)(=O)[O-])ccc4F)c4ccc([nH]4)c(-c4cc(S(=O)(=O)[O-])ccc4F)c4nc(c(-c5cc(S(=O)(=O)[O-])ccc5F)c5ccc2[nH]5)C=C4)C=C3)cc1
REMARK SMILES IDX 16 1 15 2 13 3 14 4 2 5 1 6 3 7 4 8 5 9 6 10 9 11 7 12 8 13
REMARK SMILES IDX 10 14 12 15 11 16 17 19 18 20 19 21 20 22 21 23 22 24 83 25
REMARK SMILES IDX 23 26 82 27 24 28 25 29 26 30 76 31 27 32 81 33 75 34 77 35
REMARK SMILES IDX 28 36 80 37 74 38 73 39 29 41 61 42 41 43 60 44 42 45 45 46
REMARK SMILES IDX 59 47 78 48 43 49 44 50 58 52 79 53 46 54 30 55 31 56 39 57
REMARK SMILES IDX 32 58 38 59 40 60 37 61 33 62 34 63 35 64 36 65 62 66 63 67
REMARK SMILES IDX 71 68 64 69 70 70 72 71 69 72 65 73 66 74 67 75 68 76 47 77
REMARK SMILES IDX 48 78 56 79 49 80 55 81 57 82 54 83 50 84 51 85 52 86 53 87
REMARK H PARENT 11 17 11 18 77 40 45 51
REMARK Flexibility Score: inf
ROOT
ATOM      1  C   UNL A   1      37.680  31.207  32.091  1.00  0.00     0.274 C 
ENDROOT
BRANCH   1   2
ATOM      2  O   UNL A   1      36.608  31.578  32.989  1.00  0.00    -0.462 OA
BRANCH   2   3
ATOM      3  C   UNL A   1      36.764  32.777  33.620  1.00  0.00     0.313 C 
ATOM      4  O   UNL A   1      37.723  33.038  34.345  1.00  0.00    -0.252 OA
BRANCH   3   5
ATOM      5  C   UNL A   1      35.598  33.761  33.390  1.00  0.00     0.080 C 
ATOM      6  C   UNL A   1      35.364  34.575  34.681  1.00  0.00     0.025 C 
ATOM      7  C   UNL A   1      34.398  32.805  33.216  1.00  0.00     0.025 C 
BRANCH   5   8
ATOM      8  C   UNL A   1      35.661  34.662  32.110  1.00  0.00     0.142 C 
BRANCH   8   9
ATOM      9  N   UNL A   1      34.480  34.967  31.313  1.00  0.00    -0.328 N 
ATOM     10  C   UNL A   1      33.655  36.045  31.574  1.00  0.00     0.108 A 
ATOM     11  C   UNL A   1      34.031  34.406  30.123  1.00  0.00     0.167 A 
ATOM     12  C   UNL A   1      32.653  35.991  30.640  1.00  0.00     0.131 A 
ATOM     13  N   UNL A   1      32.873  34.956  29.780  1.00  0.00    -0.235 NA
BRANCH  11  14
ATOM     14  C   UNL A   1      34.545  33.345  29.282  1.00  0.00     0.140 C 
ATOM     15  S   UNL A   1      35.584  33.578  28.004  1.00  0.00    -0.057 S 
BRANCH  14  16
ATOM     16  N   UNL A   1      34.029  32.102  29.542  1.00  0.00    -0.387 N 
ATOM     17  H   UNL A   1      33.056  31.984  29.644  1.00  0.00     0.157 HD
ATOM     18  H   UNL A   1      34.629  31.326  29.624  1.00  0.00     0.157 HD
ENDBRANCH  14  16
ENDBRANCH  11  14
ENDBRANCH   8   9
ENDBRANCH   5   8
ENDBRANCH   3   5
ENDBRANCH   2   3
ENDBRANCH   1   2
BRANCH   1  19
ATOM     19  C   UNL A   1      37.213  31.207  30.633  1.00  0.00     0.275 C 
BRANCH  19  20
ATOM     20  O   UNL A   1      36.359  30.108  30.277  1.00  0.00    -0.458 OA
BRANCH  20  21
ATOM     21  C   UNL A   1      36.492  29.711  29.001  1.00  0.00     0.338 C 
ATOM     22  O   UNL A   1      35.604  29.657  28.161  1.00  0.00    -0.246 OA
BRANCH  21  23
ATOM     23  C   UNL A   1      37.725  29.004  28.729  1.00  0.00     0.060 A 
ATOM     24  C   UNL A   1      38.181  28.162  29.756  1.00  0.00     0.016 A 
ATOM     25  C   UNL A   1      38.539  29.413  27.677  1.00  0.00     0.016 A 
ATOM     26  C   UNL A   1      39.516  27.871  29.831  1.00  0.00     0.010 A 
ATOM     27  C   UNL A   1      39.870  29.084  27.730  1.00  0.00     0.010 A 
ATOM     28  C   UNL A   1      40.351  28.373  28.835  1.00  0.00    -0.014 A 
BRANCH  28  29
ATOM     29  C   UNL A   1      41.717  27.894  28.813  1.00  0.00     0.031 A 
ATOM     30  C   UNL A   1      41.813  26.572  28.131  1.00  0.00     0.074 A 
ATOM     31  C   UNL A   1      42.737  28.695  29.174  1.00  0.00     0.049 A 
ATOM     32  N   UNL A   1      42.289  25.467  28.600  1.00  0.00    -0.248 NA
ATOM     33  C   UNL A   1      41.081  26.397  26.855  1.00  0.00     0.031 C 
ATOM     34  C   UNL A   1      42.677  30.080  29.644  1.00  0.00     0.029 A 
ATOM     35  N   UNL A   1      44.069  28.489  29.041  1.00  0.00    -0.354 N 
ATOM     36  C   UNL A   1      42.154  24.539  27.572  1.00  0.00     0.074 A 
ATOM     37  C   UNL A   1      41.204  25.088  26.648  1.00  0.00     0.031 C 
ATOM     38  C   UNL A   1      43.889  30.657  29.482  1.00  0.00     0.029 A 
ATOM     39  C   UNL A   1      44.828  29.657  29.001  1.00  0.00     0.049 A 
ATOM     40  H   UNL A   1      44.468  27.591  28.981  1.00  0.00     0.167 HD
ATOM     41  C   UNL A   1      43.055  23.535  27.415  1.00  0.00     0.034 A 
ATOM     42  C   UNL A   1      46.083  29.780  28.483  1.00  0.00     0.034 A 
ATOM     43  C   UNL A   1      43.767  23.284  28.646  1.00  0.00     0.049 A 
ATOM     44  C   UNL A   1      46.651  28.399  28.451  1.00  0.00     0.074 A 
ATOM     45  C   UNL A   1      43.357  22.962  29.927  1.00  0.00     0.029 A 
ATOM     46  N   UNL A   1      45.041  23.795  28.781  1.00  0.00    -0.354 N 
ATOM     47  N   UNL A   1      46.884  27.707  29.536  1.00  0.00    -0.248 NA
ATOM     48  C   UNL A   1      46.426  27.602  27.250  1.00  0.00     0.031 C 
ATOM     49  C   UNL A   1      44.154  23.783  30.778  1.00  0.00     0.029 A 
ATOM     50  C   UNL A   1      45.085  24.460  29.986  1.00  0.00     0.049 A 
ATOM     51  H   UNL A   1      45.778  23.702  28.137  1.00  0.00     0.167 HD
ATOM     52  C   UNL A   1      46.414  26.430  29.261  1.00  0.00     0.074 A 
ATOM     53  C   UNL A   1      46.203  26.408  27.811  1.00  0.00     0.031 C 
ATOM     54  C   UNL A   1      45.931  25.612  30.245  1.00  0.00     0.034 A 
BRANCH  41  55
ATOM     55  C   UNL A   1      43.543  23.065  26.066  1.00  0.00     0.023 A 
ATOM     56  C   UNL A   1      43.493  21.685  25.802  1.00  0.00     0.031 A 
ATOM     57  C   UNL A   1      44.305  23.840  25.157  1.00  0.00     0.131 A 
ATOM     58  C   UNL A   1      44.232  21.131  24.742  1.00  0.00     0.055 A 
ATOM     59  C   UNL A   1      44.978  23.293  24.064  1.00  0.00     0.041 A 
ATOM     60  F   UNL A   1      44.529  25.148  25.323  1.00  0.00    -0.206 F 
ATOM     61  C   UNL A   1      44.969  21.926  23.867  1.00  0.00     0.022 A 
BRANCH  58  62
ATOM     62  S   UNL A   1      44.353  19.329  24.633  1.00  0.00     0.124 S 
ATOM     63  O   UNL A   1      44.663  19.140  23.220  1.00  0.00    -0.237 OA
ATOM     64  O   UNL A   1      45.430  19.043  25.574  1.00  0.00    -0.237 OA
ATOM     65  O   UNL A   1      43.027  18.876  25.047  1.00  0.00    -0.744 OA
ENDBRANCH  58  62
ENDBRANCH  41  55
BRANCH  42  66
ATOM     66  C   UNL A   1      46.614  30.927  27.676  1.00  0.00     0.023 A 
ATOM     67  C   UNL A   1      45.785  31.879  27.036  1.00  0.00     0.031 A 
ATOM     68  C   UNL A   1      47.997  31.230  27.702  1.00  0.00     0.131 A 
ATOM     69  C   UNL A   1      46.346  33.048  26.455  1.00  0.00     0.055 A 
ATOM     70  C   UNL A   1      48.543  32.381  27.127  1.00  0.00     0.041 A 
ATOM     71  F   UNL A   1      48.872  30.458  28.364  1.00  0.00    -0.206 F 
ATOM     72  C   UNL A   1      47.717  33.301  26.508  1.00  0.00     0.022 A 
BRANCH  69  73
ATOM     73  S   UNL A   1      45.286  34.321  25.684  1.00  0.00     0.124 S 
ATOM     74  O   UNL A   1      46.220  35.423  25.487  1.00  0.00    -0.237 OA
ATOM     75  O   UNL A   1      44.808  33.649  24.481  1.00  0.00    -0.237 OA
ATOM     76  O   UNL A   1      44.255  34.565  26.695  1.00  0.00    -0.744 OA
ENDBRANCH  69  73
ENDBRANCH  42  66
BRANCH  54  77
ATOM     77  C   UNL A   1      46.100  26.020  31.702  1.00  0.00     0.023 A 
ATOM     78  C   UNL A   1      45.079  26.542  32.534  1.00  0.00     0.031 A 
ATOM     79  C   UNL A   1      47.332  25.717  32.308  1.00  0.00     0.131 A 
ATOM     80  C   UNL A   1      45.320  26.741  33.911  1.00  0.00     0.055 A 
ATOM     81  C   UNL A   1      47.557  25.888  33.672  1.00  0.00     0.041 A 
ATOM     82  F   UNL A   1      48.338  25.199  31.582  1.00  0.00    -0.206 F 
ATOM     83  C   UNL A   1      46.553  26.407  34.479  1.00  0.00     0.022 A 
BRANCH  80  84
ATOM     84  S   UNL A   1      44.046  27.471  34.995  1.00  0.00     0.124 S 
ATOM     85  O   UNL A   1      42.852  26.691  34.689  1.00  0.00    -0.237 OA
ATOM     86  O   UNL A   1      44.611  27.278  36.327  1.00  0.00    -0.237 OA
ATOM     87  O   UNL A   1      43.987  28.868  34.558  1.00  0.00    -0.744 OA
ENDBRANCH  80  84
ENDBRANCH  54  77
ENDBRANCH  28  29
ENDBRANCH  21  23
ENDBRANCH  20  21
ENDBRANCH  19  20
ENDBRANCH   1  19
TORSDOF 18
ENDMDL
MODEL 3
REMARK VINA RESULT:     -10.4      4.985     10.426
REMARK SMILES CC(C)(Cn1ccnc1C(N)=S)C(=O)OCCOC(=O)c1ccc(-c2c3nc(c(-c4cc(S(=O)(=O)[O-])ccc4F)c4ccc([nH]4)c(-c4cc(S(=O)(=O)[O-])ccc4F)c4nc(c(-c5cc(S(=O)(=O)[O-])ccc5F)c5ccc2[nH]5)C=C4)C=C3)cc1
REMARK SMILES IDX 16 1 15 2 13 3 14 4 2 5 1 6 3 7 4 8 5 9 6 10 9 11 7 12 8 13
REMARK SMILES IDX 10 14 12 15 11 16 17 19 18 20 19 21 20 22 21 23 22 24 83 25
REMARK SMILES IDX 23 26 82 27 24 28 25 29 26 30 76 31 27 32 81 33 75 34 77 35
REMARK SMILES IDX 28 36 80 37 74 38 73 39 29 41 61 42 41 43 60 44 42 45 45 46
REMARK SMILES IDX 59 47 78 48 43 49 44 50 58 52 79 53 46 54 30 55 31 56 39 57
REMARK SMILES IDX 32 58 38 59 40 60 37 61 33 62 34 63 35 64 36 65 62 66 63 67
REMARK SMILES IDX 71 68 64 69 70 70 72 71 69 72 65 73 66 74 67 75 68 76 47 77
REMARK SMILES IDX 48 78 56 79 49 80 55 81 57 82 54 83 50 84 51 85 52 86 53 87
REMARK H PARENT 11 17 11 18 77 40 45 51
REMARK Flexibility Score: inf
ROOT
ATOM      1  C   UNL A   1      34.608  32.712  29.532  1.00  0.00     0.274 C 
ENDROOT
BRANCH   1   2
ATOM      2  O   UNL A   1      35.465  33.295  30.541  1.00  0.00    -0.462 OA
BRANCH   2   3
ATOM      3  C   UNL A   1      34.999  33.218  31.819  1.00  0.00     0.313 C 
ATOM      4  O   UNL A   1      33.988  32.590  32.132  1.00  0.00    -0.252 OA
BRANCH   3   5
ATOM      5  C   UNL A   1      35.821  34.038  32.836  1.00  0.00     0.080 C 
ATOM      6  C   UNL A   1      35.501  33.539  34.261  1.00  0.00     0.025 C 
ATOM      7  C   UNL A   1      35.208  35.447  32.685  1.00  0.00     0.025 C 
BRANCH   5   8
ATOM      8  C   UNL A   1      37.360  34.172  32.573  1.00  0.00     0.142 C 
BRANCH   8   9
ATOM      9  N   UNL A   1      38.170  33.055  32.104  1.00  0.00    -0.328 N 
ATOM     10  C   UNL A   1      38.763  33.028  30.855  1.00  0.00     0.108 A 
ATOM     11  C   UNL A   1      38.631  31.934  32.784  1.00  0.00     0.167 A 
ATOM     12  C   UNL A   1      39.413  31.824  30.770  1.00  0.00     0.131 A 
ATOM     13  N   UNL A   1      39.291  31.144  31.946  1.00  0.00    -0.235 NA
BRANCH  11  14
ATOM     14  C   UNL A   1      38.471  31.478  34.149  1.00  0.00     0.140 C 
ATOM     15  S   UNL A   1      39.155  32.215  35.474  1.00  0.00    -0.057 S 
BRANCH  14  16
ATOM     16  N   UNL A   1      37.781  30.301  34.286  1.00  0.00    -0.387 N 
ATOM     17  H   UNL A   1      36.817  30.315  34.487  1.00  0.00     0.157 HD
ATOM     18  H   UNL A   1      38.248  29.441  34.182  1.00  0.00     0.157 HD
ENDBRANCH  14  16
ENDBRANCH  11  14
ENDBRANCH   8   9
ENDBRANCH   5   8
ENDBRANCH   3   5
ENDBRANCH   2   3
ENDBRANCH   1   2
BRANCH   1  19
ATOM     19  C   UNL A   1      35.389  31.774  28.609  1.00  0.00     0.275 C 
BRANCH  19  20
ATOM     20  O   UNL A   1      35.562  30.440  29.115  1.00  0.00    -0.458 OA
BRANCH  20  21
ATOM     21  C   UNL A   1      36.204  29.618  28.268  1.00  0.00     0.338 C 
ATOM     22  O   UNL A   1      35.686  28.864  27.457  1.00  0.00    -0.246 OA
BRANCH  21  23
ATOM     23  C   UNL A   1      37.600  29.412  28.591  1.00  0.00     0.060 A 
ATOM     24  C   UNL A   1      38.514  29.774  27.589  1.00  0.00     0.016 A 
ATOM     25  C   UNL A   1      37.948  28.603  29.669  1.00  0.00     0.016 A 
ATOM     26  C   UNL A   1      39.744  29.173  27.565  1.00  0.00     0.010 A 
ATOM     27  C   UNL A   1      39.196  28.034  29.667  1.00  0.00     0.010 A 
ATOM     28  C   UNL A   1      40.053  28.276  28.587  1.00  0.00    -0.014 A 
BRANCH  28  29
ATOM     29  C   UNL A   1      41.419  27.805  28.663  1.00  0.00     0.031 A 
ATOM     30  C   UNL A   1      41.573  26.486  27.983  1.00  0.00     0.074 A 
ATOM     31  C   UNL A   1      42.405  28.610  29.101  1.00  0.00     0.049 A 
ATOM     32  N   UNL A   1      42.020  25.382  28.482  1.00  0.00    -0.248 NA
ATOM     33  C   UNL A   1      40.937  26.314  26.657  1.00  0.00     0.031 C 
ATOM     34  C   UNL A   1      42.302  29.992  29.572  1.00  0.00     0.029 A 
ATOM     35  N   UNL A   1      43.745  28.412  29.066  1.00  0.00    -0.354 N 
ATOM     36  C   UNL A   1      41.965  24.458  27.443  1.00  0.00     0.074 A 
ATOM     37  C   UNL A   1      41.083  25.007  26.454  1.00  0.00     0.031 C 
ATOM     38  C   UNL A   1      43.520  30.577  29.502  1.00  0.00     0.029 A 
ATOM     39  C   UNL A   1      44.497  29.584  29.086  1.00  0.00     0.049 A 
ATOM     40  H   UNL A   1      44.152  27.517  29.031  1.00  0.00     0.167 HD
ATOM     41  C   UNL A   1      42.882  23.460  27.348  1.00  0.00     0.034 A 
ATOM     42  C   UNL A   1      45.786  29.717  28.663  1.00  0.00     0.034 A 
ATOM     43  C   UNL A   1      43.503  23.207  28.627  1.00  0.00     0.049 A 
ATOM     44  C   UNL A   1      46.363  28.339  28.667  1.00  0.00     0.074 A 
ATOM     45  C   UNL A   1      43.002  22.877  29.873  1.00  0.00     0.029 A 
ATOM     46  N   UNL A   1      44.760  23.724  28.857  1.00  0.00    -0.354 N 
ATOM     47  N   UNL A   1      46.520  27.643  29.763  1.00  0.00    -0.248 NA
ATOM     48  C   UNL A   1      46.232  27.547  27.449  1.00  0.00     0.031 C 
ATOM     49  C   UNL A   1      43.729  23.698  30.783  1.00  0.00     0.029 A 
ATOM     50  C   UNL A   1      44.712  24.384  30.065  1.00  0.00     0.049 A 
ATOM     51  H   UNL A   1      45.543  23.639  28.268  1.00  0.00     0.167 HD
ATOM     52  C   UNL A   1      46.079  26.365  29.448  1.00  0.00     0.074 A 
ATOM     53  C   UNL A   1      45.975  26.349  27.987  1.00  0.00     0.031 C 
ATOM     54  C   UNL A   1      45.529  25.540  30.391  1.00  0.00     0.034 A 
BRANCH  41  55
ATOM     55  C   UNL A   1      43.470  23.000  26.036  1.00  0.00     0.023 A 
ATOM     56  C   UNL A   1      43.539  21.615  25.806  1.00  0.00     0.031 A 
ATOM     57  C   UNL A   1      44.215  23.811  25.144  1.00  0.00     0.131 A 
ATOM     58  C   UNL A   1      44.369  21.095  24.797  1.00  0.00     0.055 A 
ATOM     59  C   UNL A   1      44.981  23.293  24.099  1.00  0.00     0.041 A 
ATOM     60  F   UNL A   1      44.331  25.136  25.288  1.00  0.00    -0.206 F 
ATOM     61  C   UNL A   1      45.086  21.925  23.938  1.00  0.00     0.022 A 
BRANCH  58  62
ATOM     62  S   UNL A   1      44.632  19.306  24.740  1.00  0.00     0.124 S 
ATOM     63  O   UNL A   1      44.574  19.045  23.306  1.00  0.00    -0.237 OA
ATOM     64  O   UNL A   1      45.942  19.176  25.369  1.00  0.00    -0.237 OA
ATOM     65  O   UNL A   1      43.514  18.776  25.517  1.00  0.00    -0.744 OA
ENDBRANCH  58  62
ENDBRANCH  41  55
BRANCH  42  66
ATOM     66  C   UNL A   1      46.368  30.871  27.902  1.00  0.00     0.023 A 
ATOM     67  C   UNL A   1      45.610  31.696  27.038  1.00  0.00     0.031 A 
ATOM     68  C   UNL A   1      47.680  31.319  28.191  1.00  0.00     0.131 A 
ATOM     69  C   UNL A   1      46.171  32.887  26.503  1.00  0.00     0.055 A 
ATOM     70  C   UNL A   1      48.227  32.490  27.659  1.00  0.00     0.041 A 
ATOM     71  F   UNL A   1      48.462  30.678  29.073  1.00  0.00    -0.206 F 
ATOM     72  C   UNL A   1      47.470  33.285  26.818  1.00  0.00     0.022 A 
BRANCH  69  73
ATOM     73  S   UNL A   1      45.186  34.000  25.440  1.00  0.00     0.124 S 
ATOM     74  O   UNL A   1      44.297  33.068  24.756  1.00  0.00    -0.237 OA
ATOM     75  O   UNL A   1      44.566  34.897  26.409  1.00  0.00    -0.237 OA
ATOM     76  O   UNL A   1      46.191  34.630  24.582  1.00  0.00    -0.744 OA
ENDBRANCH  69  73
ENDBRANCH  42  66
BRANCH  54  77
ATOM     77  C   UNL A   1      45.588  25.941  31.858  1.00  0.00     0.023 A 
ATOM     78  C   UNL A   1      44.513  26.479  32.608  1.00  0.00     0.031 A 
ATOM     79  C   UNL A   1      46.763  25.616  32.559  1.00  0.00     0.131 A 
ATOM     80  C   UNL A   1      44.648  26.672  34.001  1.00  0.00     0.055 A 
ATOM     81  C   UNL A   1      46.882  25.780  33.937  1.00  0.00     0.041 A 
ATOM     82  F   UNL A   1      47.815  25.082  31.913  1.00  0.00    -0.206 F 
ATOM     83  C   UNL A   1      45.825  26.314  34.663  1.00  0.00     0.022 A 
BRANCH  80  84
ATOM     84  S   UNL A   1      43.303  27.421  34.982  1.00  0.00     0.124 S 
ATOM     85  O   UNL A   1      43.713  27.179  36.360  1.00  0.00    -0.237 OA
ATOM     86  O   UNL A   1      43.326  28.813  34.543  1.00  0.00    -0.237 OA
ATOM     87  O   UNL A   1      42.117  26.672  34.561  1.00  0.00    -0.744 OA
ENDBRANCH  80  84
ENDBRANCH  54  77
ENDBRANCH  28  29
ENDBRANCH  21  23
ENDBRANCH  20  21
ENDBRANCH  19  20
ENDBRANCH   1  19
TORSDOF 18
ENDMDL
