MODEL 1
REMARK VINA RESULT:     -11.9      0.000      0.000
REMARK SMILES O=C(Cc1cccn1-c1ccc2c(c1)OCCO2)OCCOC(=O)c1ccc(-c2c3nc(c(-c4cc(S(=O)(=O)[O-])ccc4F)c4ccc([nH]4)c(-c4cc(S(=O)(=O)[O-])ccc4F)c4nc(c(-c5cc(S(=O)(=O)[O-])ccc5F)c5ccc2[nH]5)C=C4)C=C3)cc1
REMARK SMILES IDX 21 1 20 2 19 3 2 4 1 5 3 6 4 7 5 8 8 9 6 10 7 11 9 12 10 13
REMARK SMILES IDX 14 14 11 15 13 16 12 17 15 18 18 19 16 20 17 21 22 22 23 23
REMARK SMILES IDX 24 24 25 25 26 26 87 27 27 28 86 29 28 30 29 31 30 32 80 33
REMARK SMILES IDX 31 34 85 35 79 36 81 37 32 38 84 39 78 40 77 41 33 43 65 44
REMARK SMILES IDX 45 45 64 46 46 47 49 48 63 49 82 50 47 51 48 52 62 54 83 55
REMARK SMILES IDX 50 56 34 57 35 58 43 59 36 60 42 61 44 62 41 63 37 64 38 65
REMARK SMILES IDX 39 66 40 67 66 68 67 69 75 70 68 71 74 72 76 73 73 74 69 75
REMARK SMILES IDX 70 76 71 77 72 78 51 79 52 80 60 81 53 82 59 83 61 84 58 85
REMARK SMILES IDX 54 86 55 87 56 88 57 89
REMARK H PARENT 81 42 49 53
REMARK Flexibility Score: inf
ROOT
ATOM      1  C   UNL A   1      34.436  29.224  27.271  1.00  0.00     0.275 C 
ENDROOT
BRANCH   1   2
ATOM      2  C   UNL A   1      33.755  28.419  26.171  1.00  0.00     0.274 C 
BRANCH   2   3
ATOM      3  O   UNL A   1      32.313  28.482  26.212  1.00  0.00    -0.462 OA
BRANCH   3   4
ATOM      4  C   UNL A   1      31.476  27.612  26.832  1.00  0.00     0.311 C 
ATOM      5  O   UNL A   1      31.128  27.825  27.996  1.00  0.00    -0.252 OA
BRANCH   4   6
ATOM      6  C   UNL A   1      30.936  26.408  26.075  1.00  0.00     0.177 C 
BRANCH   6   7
ATOM      7  C   UNL A   1      31.246  26.483  24.614  1.00  0.00     0.034 A 
ATOM      8  C   UNL A   1      30.714  27.363  23.683  1.00  0.00     0.024 A 
ATOM      9  N   UNL A   1      32.254  25.758  23.989  1.00  0.00    -0.320 N 
ATOM     10  C   UNL A   1      31.435  27.222  22.486  1.00  0.00     0.020 A 
ATOM     11  C   UNL A   1      32.375  26.246  22.700  1.00  0.00     0.091 A 
BRANCH   9  12
ATOM     12  C   UNL A   1      33.095  24.739  24.515  1.00  0.00     0.049 A 
ATOM     13  C   UNL A   1      34.267  25.126  25.183  1.00  0.00     0.031 A 
ATOM     14  C   UNL A   1      32.833  23.382  24.288  1.00  0.00     0.077 A 
ATOM     15  C   UNL A   1      35.183  24.169  25.613  1.00  0.00     0.052 A 
ATOM     16  C   UNL A   1      33.788  22.430  24.678  1.00  0.00     0.163 A 
ATOM     17  C   UNL A   1      34.963  22.827  25.325  1.00  0.00     0.161 A 
ATOM     18  O   UNL A   1      33.538  21.124  24.340  1.00  0.00    -0.486 OA
ATOM     19  O   UNL A   1      35.964  21.966  25.691  1.00  0.00    -0.486 OA
ATOM     20  C   UNL A   1      34.457  20.217  24.968  1.00  0.00     0.271 C 
ATOM     21  C   UNL A   1      35.880  20.737  24.966  1.00  0.00     0.271 C 
ENDBRANCH   9  12
ENDBRANCH   6   7
ENDBRANCH   4   6
ENDBRANCH   3   4
ENDBRANCH   2   3
ENDBRANCH   1   2
BRANCH   1  22
ATOM     22  O   UNL A   1      35.832  29.396  27.029  1.00  0.00    -0.458 OA
BRANCH  22  23
ATOM     23  C   UNL A   1      36.397  30.336  27.823  1.00  0.00     0.338 C 
ATOM     24  O   UNL A   1      36.044  31.490  27.955  1.00  0.00    -0.246 OA
BRANCH  23  25
ATOM     25  C   UNL A   1      37.591  29.805  28.480  1.00  0.00     0.060 A 
ATOM     26  C   UNL A   1      38.792  29.916  27.771  1.00  0.00     0.016 A 
ATOM     27  C   UNL A   1      37.464  29.002  29.618  1.00  0.00     0.016 A 
ATOM     28  C   UNL A   1      39.838  29.087  28.111  1.00  0.00     0.010 A 
ATOM     29  C   UNL A   1      38.503  28.156  29.945  1.00  0.00     0.010 A 
ATOM     30  C   UNL A   1      39.662  28.174  29.158  1.00  0.00    -0.014 A 
BRANCH  30  31
ATOM     31  C   UNL A   1      40.825  27.390  29.584  1.00  0.00     0.031 A 
ATOM     32  C   UNL A   1      41.000  26.185  28.602  1.00  0.00     0.074 A 
ATOM     33  C   UNL A   1      41.464  27.860  30.710  1.00  0.00     0.049 A 
ATOM     34  N   UNL A   1      41.849  25.213  28.616  1.00  0.00    -0.248 NA
ATOM     35  C   UNL A   1      40.100  26.037  27.406  1.00  0.00     0.031 C 
ATOM     36  C   UNL A   1      41.126  29.100  31.468  1.00  0.00     0.029 A 
ATOM     37  N   UNL A   1      42.524  27.407  31.465  1.00  0.00    -0.354 N 
ATOM     38  C   UNL A   1      41.793  24.547  27.368  1.00  0.00     0.074 A 
ATOM     39  C   UNL A   1      40.635  25.034  26.705  1.00  0.00     0.031 C 
ATOM     40  C   UNL A   1      41.856  29.209  32.610  1.00  0.00     0.029 A 
ATOM     41  C   UNL A   1      42.779  28.093  32.704  1.00  0.00     0.049 A 
ATOM     42  H   UNL A   1      43.080  26.650  31.170  1.00  0.00     0.167 HD
ATOM     43  C   UNL A   1      42.771  23.697  26.945  1.00  0.00     0.034 A 
ATOM     44  C   UNL A   1      43.649  27.725  33.714  1.00  0.00     0.034 A 
ATOM     45  C   UNL A   1      43.619  23.403  28.045  1.00  0.00     0.049 A 
ATOM     46  C   UNL A   1      44.433  26.682  33.041  1.00  0.00     0.074 A 
ATOM     47  C   UNL A   1      43.362  22.642  29.152  1.00  0.00     0.029 A 
ATOM     48  N   UNL A   1      44.684  24.235  28.281  1.00  0.00    -0.354 N 
ATOM     49  N   UNL A   1      45.326  26.913  32.129  1.00  0.00    -0.248 NA
ATOM     50  C   UNL A   1      44.109  25.277  33.316  1.00  0.00     0.031 C 
ATOM     51  C   UNL A   1      43.830  23.484  30.168  1.00  0.00     0.029 A 
ATOM     52  C   UNL A   1      44.694  24.453  29.635  1.00  0.00     0.049 A 
ATOM     53  H   UNL A   1      45.311  24.600  27.616  1.00  0.00     0.167 HD
ATOM     54  C   UNL A   1      45.422  25.701  31.505  1.00  0.00     0.074 A 
ATOM     55  C   UNL A   1      44.953  24.712  32.458  1.00  0.00     0.031 C 
ATOM     56  C   UNL A   1      45.356  25.622  30.150  1.00  0.00     0.034 A 
BRANCH  43  57
ATOM     57  C   UNL A   1      43.201  23.119  25.627  1.00  0.00     0.023 A 
ATOM     58  C   UNL A   1      43.138  21.706  25.548  1.00  0.00     0.031 A 
ATOM     59  C   UNL A   1      44.082  23.766  24.752  1.00  0.00     0.131 A 
ATOM     60  C   UNL A   1      44.092  20.980  24.833  1.00  0.00     0.055 A 
ATOM     61  C   UNL A   1      44.969  23.030  23.945  1.00  0.00     0.041 A 
ATOM     62  F   UNL A   1      44.182  25.105  24.737  1.00  0.00    -0.206 F 
ATOM     63  C   UNL A   1      45.016  21.634  24.026  1.00  0.00     0.022 A 
BRANCH  60  64
ATOM     64  S   UNL A   1      44.240  19.206  25.202  1.00  0.00     0.124 S 
ATOM     65  O   UNL A   1      45.627  19.102  25.640  1.00  0.00    -0.237 OA
ATOM     66  O   UNL A   1      43.229  19.024  26.240  1.00  0.00    -0.237 OA
ATOM     67  O   UNL A   1      43.938  18.569  23.923  1.00  0.00    -0.744 OA
ENDBRANCH  60  64
ENDBRANCH  43  57
BRANCH  44  68
ATOM     68  C   UNL A   1      44.050  27.948  35.188  1.00  0.00     0.023 A 
ATOM     69  C   UNL A   1      44.242  26.998  36.212  1.00  0.00     0.031 A 
ATOM     70  C   UNL A   1      44.391  29.290  35.591  1.00  0.00     0.131 A 
ATOM     71  C   UNL A   1      44.841  27.391  37.460  1.00  0.00     0.055 A 
ATOM     72  C   UNL A   1      45.077  29.641  36.752  1.00  0.00     0.041 A 
ATOM     73  F   UNL A   1      44.061  30.365  34.864  1.00  0.00    -0.206 F 
ATOM     74  C   UNL A   1      45.330  28.681  37.692  1.00  0.00     0.022 A 
BRANCH  71  75
ATOM     75  S   UNL A   1      45.012  26.239  38.866  1.00  0.00     0.124 S 
ATOM     76  O   UNL A   1      46.442  26.314  39.147  1.00  0.00    -0.237 OA
ATOM     77  O   UNL A   1      44.125  26.816  39.868  1.00  0.00    -0.237 OA
ATOM     78  O   UNL A   1      44.562  24.959  38.315  1.00  0.00    -0.744 OA
ENDBRANCH  71  75
ENDBRANCH  44  68
BRANCH  56  79
ATOM     79  C   UNL A   1      45.692  26.899  29.386  1.00  0.00     0.023 A 
ATOM     80  C   UNL A   1      44.649  27.629  28.785  1.00  0.00     0.031 A 
ATOM     81  C   UNL A   1      46.994  27.388  29.153  1.00  0.00     0.131 A 
ATOM     82  C   UNL A   1      44.911  28.764  27.992  1.00  0.00     0.055 A 
ATOM     83  C   UNL A   1      47.259  28.522  28.367  1.00  0.00     0.041 A 
ATOM     84  F   UNL A   1      48.066  26.785  29.670  1.00  0.00    -0.206 F 
ATOM     85  C   UNL A   1      46.212  29.218  27.781  1.00  0.00     0.022 A 
BRANCH  82  86
ATOM     86  S   UNL A   1      43.518  29.660  27.256  1.00  0.00     0.124 S 
ATOM     87  O   UNL A   1      42.771  28.600  26.590  1.00  0.00    -0.237 OA
ATOM     88  O   UNL A   1      42.879  30.259  28.423  1.00  0.00    -0.237 OA
ATOM     89  O   UNL A   1      44.164  30.617  26.357  1.00  0.00    -0.744 OA
ENDBRANCH  82  86
ENDBRANCH  56  79
ENDBRANCH  30  31
ENDBRANCH  23  25
ENDBRANCH  22  23
ENDBRANCH   1  22
TORSDOF 16
ENDMDL
MODEL 2
REMARK VINA RESULT:     -11.9      4.873     11.442
REMARK SMILES O=C(Cc1cccn1-c1ccc2c(c1)OCCO2)OCCOC(=O)c1ccc(-c2c3nc(c(-c4cc(S(=O)(=O)[O-])ccc4F)c4ccc([nH]4)c(-c4cc(S(=O)(=O)[O-])ccc4F)c4nc(c(-c5cc(S(=O)(=O)[O-])ccc5F)c5ccc2[nH]5)C=C4)C=C3)cc1
REMARK SMILES IDX 21 1 20 2 19 3 2 4 1 5 3 6 4 7 5 8 8 9 6 10 7 11 9 12 10 13
REMARK SMILES IDX 14 14 11 15 13 16 12 17 15 18 18 19 16 20 17 21 22 22 23 23
REMARK SMILES IDX 24 24 25 25 26 26 87 27 27 28 86 29 28 30 29 31 30 32 80 33
REMARK SMILES IDX 31 34 85 35 79 36 81 37 32 38 84 39 78 40 77 41 33 43 65 44
REMARK SMILES IDX 45 45 64 46 46 47 49 48 63 49 82 50 47 51 48 52 62 54 83 55
REMARK SMILES IDX 50 56 34 57 35 58 43 59 36 60 42 61 44 62 41 63 37 64 38 65
REMARK SMILES IDX 39 66 40 67 66 68 67 69 75 70 68 71 74 72 76 73 73 74 69 75
REMARK SMILES IDX 70 76 71 77 72 78 51 79 52 80 60 81 53 82 59 83 61 84 58 85
REMARK SMILES IDX 54 86 55 87 56 88 57 89
REMARK H PARENT 81 42 49 53
REMARK Flexibility Score: inf
ROOT
ATOM      1  C   UNL A   1      40.007  21.977  26.886  1.00  0.00     0.275 C 
ENDROOT
BRANCH   1   2
ATOM      2  C   UNL A   1      41.368  21.426  26.482  1.00  0.00     0.274 C 
BRANCH   2   3
ATOM      3  O   UNL A   1      42.026  22.196  25.452  1.00  0.00    -0.462 OA
BRANCH   3   4
ATOM      4  C   UNL A   1      42.901  23.216  25.631  1.00  0.00     0.311 C 
ATOM      5  O   UNL A   1      42.751  24.267  25.002  1.00  0.00    -0.252 OA
BRANCH   4   6
ATOM      6  C   UNL A   1      44.034  23.078  26.637  1.00  0.00     0.177 C 
BRANCH   6   7
ATOM      7  C   UNL A   1      43.877  24.024  27.786  1.00  0.00     0.034 A 
ATOM      8  C   UNL A   1      43.239  23.785  28.994  1.00  0.00     0.024 A 
ATOM      9  N   UNL A   1      44.499  25.264  27.868  1.00  0.00    -0.320 N 
ATOM     10  C   UNL A   1      43.511  24.863  29.853  1.00  0.00     0.020 A 
ATOM     11  C   UNL A   1      44.290  25.746  29.149  1.00  0.00     0.091 A 
BRANCH   9  12
ATOM     12  C   UNL A   1      45.275  25.955  26.897  1.00  0.00     0.049 A 
ATOM     13  C   UNL A   1      44.621  26.862  26.049  1.00  0.00     0.031 A 
ATOM     14  C   UNL A   1      46.634  25.672  26.707  1.00  0.00     0.077 A 
ATOM     15  C   UNL A   1      45.311  27.476  25.006  1.00  0.00     0.052 A 
ATOM     16  C   UNL A   1      47.305  26.255  25.622  1.00  0.00     0.163 A 
ATOM     17  C   UNL A   1      46.639  27.142  24.769  1.00  0.00     0.161 A 
ATOM     18  O   UNL A   1      48.604  25.866  25.412  1.00  0.00    -0.486 OA
ATOM     19  O   UNL A   1      47.209  27.712  23.661  1.00  0.00    -0.486 OA
ATOM     20  C   UNL A   1      49.257  26.675  24.422  1.00  0.00     0.271 C 
ATOM     21  C   UNL A   1      48.362  26.981  23.238  1.00  0.00     0.271 C 
ENDBRANCH   9  12
ENDBRANCH   6   7
ENDBRANCH   4   6
ENDBRANCH   3   4
ENDBRANCH   2   3
ENDBRANCH   1   2
BRANCH   1  22
ATOM     22  O   UNL A   1      40.113  23.205  27.604  1.00  0.00    -0.458 OA
BRANCH  22  23
ATOM     23  C   UNL A   1      39.460  24.229  27.005  1.00  0.00     0.338 C 
ATOM     24  O   UNL A   1      38.595  24.148  26.158  1.00  0.00    -0.246 OA
BRANCH  23  25
ATOM     25  C   UNL A   1      39.995  25.514  27.456  1.00  0.00     0.060 A 
ATOM     26  C   UNL A   1      39.816  25.821  28.809  1.00  0.00     0.016 A 
ATOM     27  C   UNL A   1      40.409  26.466  26.520  1.00  0.00     0.016 A 
ATOM     28  C   UNL A   1      39.897  27.139  29.203  1.00  0.00     0.010 A 
ATOM     29  C   UNL A   1      40.467  27.788  26.908  1.00  0.00     0.010 A 
ATOM     30  C   UNL A   1      40.165  28.116  28.236  1.00  0.00    -0.014 A 
BRANCH  30  31
ATOM     31  C   UNL A   1      40.369  29.493  28.695  1.00  0.00     0.031 A 
ATOM     32  C   UNL A   1      38.970  30.162  28.901  1.00  0.00     0.074 A 
ATOM     33  C   UNL A   1      41.686  29.876  28.821  1.00  0.00     0.049 A 
ATOM     34  N   UNL A   1      38.664  31.368  29.245  1.00  0.00    -0.248 NA
ATOM     35  C   UNL A   1      37.708  29.368  28.711  1.00  0.00     0.031 C 
ATOM     36  C   UNL A   1      42.885  29.014  28.605  1.00  0.00     0.029 A 
ATOM     37  N   UNL A   1      42.308  31.060  29.150  1.00  0.00    -0.354 N 
ATOM     38  C   UNL A   1      37.289  31.406  29.579  1.00  0.00     0.074 A 
ATOM     39  C   UNL A   1      36.734  30.176  29.138  1.00  0.00     0.031 C 
ATOM     40  C   UNL A   1      44.040  29.727  28.672  1.00  0.00     0.029 A 
ATOM     41  C   UNL A   1      43.738  31.111  28.986  1.00  0.00     0.049 A 
ATOM     42  H   UNL A   1      41.799  31.835  29.481  1.00  0.00     0.167 HD
ATOM     43  C   UNL A   1      36.733  32.434  30.281  1.00  0.00     0.034 A 
ATOM     44  C   UNL A   1      44.562  32.219  29.067  1.00  0.00     0.034 A 
ATOM     45  C   UNL A   1      37.664  33.505  30.326  1.00  0.00     0.049 A 
ATOM     46  C   UNL A   1      43.652  33.201  29.668  1.00  0.00     0.074 A 
ATOM     47  C   UNL A   1      38.067  34.338  29.320  1.00  0.00     0.029 A 
ATOM     48  N   UNL A   1      38.575  33.526  31.351  1.00  0.00    -0.354 N 
ATOM     49  N   UNL A   1      43.273  33.185  30.909  1.00  0.00    -0.248 NA
ATOM     50  C   UNL A   1      43.022  34.197  28.793  1.00  0.00     0.031 C 
ATOM     51  C   UNL A   1      39.457  34.306  29.489  1.00  0.00     0.029 A 
ATOM     52  C   UNL A   1      39.778  33.844  30.774  1.00  0.00     0.049 A 
ATOM     53  H   UNL A   1      38.401  33.351  32.304  1.00  0.00     0.167 HD
ATOM     54  C   UNL A   1      42.136  33.942  30.875  1.00  0.00     0.074 A 
ATOM     55  C   UNL A   1      42.240  34.782  29.696  1.00  0.00     0.031 C 
ATOM     56  C   UNL A   1      40.995  33.489  31.455  1.00  0.00     0.034 A 
BRANCH  43  57
ATOM     57  C   UNL A   1      35.472  32.643  31.070  1.00  0.00     0.023 A 
ATOM     58  C   UNL A   1      34.615  33.653  30.568  1.00  0.00     0.031 A 
ATOM     59  C   UNL A   1      35.351  32.324  32.428  1.00  0.00     0.131 A 
ATOM     60  C   UNL A   1      33.885  34.473  31.429  1.00  0.00     0.055 A 
ATOM     61  C   UNL A   1      34.525  33.083  33.277  1.00  0.00     0.041 A 
ATOM     62  F   UNL A   1      36.101  31.358  32.980  1.00  0.00    -0.206 F 
ATOM     63  C   UNL A   1      33.833  34.197  32.790  1.00  0.00     0.022 A 
BRANCH  60  64
ATOM     64  S   UNL A   1      33.239  36.032  30.750  1.00  0.00     0.124 S 
ATOM     65  O   UNL A   1      31.804  35.886  30.968  1.00  0.00    -0.237 OA
ATOM     66  O   UNL A   1      33.912  37.028  31.578  1.00  0.00    -0.237 OA
ATOM     67  O   UNL A   1      33.667  35.995  29.354  1.00  0.00    -0.744 OA
ENDBRANCH  60  64
ENDBRANCH  43  57
BRANCH  44  68
ATOM     68  C   UNL A   1      45.962  32.785  28.747  1.00  0.00     0.023 A 
ATOM     69  C   UNL A   1      46.473  33.258  27.522  1.00  0.00     0.031 A 
ATOM     70  C   UNL A   1      46.871  32.976  29.850  1.00  0.00     0.131 A 
ATOM     71  C   UNL A   1      47.728  33.961  27.484  1.00  0.00     0.055 A 
ATOM     72  C   UNL A   1      48.024  33.760  29.828  1.00  0.00     0.041 A 
ATOM     73  F   UNL A   1      46.690  32.393  31.042  1.00  0.00    -0.206 F 
ATOM     74  C   UNL A   1      48.451  34.281  28.638  1.00  0.00     0.022 A 
BRANCH  71  75
ATOM     75  S   UNL A   1      48.501  34.497  25.919  1.00  0.00     0.124 S 
ATOM     76  O   UNL A   1      49.082  35.782  26.292  1.00  0.00    -0.237 OA
ATOM     77  O   UNL A   1      49.441  33.419  25.636  1.00  0.00    -0.237 OA
ATOM     78  O   UNL A   1      47.370  34.581  24.992  1.00  0.00    -0.744 OA
ENDBRANCH  71  75
ENDBRANCH  44  68
BRANCH  56  79
ATOM     79  C   UNL A   1      41.167  32.424  32.534  1.00  0.00     0.023 A 
ATOM     80  C   UNL A   1      40.860  31.086  32.227  1.00  0.00     0.031 A 
ATOM     81  C   UNL A   1      41.540  32.675  33.871  1.00  0.00     0.131 A 
ATOM     82  C   UNL A   1      40.914  30.077  33.209  1.00  0.00     0.055 A 
ATOM     83  C   UNL A   1      41.599  31.672  34.852  1.00  0.00     0.041 A 
ATOM     84  F   UNL A   1      41.856  33.903  34.286  1.00  0.00    -0.206 F 
ATOM     85  C   UNL A   1      41.285  30.362  34.523  1.00  0.00     0.022 A 
BRANCH  82  86
ATOM     86  S   UNL A   1      40.514  28.372  32.740  1.00  0.00     0.124 S 
ATOM     87  O   UNL A   1      39.208  28.512  32.107  1.00  0.00    -0.237 OA
ATOM     88  O   UNL A   1      41.621  28.024  31.855  1.00  0.00    -0.237 OA
ATOM     89  O   UNL A   1      40.507  27.658  34.017  1.00  0.00    -0.744 OA
ENDBRANCH  82  86
ENDBRANCH  56  79
ENDBRANCH  30  31
ENDBRANCH  23  25
ENDBRANCH  22  23
ENDBRANCH   1  22
TORSDOF 16
ENDMDL
MODEL 3
REMARK VINA RESULT:     -11.8      1.580      3.425
REMARK SMILES O=C(Cc1cccn1-c1ccc2c(c1)OCCO2)OCCOC(=O)c1ccc(-c2c3nc(c(-c4cc(S(=O)(=O)[O-])ccc4F)c4ccc([nH]4)c(-c4cc(S(=O)(=O)[O-])ccc4F)c4nc(c(-c5cc(S(=O)(=O)[O-])ccc5F)c5ccc2[nH]5)C=C4)C=C3)cc1
REMARK SMILES IDX 21 1 20 2 19 3 2 4 1 5 3 6 4 7 5 8 8 9 6 10 7 11 9 12 10 13
REMARK SMILES IDX 14 14 11 15 13 16 12 17 15 18 18 19 16 20 17 21 22 22 23 23
REMARK SMILES IDX 24 24 25 25 26 26 87 27 27 28 86 29 28 30 29 31 30 32 80 33
REMARK SMILES IDX 31 34 85 35 79 36 81 37 32 38 84 39 78 40 77 41 33 43 65 44
REMARK SMILES IDX 45 45 64 46 46 47 49 48 63 49 82 50 47 51 48 52 62 54 83 55
REMARK SMILES IDX 50 56 34 57 35 58 43 59 36 60 42 61 44 62 41 63 37 64 38 65
REMARK SMILES IDX 39 66 40 67 66 68 67 69 75 70 68 71 74 72 76 73 73 74 69 75
REMARK SMILES IDX 70 76 71 77 72 78 51 79 52 80 60 81 53 82 59 83 61 84 58 85
REMARK SMILES IDX 54 86 55 87 56 88 57 89
REMARK H PARENT 81 42 49 53
REMARK Flexibility Score: inf
ROOT
ATOM      1  C   UNL A   1      34.553  30.075  27.255  1.00  0.00     0.275 C 
ENDROOT
BRANCH   1   2
ATOM      2  C   UNL A   1      34.231  28.669  26.763  1.00  0.00     0.274 C 
BRANCH   2   3
ATOM      3  O   UNL A   1      32.840  28.472  26.434  1.00  0.00    -0.462 OA
BRANCH   3   4
ATOM      4  C   UNL A   1      31.988  27.575  26.991  1.00  0.00     0.311 C 
ATOM      5  O   UNL A   1      31.436  27.840  28.061  1.00  0.00    -0.252 OA
BRANCH   4   6
ATOM      6  C   UNL A   1      31.684  26.268  26.272  1.00  0.00     0.177 C 
BRANCH   6   7
ATOM      7  C   UNL A   1      32.278  26.236  24.900  1.00  0.00     0.034 A 
ATOM      8  C   UNL A   1      33.377  25.505  24.472  1.00  0.00     0.024 A 
ATOM      9  N   UNL A   1      31.705  26.838  23.785  1.00  0.00    -0.320 N 
ATOM     10  C   UNL A   1      33.454  25.609  23.074  1.00  0.00     0.020 A 
ATOM     11  C   UNL A   1      32.419  26.417  22.676  1.00  0.00     0.091 A 
BRANCH   9  12
ATOM     12  C   UNL A   1      30.566  27.684  23.698  1.00  0.00     0.049 A 
ATOM     13  C   UNL A   1      29.323  27.096  23.416  1.00  0.00     0.031 A 
ATOM     14  C   UNL A   1      30.679  29.078  23.781  1.00  0.00     0.077 A 
ATOM     15  C   UNL A   1      28.198  27.890  23.204  1.00  0.00     0.052 A 
ATOM     16  C   UNL A   1      29.551  29.869  23.513  1.00  0.00     0.163 A 
ATOM     17  C   UNL A   1      28.321  29.274  23.212  1.00  0.00     0.161 A 
ATOM     18  O   UNL A   1      29.734  31.229  23.501  1.00  0.00    -0.486 OA
ATOM     19  O   UNL A   1      27.189  29.976  22.891  1.00  0.00    -0.486 OA
ATOM     20  C   UNL A   1      28.490  31.942  23.435  1.00  0.00     0.271 C 
ATOM     21  C   UNL A   1      27.506  31.305  22.473  1.00  0.00     0.271 C 
ENDBRANCH   9  12
ENDBRANCH   6   7
ENDBRANCH   4   6
ENDBRANCH   3   4
ENDBRANCH   2   3
ENDBRANCH   1   2
BRANCH   1  22
ATOM     22  O   UNL A   1      35.364  30.065  28.429  1.00  0.00    -0.458 OA
BRANCH  22  23
ATOM     23  C   UNL A   1      36.591  30.601  28.232  1.00  0.00     0.338 C 
ATOM     24  O   UNL A   1      36.846  31.741  27.901  1.00  0.00    -0.246 OA
BRANCH  23  25
ATOM     25  C   UNL A   1      37.629  29.583  28.390  1.00  0.00     0.060 A 
ATOM     26  C   UNL A   1      37.526  28.761  29.518  1.00  0.00     0.016 A 
ATOM     27  C   UNL A   1      38.781  29.630  27.600  1.00  0.00     0.016 A 
ATOM     28  C   UNL A   1      38.651  28.097  29.956  1.00  0.00     0.010 A 
ATOM     29  C   UNL A   1      39.914  28.984  28.049  1.00  0.00     0.010 A 
ATOM     30  C   UNL A   1      39.849  28.262  29.249  1.00  0.00    -0.014 A 
BRANCH  30  31
ATOM     31  C   UNL A   1      41.000  27.451  29.656  1.00  0.00     0.031 A 
ATOM     32  C   UNL A   1      41.133  26.244  28.671  1.00  0.00     0.074 A 
ATOM     33  C   UNL A   1      41.666  27.905  30.774  1.00  0.00     0.049 A 
ATOM     34  N   UNL A   1      41.961  25.253  28.672  1.00  0.00    -0.248 NA
ATOM     35  C   UNL A   1      40.213  26.117  27.489  1.00  0.00     0.031 C 
ATOM     36  C   UNL A   1      41.367  29.152  31.537  1.00  0.00     0.029 A 
ATOM     37  N   UNL A   1      42.726  27.428  31.512  1.00  0.00    -0.354 N 
ATOM     38  C   UNL A   1      41.871  24.590  27.424  1.00  0.00     0.074 A 
ATOM     39  C   UNL A   1      40.715  25.103  26.779  1.00  0.00     0.031 C 
ATOM     40  C   UNL A   1      42.116  29.243  32.669  1.00  0.00     0.029 A 
ATOM     41  C   UNL A   1      43.015  28.107  32.748  1.00  0.00     0.049 A 
ATOM     42  H   UNL A   1      43.260  26.659  31.209  1.00  0.00     0.167 HD
ATOM     43  C   UNL A   1      42.824  23.719  26.986  1.00  0.00     0.034 A 
ATOM     44  C   UNL A   1      43.891  27.718  33.745  1.00  0.00     0.034 A 
ATOM     45  C   UNL A   1      43.681  23.404  28.074  1.00  0.00     0.049 A 
ATOM     46  C   UNL A   1      44.642  26.659  33.060  1.00  0.00     0.074 A 
ATOM     47  C   UNL A   1      43.423  22.648  29.183  1.00  0.00     0.029 A 
ATOM     48  N   UNL A   1      44.767  24.212  28.294  1.00  0.00    -0.354 N 
ATOM     49  N   UNL A   1      45.526  26.870  32.134  1.00  0.00    -0.248 NA
ATOM     50  C   UNL A   1      44.290  25.261  33.338  1.00  0.00     0.031 C 
ATOM     51  C   UNL A   1      43.925  23.479  30.194  1.00  0.00     0.029 A 
ATOM     52  C   UNL A   1      44.802  24.428  29.648  1.00  0.00     0.049 A 
ATOM     53  H   UNL A   1      45.393  24.563  27.620  1.00  0.00     0.167 HD
ATOM     54  C   UNL A   1      45.585  25.657  31.508  1.00  0.00     0.074 A 
ATOM     55  C   UNL A   1      45.108  24.678  32.467  1.00  0.00     0.031 C 
ATOM     56  C   UNL A   1      45.498  25.581  30.154  1.00  0.00     0.034 A 
BRANCH  43  57
ATOM     57  C   UNL A   1      43.221  23.132  25.662  1.00  0.00     0.023 A 
ATOM     58  C   UNL A   1      43.241  21.717  25.620  1.00  0.00     0.031 A 
ATOM     59  C   UNL A   1      44.015  23.807  24.727  1.00  0.00     0.131 A 
ATOM     60  C   UNL A   1      44.201  21.031  24.874  1.00  0.00     0.055 A 
ATOM     61  C   UNL A   1      44.903  23.105  23.893  1.00  0.00     0.041 A 
ATOM     62  F   UNL A   1      44.031  25.149  24.676  1.00  0.00    -0.206 F 
ATOM     63  C   UNL A   1      45.040  21.717  24.004  1.00  0.00     0.022 A 
BRANCH  60  64
ATOM     64  S   UNL A   1      44.476  19.279  25.276  1.00  0.00     0.124 S 
ATOM     65  O   UNL A   1      43.428  19.025  26.259  1.00  0.00    -0.237 OA
ATOM     66  O   UNL A   1      44.301  18.635  23.978  1.00  0.00    -0.237 OA
ATOM     67  O   UNL A   1      45.840  19.263  25.798  1.00  0.00    -0.744 OA
ENDBRANCH  60  64
ENDBRANCH  43  57
BRANCH  44  68
ATOM     68  C   UNL A   1      44.319  27.930  35.213  1.00  0.00     0.023 A 
ATOM     69  C   UNL A   1      44.417  26.988  36.257  1.00  0.00     0.031 A 
ATOM     70  C   UNL A   1      44.796  29.239  35.586  1.00  0.00     0.131 A 
ATOM     71  C   UNL A   1      45.057  27.345  37.495  1.00  0.00     0.055 A 
ATOM     72  C   UNL A   1      45.520  29.543  36.738  1.00  0.00     0.041 A 
ATOM     73  F   UNL A   1      44.576  30.326  34.836  1.00  0.00    -0.206 F 
ATOM     74  C   UNL A   1      45.676  28.582  37.698  1.00  0.00     0.022 A 
BRANCH  71  75
ATOM     75  S   UNL A   1      45.116  26.211  38.926  1.00  0.00     0.124 S 
ATOM     76  O   UNL A   1      46.541  26.185  39.234  1.00  0.00    -0.237 OA
ATOM     77  O   UNL A   1      44.256  26.873  39.899  1.00  0.00    -0.237 OA
ATOM     78  O   UNL A   1      44.581  24.958  38.390  1.00  0.00    -0.744 OA
ENDBRANCH  71  75
ENDBRANCH  44  68
BRANCH  56  79
ATOM     79  C   UNL A   1      45.851  26.852  29.387  1.00  0.00     0.023 A 
ATOM     80  C   UNL A   1      44.817  27.603  28.799  1.00  0.00     0.031 A 
ATOM     81  C   UNL A   1      47.161  27.313  29.138  1.00  0.00     0.131 A 
ATOM     82  C   UNL A   1      45.093  28.732  28.003  1.00  0.00     0.055 A 
ATOM     83  C   UNL A   1      47.439  28.441  28.349  1.00  0.00     0.041 A 
ATOM     84  F   UNL A   1      48.226  26.687  29.642  1.00  0.00    -0.206 F 
ATOM     85  C   UNL A   1      46.401  29.159  27.776  1.00  0.00     0.022 A 
BRANCH  82  86
ATOM     86  S   UNL A   1      43.710  29.658  27.283  1.00  0.00     0.124 S 
ATOM     87  O   UNL A   1      42.976  28.628  26.559  1.00  0.00    -0.237 OA
ATOM     88  O   UNL A   1      43.050  30.203  28.465  1.00  0.00    -0.237 OA
ATOM     89  O   UNL A   1      44.368  30.656  26.439  1.00  0.00    -0.744 OA
ENDBRANCH  82  86
ENDBRANCH  56  79
ENDBRANCH  30  31
ENDBRANCH  23  25
ENDBRANCH  22  23
ENDBRANCH   1  22
TORSDOF 16
ENDMDL
