MODEL 1
REMARK VINA RESULT:     -12.3      0.000      0.000
REMARK SMILES C[NH+](C)CCc1nc(Nc2ccc(O)c(C(=O)OCCOC(=O)c3ccc(-c4c5nc(c(-c6cc(S(=O)(=O)[O-])ccc6F)c6ccc([nH]6)c(-c6cc(S(=O)(=O)[O-])ccc6F)c6nc(c(-c7cc(S(=O)(=O)[O-])ccc7F)c7ccc4[nH]7)C=C6)C=C5)cc3)c2)c2ccccc2n1
REMARK SMILES IDX 19 1 18 2 16 3 17 4 15 5 10 6 11 7 87 8 12 9 13 10 9 11 8 13
REMARK SMILES IDX 6 14 7 15 94 16 93 17 88 18 92 19 89 20 91 21 90 22 5 23
REMARK SMILES IDX 4 24 2 25 1 26 3 27 14 29 20 31 21 32 22 33 23 34 24 35
REMARK SMILES IDX 25 36 86 37 26 38 85 39 27 40 28 41 29 42 79 43 30 44 84 45
REMARK SMILES IDX 78 46 80 47 31 48 83 49 77 50 76 51 32 53 64 54 44 55 63 56
REMARK SMILES IDX 45 57 48 58 62 59 81 60 46 61 47 62 61 64 82 65 49 66 33 67
REMARK SMILES IDX 34 68 42 69 35 70 41 71 43 72 40 73 36 74 37 75 38 76 39 77
REMARK SMILES IDX 65 78 66 79 74 80 67 81 73 82 75 83 72 84 68 85 69 86 70 87
REMARK SMILES IDX 71 88 50 89 51 90 59 91 52 92 58 93 60 94 57 95 53 96 54 97
REMARK SMILES IDX 55 98 56 99
REMARK H PARENT 9 12 2 28 14 30 80 52 48 63
REMARK Flexibility Score: inf
ROOT
ATOM      1  C   UNL A   1      35.486  20.778  25.031  1.00  0.00     0.275 C 
ENDROOT
BRANCH   1   2
ATOM      2  O   UNL A   1      35.321  22.143  25.462  1.00  0.00    -0.458 OA
BRANCH   2   3
ATOM      3  C   UNL A   1      34.215  22.402  26.203  1.00  0.00     0.342 C 
ATOM      4  O   UNL A   1      34.103  22.251  27.410  1.00  0.00    -0.246 OA
BRANCH   3   5
ATOM      5  C   UNL A   1      33.166  23.044  25.386  1.00  0.00     0.103 A 
ATOM      6  C   UNL A   1      32.539  24.973  24.022  1.00  0.00     0.041 A 
ATOM      7  C   UNL A   1      31.248  24.456  23.923  1.00  0.00     0.030 A 
ATOM      8  C   UNL A   1      33.473  24.280  24.797  1.00  0.00     0.045 A 
ATOM      9  C   UNL A   1      30.920  23.230  24.518  1.00  0.00     0.049 A 
ATOM     10  C   UNL A   1      31.882  22.520  25.241  1.00  0.00     0.130 A 
BRANCH   6  11
ATOM     11  N   UNL A   1      32.883  26.229  23.484  1.00  0.00    -0.340 N 
ATOM     12  H   UNL A   1      33.656  26.267  22.873  1.00  0.00     0.168 HD
BRANCH  11  13
ATOM     13  C   UNL A   1      32.203  27.440  23.756  1.00  0.00     0.142 A 
ATOM     14  C   UNL A   1      30.453  28.837  23.252  1.00  0.00     0.137 A 
ATOM     15  N   UNL A   1      31.217  27.794  22.912  1.00  0.00    -0.215 NA
ATOM     16  N   UNL A   1      30.675  29.633  24.306  1.00  0.00    -0.233 NA
ATOM     17  C   UNL A   1      31.689  29.312  25.117  1.00  0.00     0.076 A 
ATOM     18  C   UNL A   1      32.515  28.199  24.902  1.00  0.00     0.043 A 
ATOM     19  C   UNL A   1      31.900  30.094  26.245  1.00  0.00     0.029 A 
ATOM     20  C   UNL A   1      33.541  27.907  25.839  1.00  0.00     0.014 A 
ATOM     21  C   UNL A   1      32.899  29.796  27.176  1.00  0.00     0.002 A 
ATOM     22  C   UNL A   1      33.722  28.698  26.973  1.00  0.00     0.001 A 
BRANCH  14  23
ATOM     23  C   UNL A   1      29.210  29.067  22.446  1.00  0.00     0.138 C 
BRANCH  23  24
ATOM     24  C   UNL A   1      29.197  30.413  21.691  1.00  0.00     0.269 C 
BRANCH  24  25
ATOM     25  N   UNL A   1      28.641  31.623  22.323  1.00  0.00    -0.339 N 
ATOM     26  C   UNL A   1      28.082  32.573  21.360  1.00  0.00     0.332 C 
ATOM     27  C   UNL A   1      27.667  31.331  23.371  1.00  0.00     0.332 C 
ATOM     28  H   UNL A   1      29.444  32.068  22.766  1.00  0.00     0.347 HD
ENDBRANCH  24  25
ENDBRANCH  23  24
ENDBRANCH  14  23
ENDBRANCH  11  13
ENDBRANCH   6  11
BRANCH  10  29
ATOM     29  O   UNL A   1      31.538  21.344  25.849  1.00  0.00    -0.507 OA
ATOM     30  H   UNL A   1      31.120  20.667  25.356  1.00  0.00     0.293 HD
ENDBRANCH  10  29
ENDBRANCH   3   5
ENDBRANCH   2   3
ENDBRANCH   1   2
BRANCH   1  31
ATOM     31  C   UNL A   1      36.964  20.397  25.011  1.00  0.00     0.275 C 
BRANCH  31  32
ATOM     32  O   UNL A   1      37.756  21.544  25.361  1.00  0.00    -0.458 OA
BRANCH  32  33
ATOM     33  C   UNL A   1      38.962  21.280  25.915  1.00  0.00     0.338 C 
ATOM     34  O   UNL A   1      39.568  20.224  25.904  1.00  0.00    -0.246 OA
BRANCH  33  35
ATOM     35  C   UNL A   1      39.482  22.501  26.556  1.00  0.00     0.060 A 
ATOM     36  C   UNL A   1      38.983  23.743  26.174  1.00  0.00     0.016 A 
ATOM     37  C   UNL A   1      40.551  22.423  27.444  1.00  0.00     0.016 A 
ATOM     38  C   UNL A   1      39.629  24.912  26.571  1.00  0.00     0.010 A 
ATOM     39  C   UNL A   1      41.118  23.602  27.943  1.00  0.00     0.010 A 
ATOM     40  C   UNL A   1      40.701  24.864  27.476  1.00  0.00    -0.014 A 
BRANCH  40  41
ATOM     41  C   UNL A   1      41.417  26.109  27.893  1.00  0.00     0.031 A 
ATOM     42  C   UNL A   1      40.702  27.149  28.723  1.00  0.00     0.074 A 
ATOM     43  C   UNL A   1      42.703  26.321  27.545  1.00  0.00     0.049 A 
ATOM     44  N   UNL A   1      41.058  28.376  29.009  1.00  0.00    -0.248 NA
ATOM     45  C   UNL A   1      39.404  26.758  29.291  1.00  0.00     0.031 C 
ATOM     46  C   UNL A   1      43.545  25.389  26.792  1.00  0.00     0.029 A 
ATOM     47  N   UNL A   1      43.534  27.390  27.784  1.00  0.00    -0.354 N 
ATOM     48  C   UNL A   1      39.999  28.927  29.725  1.00  0.00     0.074 A 
ATOM     49  C   UNL A   1      38.985  27.897  29.823  1.00  0.00     0.031 C 
ATOM     50  C   UNL A   1      44.779  25.902  26.675  1.00  0.00     0.029 A 
ATOM     51  C   UNL A   1      44.791  27.245  27.242  1.00  0.00     0.049 A 
ATOM     52  H   UNL A   1      43.255  28.185  28.293  1.00  0.00     0.167 HD
ATOM     53  C   UNL A   1      39.881  30.173  30.252  1.00  0.00     0.034 A 
ATOM     54  C   UNL A   1      45.823  28.108  27.156  1.00  0.00     0.034 A 
ATOM     55  C   UNL A   1      40.920  31.175  30.189  1.00  0.00     0.049 A 
ATOM     56  C   UNL A   1      45.657  29.500  27.704  1.00  0.00     0.074 A 
ATOM     57  C   UNL A   1      40.912  32.462  30.701  1.00  0.00     0.029 A 
ATOM     58  N   UNL A   1      42.159  30.999  29.586  1.00  0.00    -0.354 N 
ATOM     59  N   UNL A   1      44.620  30.032  28.308  1.00  0.00    -0.248 NA
ATOM     60  C   UNL A   1      46.794  30.414  27.539  1.00  0.00     0.031 C 
ATOM     61  C   UNL A   1      42.122  33.080  30.362  1.00  0.00     0.029 A 
ATOM     62  C   UNL A   1      42.914  32.158  29.698  1.00  0.00     0.049 A 
ATOM     63  H   UNL A   1      42.458  30.172  29.143  1.00  0.00     0.167 HD
ATOM     64  C   UNL A   1      44.986  31.342  28.603  1.00  0.00     0.074 A 
ATOM     65  C   UNL A   1      46.345  31.510  28.133  1.00  0.00     0.031 C 
ATOM     66  C   UNL A   1      44.263  32.319  29.208  1.00  0.00     0.034 A 
BRANCH  53  67
ATOM     67  C   UNL A   1      38.559  30.537  30.888  1.00  0.00     0.023 A 
ATOM     68  C   UNL A   1      37.552  31.218  30.181  1.00  0.00     0.031 A 
ATOM     69  C   UNL A   1      38.319  30.233  32.241  1.00  0.00     0.131 A 
ATOM     70  C   UNL A   1      36.394  31.644  30.850  1.00  0.00     0.055 A 
ATOM     71  C   UNL A   1      37.128  30.586  32.878  1.00  0.00     0.041 A 
ATOM     72  F   UNL A   1      39.249  29.601  32.974  1.00  0.00    -0.206 F 
ATOM     73  C   UNL A   1      36.163  31.313  32.187  1.00  0.00     0.022 A 
BRANCH  70  74
ATOM     74  S   UNL A   1      35.268  32.776  29.987  1.00  0.00     0.124 S 
ATOM     75  O   UNL A   1      34.797  31.939  28.885  1.00  0.00    -0.237 OA
ATOM     76  O   UNL A   1      34.285  33.086  31.018  1.00  0.00    -0.237 OA
ATOM     77  O   UNL A   1      36.134  33.885  29.592  1.00  0.00    -0.744 OA
ENDBRANCH  70  74
ENDBRANCH  53  67
BRANCH  54  78
ATOM     78  C   UNL A   1      47.083  27.710  26.463  1.00  0.00     0.023 A 
ATOM     79  C   UNL A   1      47.235  27.892  25.080  1.00  0.00     0.031 A 
ATOM     80  C   UNL A   1      48.142  27.112  27.171  1.00  0.00     0.131 A 
ATOM     81  C   UNL A   1      48.408  27.455  24.443  1.00  0.00     0.055 A 
ATOM     82  C   UNL A   1      49.327  26.730  26.544  1.00  0.00     0.041 A 
ATOM     83  F   UNL A   1      48.044  26.911  28.495  1.00  0.00    -0.206 F 
ATOM     84  C   UNL A   1      49.461  26.892  25.169  1.00  0.00     0.022 A 
BRANCH  81  85
ATOM     85  S   UNL A   1      48.508  27.567  22.637  1.00  0.00     0.124 S 
ATOM     86  O   UNL A   1      49.760  28.291  22.452  1.00  0.00    -0.237 OA
ATOM     87  O   UNL A   1      48.516  26.161  22.245  1.00  0.00    -0.237 OA
ATOM     88  O   UNL A   1      47.300  28.306  22.274  1.00  0.00    -0.744 OA
ENDBRANCH  81  85
ENDBRANCH  54  78
BRANCH  66  89
ATOM     89  C   UNL A   1      44.956  33.638  29.427  1.00  0.00     0.023 A 
ATOM     90  C   UNL A   1      44.999  34.626  28.428  1.00  0.00     0.031 A 
ATOM     91  C   UNL A   1      45.611  33.898  30.644  1.00  0.00     0.131 A 
ATOM     92  C   UNL A   1      45.729  35.805  28.641  1.00  0.00     0.055 A 
ATOM     93  C   UNL A   1      46.291  35.095  30.871  1.00  0.00     0.041 A 
ATOM     94  F   UNL A   1      45.604  32.988  31.631  1.00  0.00    -0.206 F 
ATOM     95  C   UNL A   1      46.363  36.051  29.861  1.00  0.00     0.022 A 
BRANCH  92  96
ATOM     96  S   UNL A   1      45.918  36.975  27.268  1.00  0.00     0.124 S 
ATOM     97  O   UNL A   1      46.026  36.081  26.120  1.00  0.00    -0.237 OA
ATOM     98  O   UNL A   1      44.688  37.757  27.354  1.00  0.00    -0.237 OA
ATOM     99  O   UNL A   1      47.138  37.705  27.604  1.00  0.00    -0.744 OA
ENDBRANCH  92  96
ENDBRANCH  66  89
ENDBRANCH  40  41
ENDBRANCH  33  35
ENDBRANCH  32  33
ENDBRANCH  31  32
ENDBRANCH   1  31
TORSDOF 20
ENDMDL
MODEL 2
REMARK VINA RESULT:     -12.2      1.478      1.741
REMARK SMILES C[NH+](C)CCc1nc(Nc2ccc(O)c(C(=O)OCCOC(=O)c3ccc(-c4c5nc(c(-c6cc(S(=O)(=O)[O-])ccc6F)c6ccc([nH]6)c(-c6cc(S(=O)(=O)[O-])ccc6F)c6nc(c(-c7cc(S(=O)(=O)[O-])ccc7F)c7ccc4[nH]7)C=C6)C=C5)cc3)c2)c2ccccc2n1
REMARK SMILES IDX 19 1 18 2 16 3 17 4 15 5 10 6 11 7 87 8 12 9 13 10 9 11 8 13
REMARK SMILES IDX 6 14 7 15 94 16 93 17 88 18 92 19 89 20 91 21 90 22 5 23
REMARK SMILES IDX 4 24 2 25 1 26 3 27 14 29 20 31 21 32 22 33 23 34 24 35
REMARK SMILES IDX 25 36 86 37 26 38 85 39 27 40 28 41 29 42 79 43 30 44 84 45
REMARK SMILES IDX 78 46 80 47 31 48 83 49 77 50 76 51 32 53 64 54 44 55 63 56
REMARK SMILES IDX 45 57 48 58 62 59 81 60 46 61 47 62 61 64 82 65 49 66 33 67
REMARK SMILES IDX 34 68 42 69 35 70 41 71 43 72 40 73 36 74 37 75 38 76 39 77
REMARK SMILES IDX 65 78 66 79 74 80 67 81 73 82 75 83 72 84 68 85 69 86 70 87
REMARK SMILES IDX 71 88 50 89 51 90 59 91 52 92 58 93 60 94 57 95 53 96 54 97
REMARK SMILES IDX 55 98 56 99
REMARK H PARENT 9 12 2 28 14 30 80 52 48 63
REMARK Flexibility Score: inf
ROOT
ATOM      1  C   UNL A   1      34.781  20.675  25.223  1.00  0.00     0.275 C 
ENDROOT
BRANCH   1   2
ATOM      2  O   UNL A   1      34.262  21.488  24.153  1.00  0.00    -0.458 OA
BRANCH   2   3
ATOM      3  C   UNL A   1      32.920  21.434  23.965  1.00  0.00     0.342 C 
ATOM      4  O   UNL A   1      32.287  20.478  23.545  1.00  0.00    -0.246 OA
BRANCH   3   5
ATOM      5  C   UNL A   1      32.263  22.655  24.475  1.00  0.00     0.103 A 
ATOM      6  C   UNL A   1      32.167  25.097  24.412  1.00  0.00     0.041 A 
ATOM      7  C   UNL A   1      31.221  25.064  25.437  1.00  0.00     0.030 A 
ATOM      8  C   UNL A   1      32.713  23.887  23.976  1.00  0.00     0.045 A 
ATOM      9  C   UNL A   1      30.771  23.843  25.957  1.00  0.00     0.049 A 
ATOM     10  C   UNL A   1      31.286  22.639  25.469  1.00  0.00     0.130 A 
BRANCH   6  11
ATOM     11  N   UNL A   1      32.680  26.309  23.909  1.00  0.00    -0.340 N 
ATOM     12  H   UNL A   1      33.540  26.276  23.430  1.00  0.00     0.168 HD
BRANCH  11  13
ATOM     13  C   UNL A   1      32.052  27.571  24.042  1.00  0.00     0.142 A 
ATOM     14  C   UNL A   1      30.369  28.979  23.372  1.00  0.00     0.137 A 
ATOM     15  N   UNL A   1      31.088  27.873  23.154  1.00  0.00    -0.215 NA
ATOM     16  N   UNL A   1      30.620  29.874  24.337  1.00  0.00    -0.233 NA
ATOM     17  C   UNL A   1      31.614  29.599  25.188  1.00  0.00     0.076 A 
ATOM     18  C   UNL A   1      32.391  28.434  25.103  1.00  0.00     0.043 A 
ATOM     19  C   UNL A   1      31.852  30.488  26.228  1.00  0.00     0.029 A 
ATOM     20  C   UNL A   1      33.398  28.201  26.077  1.00  0.00     0.014 A 
ATOM     21  C   UNL A   1      32.832  30.249  27.195  1.00  0.00     0.002 A 
ATOM     22  C   UNL A   1      33.607  29.101  27.121  1.00  0.00     0.001 A 
BRANCH  14  23
ATOM     23  C   UNL A   1      29.141  29.174  22.534  1.00  0.00     0.138 C 
BRANCH  23  24
ATOM     24  C   UNL A   1      29.186  30.438  21.649  1.00  0.00     0.269 C 
BRANCH  24  25
ATOM     25  N   UNL A   1      28.165  31.492  21.792  1.00  0.00    -0.339 N 
ATOM     26  C   UNL A   1      28.388  32.359  22.950  1.00  0.00     0.332 C 
ATOM     27  C   UNL A   1      27.988  32.292  20.585  1.00  0.00     0.332 C 
ATOM     28  H   UNL A   1      27.297  30.981  21.952  1.00  0.00     0.347 HD
ENDBRANCH  24  25
ENDBRANCH  23  24
ENDBRANCH  14  23
ENDBRANCH  11  13
ENDBRANCH   6  11
BRANCH  10  29
ATOM     29  O   UNL A   1      30.866  21.456  26.012  1.00  0.00    -0.507 OA
ATOM     30  H   UNL A   1      30.972  20.657  25.536  1.00  0.00     0.293 HD
ENDBRANCH  10  29
ENDBRANCH   3   5
ENDBRANCH   2   3
ENDBRANCH   1   2
BRANCH   1  31
ATOM     31  C   UNL A   1      36.260  20.373  24.999  1.00  0.00     0.275 C 
BRANCH  31  32
ATOM     32  O   UNL A   1      37.051  21.458  25.514  1.00  0.00    -0.458 OA
BRANCH  32  33
ATOM     33  C   UNL A   1      38.361  21.188  25.714  1.00  0.00     0.338 C 
ATOM     34  O   UNL A   1      38.967  20.180  25.400  1.00  0.00    -0.246 OA
BRANCH  33  35
ATOM     35  C   UNL A   1      38.999  22.335  26.384  1.00  0.00     0.060 A 
ATOM     36  C   UNL A   1      38.527  23.622  26.140  1.00  0.00     0.016 A 
ATOM     37  C   UNL A   1      40.142  22.148  27.155  1.00  0.00     0.016 A 
ATOM     38  C   UNL A   1      39.264  24.730  26.552  1.00  0.00     0.010 A 
ATOM     39  C   UNL A   1      40.811  23.262  27.676  1.00  0.00     0.010 A 
ATOM     40  C   UNL A   1      40.413  24.571  27.341  1.00  0.00    -0.014 A 
BRANCH  40  41
ATOM     41  C   UNL A   1      41.226  25.751  27.771  1.00  0.00     0.031 A 
ATOM     42  C   UNL A   1      40.607  26.814  28.648  1.00  0.00     0.074 A 
ATOM     43  C   UNL A   1      42.514  25.883  27.394  1.00  0.00     0.049 A 
ATOM     44  N   UNL A   1      41.055  28.005  28.956  1.00  0.00    -0.248 NA
ATOM     45  C   UNL A   1      39.300  26.499  29.240  1.00  0.00     0.031 C 
ATOM     46  C   UNL A   1      43.269  24.916  26.594  1.00  0.00     0.029 A 
ATOM     47  N   UNL A   1      43.424  26.884  27.639  1.00  0.00    -0.354 N 
ATOM     48  C   UNL A   1      40.056  28.608  29.716  1.00  0.00     0.074 A 
ATOM     49  C   UNL A   1      38.975  27.648  29.813  1.00  0.00     0.031 C 
ATOM     50  C   UNL A   1      44.533  25.344  26.458  1.00  0.00     0.029 A 
ATOM     51  C   UNL A   1      44.654  26.667  27.059  1.00  0.00     0.049 A 
ATOM     52  H   UNL A   1      43.215  27.682  28.176  1.00  0.00     0.167 HD
ATOM     53  C   UNL A   1      40.040  29.844  30.278  1.00  0.00     0.034 A 
ATOM     54  C   UNL A   1      45.742  27.458  26.968  1.00  0.00     0.034 A 
ATOM     55  C   UNL A   1      41.146  30.772  30.213  1.00  0.00     0.049 A 
ATOM     56  C   UNL A   1      45.687  28.842  27.557  1.00  0.00     0.074 A 
ATOM     57  C   UNL A   1      41.241  32.041  30.759  1.00  0.00     0.029 A 
ATOM     58  N   UNL A   1      42.353  30.528  29.572  1.00  0.00    -0.354 N 
ATOM     59  N   UNL A   1      44.706  29.428  28.202  1.00  0.00    -0.248 NA
ATOM     60  C   UNL A   1      46.882  29.679  27.384  1.00  0.00     0.031 C 
ATOM     61  C   UNL A   1      42.482  32.583  30.403  1.00  0.00     0.029 A 
ATOM     62  C   UNL A   1      43.191  31.627  29.694  1.00  0.00     0.049 A 
ATOM     63  H   UNL A   1      42.582  29.695  29.099  1.00  0.00     0.167 HD
ATOM     64  C   UNL A   1      45.172  30.700  28.522  1.00  0.00     0.074 A 
ATOM     65  C   UNL A   1      46.527  30.786  28.019  1.00  0.00     0.031 C 
ATOM     66  C   UNL A   1      44.534  31.707  29.172  1.00  0.00     0.034 A 
BRANCH  53  67
ATOM     67  C   UNL A   1      38.764  30.281  30.959  1.00  0.00     0.023 A 
ATOM     68  C   UNL A   1      37.760  30.993  30.279  1.00  0.00     0.031 A 
ATOM     69  C   UNL A   1      38.567  30.016  32.327  1.00  0.00     0.131 A 
ATOM     70  C   UNL A   1      36.651  31.485  30.985  1.00  0.00     0.055 A 
ATOM     71  C   UNL A   1      37.421  30.436  33.004  1.00  0.00     0.041 A 
ATOM     72  F   UNL A   1      39.497  29.356  33.036  1.00  0.00    -0.206 F 
ATOM     73  C   UNL A   1      36.462  31.193  32.337  1.00  0.00     0.022 A 
BRANCH  70  74
ATOM     74  S   UNL A   1      35.542  32.650  30.144  1.00  0.00     0.124 S 
ATOM     75  O   UNL A   1      35.420  32.038  28.823  1.00  0.00    -0.237 OA
ATOM     76  O   UNL A   1      34.349  32.606  30.980  1.00  0.00    -0.237 OA
ATOM     77  O   UNL A   1      36.282  33.910  30.174  1.00  0.00    -0.744 OA
ENDBRANCH  70  74
ENDBRANCH  53  67
BRANCH  54  78
ATOM     78  C   UNL A   1      46.952  26.992  26.230  1.00  0.00     0.023 A 
ATOM     79  C   UNL A   1      48.014  26.370  26.903  1.00  0.00     0.031 A 
ATOM     80  C   UNL A   1      47.075  27.191  24.843  1.00  0.00     0.131 A 
ATOM     81  C   UNL A   1      49.166  25.993  26.194  1.00  0.00     0.055 A 
ATOM     82  C   UNL A   1      48.198  26.765  24.133  1.00  0.00     0.041 A 
ATOM     83  F   UNL A   1      46.089  27.786  24.152  1.00  0.00    -0.206 F 
ATOM     84  C   UNL A   1      49.257  26.171  24.811  1.00  0.00     0.022 A 
BRANCH  81  85
ATOM     85  S   UNL A   1      50.578  25.332  27.119  1.00  0.00     0.124 S 
ATOM     86  O   UNL A   1      49.966  24.225  27.844  1.00  0.00    -0.237 OA
ATOM     87  O   UNL A   1      51.498  24.966  26.048  1.00  0.00    -0.237 OA
ATOM     88  O   UNL A   1      51.002  26.461  27.944  1.00  0.00    -0.744 OA
ENDBRANCH  81  85
ENDBRANCH  54  78
BRANCH  66  89
ATOM     89  C   UNL A   1      45.324  32.969  29.407  1.00  0.00     0.023 A 
ATOM     90  C   UNL A   1      45.451  33.957  28.415  1.00  0.00     0.031 A 
ATOM     91  C   UNL A   1      45.986  33.169  30.631  1.00  0.00     0.131 A 
ATOM     92  C   UNL A   1      46.267  35.075  28.644  1.00  0.00     0.055 A 
ATOM     93  C   UNL A   1      46.753  34.310  30.873  1.00  0.00     0.041 A 
ATOM     94  F   UNL A   1      45.900  32.256  31.611  1.00  0.00    -0.206 F 
ATOM     95  C   UNL A   1      46.907  35.264  29.871  1.00  0.00     0.022 A 
BRANCH  92  96
ATOM     96  S   UNL A   1      46.557  36.237  27.281  1.00  0.00     0.124 S 
ATOM     97  O   UNL A   1      47.942  35.946  26.924  1.00  0.00    -0.237 OA
ATOM     98  O   UNL A   1      45.549  35.831  26.306  1.00  0.00    -0.237 OA
ATOM     99  O   UNL A   1      46.335  37.545  27.892  1.00  0.00    -0.744 OA
ENDBRANCH  92  96
ENDBRANCH  66  89
ENDBRANCH  40  41
ENDBRANCH  33  35
ENDBRANCH  32  33
ENDBRANCH  31  32
ENDBRANCH   1  31
TORSDOF 20
ENDMDL
MODEL 3
REMARK VINA RESULT:     -12.0      4.945     10.157
REMARK SMILES C[NH+](C)CCc1nc(Nc2ccc(O)c(C(=O)OCCOC(=O)c3ccc(-c4c5nc(c(-c6cc(S(=O)(=O)[O-])ccc6F)c6ccc([nH]6)c(-c6cc(S(=O)(=O)[O-])ccc6F)c6nc(c(-c7cc(S(=O)(=O)[O-])ccc7F)c7ccc4[nH]7)C=C6)C=C5)cc3)c2)c2ccccc2n1
REMARK SMILES IDX 19 1 18 2 16 3 17 4 15 5 10 6 11 7 87 8 12 9 13 10 9 11 8 13
REMARK SMILES IDX 6 14 7 15 94 16 93 17 88 18 92 19 89 20 91 21 90 22 5 23
REMARK SMILES IDX 4 24 2 25 1 26 3 27 14 29 20 31 21 32 22 33 23 34 24 35
REMARK SMILES IDX 25 36 86 37 26 38 85 39 27 40 28 41 29 42 79 43 30 44 84 45
REMARK SMILES IDX 78 46 80 47 31 48 83 49 77 50 76 51 32 53 64 54 44 55 63 56
REMARK SMILES IDX 45 57 48 58 62 59 81 60 46 61 47 62 61 64 82 65 49 66 33 67
REMARK SMILES IDX 34 68 42 69 35 70 41 71 43 72 40 73 36 74 37 75 38 76 39 77
REMARK SMILES IDX 65 78 66 79 74 80 67 81 73 82 75 83 72 84 68 85 69 86 70 87
REMARK SMILES IDX 71 88 50 89 51 90 59 91 52 92 58 93 60 94 57 95 53 96 54 97
REMARK SMILES IDX 55 98 56 99
REMARK H PARENT 9 12 2 28 14 30 80 52 48 63
REMARK Flexibility Score: inf
ROOT
ATOM      1  C   UNL A   1      32.175  29.181  25.126  1.00  0.00     0.275 C 
ENDROOT
BRANCH   1   2
ATOM      2  O   UNL A   1      31.143  28.185  25.263  1.00  0.00    -0.458 OA
BRANCH   2   3
ATOM      3  C   UNL A   1      30.581  27.751  24.108  1.00  0.00     0.342 C 
ATOM      4  O   UNL A   1      29.777  28.362  23.421  1.00  0.00    -0.246 OA
BRANCH   3   5
ATOM      5  C   UNL A   1      31.173  26.467  23.679  1.00  0.00     0.103 A 
ATOM      6  C   UNL A   1      32.075  24.305  24.375  1.00  0.00     0.041 A 
ATOM      7  C   UNL A   1      32.425  24.049  23.049  1.00  0.00     0.030 A 
ATOM      8  C   UNL A   1      31.493  25.538  24.680  1.00  0.00     0.045 A 
ATOM      9  C   UNL A   1      32.125  24.973  22.038  1.00  0.00     0.049 A 
ATOM     10  C   UNL A   1      31.491  26.178  22.354  1.00  0.00     0.130 A 
BRANCH   6  11
ATOM     11  N   UNL A   1      32.413  23.421  25.419  1.00  0.00    -0.340 N 
ATOM     12  H   UNL A   1      32.113  23.654  26.328  1.00  0.00     0.168 HD
BRANCH  11  13
ATOM     13  C   UNL A   1      33.154  22.225  25.260  1.00  0.00     0.142 A 
ATOM     14  C   UNL A   1      33.159  20.015  24.644  1.00  0.00     0.137 A 
ATOM     15  N   UNL A   1      32.463  21.109  24.969  1.00  0.00    -0.215 NA
ATOM     16  N   UNL A   1      34.492  19.913  24.709  1.00  0.00    -0.233 NA
ATOM     17  C   UNL A   1      35.178  21.009  25.050  1.00  0.00     0.076 A 
ATOM     18  C   UNL A   1      34.560  22.234  25.343  1.00  0.00     0.043 A 
ATOM     19  C   UNL A   1      36.565  20.937  25.069  1.00  0.00     0.029 A 
ATOM     20  C   UNL A   1      35.369  23.361  25.653  1.00  0.00     0.014 A 
ATOM     21  C   UNL A   1      37.359  22.050  25.358  1.00  0.00     0.002 A 
ATOM     22  C   UNL A   1      36.760  23.266  25.650  1.00  0.00     0.001 A 
BRANCH  14  23
ATOM     23  C   UNL A   1      32.392  18.858  24.077  1.00  0.00     0.138 C 
BRANCH  23  24
ATOM     24  C   UNL A   1      32.413  17.600  24.970  1.00  0.00     0.269 C 
BRANCH  24  25
ATOM     25  N   UNL A   1      32.822  16.295  24.418  1.00  0.00    -0.339 N 
ATOM     26  C   UNL A   1      34.092  16.347  23.692  1.00  0.00     0.332 C 
ATOM     27  C   UNL A   1      32.852  15.230  25.416  1.00  0.00     0.332 C 
ATOM     28  H   UNL A   1      32.091  16.065  23.746  1.00  0.00     0.347 HD
ENDBRANCH  24  25
ENDBRANCH  23  24
ENDBRANCH  14  23
ENDBRANCH  11  13
ENDBRANCH   6  11
BRANCH  10  29
ATOM     29  O   UNL A   1      31.240  27.087  21.364  1.00  0.00    -0.507 OA
ATOM     30  H   UNL A   1      30.843  27.909  21.572  1.00  0.00     0.293 HD
ENDBRANCH  10  29
ENDBRANCH   3   5
ENDBRANCH   2   3
ENDBRANCH   1   2
BRANCH   1  31
ATOM     31  C   UNL A   1      31.742  30.496  25.769  1.00  0.00     0.275 C 
BRANCH  31  32
ATOM     32  O   UNL A   1      32.343  30.610  27.070  1.00  0.00    -0.458 OA
BRANCH  32  33
ATOM     33  C   UNL A   1      33.036  31.748  27.300  1.00  0.00     0.338 C 
ATOM     34  O   UNL A   1      32.643  32.894  27.178  1.00  0.00    -0.246 OA
BRANCH  33  35
ATOM     35  C   UNL A   1      34.396  31.408  27.755  1.00  0.00     0.060 A 
ATOM     36  C   UNL A   1      34.708  30.086  28.058  1.00  0.00     0.016 A 
ATOM     37  C   UNL A   1      35.323  32.416  28.002  1.00  0.00     0.016 A 
ATOM     38  C   UNL A   1      35.892  29.779  28.726  1.00  0.00     0.010 A 
ATOM     39  C   UNL A   1      36.566  32.088  28.558  1.00  0.00     0.010 A 
ATOM     40  C   UNL A   1      36.850  30.773  28.976  1.00  0.00    -0.014 A 
BRANCH  40  41
ATOM     41  C   UNL A   1      38.114  30.461  29.712  1.00  0.00     0.031 A 
ATOM     42  C   UNL A   1      39.161  29.578  29.075  1.00  0.00     0.074 A 
ATOM     43  C   UNL A   1      38.344  30.963  30.943  1.00  0.00     0.049 A 
ATOM     44  N   UNL A   1      40.215  29.014  29.610  1.00  0.00    -0.248 NA
ATOM     45  C   UNL A   1      38.983  29.273  27.648  1.00  0.00     0.031 C 
ATOM     46  C   UNL A   1      37.456  31.874  31.669  1.00  0.00     0.029 A 
ATOM     47  N   UNL A   1      39.401  30.784  31.803  1.00  0.00    -0.354 N 
ATOM     48  C   UNL A   1      40.784  28.233  28.608  1.00  0.00     0.074 A 
ATOM     49  C   UNL A   1      39.950  28.392  27.435  1.00  0.00     0.031 C 
ATOM     50  C   UNL A   1      38.026  32.211  32.836  1.00  0.00     0.029 A 
ATOM     51  C   UNL A   1      39.262  31.456  32.997  1.00  0.00     0.049 A 
ATOM     52  H   UNL A   1      40.183  30.226  31.587  1.00  0.00     0.167 HD
ATOM     53  C   UNL A   1      41.896  27.456  28.661  1.00  0.00     0.034 A 
ATOM     54  C   UNL A   1      40.010  31.432  34.119  1.00  0.00     0.034 A 
ATOM     55  C   UNL A   1      42.746  27.344  29.824  1.00  0.00     0.049 A 
ATOM     56  C   UNL A   1      41.212  30.528  34.174  1.00  0.00     0.074 A 
ATOM     57  C   UNL A   1      43.902  26.599  29.981  1.00  0.00     0.029 A 
ATOM     58  N   UNL A   1      42.538  28.005  31.028  1.00  0.00    -0.354 N 
ATOM     59  N   UNL A   1      41.692  29.733  33.246  1.00  0.00    -0.248 NA
ATOM     60  C   UNL A   1      41.960  30.502  35.437  1.00  0.00     0.031 C 
ATOM     61  C   UNL A   1      44.362  26.767  31.292  1.00  0.00     0.029 A 
ATOM     62  C   UNL A   1      43.533  27.672  31.935  1.00  0.00     0.049 A 
ATOM     63  H   UNL A   1      41.793  28.622  31.210  1.00  0.00     0.167 HD
ATOM     64  C   UNL A   1      42.806  29.122  33.813  1.00  0.00     0.074 A 
ATOM     65  C   UNL A   1      42.939  29.656  35.152  1.00  0.00     0.031 C 
ATOM     66  C   UNL A   1      43.644  28.199  33.274  1.00  0.00     0.034 A 
BRANCH  53  67
ATOM     67  C   UNL A   1      42.219  26.621  27.443  1.00  0.00     0.023 A 
ATOM     68  C   UNL A   1      41.861  25.264  27.351  1.00  0.00     0.031 A 
ATOM     69  C   UNL A   1      42.936  27.184  26.371  1.00  0.00     0.131 A 
ATOM     70  C   UNL A   1      42.292  24.500  26.255  1.00  0.00     0.055 A 
ATOM     71  C   UNL A   1      43.289  26.438  25.244  1.00  0.00     0.041 A 
ATOM     72  F   UNL A   1      43.322  28.469  26.407  1.00  0.00    -0.206 F 
ATOM     73  C   UNL A   1      42.983  25.081  25.190  1.00  0.00     0.022 A 
BRANCH  70  74
ATOM     74  S   UNL A   1      42.075  22.699  26.321  1.00  0.00     0.124 S 
ATOM     75  O   UNL A   1      40.619  22.581  26.370  1.00  0.00    -0.237 OA
ATOM     76  O   UNL A   1      42.711  22.261  25.085  1.00  0.00    -0.237 OA
ATOM     77  O   UNL A   1      42.766  22.316  27.552  1.00  0.00    -0.744 OA
ENDBRANCH  70  74
ENDBRANCH  53  67
BRANCH  54  78
ATOM     78  C   UNL A   1      39.606  32.234  35.310  1.00  0.00     0.023 A 
ATOM     79  C   UNL A   1      40.060  33.549  35.484  1.00  0.00     0.031 A 
ATOM     80  C   UNL A   1      38.781  31.682  36.308  1.00  0.00     0.131 A 
ATOM     81  C   UNL A   1      39.712  34.261  36.643  1.00  0.00     0.055 A 
ATOM     82  C   UNL A   1      38.392  32.413  37.431  1.00  0.00     0.041 A 
ATOM     83  F   UNL A   1      38.323  30.425  36.192  1.00  0.00    -0.206 F 
ATOM     84  C   UNL A   1      38.866  33.708  37.608  1.00  0.00     0.022 A 
BRANCH  81  85
ATOM     85  S   UNL A   1      40.440  35.900  36.907  1.00  0.00     0.124 S 
ATOM     86  O   UNL A   1      41.847  35.651  36.620  1.00  0.00    -0.237 OA
ATOM     87  O   UNL A   1      39.721  36.713  35.932  1.00  0.00    -0.237 OA
ATOM     88  O   UNL A   1      40.130  36.189  38.306  1.00  0.00    -0.744 OA
ENDBRANCH  81  85
ENDBRANCH  54  78
BRANCH  66  89
ATOM     89  C   UNL A   1      44.799  27.750  34.132  1.00  0.00     0.023 A 
ATOM     90  C   UNL A   1      46.036  28.417  34.113  1.00  0.00     0.031 A 
ATOM     91  C   UNL A   1      44.668  26.618  34.955  1.00  0.00     0.131 A 
ATOM     92  C   UNL A   1      47.112  27.915  34.862  1.00  0.00     0.055 A 
ATOM     93  C   UNL A   1      45.726  26.154  35.739  1.00  0.00     0.041 A 
ATOM     94  F   UNL A   1      43.510  25.941  35.008  1.00  0.00    -0.206 F 
ATOM     95  C   UNL A   1      46.960  26.796  35.684  1.00  0.00     0.022 A 
BRANCH  92  96
ATOM     96  S   UNL A   1      48.741  28.689  34.674  1.00  0.00     0.124 S 
ATOM     97  O   UNL A   1      48.399  30.106  34.613  1.00  0.00    -0.237 OA
ATOM     98  O   UNL A   1      49.434  28.252  35.883  1.00  0.00    -0.237 OA
ATOM     99  O   UNL A   1      49.252  28.119  33.429  1.00  0.00    -0.744 OA
ENDBRANCH  92  96
ENDBRANCH  66  89
ENDBRANCH  40  41
ENDBRANCH  33  35
ENDBRANCH  32  33
ENDBRANCH  31  32
ENDBRANCH   1  31
TORSDOF 20
ENDMDL
