MODEL 1
REMARK VINA RESULT:     -12.6      0.000      0.000
REMARK SMILES COC(=O)c1ccc([C@H]2CC(=O)Nc3c(C(=O)OCCOC(=O)c4ccc(-c5c6nc(c(-c7cc(S(=O)(=O)[O-])ccc7F)c7ccc([nH]7)c(-c7cc(S(=O)(=O)[O-])ccc7F)c7nc(c(-c8cc(S(=O)(=O)[O-])ccc8F)c8ccc5[nH]8)C=C7)C=C6)cc4)cn(-c4cc(OC)ccc4OC)c32)cc1
REMARK SMILES IDX 19 1 18 2 16 3 17 4 15 5 9 6 10 7 99 8 11 9 14 10 88 11
REMARK SMILES IDX 12 12 13 13 87 14 8 16 5 17 6 18 101 19 7 20 100 21 3 22
REMARK SMILES IDX 4 23 2 24 1 25 89 26 90 27 96 28 91 29 95 30 94 31 97 32
REMARK SMILES IDX 98 33 92 34 93 35 20 36 21 37 22 38 23 39 24 40 25 41 86 42
REMARK SMILES IDX 26 43 85 44 27 45 28 46 29 47 79 48 30 49 84 50 78 51 80 52
REMARK SMILES IDX 31 53 83 54 77 55 76 56 32 58 64 59 44 60 63 61 45 62 48 63
REMARK SMILES IDX 62 64 81 65 46 66 47 67 61 69 82 70 49 71 33 72 34 73 42 74
REMARK SMILES IDX 35 75 41 76 43 77 40 78 36 79 37 80 38 81 39 82 65 83 66 84
REMARK SMILES IDX 74 85 67 86 73 87 75 88 72 89 68 90 69 91 70 92 71 93 50 94
REMARK SMILES IDX 51 95 59 96 52 97 58 98 60 99 57 100 53 101 54 102 55 103
REMARK SMILES IDX 56 104
REMARK H PARENT 13 15 80 57 48 68
REMARK Flexibility Score: inf
ROOT
ATOM      1  C   UNL A   1      38.171  21.911  25.854  1.00  0.00     0.275 C 
ENDROOT
BRANCH   1   2
ATOM      2  O   UNL A   1      36.991  22.737  25.808  1.00  0.00    -0.458 OA
BRANCH   2   3
ATOM      3  C   UNL A   1      36.496  23.058  24.570  1.00  0.00     0.341 C 
ATOM      4  O   UNL A   1      37.030  22.743  23.509  1.00  0.00    -0.246 OA
BRANCH   3   5
ATOM      5  C   UNL A   1      35.224  23.769  24.656  1.00  0.00     0.102 A 
ATOM      6  C   UNL A   1      31.675  24.478  23.732  1.00  0.00     0.078 C 
ATOM      7  C   UNL A   1      31.612  23.607  22.462  1.00  0.00     0.115 C 
ATOM      8  C   UNL A   1      33.089  24.489  24.273  1.00  0.00     0.055 A 
ATOM      9  C   UNL A   1      32.532  22.401  22.441  1.00  0.00     0.225 C 
ATOM     10  C   UNL A   1      34.032  23.542  23.934  1.00  0.00     0.078 A 
ATOM     11  N   UNL A   1      33.681  25.344  25.195  1.00  0.00    -0.314 N 
ATOM     12  O   UNL A   1      32.252  21.383  21.808  1.00  0.00    -0.275 OA
ATOM     13  N   UNL A   1      33.741  22.522  23.063  1.00  0.00    -0.324 N 
ATOM     14  C   UNL A   1      34.946  24.853  25.476  1.00  0.00     0.109 A 
ATOM     15  H   UNL A   1      34.435  21.848  22.879  1.00  0.00     0.170 HD
BRANCH   6  16
ATOM     16  C   UNL A   1      31.010  25.813  23.405  1.00  0.00    -0.038 A 
ATOM     17  C   UNL A   1      29.786  28.277  22.736  1.00  0.00     0.060 A 
ATOM     18  C   UNL A   1      31.107  28.014  22.355  1.00  0.00     0.016 A 
ATOM     19  C   UNL A   1      29.102  27.332  23.499  1.00  0.00     0.016 A 
ATOM     20  C   UNL A   1      31.708  26.789  22.676  1.00  0.00     0.005 A 
ATOM     21  C   UNL A   1      29.737  26.147  23.871  1.00  0.00     0.005 A 
BRANCH  17  22
ATOM     22  C   UNL A   1      29.149  29.557  22.329  1.00  0.00     0.337 C 
ATOM     23  O   UNL A   1      29.220  30.024  21.202  1.00  0.00    -0.246 OA
BRANCH  22  24
ATOM     24  O   UNL A   1      28.505  30.109  23.385  1.00  0.00    -0.465 OA
ATOM     25  C   UNL A   1      28.705  31.510  23.563  1.00  0.00     0.282 C 
ENDBRANCH  22  24
ENDBRANCH  17  22
ENDBRANCH   6  16
BRANCH  11  26
ATOM     26  C   UNL A   1      33.076  26.429  25.871  1.00  0.00     0.091 A 
ATOM     27  C   UNL A   1      33.755  27.660  25.790  1.00  0.00     0.077 A 
ATOM     28  C   UNL A   1      31.908  26.326  26.642  1.00  0.00     0.143 A 
ATOM     29  C   UNL A   1      33.300  28.780  26.488  1.00  0.00     0.121 A 
ATOM     30  C   UNL A   1      31.448  27.478  27.302  1.00  0.00     0.052 A 
ATOM     31  C   UNL A   1      32.134  28.689  27.238  1.00  0.00     0.050 A 
BRANCH  28  32
ATOM     32  O   UNL A   1      31.123  25.271  26.985  1.00  0.00    -0.495 OA
ATOM     33  C   UNL A   1      31.652  23.989  27.211  1.00  0.00     0.278 C 
ENDBRANCH  28  32
BRANCH  29  34
ATOM     34  O   UNL A   1      34.072  29.903  26.362  1.00  0.00    -0.497 OA
ATOM     35  C   UNL A   1      33.969  30.840  27.429  1.00  0.00     0.278 C 
ENDBRANCH  29  34
ENDBRANCH  11  26
ENDBRANCH   3   5
ENDBRANCH   2   3
ENDBRANCH   1   2
BRANCH   1  36
ATOM     36  C   UNL A   1      39.420  22.725  26.174  1.00  0.00     0.275 C 
BRANCH  36  37
ATOM     37  O   UNL A   1      39.086  23.885  26.932  1.00  0.00    -0.458 OA
BRANCH  37  38
ATOM     38  C   UNL A   1      40.030  24.850  26.917  1.00  0.00     0.338 C 
ATOM     39  O   UNL A   1      41.191  24.742  26.557  1.00  0.00    -0.246 OA
BRANCH  38  40
ATOM     40  C   UNL A   1      39.526  26.022  27.632  1.00  0.00     0.060 A 
ATOM     41  C   UNL A   1      39.810  27.258  27.063  1.00  0.00     0.016 A 
ATOM     42  C   UNL A   1      39.131  25.905  28.964  1.00  0.00     0.016 A 
ATOM     43  C   UNL A   1      39.980  28.348  27.871  1.00  0.00     0.010 A 
ATOM     44  C   UNL A   1      39.239  27.008  29.774  1.00  0.00     0.010 A 
ATOM     45  C   UNL A   1      39.773  28.180  29.236  1.00  0.00    -0.014 A 
BRANCH  45  46
ATOM     46  C   UNL A   1      40.029  29.319  30.086  1.00  0.00     0.031 A 
ATOM     47  C   UNL A   1      38.833  30.182  30.246  1.00  0.00     0.074 A 
ATOM     48  C   UNL A   1      41.204  29.450  30.729  1.00  0.00     0.049 A 
ATOM     49  N   UNL A   1      38.687  31.419  29.914  1.00  0.00    -0.248 NA
ATOM     50  C   UNL A   1      37.570  29.514  30.622  1.00  0.00     0.031 C 
ATOM     51  C   UNL A   1      42.320  28.500  30.791  1.00  0.00     0.029 A 
ATOM     52  N   UNL A   1      41.593  30.414  31.596  1.00  0.00    -0.354 N 
ATOM     53  C   UNL A   1      37.379  31.746  30.260  1.00  0.00     0.074 A 
ATOM     54  C   UNL A   1      36.693  30.504  30.470  1.00  0.00     0.031 C 
ATOM     55  C   UNL A   1      43.090  28.793  31.864  1.00  0.00     0.029 A 
ATOM     56  C   UNL A   1      42.599  30.020  32.470  1.00  0.00     0.049 A 
ATOM     57  H   UNL A   1      41.196  31.315  31.607  1.00  0.00     0.167 HD
ATOM     58  C   UNL A   1      37.034  33.016  30.600  1.00  0.00     0.034 A 
ATOM     59  C   UNL A   1      42.898  30.606  33.661  1.00  0.00     0.034 A 
ATOM     60  C   UNL A   1      38.012  33.964  30.119  1.00  0.00     0.049 A 
ATOM     61  C   UNL A   1      42.302  31.973  33.615  1.00  0.00     0.074 A 
ATOM     62  C   UNL A   1      38.474  34.311  28.865  1.00  0.00     0.029 A 
ATOM     63  N   UNL A   1      38.963  34.419  31.006  1.00  0.00    -0.354 N 
ATOM     64  N   UNL A   1      42.690  32.891  32.767  1.00  0.00    -0.248 NA
ATOM     65  C   UNL A   1      40.945  32.142  34.122  1.00  0.00     0.031 C 
ATOM     66  C   UNL A   1      39.879  34.481  29.028  1.00  0.00     0.029 A 
ATOM     67  C   UNL A   1      40.183  34.317  30.382  1.00  0.00     0.049 A 
ATOM     68  H   UNL A   1      38.798  34.756  31.917  1.00  0.00     0.167 HD
ATOM     69  C   UNL A   1      41.521  33.491  32.317  1.00  0.00     0.074 A 
ATOM     70  C   UNL A   1      40.482  33.041  33.245  1.00  0.00     0.031 C 
ATOM     71  C   UNL A   1      41.434  34.048  31.071  1.00  0.00     0.034 A 
BRANCH  58  72
ATOM     72  C   UNL A   1      36.031  33.358  31.674  1.00  0.00     0.023 A 
ATOM     73  C   UNL A   1      34.881  34.064  31.279  1.00  0.00     0.031 A 
ATOM     74  C   UNL A   1      36.268  33.298  33.069  1.00  0.00     0.131 A 
ATOM     75  C   UNL A   1      34.096  34.747  32.223  1.00  0.00     0.055 A 
ATOM     76  C   UNL A   1      35.444  33.919  34.008  1.00  0.00     0.041 A 
ATOM     77  F   UNL A   1      37.354  32.726  33.601  1.00  0.00    -0.206 F 
ATOM     78  C   UNL A   1      34.369  34.679  33.586  1.00  0.00     0.022 A 
BRANCH  75  79
ATOM     79  S   UNL A   1      32.823  35.882  31.617  1.00  0.00     0.124 S 
ATOM     80  O   UNL A   1      31.807  35.770  32.657  1.00  0.00    -0.237 OA
ATOM     81  O   UNL A   1      33.552  37.143  31.558  1.00  0.00    -0.237 OA
ATOM     82  O   UNL A   1      32.454  35.313  30.323  1.00  0.00    -0.744 OA
ENDBRANCH  75  79
ENDBRANCH  58  72
BRANCH  59  83
ATOM     83  C   UNL A   1      43.240  29.879  34.921  1.00  0.00     0.023 A 
ATOM     84  C   UNL A   1      42.556  28.725  35.359  1.00  0.00     0.031 A 
ATOM     85  C   UNL A   1      44.422  30.214  35.626  1.00  0.00     0.131 A 
ATOM     86  C   UNL A   1      43.048  27.977  36.458  1.00  0.00     0.055 A 
ATOM     87  C   UNL A   1      44.899  29.476  36.712  1.00  0.00     0.041 A 
ATOM     88  F   UNL A   1      45.202  31.233  35.233  1.00  0.00    -0.206 F 
ATOM     89  C   UNL A   1      44.215  28.348  37.130  1.00  0.00     0.022 A 
BRANCH  86  90
ATOM     90  S   UNL A   1      42.203  26.454  36.998  1.00  0.00     0.124 S 
ATOM     91  O   UNL A   1      40.853  26.929  37.273  1.00  0.00    -0.237 OA
ATOM     92  O   UNL A   1      42.361  25.582  35.839  1.00  0.00    -0.237 OA
ATOM     93  O   UNL A   1      42.961  26.042  38.181  1.00  0.00    -0.744 OA
ENDBRANCH  86  90
ENDBRANCH  59  83
BRANCH  71  94
ATOM     94  C   UNL A   1      42.700  34.219  30.253  1.00  0.00     0.023 A 
ATOM     95  C   UNL A   1      43.132  33.343  29.228  1.00  0.00     0.031 A 
ATOM     96  C   UNL A   1      43.402  35.425  30.420  1.00  0.00     0.131 A 
ATOM     97  C   UNL A   1      44.232  33.699  28.417  1.00  0.00     0.055 A 
ATOM     98  C   UNL A   1      44.473  35.782  29.602  1.00  0.00     0.041 A 
ATOM     99  F   UNL A   1      43.019  36.310  31.355  1.00  0.00    -0.206 F 
ATOM    100  C   UNL A   1      44.893  34.918  28.599  1.00  0.00     0.022 A 
BRANCH  97 101
ATOM    101  S   UNL A   1      44.829  32.583  27.104  1.00  0.00     0.124 S 
ATOM    102  O   UNL A   1      46.240  32.928  26.981  1.00  0.00    -0.237 OA
ATOM    103  O   UNL A   1      44.538  31.261  27.652  1.00  0.00    -0.237 OA
ATOM    104  O   UNL A   1      44.011  32.951  25.946  1.00  0.00    -0.744 OA
ENDBRANCH  97 101
ENDBRANCH  71  94
ENDBRANCH  45  46
ENDBRANCH  38  40
ENDBRANCH  37  38
ENDBRANCH  36  37
ENDBRANCH   1  36
TORSDOF 20
ENDMDL
MODEL 2
REMARK VINA RESULT:     -12.4      4.148      5.590
REMARK SMILES COC(=O)c1ccc([C@H]2CC(=O)Nc3c(C(=O)OCCOC(=O)c4ccc(-c5c6nc(c(-c7cc(S(=O)(=O)[O-])ccc7F)c7ccc([nH]7)c(-c7cc(S(=O)(=O)[O-])ccc7F)c7nc(c(-c8cc(S(=O)(=O)[O-])ccc8F)c8ccc5[nH]8)C=C7)C=C6)cc4)cn(-c4cc(OC)ccc4OC)c32)cc1
REMARK SMILES IDX 19 1 18 2 16 3 17 4 15 5 9 6 10 7 99 8 11 9 14 10 88 11
REMARK SMILES IDX 12 12 13 13 87 14 8 16 5 17 6 18 101 19 7 20 100 21 3 22
REMARK SMILES IDX 4 23 2 24 1 25 89 26 90 27 96 28 91 29 95 30 94 31 97 32
REMARK SMILES IDX 98 33 92 34 93 35 20 36 21 37 22 38 23 39 24 40 25 41 86 42
REMARK SMILES IDX 26 43 85 44 27 45 28 46 29 47 79 48 30 49 84 50 78 51 80 52
REMARK SMILES IDX 31 53 83 54 77 55 76 56 32 58 64 59 44 60 63 61 45 62 48 63
REMARK SMILES IDX 62 64 81 65 46 66 47 67 61 69 82 70 49 71 33 72 34 73 42 74
REMARK SMILES IDX 35 75 41 76 43 77 40 78 36 79 37 80 38 81 39 82 65 83 66 84
REMARK SMILES IDX 74 85 67 86 73 87 75 88 72 89 68 90 69 91 70 92 71 93 50 94
REMARK SMILES IDX 51 95 59 96 52 97 58 98 60 99 57 100 53 101 54 102 55 103
REMARK SMILES IDX 56 104
REMARK H PARENT 13 15 80 57 48 68
REMARK Flexibility Score: inf
ROOT
ATOM      1  C   UNL A   1      36.523  21.730  24.938  1.00  0.00     0.275 C 
ENDROOT
BRANCH   1   2
ATOM      2  O   UNL A   1      35.377  21.406  25.750  1.00  0.00    -0.458 OA
BRANCH   2   3
ATOM      3  C   UNL A   1      34.145  21.476  25.154  1.00  0.00     0.341 C 
ATOM      4  O   UNL A   1      33.543  20.509  24.693  1.00  0.00    -0.246 OA
BRANCH   3   5
ATOM      5  C   UNL A   1      33.598  22.829  25.183  1.00  0.00     0.102 A 
ATOM      6  C   UNL A   1      31.026  25.424  25.961  1.00  0.00     0.078 C 
ATOM      7  C   UNL A   1      29.869  24.470  26.318  1.00  0.00     0.115 C 
ATOM      8  C   UNL A   1      32.210  24.624  25.462  1.00  0.00     0.055 A 
ATOM      9  C   UNL A   1      30.274  23.122  26.883  1.00  0.00     0.225 C 
ATOM     10  C   UNL A   1      32.363  23.275  25.703  1.00  0.00     0.078 A 
ATOM     11  N   UNL A   1      33.335  25.044  24.762  1.00  0.00    -0.314 N 
ATOM     12  O   UNL A   1      29.550  22.501  27.662  1.00  0.00    -0.275 OA
ATOM     13  N   UNL A   1      31.428  22.565  26.414  1.00  0.00    -0.324 N 
ATOM     14  C   UNL A   1      34.202  23.967  24.668  1.00  0.00     0.109 A 
ATOM     15  H   UNL A   1      31.598  21.611  26.593  1.00  0.00     0.170 HD
BRANCH   6  16
ATOM     16  C   UNL A   1      30.455  26.518  25.062  1.00  0.00    -0.038 A 
ATOM     17  C   UNL A   1      29.454  28.560  23.375  1.00  0.00     0.060 A 
ATOM     18  C   UNL A   1      30.373  28.862  24.387  1.00  0.00     0.016 A 
ATOM     19  C   UNL A   1      28.995  27.250  23.248  1.00  0.00     0.016 A 
ATOM     20  C   UNL A   1      30.877  27.848  25.213  1.00  0.00     0.005 A 
ATOM     21  C   UNL A   1      29.453  26.265  24.123  1.00  0.00     0.005 A 
BRANCH  17  22
ATOM     22  C   UNL A   1      28.982  29.642  22.470  1.00  0.00     0.337 C 
ATOM     23  O   UNL A   1      29.407  29.814  21.337  1.00  0.00    -0.246 OA
BRANCH  22  24
ATOM     24  O   UNL A   1      28.041  30.389  23.095  1.00  0.00    -0.465 OA
ATOM     25  C   UNL A   1      28.015  31.769  22.739  1.00  0.00     0.282 C 
ENDBRANCH  22  24
ENDBRANCH  17  22
ENDBRANCH   6  16
BRANCH  11  26
ATOM     26  C   UNL A   1      33.650  26.361  24.353  1.00  0.00     0.091 A 
ATOM     27  C   UNL A   1      34.003  27.257  25.380  1.00  0.00     0.077 A 
ATOM     28  C   UNL A   1      33.570  26.816  23.028  1.00  0.00     0.143 A 
ATOM     29  C   UNL A   1      34.249  28.604  25.106  1.00  0.00     0.121 A 
ATOM     30  C   UNL A   1      33.863  28.165  22.773  1.00  0.00     0.052 A 
ATOM     31  C   UNL A   1      34.190  29.055  23.794  1.00  0.00     0.050 A 
BRANCH  28  32
ATOM     32  O   UNL A   1      33.161  26.222  21.876  1.00  0.00    -0.495 OA
ATOM     33  C   UNL A   1      32.000  25.432  21.813  1.00  0.00     0.278 C 
ENDBRANCH  28  32
BRANCH  29  34
ATOM     34  O   UNL A   1      34.538  29.379  26.197  1.00  0.00    -0.497 OA
ATOM     35  C   UNL A   1      33.526  29.428  27.197  1.00  0.00     0.278 C 
ENDBRANCH  29  34
ENDBRANCH  11  26
ENDBRANCH   3   5
ENDBRANCH   2   3
ENDBRANCH   1   2
BRANCH   1  36
ATOM     36  C   UNL A   1      37.534  20.590  24.905  1.00  0.00     0.275 C 
BRANCH  36  37
ATOM     37  O   UNL A   1      38.444  20.690  25.998  1.00  0.00    -0.458 OA
BRANCH  37  38
ATOM     38  C   UNL A   1      39.607  20.030  25.817  1.00  0.00     0.338 C 
ATOM     39  O   UNL A   1      39.752  18.878  25.441  1.00  0.00    -0.246 OA
BRANCH  38  40
ATOM     40  C   UNL A   1      40.700  20.828  26.372  1.00  0.00     0.060 A 
ATOM     41  C   UNL A   1      40.842  20.797  27.754  1.00  0.00     0.016 A 
ATOM     42  C   UNL A   1      41.293  21.825  25.599  1.00  0.00     0.016 A 
ATOM     43  C   UNL A   1      41.328  21.897  28.405  1.00  0.00     0.010 A 
ATOM     44  C   UNL A   1      41.839  22.908  26.242  1.00  0.00     0.010 A 
ATOM     45  C   UNL A   1      41.741  22.977  27.632  1.00  0.00    -0.014 A 
BRANCH  45  46
ATOM     46  C   UNL A   1      42.180  24.161  28.334  1.00  0.00     0.031 A 
ATOM     47  C   UNL A   1      41.215  25.280  28.205  1.00  0.00     0.074 A 
ATOM     48  C   UNL A   1      43.284  24.138  29.101  1.00  0.00     0.049 A 
ATOM     49  N   UNL A   1      41.401  26.443  27.680  1.00  0.00    -0.248 NA
ATOM     50  C   UNL A   1      39.799  24.982  28.503  1.00  0.00     0.031 C 
ATOM     51  C   UNL A   1      44.130  22.991  29.449  1.00  0.00     0.029 A 
ATOM     52  N   UNL A   1      43.807  25.127  29.863  1.00  0.00    -0.354 N 
ATOM     53  C   UNL A   1      40.183  27.105  27.798  1.00  0.00     0.074 A 
ATOM     54  C   UNL A   1      39.202  26.100  28.093  1.00  0.00     0.031 C 
ATOM     55  C   UNL A   1      44.840  23.287  30.561  1.00  0.00     0.029 A 
ATOM     56  C   UNL A   1      44.602  24.678  30.911  1.00  0.00     0.049 A 
ATOM     57  H   UNL A   1      43.639  26.081  29.690  1.00  0.00     0.167 HD
ATOM     58  C   UNL A   1      40.121  28.459  27.901  1.00  0.00     0.034 A 
ATOM     59  C   UNL A   1      44.917  25.380  32.033  1.00  0.00     0.034 A 
ATOM     60  C   UNL A   1      41.338  29.070  27.422  1.00  0.00     0.049 A 
ATOM     61  C   UNL A   1      44.673  26.815  31.711  1.00  0.00     0.074 A 
ATOM     62  C   UNL A   1      41.988  29.086  26.203  1.00  0.00     0.029 A 
ATOM     63  N   UNL A   1      42.281  29.451  28.352  1.00  0.00    -0.354 N 
ATOM     64  N   UNL A   1      45.348  27.465  30.797  1.00  0.00    -0.248 NA
ATOM     65  C   UNL A   1      43.352  27.364  32.002  1.00  0.00     0.031 C 
ATOM     66  C   UNL A   1      43.371  28.967  26.526  1.00  0.00     0.029 A 
ATOM     67  C   UNL A   1      43.496  28.976  27.918  1.00  0.00     0.049 A 
ATOM     68  H   UNL A   1      42.115  29.968  29.174  1.00  0.00     0.167 HD
ATOM     69  C   UNL A   1      44.405  28.221  30.113  1.00  0.00     0.074 A 
ATOM     70  C   UNL A   1      43.204  28.178  30.950  1.00  0.00     0.031 C 
ATOM     71  C   UNL A   1      44.574  28.560  28.799  1.00  0.00     0.034 A 
BRANCH  58  72
ATOM     72  C   UNL A   1      39.130  29.193  28.771  1.00  0.00     0.023 A 
ATOM     73  C   UNL A   1      39.312  29.109  30.163  1.00  0.00     0.031 A 
ATOM     74  C   UNL A   1      37.882  29.707  28.343  1.00  0.00     0.131 A 
ATOM     75  C   UNL A   1      38.264  29.421  31.045  1.00  0.00     0.055 A 
ATOM     76  C   UNL A   1      36.870  30.082  29.227  1.00  0.00     0.041 A 
ATOM     77  F   UNL A   1      37.527  29.782  27.055  1.00  0.00    -0.206 F 
ATOM     78  C   UNL A   1      37.043  29.908  30.587  1.00  0.00     0.022 A 
BRANCH  75  79
ATOM     79  S   UNL A   1      38.463  28.997  32.794  1.00  0.00     0.124 S 
ATOM     80  O   UNL A   1      39.448  27.923  32.727  1.00  0.00    -0.237 OA
ATOM     81  O   UNL A   1      38.923  30.261  33.357  1.00  0.00    -0.237 OA
ATOM     82  O   UNL A   1      37.120  28.586  33.195  1.00  0.00    -0.744 OA
ENDBRANCH  75  79
ENDBRANCH  58  72
BRANCH  59  83
ATOM     83  C   UNL A   1      44.952  24.823  33.420  1.00  0.00     0.023 A 
ATOM     84  C   UNL A   1      45.764  25.351  34.445  1.00  0.00     0.031 A 
ATOM     85  C   UNL A   1      43.997  23.853  33.812  1.00  0.00     0.131 A 
ATOM     86  C   UNL A   1      45.612  24.899  35.781  1.00  0.00     0.055 A 
ATOM     87  C   UNL A   1      43.856  23.408  35.128  1.00  0.00     0.041 A 
ATOM     88  F   UNL A   1      43.109  23.357  32.936  1.00  0.00    -0.206 F 
ATOM     89  C   UNL A   1      44.661  23.935  36.122  1.00  0.00     0.022 A 
BRANCH  86  90
ATOM     90  S   UNL A   1      46.619  25.615  37.124  1.00  0.00     0.124 S 
ATOM     91  O   UNL A   1      45.696  26.568  37.728  1.00  0.00    -0.237 OA
ATOM     92  O   UNL A   1      46.955  24.441  37.922  1.00  0.00    -0.237 OA
ATOM     93  O   UNL A   1      47.750  26.219  36.418  1.00  0.00    -0.744 OA
ENDBRANCH  86  90
ENDBRANCH  59  83
BRANCH  71  94
ATOM     94  C   UNL A   1      45.916  28.304  28.142  1.00  0.00     0.023 A 
ATOM     95  C   UNL A   1      46.253  27.145  27.402  1.00  0.00     0.031 A 
ATOM     96  C   UNL A   1      46.829  29.373  28.130  1.00  0.00     0.131 A 
ATOM     97  C   UNL A   1      47.470  27.096  26.688  1.00  0.00     0.055 A 
ATOM     98  C   UNL A   1      48.018  29.328  27.406  1.00  0.00     0.041 A 
ATOM     99  F   UNL A   1      46.549  30.511  28.788  1.00  0.00    -0.206 F 
ATOM    100  C   UNL A   1      48.345  28.188  26.683  1.00  0.00     0.022 A 
BRANCH  97 101
ATOM    101  S   UNL A   1      47.946  25.609  25.745  1.00  0.00     0.124 S 
ATOM    102  O   UNL A   1      47.955  24.556  26.753  1.00  0.00    -0.237 OA
ATOM    103  O   UNL A   1      46.894  25.521  24.735  1.00  0.00    -0.237 OA
ATOM    104  O   UNL A   1      49.266  25.951  25.213  1.00  0.00    -0.744 OA
ENDBRANCH  97 101
ENDBRANCH  71  94
ENDBRANCH  45  46
ENDBRANCH  38  40
ENDBRANCH  37  38
ENDBRANCH  36  37
ENDBRANCH   1  36
TORSDOF 20
ENDMDL
MODEL 3
REMARK VINA RESULT:     -12.0      2.607      7.681
REMARK SMILES COC(=O)c1ccc([C@H]2CC(=O)Nc3c(C(=O)OCCOC(=O)c4ccc(-c5c6nc(c(-c7cc(S(=O)(=O)[O-])ccc7F)c7ccc([nH]7)c(-c7cc(S(=O)(=O)[O-])ccc7F)c7nc(c(-c8cc(S(=O)(=O)[O-])ccc8F)c8ccc5[nH]8)C=C7)C=C6)cc4)cn(-c4cc(OC)ccc4OC)c32)cc1
REMARK SMILES IDX 19 1 18 2 16 3 17 4 15 5 9 6 10 7 99 8 11 9 14 10 88 11
REMARK SMILES IDX 12 12 13 13 87 14 8 16 5 17 6 18 101 19 7 20 100 21 3 22
REMARK SMILES IDX 4 23 2 24 1 25 89 26 90 27 96 28 91 29 95 30 94 31 97 32
REMARK SMILES IDX 98 33 92 34 93 35 20 36 21 37 22 38 23 39 24 40 25 41 86 42
REMARK SMILES IDX 26 43 85 44 27 45 28 46 29 47 79 48 30 49 84 50 78 51 80 52
REMARK SMILES IDX 31 53 83 54 77 55 76 56 32 58 64 59 44 60 63 61 45 62 48 63
REMARK SMILES IDX 62 64 81 65 46 66 47 67 61 69 82 70 49 71 33 72 34 73 42 74
REMARK SMILES IDX 35 75 41 76 43 77 40 78 36 79 37 80 38 81 39 82 65 83 66 84
REMARK SMILES IDX 74 85 67 86 73 87 75 88 72 89 68 90 69 91 70 92 71 93 50 94
REMARK SMILES IDX 51 95 59 96 52 97 58 98 60 99 57 100 53 101 54 102 55 103
REMARK SMILES IDX 56 104
REMARK H PARENT 13 15 80 57 48 68
REMARK Flexibility Score: inf
ROOT
ATOM      1  C   UNL A   1      36.214  20.880  25.383  1.00  0.00     0.275 C 
ENDROOT
BRANCH   1   2
ATOM      2  O   UNL A   1      35.213  21.277  24.426  1.00  0.00    -0.458 OA
BRANCH   2   3
ATOM      3  C   UNL A   1      33.920  21.371  24.870  1.00  0.00     0.341 C 
ATOM      4  O   UNL A   1      33.241  20.412  25.231  1.00  0.00    -0.246 OA
BRANCH   3   5
ATOM      5  C   UNL A   1      33.457  22.755  24.921  1.00  0.00     0.102 A 
ATOM      6  C   UNL A   1      31.094  25.501  25.831  1.00  0.00     0.078 C 
ATOM      7  C   UNL A   1      29.906  24.619  26.264  1.00  0.00     0.115 C 
ATOM      8  C   UNL A   1      32.197  24.630  25.269  1.00  0.00     0.055 A 
ATOM      9  C   UNL A   1      30.264  23.251  26.814  1.00  0.00     0.225 C 
ATOM     10  C   UNL A   1      32.283  23.275  25.510  1.00  0.00     0.078 A 
ATOM     11  N   UNL A   1      33.301  24.980  24.501  1.00  0.00    -0.314 N 
ATOM     12  O   UNL A   1      29.552  22.678  27.638  1.00  0.00    -0.275 OA
ATOM     13  N   UNL A   1      31.352  22.624  26.280  1.00  0.00    -0.324 N 
ATOM     14  C   UNL A   1      34.095  23.853  24.363  1.00  0.00     0.109 A 
ATOM     15  H   UNL A   1      31.476  21.663  26.456  1.00  0.00     0.170 HD
BRANCH   6  16
ATOM     16  C   UNL A   1      30.536  26.623  24.960  1.00  0.00    -0.038 A 
ATOM     17  C   UNL A   1      29.560  28.720  23.326  1.00  0.00     0.060 A 
ATOM     18  C   UNL A   1      30.450  28.991  24.372  1.00  0.00     0.016 A 
ATOM     19  C   UNL A   1      29.117  27.412  23.138  1.00  0.00     0.016 A 
ATOM     20  C   UNL A   1      30.942  27.950  25.173  1.00  0.00     0.005 A 
ATOM     21  C   UNL A   1      29.560  26.398  23.986  1.00  0.00     0.005 A 
BRANCH  17  22
ATOM     22  C   UNL A   1      29.102  29.832  22.451  1.00  0.00     0.337 C 
ATOM     23  O   UNL A   1      28.944  29.726  21.244  1.00  0.00    -0.246 OA
BRANCH  22  24
ATOM     24  O   UNL A   1      28.904  30.950  23.190  1.00  0.00    -0.465 OA
ATOM     25  C   UNL A   1      27.573  31.146  23.662  1.00  0.00     0.282 C 
ENDBRANCH  22  24
ENDBRANCH  17  22
ENDBRANCH   6  16
BRANCH  11  26
ATOM     26  C   UNL A   1      33.668  26.274  24.064  1.00  0.00     0.091 A 
ATOM     27  C   UNL A   1      33.965  27.205  25.078  1.00  0.00     0.077 A 
ATOM     28  C   UNL A   1      33.690  26.676  22.719  1.00  0.00     0.143 A 
ATOM     29  C   UNL A   1      34.255  28.536  24.770  1.00  0.00     0.121 A 
ATOM     30  C   UNL A   1      34.025  28.010  22.434  1.00  0.00     0.052 A 
ATOM     31  C   UNL A   1      34.297  28.934  23.440  1.00  0.00     0.050 A 
BRANCH  28  32
ATOM     32  O   UNL A   1      33.352  26.044  21.565  1.00  0.00    -0.495 OA
ATOM     33  C   UNL A   1      32.027  25.672  21.277  1.00  0.00     0.278 C 
ENDBRANCH  28  32
BRANCH  29  34
ATOM     34  O   UNL A   1      34.481  29.349  25.847  1.00  0.00    -0.497 OA
ATOM     35  C   UNL A   1      34.106  28.809  27.110  1.00  0.00     0.278 C 
ENDBRANCH  29  34
ENDBRANCH  11  26
ENDBRANCH   3   5
ENDBRANCH   2   3
ENDBRANCH   1   2
BRANCH   1  36
ATOM     36  C   UNL A   1      37.574  21.491  25.067  1.00  0.00     0.275 C 
BRANCH  36  37
ATOM     37  O   UNL A   1      37.969  22.402  26.090  1.00  0.00    -0.458 OA
BRANCH  37  38
ATOM     38  C   UNL A   1      39.238  22.241  26.521  1.00  0.00     0.338 C 
ATOM     39  O   UNL A   1      39.742  21.223  26.966  1.00  0.00    -0.246 OA
BRANCH  38  40
ATOM     40  C   UNL A   1      39.884  23.550  26.604  1.00  0.00     0.060 A 
ATOM     41  C   UNL A   1      41.192  23.560  27.076  1.00  0.00     0.016 A 
ATOM     42  C   UNL A   1      39.110  24.709  26.573  1.00  0.00     0.016 A 
ATOM     43  C   UNL A   1      41.646  24.642  27.777  1.00  0.00     0.010 A 
ATOM     44  C   UNL A   1      39.581  25.823  27.222  1.00  0.00     0.010 A 
ATOM     45  C   UNL A   1      40.791  25.731  27.911  1.00  0.00    -0.014 A 
BRANCH  45  46
ATOM     46  C   UNL A   1      41.254  26.837  28.717  1.00  0.00     0.031 A 
ATOM     47  C   UNL A   1      42.454  27.491  28.138  1.00  0.00     0.074 A 
ATOM     48  C   UNL A   1      40.554  27.250  29.789  1.00  0.00     0.049 A 
ATOM     49  N   UNL A   1      43.630  27.608  28.653  1.00  0.00    -0.248 NA
ATOM     50  C   UNL A   1      42.389  27.866  26.711  1.00  0.00     0.031 C 
ATOM     51  C   UNL A   1      39.241  26.789  30.254  1.00  0.00     0.029 A 
ATOM     52  N   UNL A   1      40.808  28.290  30.618  1.00  0.00    -0.354 N 
ATOM     53  C   UNL A   1      44.387  28.284  27.702  1.00  0.00     0.074 A 
ATOM     54  C   UNL A   1      43.652  28.212  26.472  1.00  0.00     0.031 C 
ATOM     55  C   UNL A   1      38.703  27.731  31.062  1.00  0.00     0.029 A 
ATOM     56  C   UNL A   1      39.686  28.781  31.274  1.00  0.00     0.049 A 
ATOM     57  H   UNL A   1      41.709  28.665  30.744  1.00  0.00     0.167 HD
ATOM     58  C   UNL A   1      45.434  29.074  28.062  1.00  0.00     0.034 A 
ATOM     59  C   UNL A   1      39.562  30.016  31.830  1.00  0.00     0.034 A 
ATOM     60  C   UNL A   1      45.896  28.745  29.390  1.00  0.00     0.049 A 
ATOM     61  C   UNL A   1      40.949  30.527  32.027  1.00  0.00     0.074 A 
ATOM     62  C   UNL A   1      46.419  27.605  29.968  1.00  0.00     0.029 A 
ATOM     63  N   UNL A   1      45.469  29.532  30.437  1.00  0.00    -0.354 N 
ATOM     64  N   UNL A   1      41.809  29.961  32.835  1.00  0.00    -0.248 NA
ATOM     65  C   UNL A   1      41.546  31.311  30.950  1.00  0.00     0.031 C 
ATOM     66  C   UNL A   1      45.818  27.542  31.258  1.00  0.00     0.029 A 
ATOM     67  C   UNL A   1      45.036  28.687  31.431  1.00  0.00     0.049 A 
ATOM     68  H   UNL A   1      45.475  30.517  30.469  1.00  0.00     0.167 HD
ATOM     69  C   UNL A   1      43.015  29.960  32.145  1.00  0.00     0.074 A 
ATOM     70  C   UNL A   1      42.809  30.875  31.021  1.00  0.00     0.031 C 
ATOM     71  C   UNL A   1      43.964  29.000  32.361  1.00  0.00     0.034 A 
BRANCH  58  72
ATOM     72  C   UNL A   1      45.784  30.372  27.377  1.00  0.00     0.023 A 
ATOM     73  C   UNL A   1      47.147  30.624  27.137  1.00  0.00     0.031 A 
ATOM     74  C   UNL A   1      44.916  31.479  27.220  1.00  0.00     0.131 A 
ATOM     75  C   UNL A   1      47.600  31.926  26.864  1.00  0.00     0.055 A 
ATOM     76  C   UNL A   1      45.364  32.756  26.881  1.00  0.00     0.041 A 
ATOM     77  F   UNL A   1      43.605  31.422  27.482  1.00  0.00    -0.206 F 
ATOM     78  C   UNL A   1      46.718  32.994  26.734  1.00  0.00     0.022 A 
BRANCH  75  79
ATOM     79  S   UNL A   1      49.385  32.229  26.874  1.00  0.00     0.124 S 
ATOM     80  O   UNL A   1      49.505  33.318  25.912  1.00  0.00    -0.237 OA
ATOM     81  O   UNL A   1      49.621  32.572  28.272  1.00  0.00    -0.237 OA
ATOM     82  O   UNL A   1      49.945  30.951  26.441  1.00  0.00    -0.744 OA
ENDBRANCH  75  79
ENDBRANCH  58  72
BRANCH  59  83
ATOM     83  C   UNL A   1      38.349  30.886  31.744  1.00  0.00     0.023 A 
ATOM     84  C   UNL A   1      37.888  31.453  30.538  1.00  0.00     0.031 A 
ATOM     85  C   UNL A   1      37.489  31.003  32.863  1.00  0.00     0.131 A 
ATOM     86  C   UNL A   1      36.631  32.110  30.492  1.00  0.00     0.055 A 
ATOM     87  C   UNL A   1      36.255  31.656  32.813  1.00  0.00     0.041 A 
ATOM     88  F   UNL A   1      37.784  30.416  34.034  1.00  0.00    -0.206 F 
ATOM     89  C   UNL A   1      35.818  32.209  31.623  1.00  0.00     0.022 A 
BRANCH  86  90
ATOM     90  S   UNL A   1      36.000  32.798  28.926  1.00  0.00     0.124 S 
ATOM     91  O   UNL A   1      37.016  33.788  28.590  1.00  0.00    -0.237 OA
ATOM     92  O   UNL A   1      35.935  31.618  28.070  1.00  0.00    -0.237 OA
ATOM     93  O   UNL A   1      34.699  33.357  29.297  1.00  0.00    -0.744 OA
ENDBRANCH  86  90
ENDBRANCH  59  83
BRANCH  71  94
ATOM     94  C   UNL A   1      43.798  28.055  33.535  1.00  0.00     0.023 A 
ATOM     95  C   UNL A   1      43.632  26.652  33.435  1.00  0.00     0.031 A 
ATOM     96  C   UNL A   1      43.990  28.598  34.817  1.00  0.00     0.131 A 
ATOM     97  C   UNL A   1      43.665  25.855  34.600  1.00  0.00     0.055 A 
ATOM     98  C   UNL A   1      44.043  27.805  35.962  1.00  0.00     0.041 A 
ATOM     99  F   UNL A   1      44.184  29.919  34.973  1.00  0.00    -0.206 F 
ATOM    100  C   UNL A   1      43.879  26.430  35.857  1.00  0.00     0.022 A 
BRANCH  97 101
ATOM    101  S   UNL A   1      43.431  24.048  34.507  1.00  0.00     0.124 S 
ATOM    102  O   UNL A   1      44.487  23.525  35.366  1.00  0.00    -0.237 OA
ATOM    103  O   UNL A   1      42.065  23.878  34.995  1.00  0.00    -0.237 OA
ATOM    104  O   UNL A   1      43.605  23.754  33.083  1.00  0.00    -0.744 OA
ENDBRANCH  97 101
ENDBRANCH  71  94
ENDBRANCH  45  46
ENDBRANCH  38  40
ENDBRANCH  37  38
ENDBRANCH  36  37
ENDBRANCH   1  36
TORSDOF 20
ENDMDL
