MODEL 1
REMARK VINA RESULT:     -13.1      0.000      0.000
REMARK SMILES O=C(OCCOC(=O)[C@H]1[C@@H]2C[C@H]3C[C@@H](C2)C[C@]1(n1ncc(N2CCN(c4ccc(F)cc4)CC2)c(Cl)c1=O)C3)c1ccc(-c2c3nc(c(-c4cc(S(=O)(=O)[O-])ccc4F)c4ccc([nH]4)c(-c4cc(S(=O)(=O)[O-])ccc4F)c4nc(c(-c5cc(S(=O)(=O)[O-])ccc5F)c5ccc2[nH]5)C=C4)C=C3)cc1
REMARK SMILES IDX 4 1 3 2 2 3 1 4 40 5 41 6 102 7 42 8 101 9 43 10 44 11 45 12
REMARK SMILES IDX 95 13 46 14 100 15 94 16 96 17 47 18 99 19 93 20 92 21 48 23
REMARK SMILES IDX 80 24 60 25 79 26 61 27 64 28 78 29 97 30 62 31 63 32 77 34
REMARK SMILES IDX 98 35 65 36 49 37 50 38 58 39 51 40 57 41 59 42 56 43 52 44
REMARK SMILES IDX 53 45 54 46 55 47 81 48 82 49 90 50 83 51 89 52 91 53 88 54
REMARK SMILES IDX 84 55 85 56 86 57 87 58 66 59 67 60 75 61 68 62 74 63 76 64
REMARK SMILES IDX 73 65 69 66 70 67 71 68 72 69 5 70 6 71 7 72 8 73 9 74 10 75
REMARK SMILES IDX 17 76 15 77 11 78 39 79 16 80 14 81 12 82 13 83 18 84 19 85
REMARK SMILES IDX 37 86 20 87 35 88 38 89 21 90 36 91 22 92 23 93 34 94 24 95
REMARK SMILES IDX 33 96 25 97 26 98 27 99 32 100 28 101 31 102 29 103 30 104
REMARK H PARENT 96 22 64 33
REMARK Flexibility Score: inf
ROOT
ATOM      1  C   UNL A   1      37.445  22.145  24.675  1.00  0.00     0.275 C 
ENDROOT
BRANCH   1   2
ATOM      2  O   UNL A   1      37.921  22.095  26.031  1.00  0.00    -0.458 OA
BRANCH   2   3
ATOM      3  C   UNL A   1      39.125  22.503  26.506  1.00  0.00     0.338 C 
ATOM      4  O   UNL A   1      39.968  21.663  26.818  1.00  0.00    -0.246 OA
BRANCH   3   5
ATOM      5  C   UNL A   1      39.412  23.930  26.841  1.00  0.00     0.060 A 
ATOM      6  C   UNL A   1      39.089  24.338  28.147  1.00  0.00     0.016 A 
ATOM      7  C   UNL A   1      40.039  24.851  25.999  1.00  0.00     0.016 A 
ATOM      8  C   UNL A   1      39.319  25.647  28.581  1.00  0.00     0.010 A 
ATOM      9  C   UNL A   1      40.268  26.164  26.425  1.00  0.00     0.010 A 
ATOM     10  C   UNL A   1      39.919  26.569  27.720  1.00  0.00    -0.014 A 
BRANCH  10  11
ATOM     11  C   UNL A   1      40.418  27.870  28.219  1.00  0.00     0.031 A 
ATOM     12  C   UNL A   1      39.510  28.996  28.586  1.00  0.00     0.074 A 
ATOM     13  C   UNL A   1      41.748  28.060  28.199  1.00  0.00     0.049 A 
ATOM     14  N   UNL A   1      39.804  30.144  29.135  1.00  0.00    -0.248 NA
ATOM     15  C   UNL A   1      38.082  28.811  28.314  1.00  0.00     0.031 C 
ATOM     16  C   UNL A   1      42.724  27.054  27.780  1.00  0.00     0.029 A 
ATOM     17  N   UNL A   1      42.497  29.174  28.466  1.00  0.00    -0.354 N 
ATOM     18  C   UNL A   1      38.591  30.779  29.364  1.00  0.00     0.074 A 
ATOM     19  C   UNL A   1      37.558  29.914  28.836  1.00  0.00     0.031 C 
ATOM     20  C   UNL A   1      43.937  27.618  27.749  1.00  0.00     0.029 A 
ATOM     21  C   UNL A   1      43.819  29.022  28.133  1.00  0.00     0.049 A 
ATOM     22  H   UNL A   1      42.126  29.998  28.856  1.00  0.00     0.167 HD
ATOM     23  C   UNL A   1      38.370  31.973  29.961  1.00  0.00     0.034 A 
ATOM     24  C   UNL A   1      44.821  29.923  28.103  1.00  0.00     0.034 A 
ATOM     25  C   UNL A   1      39.432  32.884  30.307  1.00  0.00     0.049 A 
ATOM     26  C   UNL A   1      44.556  31.310  28.611  1.00  0.00     0.074 A 
ATOM     27  C   UNL A   1      39.345  34.100  30.960  1.00  0.00     0.029 A 
ATOM     28  N   UNL A   1      40.763  32.719  29.944  1.00  0.00    -0.354 N 
ATOM     29  N   UNL A   1      43.431  31.814  29.065  1.00  0.00    -0.248 NA
ATOM     30  C   UNL A   1      45.686  32.244  28.634  1.00  0.00     0.031 C 
ATOM     31  C   UNL A   1      40.598  34.716  30.891  1.00  0.00     0.029 A 
ATOM     32  C   UNL A   1      41.490  33.849  30.274  1.00  0.00     0.049 A 
ATOM     33  H   UNL A   1      41.134  31.913  29.517  1.00  0.00     0.167 HD
ATOM     34  C   UNL A   1      43.719  33.120  29.445  1.00  0.00     0.074 A 
ATOM     35  C   UNL A   1      45.131  33.322  29.178  1.00  0.00     0.031 C 
ATOM     36  C   UNL A   1      42.890  34.056  29.975  1.00  0.00     0.034 A 
BRANCH  23  37
ATOM     37  C   UNL A   1      36.952  32.378  30.273  1.00  0.00     0.023 A 
ATOM     38  C   UNL A   1      36.177  33.072  29.326  1.00  0.00     0.031 A 
ATOM     39  C   UNL A   1      36.417  32.190  31.561  1.00  0.00     0.131 A 
ATOM     40  C   UNL A   1      34.918  33.570  29.689  1.00  0.00     0.055 A 
ATOM     41  C   UNL A   1      35.154  32.671  31.911  1.00  0.00     0.041 A 
ATOM     42  F   UNL A   1      37.118  31.537  32.503  1.00  0.00    -0.206 F 
ATOM     43  C   UNL A   1      34.402  33.374  30.974  1.00  0.00     0.022 A 
BRANCH  40  44
ATOM     44  S   UNL A   1      33.912  34.529  28.521  1.00  0.00     0.124 S 
ATOM     45  O   UNL A   1      34.209  33.861  27.256  1.00  0.00    -0.237 OA
ATOM     46  O   UNL A   1      32.562  34.318  29.036  1.00  0.00    -0.237 OA
ATOM     47  O   UNL A   1      34.433  35.886  28.643  1.00  0.00    -0.744 OA
ENDBRANCH  40  44
ENDBRANCH  23  37
BRANCH  24  48
ATOM     48  C   UNL A   1      46.148  29.453  27.619  1.00  0.00     0.023 A 
ATOM     49  C   UNL A   1      46.349  29.191  26.249  1.00  0.00     0.031 A 
ATOM     50  C   UNL A   1      47.124  29.028  28.531  1.00  0.00     0.131 A 
ATOM     51  C   UNL A   1      47.449  28.425  25.845  1.00  0.00     0.055 A 
ATOM     52  C   UNL A   1      48.256  28.326  28.113  1.00  0.00     0.041 A 
ATOM     53  F   UNL A   1      46.958  29.237  29.845  1.00  0.00    -0.206 F 
ATOM     54  C   UNL A   1      48.409  27.998  26.768  1.00  0.00     0.022 A 
BRANCH  51  55
ATOM     55  S   UNL A   1      47.569  27.798  24.144  1.00  0.00     0.124 S 
ATOM     56  O   UNL A   1      49.008  27.834  23.907  1.00  0.00    -0.237 OA
ATOM     57  O   UNL A   1      46.984  26.465  24.278  1.00  0.00    -0.237 OA
ATOM     58  O   UNL A   1      46.778  28.746  23.368  1.00  0.00    -0.744 OA
ENDBRANCH  51  55
ENDBRANCH  24  48
BRANCH  36  59
ATOM     59  C   UNL A   1      43.452  35.423  30.277  1.00  0.00     0.023 A 
ATOM     60  C   UNL A   1      43.820  35.759  31.593  1.00  0.00     0.031 A 
ATOM     61  C   UNL A   1      43.464  36.436  29.302  1.00  0.00     0.131 A 
ATOM     62  C   UNL A   1      44.126  37.087  31.913  1.00  0.00     0.055 A 
ATOM     63  C   UNL A   1      43.821  37.748  29.614  1.00  0.00     0.041 A 
ATOM     64  F   UNL A   1      43.115  36.164  28.034  1.00  0.00    -0.206 F 
ATOM     65  C   UNL A   1      44.137  38.082  30.929  1.00  0.00     0.022 A 
BRANCH  62  66
ATOM     66  S   UNL A   1      44.423  37.589  33.631  1.00  0.00     0.124 S 
ATOM     67  O   UNL A   1      45.765  38.161  33.551  1.00  0.00    -0.237 OA
ATOM     68  O   UNL A   1      43.347  38.549  33.860  1.00  0.00    -0.237 OA
ATOM     69  O   UNL A   1      44.323  36.343  34.383  1.00  0.00    -0.744 OA
ENDBRANCH  62  66
ENDBRANCH  36  59
ENDBRANCH  10  11
ENDBRANCH   3   5
ENDBRANCH   2   3
ENDBRANCH   1   2
BRANCH   1  70
ATOM     70  C   UNL A   1      35.964  21.819  24.519  1.00  0.00     0.274 C 
BRANCH  70  71
ATOM     71  O   UNL A   1      35.563  20.751  25.386  1.00  0.00    -0.462 OA
BRANCH  71  72
ATOM     72  C   UNL A   1      35.905  19.487  24.992  1.00  0.00     0.311 C 
ATOM     73  O   UNL A   1      37.022  19.004  25.113  1.00  0.00    -0.252 OA
BRANCH  72  74
ATOM     74  C   UNL A   1      34.762  18.881  24.183  1.00  0.00     0.130 C 
ATOM     75  C   UNL A   1      35.131  17.368  24.033  1.00  0.00     0.006 C 
ATOM     76  C   UNL A   1      33.277  19.023  24.671  1.00  0.00     0.081 C 
ATOM     77  C   UNL A   1      34.890  16.595  25.347  1.00  0.00     0.008 C 
ATOM     78  C   UNL A   1      34.250  16.721  22.961  1.00  0.00     0.008 C 
ATOM     79  C   UNL A   1      32.422  18.321  23.535  1.00  0.00     0.035 C 
ATOM     80  C   UNL A   1      33.063  18.198  25.967  1.00  0.00     0.035 C 
ATOM     81  C   UNL A   1      33.422  16.718  25.771  1.00  0.00    -0.008 C 
ATOM     82  C   UNL A   1      32.779  16.843  23.350  1.00  0.00    -0.008 C 
ATOM     83  C   UNL A   1      32.534  16.112  24.674  1.00  0.00     0.007 C 
BRANCH  76  84
ATOM     84  N   UNL A   1      32.723  20.418  24.904  1.00  0.00    -0.222 N 
ATOM     85  N   UNL A   1      32.730  20.830  26.227  1.00  0.00    -0.175 NA
ATOM     86  C   UNL A   1      32.476  21.325  23.871  1.00  0.00     0.288 A 
ATOM     87  C   UNL A   1      32.624  22.088  26.488  1.00  0.00     0.161 A 
ATOM     88  C   UNL A   1      32.350  22.767  24.253  1.00  0.00     0.132 A 
ATOM     89  O   UNL A   1      32.432  21.008  22.687  1.00  0.00    -0.266 OA
ATOM     90  C   UNL A   1      32.502  23.190  25.514  1.00  0.00     0.082 A 
ATOM     91  Cl  UNL A   1      32.204  23.899  22.943  1.00  0.00    -0.076 Cl
BRANCH  90  92
ATOM     92  N   UNL A   1      32.560  24.491  26.008  1.00  0.00    -0.365 N 
ATOM     93  C   UNL A   1      33.697  25.395  25.732  1.00  0.00     0.138 C 
ATOM     94  C   UNL A   1      31.498  25.089  26.842  1.00  0.00     0.138 C 
ATOM     95  C   UNL A   1      33.205  26.736  25.127  1.00  0.00     0.138 C 
ATOM     96  C   UNL A   1      31.025  26.444  26.275  1.00  0.00     0.138 C 
ATOM     97  N   UNL A   1      32.180  27.326  26.001  1.00  0.00    -0.368 N 
BRANCH  97  98
ATOM     98  C   UNL A   1      32.007  28.690  26.118  1.00  0.00     0.037 A 
ATOM     99  C   UNL A   1      31.245  29.370  25.153  1.00  0.00     0.029 A 
ATOM    100  C   UNL A   1      32.548  29.438  27.171  1.00  0.00     0.029 A 
ATOM    101  C   UNL A   1      31.024  30.746  25.233  1.00  0.00     0.041 A 
ATOM    102  C   UNL A   1      32.343  30.821  27.251  1.00  0.00     0.041 A 
ATOM    103  C   UNL A   1      31.579  31.460  26.282  1.00  0.00     0.123 A 
ATOM    104  F   UNL A   1      31.376  32.781  26.363  1.00  0.00    -0.207 F 
ENDBRANCH  97  98
ENDBRANCH  90  92
ENDBRANCH  76  84
ENDBRANCH  72  74
ENDBRANCH  71  72
ENDBRANCH  70  71
ENDBRANCH   1  70
TORSDOF 17
ENDMDL
MODEL 2
REMARK VINA RESULT:     -12.9      4.898     10.589
REMARK SMILES O=C(OCCOC(=O)[C@H]1[C@@H]2C[C@H]3C[C@@H](C2)C[C@]1(n1ncc(N2CCN(c4ccc(F)cc4)CC2)c(Cl)c1=O)C3)c1ccc(-c2c3nc(c(-c4cc(S(=O)(=O)[O-])ccc4F)c4ccc([nH]4)c(-c4cc(S(=O)(=O)[O-])ccc4F)c4nc(c(-c5cc(S(=O)(=O)[O-])ccc5F)c5ccc2[nH]5)C=C4)C=C3)cc1
REMARK SMILES IDX 4 1 3 2 2 3 1 4 40 5 41 6 102 7 42 8 101 9 43 10 44 11 45 12
REMARK SMILES IDX 95 13 46 14 100 15 94 16 96 17 47 18 99 19 93 20 92 21 48 23
REMARK SMILES IDX 80 24 60 25 79 26 61 27 64 28 78 29 97 30 62 31 63 32 77 34
REMARK SMILES IDX 98 35 65 36 49 37 50 38 58 39 51 40 57 41 59 42 56 43 52 44
REMARK SMILES IDX 53 45 54 46 55 47 81 48 82 49 90 50 83 51 89 52 91 53 88 54
REMARK SMILES IDX 84 55 85 56 86 57 87 58 66 59 67 60 75 61 68 62 74 63 76 64
REMARK SMILES IDX 73 65 69 66 70 67 71 68 72 69 5 70 6 71 7 72 8 73 9 74 10 75
REMARK SMILES IDX 17 76 15 77 11 78 39 79 16 80 14 81 12 82 13 83 18 84 19 85
REMARK SMILES IDX 37 86 20 87 35 88 38 89 21 90 36 91 22 92 23 93 34 94 24 95
REMARK SMILES IDX 33 96 25 97 26 98 27 99 32 100 28 101 31 102 29 103 30 104
REMARK H PARENT 96 22 64 33
REMARK Flexibility Score: inf
ROOT
ATOM      1  C   UNL A   1      32.904  31.792  27.136  1.00  0.00     0.275 C 
ENDROOT
BRANCH   1   2
ATOM      2  O   UNL A   1      32.513  33.143  27.434  1.00  0.00    -0.458 OA
BRANCH   2   3
ATOM      3  C   UNL A   1      33.087  34.000  28.315  1.00  0.00     0.338 C 
ATOM      4  O   UNL A   1      32.648  35.145  28.418  1.00  0.00    -0.246 OA
BRANCH   3   5
ATOM      5  C   UNL A   1      34.350  33.675  29.043  1.00  0.00     0.060 A 
ATOM      6  C   UNL A   1      34.221  32.849  30.173  1.00  0.00     0.016 A 
ATOM      7  C   UNL A   1      35.634  34.059  28.651  1.00  0.00     0.016 A 
ATOM      8  C   UNL A   1      35.333  32.469  30.931  1.00  0.00     0.010 A 
ATOM      9  C   UNL A   1      36.751  33.687  29.408  1.00  0.00     0.010 A 
ATOM     10  C   UNL A   1      36.610  32.884  30.546  1.00  0.00    -0.014 A 
BRANCH  10  11
ATOM     11  C   UNL A   1      37.823  32.294  31.156  1.00  0.00     0.031 A 
ATOM     12  C   UNL A   1      38.458  31.045  30.643  1.00  0.00     0.074 A 
ATOM     13  C   UNL A   1      38.265  32.851  32.296  1.00  0.00     0.049 A 
ATOM     14  N   UNL A   1      39.576  30.480  31.010  1.00  0.00    -0.248 NA
ATOM     15  C   UNL A   1      37.755  30.338  29.568  1.00  0.00     0.031 C 
ATOM     16  C   UNL A   1      37.668  34.026  32.931  1.00  0.00     0.029 A 
ATOM     17  N   UNL A   1      39.260  32.466  33.154  1.00  0.00    -0.354 N 
ATOM     18  C   UNL A   1      39.762  29.407  30.149  1.00  0.00     0.074 A 
ATOM     19  C   UNL A   1      38.607  29.361  29.279  1.00  0.00     0.031 C 
ATOM     20  C   UNL A   1      38.262  34.225  34.113  1.00  0.00     0.029 A 
ATOM     21  C   UNL A   1      39.268  33.186  34.321  1.00  0.00     0.049 A 
ATOM     22  H   UNL A   1      39.901  31.747  32.953  1.00  0.00     0.167 HD
ATOM     23  C   UNL A   1      40.805  28.546  30.097  1.00  0.00     0.034 A 
ATOM     24  C   UNL A   1      39.980  33.009  35.451  1.00  0.00     0.034 A 
ATOM     25  C   UNL A   1      41.844  28.512  31.095  1.00  0.00     0.049 A 
ATOM     26  C   UNL A   1      41.037  31.945  35.475  1.00  0.00     0.074 A 
ATOM     27  C   UNL A   1      42.979  27.724  31.131  1.00  0.00     0.029 A 
ATOM     28  N   UNL A   1      41.823  29.238  32.280  1.00  0.00    -0.354 N 
ATOM     29  N   UNL A   1      41.362  31.093  34.529  1.00  0.00    -0.248 NA
ATOM     30  C   UNL A   1      41.844  31.825  36.693  1.00  0.00     0.031 C 
ATOM     31  C   UNL A   1      43.580  27.890  32.382  1.00  0.00     0.029 A 
ATOM     32  C   UNL A   1      42.872  28.848  33.094  1.00  0.00     0.049 A 
ATOM     33  H   UNL A   1      41.161  29.930  32.505  1.00  0.00     0.167 HD
ATOM     34  C   UNL A   1      42.424  30.347  35.029  1.00  0.00     0.074 A 
ATOM     35  C   UNL A   1      42.693  30.859  36.360  1.00  0.00     0.031 C 
ATOM     36  C   UNL A   1      43.114  29.341  34.433  1.00  0.00     0.034 A 
BRANCH  23  37
ATOM     37  C   UNL A   1      40.884  27.569  28.951  1.00  0.00     0.023 A 
ATOM     38  C   UNL A   1      41.802  27.763  27.902  1.00  0.00     0.031 A 
ATOM     39  C   UNL A   1      39.956  26.517  28.837  1.00  0.00     0.131 A 
ATOM     40  C   UNL A   1      41.756  26.931  26.776  1.00  0.00     0.055 A 
ATOM     41  C   UNL A   1      39.929  25.679  27.720  1.00  0.00     0.041 A 
ATOM     42  F   UNL A   1      39.057  26.292  29.808  1.00  0.00    -0.206 F 
ATOM     43  C   UNL A   1      40.827  25.890  26.679  1.00  0.00     0.022 A 
BRANCH  40  44
ATOM     44  S   UNL A   1      42.875  27.187  25.370  1.00  0.00     0.124 S 
ATOM     45  O   UNL A   1      42.233  28.304  24.679  1.00  0.00    -0.237 OA
ATOM     46  O   UNL A   1      44.134  27.508  26.036  1.00  0.00    -0.237 OA
ATOM     47  O   UNL A   1      42.840  25.915  24.658  1.00  0.00    -0.744 OA
ENDBRANCH  40  44
ENDBRANCH  23  37
BRANCH  24  48
ATOM     48  C   UNL A   1      39.702  33.931  36.585  1.00  0.00     0.023 A 
ATOM     49  C   UNL A   1      40.592  34.986  36.873  1.00  0.00     0.031 A 
ATOM     50  C   UNL A   1      38.709  33.621  37.524  1.00  0.00     0.131 A 
ATOM     51  C   UNL A   1      40.535  35.619  38.121  1.00  0.00     0.055 A 
ATOM     52  C   UNL A   1      38.612  34.304  38.738  1.00  0.00     0.041 A 
ATOM     53  F   UNL A   1      37.857  32.609  37.298  1.00  0.00    -0.206 F 
ATOM     54  C   UNL A   1      39.545  35.290  39.052  1.00  0.00     0.022 A 
BRANCH  51  55
ATOM     55  S   UNL A   1      41.856  36.749  38.650  1.00  0.00     0.124 S 
ATOM     56  O   UNL A   1      42.538  37.029  37.392  1.00  0.00    -0.237 OA
ATOM     57  O   UNL A   1      41.088  37.858  39.213  1.00  0.00    -0.237 OA
ATOM     58  O   UNL A   1      42.616  35.966  39.619  1.00  0.00    -0.744 OA
ENDBRANCH  51  55
ENDBRANCH  24  48
BRANCH  36  59
ATOM     59  C   UNL A   1      44.218  28.669  35.212  1.00  0.00     0.023 A 
ATOM     60  C   UNL A   1      43.924  27.580  36.054  1.00  0.00     0.031 A 
ATOM     61  C   UNL A   1      45.515  29.209  35.248  1.00  0.00     0.131 A 
ATOM     62  C   UNL A   1      44.897  27.104  36.941  1.00  0.00     0.055 A 
ATOM     63  C   UNL A   1      46.498  28.696  36.095  1.00  0.00     0.041 A 
ATOM     64  F   UNL A   1      45.841  30.251  34.466  1.00  0.00    -0.206 F 
ATOM     65  C   UNL A   1      46.185  27.650  36.960  1.00  0.00     0.022 A 
BRANCH  62  66
ATOM     66  S   UNL A   1      44.497  25.828  38.168  1.00  0.00     0.124 S 
ATOM     67  O   UNL A   1      45.746  25.732  38.921  1.00  0.00    -0.237 OA
ATOM     68  O   UNL A   1      43.379  26.433  38.886  1.00  0.00    -0.237 OA
ATOM     69  O   UNL A   1      44.166  24.658  37.363  1.00  0.00    -0.744 OA
ENDBRANCH  62  66
ENDBRANCH  36  59
ENDBRANCH  10  11
ENDBRANCH   3   5
ENDBRANCH   2   3
ENDBRANCH   1   2
BRANCH   1  70
ATOM     70  C   UNL A   1      31.739  30.849  26.855  1.00  0.00     0.274 C 
BRANCH  70  71
ATOM     71  O   UNL A   1      31.167  31.087  25.563  1.00  0.00    -0.462 OA
BRANCH  71  72
ATOM     72  C   UNL A   1      31.192  30.038  24.685  1.00  0.00     0.311 C 
ATOM     73  O   UNL A   1      32.213  29.539  24.233  1.00  0.00    -0.252 OA
BRANCH  72  74
ATOM     74  C   UNL A   1      29.776  29.756  24.191  1.00  0.00     0.130 C 
ATOM     75  C   UNL A   1      29.116  31.166  24.031  1.00  0.00     0.006 C 
ATOM     76  C   UNL A   1      29.537  28.904  22.895  1.00  0.00     0.081 C 
ATOM     77  C   UNL A   1      29.636  31.893  22.772  1.00  0.00     0.008 C 
ATOM     78  C   UNL A   1      27.601  31.016  23.874  1.00  0.00     0.008 C 
ATOM     79  C   UNL A   1      27.960  28.803  22.777  1.00  0.00     0.035 C 
ATOM     80  C   UNL A   1      30.031  29.685  21.649  1.00  0.00     0.035 C 
ATOM     81  C   UNL A   1      29.347  31.054  21.522  1.00  0.00    -0.008 C 
ATOM     82  C   UNL A   1      27.285  30.171  22.643  1.00  0.00    -0.008 C 
ATOM     83  C   UNL A   1      27.829  30.863  21.389  1.00  0.00     0.007 C 
BRANCH  76  84
ATOM     84  N   UNL A   1      30.121  27.503  22.834  1.00  0.00    -0.222 N 
ATOM     85  N   UNL A   1      31.047  27.305  21.822  1.00  0.00    -0.175 NA
ATOM     86  C   UNL A   1      29.960  26.563  23.855  1.00  0.00     0.288 A 
ATOM     87  C   UNL A   1      31.847  26.297  21.899  1.00  0.00     0.161 A 
ATOM     88  C   UNL A   1      30.916  25.411  23.870  1.00  0.00     0.132 A 
ATOM     89  O   UNL A   1      29.138  26.676  24.757  1.00  0.00    -0.266 OA
ATOM     90  C   UNL A   1      31.908  25.291  22.979  1.00  0.00     0.082 A 
ATOM     91  Cl  UNL A   1      30.808  24.340  25.233  1.00  0.00    -0.076 Cl
BRANCH  90  92
ATOM     92  N   UNL A   1      32.956  24.375  22.941  1.00  0.00    -0.365 N 
ATOM     93  C   UNL A   1      34.368  24.775  23.121  1.00  0.00     0.138 C 
ATOM     94  C   UNL A   1      32.759  22.927  22.727  1.00  0.00     0.138 C 
ATOM     95  C   UNL A   1      35.038  23.951  24.250  1.00  0.00     0.138 C 
ATOM     96  C   UNL A   1      33.454  22.090  23.821  1.00  0.00     0.138 C 
ATOM     97  N   UNL A   1      34.861  22.515  23.987  1.00  0.00    -0.368 N 
BRANCH  97  98
ATOM     98  C   UNL A   1      35.790  21.573  24.379  1.00  0.00     0.037 A 
ATOM     99  C   UNL A   1      35.372  20.252  24.608  1.00  0.00     0.029 A 
ATOM    100  C   UNL A   1      37.149  21.868  24.548  1.00  0.00     0.029 A 
ATOM    101  C   UNL A   1      36.273  19.256  24.989  1.00  0.00     0.041 A 
ATOM    102  C   UNL A   1      38.056  20.879  24.944  1.00  0.00     0.041 A 
ATOM    103  C   UNL A   1      37.608  19.581  25.157  1.00  0.00     0.123 A 
ATOM    104  F   UNL A   1      38.478  18.631  25.527  1.00  0.00    -0.207 F 
ENDBRANCH  97  98
ENDBRANCH  90  92
ENDBRANCH  76  84
ENDBRANCH  72  74
ENDBRANCH  71  72
ENDBRANCH  70  71
ENDBRANCH   1  70
TORSDOF 17
ENDMDL
MODEL 3
REMARK VINA RESULT:     -12.9      4.975     10.680
REMARK SMILES O=C(OCCOC(=O)[C@H]1[C@@H]2C[C@H]3C[C@@H](C2)C[C@]1(n1ncc(N2CCN(c4ccc(F)cc4)CC2)c(Cl)c1=O)C3)c1ccc(-c2c3nc(c(-c4cc(S(=O)(=O)[O-])ccc4F)c4ccc([nH]4)c(-c4cc(S(=O)(=O)[O-])ccc4F)c4nc(c(-c5cc(S(=O)(=O)[O-])ccc5F)c5ccc2[nH]5)C=C4)C=C3)cc1
REMARK SMILES IDX 4 1 3 2 2 3 1 4 40 5 41 6 102 7 42 8 101 9 43 10 44 11 45 12
REMARK SMILES IDX 95 13 46 14 100 15 94 16 96 17 47 18 99 19 93 20 92 21 48 23
REMARK SMILES IDX 80 24 60 25 79 26 61 27 64 28 78 29 97 30 62 31 63 32 77 34
REMARK SMILES IDX 98 35 65 36 49 37 50 38 58 39 51 40 57 41 59 42 56 43 52 44
REMARK SMILES IDX 53 45 54 46 55 47 81 48 82 49 90 50 83 51 89 52 91 53 88 54
REMARK SMILES IDX 84 55 85 56 86 57 87 58 66 59 67 60 75 61 68 62 74 63 76 64
REMARK SMILES IDX 73 65 69 66 70 67 71 68 72 69 5 70 6 71 7 72 8 73 9 74 10 75
REMARK SMILES IDX 17 76 15 77 11 78 39 79 16 80 14 81 12 82 13 83 18 84 19 85
REMARK SMILES IDX 37 86 20 87 35 88 38 89 21 90 36 91 22 92 23 93 34 94 24 95
REMARK SMILES IDX 33 96 25 97 26 98 27 99 32 100 28 101 31 102 29 103 30 104
REMARK H PARENT 96 22 64 33
REMARK Flexibility Score: inf
ROOT
ATOM      1  C   UNL A   1      32.988  31.767  26.925  1.00  0.00     0.275 C 
ENDROOT
BRANCH   1   2
ATOM      2  O   UNL A   1      32.698  33.116  27.329  1.00  0.00    -0.458 OA
BRANCH   2   3
ATOM      3  C   UNL A   1      33.271  33.826  28.333  1.00  0.00     0.338 C 
ATOM      4  O   UNL A   1      32.815  34.930  28.630  1.00  0.00    -0.246 OA
BRANCH   3   5
ATOM      5  C   UNL A   1      34.549  33.409  28.983  1.00  0.00     0.060 A 
ATOM      6  C   UNL A   1      34.431  32.581  30.112  1.00  0.00     0.016 A 
ATOM      7  C   UNL A   1      35.831  33.708  28.517  1.00  0.00     0.016 A 
ATOM      8  C   UNL A   1      35.557  32.118  30.801  1.00  0.00     0.010 A 
ATOM      9  C   UNL A   1      36.963  33.253  29.203  1.00  0.00     0.010 A 
ATOM     10  C   UNL A   1      36.834  32.449  30.343  1.00  0.00    -0.014 A 
BRANCH  10  11
ATOM     11  C   UNL A   1      38.037  31.771  30.876  1.00  0.00     0.031 A 
ATOM     12  C   UNL A   1      38.659  30.588  30.210  1.00  0.00     0.074 A 
ATOM     13  C   UNL A   1      38.483  32.174  32.078  1.00  0.00     0.049 A 
ATOM     14  N   UNL A   1      39.769  29.967  30.505  1.00  0.00    -0.248 NA
ATOM     15  C   UNL A   1      37.951  30.032  29.054  1.00  0.00     0.031 C 
ATOM     16  C   UNL A   1      37.899  33.268  32.854  1.00  0.00     0.029 A 
ATOM     17  N   UNL A   1      39.470  31.672  32.882  1.00  0.00    -0.354 N 
ATOM     18  C   UNL A   1      39.944  29.009  29.516  1.00  0.00     0.074 A 
ATOM     19  C   UNL A   1      38.791  29.088  28.646  1.00  0.00     0.031 C 
ATOM     20  C   UNL A   1      38.491  33.309  34.053  1.00  0.00     0.029 A 
ATOM     21  C   UNL A   1      39.483  32.239  34.130  1.00  0.00     0.049 A 
ATOM     22  H   UNL A   1      40.103  30.976  32.594  1.00  0.00     0.167 HD
ATOM     23  C   UNL A   1      40.976  28.148  29.359  1.00  0.00     0.034 A 
ATOM     24  C   UNL A   1      40.189  31.912  35.230  1.00  0.00     0.034 A 
ATOM     25  C   UNL A   1      42.011  27.975  30.346  1.00  0.00     0.049 A 
ATOM     26  C   UNL A   1      41.233  30.840  35.122  1.00  0.00     0.074 A 
ATOM     27  C   UNL A   1      43.136  27.174  30.284  1.00  0.00     0.029 A 
ATOM     28  N   UNL A   1      41.996  28.547  31.612  1.00  0.00    -0.354 N 
ATOM     29  N   UNL A   1      41.551  30.109  34.077  1.00  0.00    -0.248 NA
ATOM     30  C   UNL A   1      42.035  30.558  36.317  1.00  0.00     0.031 C 
ATOM     31  C   UNL A   1      43.735  27.175  31.547  1.00  0.00     0.029 A 
ATOM     32  C   UNL A   1      43.037  28.044  32.373  1.00  0.00     0.049 A 
ATOM     33  H   UNL A   1      41.341  29.214  31.922  1.00  0.00     0.167 HD
ATOM     34  C   UNL A   1      42.602  29.293  34.480  1.00  0.00     0.074 A 
ATOM     35  C   UNL A   1      42.872  29.630  35.865  1.00  0.00     0.031 C 
ATOM     36  C   UNL A   1      43.281  28.361  33.764  1.00  0.00     0.034 A 
BRANCH  23  37
ATOM     37  C   UNL A   1      41.047  27.322  28.099  1.00  0.00     0.023 A 
ATOM     38  C   UNL A   1      40.823  25.934  28.134  1.00  0.00     0.031 A 
ATOM     39  C   UNL A   1      41.467  27.898  26.885  1.00  0.00     0.131 A 
ATOM     40  C   UNL A   1      41.041  25.165  26.983  1.00  0.00     0.055 A 
ATOM     41  C   UNL A   1      41.664  27.129  25.736  1.00  0.00     0.041 A 
ATOM     42  F   UNL A   1      41.699  29.218  26.799  1.00  0.00    -0.206 F 
ATOM     43  C   UNL A   1      41.460  25.753  25.785  1.00  0.00     0.022 A 
BRANCH  40  44
ATOM     44  S   UNL A   1      40.830  23.363  27.001  1.00  0.00     0.124 S 
ATOM     45  O   UNL A   1      39.392  23.230  26.772  1.00  0.00    -0.237 OA
ATOM     46  O   UNL A   1      41.679  22.944  25.889  1.00  0.00    -0.237 OA
ATOM     47  O   UNL A   1      41.285  22.970  28.329  1.00  0.00    -0.744 OA
ENDBRANCH  40  44
ENDBRANCH  23  37
BRANCH  24  48
ATOM     48  C   UNL A   1      39.920  32.688  36.471  1.00  0.00     0.023 A 
ATOM     49  C   UNL A   1      39.020  32.191  37.436  1.00  0.00     0.031 A 
ATOM     50  C   UNL A   1      40.350  34.018  36.583  1.00  0.00     0.131 A 
ATOM     51  C   UNL A   1      38.497  33.055  38.406  1.00  0.00     0.055 A 
ATOM     52  C   UNL A   1      39.880  34.855  37.595  1.00  0.00     0.041 A 
ATOM     53  F   UNL A   1      41.188  34.535  35.671  1.00  0.00    -0.206 F 
ATOM     54  C   UNL A   1      38.928  34.382  38.497  1.00  0.00     0.022 A 
BRANCH  51  55
ATOM     55  S   UNL A   1      37.106  32.541  39.454  1.00  0.00     0.124 S 
ATOM     56  O   UNL A   1      37.194  33.485  40.562  1.00  0.00    -0.237 OA
ATOM     57  O   UNL A   1      35.971  32.728  38.553  1.00  0.00    -0.237 OA
ATOM     58  O   UNL A   1      37.414  31.153  39.783  1.00  0.00    -0.744 OA
ENDBRANCH  51  55
ENDBRANCH  24  48
BRANCH  36  59
ATOM     59  C   UNL A   1      44.373  27.582  34.454  1.00  0.00     0.023 A 
ATOM     60  C   UNL A   1      45.702  28.044  34.413  1.00  0.00     0.031 A 
ATOM     61  C   UNL A   1      44.126  26.311  35.000  1.00  0.00     0.131 A 
ATOM     62  C   UNL A   1      46.741  27.217  34.854  1.00  0.00     0.055 A 
ATOM     63  C   UNL A   1      45.159  25.511  35.487  1.00  0.00     0.041 A 
ATOM     64  F   UNL A   1      42.875  25.825  35.055  1.00  0.00    -0.206 F 
ATOM     65  C   UNL A   1      46.476  25.956  35.399  1.00  0.00     0.022 A 
BRANCH  62  66
ATOM     66  S   UNL A   1      48.476  27.704  34.645  1.00  0.00     0.124 S 
ATOM     67  O   UNL A   1      48.751  28.390  35.906  1.00  0.00    -0.237 OA
ATOM     68  O   UNL A   1      49.139  26.414  34.477  1.00  0.00    -0.237 OA
ATOM     69  O   UNL A   1      48.460  28.560  33.464  1.00  0.00    -0.744 OA
ENDBRANCH  62  66
ENDBRANCH  36  59
ENDBRANCH  10  11
ENDBRANCH   3   5
ENDBRANCH   2   3
ENDBRANCH   1   2
BRANCH   1  70
ATOM     70  C   UNL A   1      31.761  30.872  26.801  1.00  0.00     0.274 C 
BRANCH  70  71
ATOM     71  O   UNL A   1      31.074  31.087  25.562  1.00  0.00    -0.462 OA
BRANCH  71  72
ATOM     72  C   UNL A   1      31.115  30.060  24.658  1.00  0.00     0.311 C 
ATOM     73  O   UNL A   1      32.144  29.575  24.209  1.00  0.00    -0.252 OA
BRANCH  72  74
ATOM     74  C   UNL A   1      29.707  29.788  24.135  1.00  0.00     0.130 C 
ATOM     75  C   UNL A   1      29.050  31.200  23.991  1.00  0.00     0.006 C 
ATOM     76  C   UNL A   1      29.491  28.961  22.819  1.00  0.00     0.081 C 
ATOM     77  C   UNL A   1      29.590  31.951  22.755  1.00  0.00     0.008 C 
ATOM     78  C   UNL A   1      27.537  31.054  23.806  1.00  0.00     0.008 C 
ATOM     79  C   UNL A   1      27.916  28.861  22.673  1.00  0.00     0.035 C 
ATOM     80  C   UNL A   1      30.005  29.766  21.596  1.00  0.00     0.035 C 
ATOM     81  C   UNL A   1      29.323  31.136  21.485  1.00  0.00    -0.008 C 
ATOM     82  C   UNL A   1      27.242  30.232  22.554  1.00  0.00    -0.008 C 
ATOM     83  C   UNL A   1      27.807  30.948  21.323  1.00  0.00     0.007 C 
BRANCH  76  84
ATOM     84  N   UNL A   1      30.076  27.562  22.741  1.00  0.00    -0.222 N 
ATOM     85  N   UNL A   1      31.037  27.389  21.757  1.00  0.00    -0.175 NA
ATOM     86  C   UNL A   1      29.880  26.594  23.730  1.00  0.00     0.288 A 
ATOM     87  C   UNL A   1      31.833  26.379  21.834  1.00  0.00     0.161 A 
ATOM     88  C   UNL A   1      30.835  25.441  23.747  1.00  0.00     0.132 A 
ATOM     89  O   UNL A   1      29.027  26.684  24.606  1.00  0.00    -0.266 OA
ATOM     90  C   UNL A   1      31.857  25.345  22.888  1.00  0.00     0.082 A 
ATOM     91  Cl  UNL A   1      30.680  24.335  25.077  1.00  0.00    -0.076 Cl
BRANCH  90  92
ATOM     92  N   UNL A   1      32.906  24.429  22.862  1.00  0.00    -0.365 N 
ATOM     93  C   UNL A   1      34.308  24.819  23.122  1.00  0.00     0.138 C 
ATOM     94  C   UNL A   1      32.718  22.990  22.583  1.00  0.00     0.138 C 
ATOM     95  C   UNL A   1      34.927  23.950  24.247  1.00  0.00     0.138 C 
ATOM     96  C   UNL A   1      33.364  22.110  23.674  1.00  0.00     0.138 C 
ATOM     97  N   UNL A   1      34.761  22.526  23.920  1.00  0.00    -0.368 N 
BRANCH  97  98
ATOM     98  C   UNL A   1      35.671  21.568  24.317  1.00  0.00     0.037 A 
ATOM     99  C   UNL A   1      35.211  20.288  24.669  1.00  0.00     0.029 A 
ATOM    100  C   UNL A   1      37.051  21.805  24.372  1.00  0.00     0.029 A 
ATOM    101  C   UNL A   1      36.089  19.277  25.061  1.00  0.00     0.041 A 
ATOM    102  C   UNL A   1      37.938  20.800  24.778  1.00  0.00     0.041 A 
ATOM    103  C   UNL A   1      37.447  19.545  25.115  1.00  0.00     0.123 A 
ATOM    104  F   UNL A   1      38.296  18.581  25.494  1.00  0.00    -0.207 F 
ENDBRANCH  97  98
ENDBRANCH  90  92
ENDBRANCH  76  84
ENDBRANCH  72  74
ENDBRANCH  71  72
ENDBRANCH  70  71
ENDBRANCH   1  70
TORSDOF 17
ENDMDL
