MODEL 1
REMARK VINA RESULT:     -10.2      0.000      0.000
REMARK SMILES O=C(COCCNS(=O)(=O)c1ccccc1)OCCOC(=O)c1ccc(-c2c3nc(c(-c4cc(S(=O)(=O)[O-])ccc4F)c4ccc([nH]4)c(-c4cc(S(=O)(=O)[O-])ccc4F)c4nc(c(-c5cc(S(=O)(=O)[O-])ccc5F)c5ccc2[nH]5)C=C4)C=C3)cc1
REMARK SMILES IDX 17 1 2 2 1 3 3 4 4 5 5 6 6 7 7 8 8 10 9 11 10 12 11 13 12 14
REMARK SMILES IDX 16 15 13 16 15 17 14 18 18 19 19 20 20 21 21 22 22 23 23 24
REMARK SMILES IDX 24 25 85 26 25 27 84 28 26 29 27 30 28 31 78 32 29 33 83 34
REMARK SMILES IDX 77 35 79 36 30 37 82 38 76 39 75 40 31 42 63 43 43 44 62 45
REMARK SMILES IDX 44 46 47 47 61 48 80 49 45 50 46 51 60 53 81 54 48 55 32 56
REMARK SMILES IDX 33 57 41 58 34 59 40 60 42 61 39 62 35 63 36 64 37 65 38 66
REMARK SMILES IDX 64 67 65 68 73 69 66 70 72 71 74 72 71 73 67 74 68 75 69 76
REMARK SMILES IDX 70 77 49 78 50 79 58 80 51 81 57 82 59 83 56 84 52 85 53 86
REMARK SMILES IDX 54 87 55 88
REMARK H PARENT 7 9 79 41 47 52
REMARK Flexibility Score: inf
ROOT
ATOM      1  O   UNL A   1      30.644  27.983  23.875  1.00  0.00    -0.460 OA
ENDROOT
BRANCH   1   2
ATOM      2  C   UNL A   1      30.663  27.712  22.549  1.00  0.00     0.332 C 
ATOM      3  O   UNL A   1      30.282  28.573  21.758  1.00  0.00    -0.250 OA
BRANCH   2   4
ATOM      4  C   UNL A   1      31.161  26.337  22.067  1.00  0.00     0.282 C 
BRANCH   4   5
ATOM      5  O   UNL A   1      32.459  25.901  22.420  1.00  0.00    -0.368 OA
BRANCH   5   6
ATOM      6  C   UNL A   1      32.535  24.945  23.482  1.00  0.00     0.177 C 
BRANCH   6   7
ATOM      7  C   UNL A   1      31.434  25.067  24.554  1.00  0.00     0.127 C 
BRANCH   7   8
ATOM      8  N   UNL A   1      30.792  23.751  24.777  1.00  0.00    -0.209 NA
ATOM      9  H   UNL A   1      31.049  23.159  23.987  1.00  0.00     0.141 HD
BRANCH   8  10
ATOM     10  S   UNL A   1      31.135  22.873  26.177  1.00  0.00     0.240 S 
ATOM     11  O   UNL A   1      31.269  23.844  27.236  1.00  0.00    -0.207 OA
ATOM     12  O   UNL A   1      30.137  21.831  26.249  1.00  0.00    -0.207 OA
BRANCH  10  13
ATOM     13  C   UNL A   1      32.707  22.151  25.880  1.00  0.00     0.082 A 
ATOM     14  C   UNL A   1      33.856  22.825  26.305  1.00  0.00     0.022 A 
ATOM     15  C   UNL A   1      32.783  20.896  25.277  1.00  0.00     0.022 A 
ATOM     16  C   UNL A   1      35.102  22.251  26.084  1.00  0.00     0.001 A 
ATOM     17  C   UNL A   1      34.034  20.321  25.073  1.00  0.00     0.001 A 
ATOM     18  C   UNL A   1      35.190  21.001  25.470  1.00  0.00     0.000 A 
ENDBRANCH  10  13
ENDBRANCH   8  10
ENDBRANCH   7   8
ENDBRANCH   6   7
ENDBRANCH   5   6
ENDBRANCH   4   5
ENDBRANCH   2   4
ENDBRANCH   1   2
BRANCH   1  19
ATOM     19  C   UNL A   1      30.923  29.266  24.461  1.00  0.00     0.274 C 
BRANCH  19  20
ATOM     20  C   UNL A   1      31.855  29.140  25.669  1.00  0.00     0.275 C 
BRANCH  20  21
ATOM     21  O   UNL A   1      32.916  30.117  25.635  1.00  0.00    -0.458 OA
BRANCH  21  22
ATOM     22  C   UNL A   1      32.911  31.050  26.628  1.00  0.00     0.338 C 
ATOM     23  O   UNL A   1      32.005  31.824  26.876  1.00  0.00    -0.246 OA
BRANCH  22  24
ATOM     24  C   UNL A   1      34.109  30.865  27.488  1.00  0.00     0.060 A 
ATOM     25  C   UNL A   1      34.431  29.573  27.917  1.00  0.00     0.016 A 
ATOM     26  C   UNL A   1      34.944  31.933  27.839  1.00  0.00     0.016 A 
ATOM     27  C   UNL A   1      35.601  29.347  28.654  1.00  0.00     0.010 A 
ATOM     28  C   UNL A   1      36.114  31.701  28.582  1.00  0.00     0.010 A 
ATOM     29  C   UNL A   1      36.468  30.401  28.979  1.00  0.00    -0.014 A 
BRANCH  29  30
ATOM     30  C   UNL A   1      37.702  30.149  29.781  1.00  0.00     0.031 A 
ATOM     31  C   UNL A   1      38.789  29.280  29.211  1.00  0.00     0.074 A 
ATOM     32  C   UNL A   1      37.876  30.705  30.999  1.00  0.00     0.049 A 
ATOM     33  N   UNL A   1      39.905  28.880  29.764  1.00  0.00    -0.248 NA
ATOM     34  C   UNL A   1      38.584  28.787  27.841  1.00  0.00     0.031 C 
ATOM     35  C   UNL A   1      36.943  31.633  31.637  1.00  0.00     0.029 A 
ATOM     36  N   UNL A   1      38.904  30.599  31.910  1.00  0.00    -0.354 N 
ATOM     37  C   UNL A   1      40.525  28.068  28.823  1.00  0.00     0.074 A 
ATOM     38  C   UNL A   1      39.669  28.048  27.655  1.00  0.00     0.031 C 
ATOM     39  C   UNL A   1      37.461  32.043  32.807  1.00  0.00     0.029 A 
ATOM     40  C   UNL A   1      38.719  31.342  33.058  1.00  0.00     0.049 A 
ATOM     41  H   UNL A   1      39.701  30.041  31.755  1.00  0.00     0.167 HD
ATOM     42  C   UNL A   1      41.684  27.376  28.935  1.00  0.00     0.034 A 
ATOM     43  C   UNL A   1      39.453  31.420  34.193  1.00  0.00     0.034 A 
ATOM     44  C   UNL A   1      42.529  27.385  30.105  1.00  0.00     0.049 A 
ATOM     45  C   UNL A   1      40.699  30.562  34.317  1.00  0.00     0.074 A 
ATOM     46  C   UNL A   1      43.724  26.713  30.302  1.00  0.00     0.029 A 
ATOM     47  N   UNL A   1      42.263  28.074  31.280  1.00  0.00    -0.354 N 
ATOM     48  N   UNL A   1      41.269  29.792  33.418  1.00  0.00    -0.248 NA
ATOM     49  C   UNL A   1      41.387  30.560  35.619  1.00  0.00     0.031 C 
ATOM     50  C   UNL A   1      44.125  26.912  31.625  1.00  0.00     0.029 A 
ATOM     51  C   UNL A   1      43.238  27.790  32.225  1.00  0.00     0.049 A 
ATOM     52  H   UNL A   1      41.496  28.674  31.421  1.00  0.00     0.167 HD
ATOM     53  C   UNL A   1      42.379  29.228  34.046  1.00  0.00     0.074 A 
ATOM     54  C   UNL A   1      42.425  29.772  35.384  1.00  0.00     0.031 C 
ATOM     55  C   UNL A   1      43.273  28.328  33.564  1.00  0.00     0.034 A 
BRANCH  42  56
ATOM     56  C   UNL A   1      42.058  26.453  27.804  1.00  0.00     0.023 A 
ATOM     57  C   UNL A   1      41.600  25.128  27.727  1.00  0.00     0.031 A 
ATOM     58  C   UNL A   1      42.889  26.931  26.774  1.00  0.00     0.131 A 
ATOM     59  C   UNL A   1      42.011  24.314  26.660  1.00  0.00     0.055 A 
ATOM     60  C   UNL A   1      43.235  26.139  25.680  1.00  0.00     0.041 A 
ATOM     61  F   UNL A   1      43.379  28.180  26.815  1.00  0.00    -0.206 F 
ATOM     62  C   UNL A   1      42.802  24.819  25.623  1.00  0.00     0.022 A 
BRANCH  59  63
ATOM     63  S   UNL A   1      41.592  22.549  26.696  1.00  0.00     0.124 S 
ATOM     64  O   UNL A   1      40.145  22.594  26.890  1.00  0.00    -0.237 OA
ATOM     65  O   UNL A   1      42.049  22.089  25.391  1.00  0.00    -0.237 OA
ATOM     66  O   UNL A   1      42.351  22.041  27.837  1.00  0.00    -0.744 OA
ENDBRANCH  59  63
ENDBRANCH  42  56
BRANCH  43  67
ATOM     67  C   UNL A   1      38.997  32.236  35.369  1.00  0.00     0.023 A 
ATOM     68  C   UNL A   1      39.438  33.557  35.568  1.00  0.00     0.031 A 
ATOM     69  C   UNL A   1      38.220  31.654  36.389  1.00  0.00     0.131 A 
ATOM     70  C   UNL A   1      39.165  34.217  36.780  1.00  0.00     0.055 A 
ATOM     71  C   UNL A   1      37.881  32.345  37.554  1.00  0.00     0.041 A 
ATOM     72  F   UNL A   1      37.790  30.387  36.282  1.00  0.00    -0.206 F 
ATOM     73  C   UNL A   1      38.372  33.627  37.765  1.00  0.00     0.022 A 
BRANCH  70  74
ATOM     74  S   UNL A   1      39.995  35.796  37.127  1.00  0.00     0.124 S 
ATOM     75  O   UNL A   1      41.365  35.362  37.371  1.00  0.00    -0.237 OA
ATOM     76  O   UNL A   1      39.764  36.537  35.892  1.00  0.00    -0.237 OA
ATOM     77  O   UNL A   1      39.283  36.304  38.298  1.00  0.00    -0.744 OA
ENDBRANCH  70  74
ENDBRANCH  43  67
BRANCH  55  78
ATOM     78  C   UNL A   1      44.395  27.889  34.478  1.00  0.00     0.023 A 
ATOM     79  C   UNL A   1      44.293  26.735  35.276  1.00  0.00     0.031 A 
ATOM     80  C   UNL A   1      45.596  28.620  34.528  1.00  0.00     0.131 A 
ATOM     81  C   UNL A   1      45.356  26.366  36.115  1.00  0.00     0.055 A 
ATOM     82  C   UNL A   1      46.673  28.213  35.317  1.00  0.00     0.041 A 
ATOM     83  F   UNL A   1      45.751  29.732  33.793  1.00  0.00    -0.206 F 
ATOM     84  C   UNL A   1      46.554  27.086  36.125  1.00  0.00     0.022 A 
BRANCH  81  85
ATOM     85  S   UNL A   1      45.133  24.969  37.250  1.00  0.00     0.124 S 
ATOM     86  O   UNL A   1      44.276  24.079  36.473  1.00  0.00    -0.237 OA
ATOM     87  O   UNL A   1      46.502  24.512  37.460  1.00  0.00    -0.237 OA
ATOM     88  O   UNL A   1      44.497  25.574  38.420  1.00  0.00    -0.744 OA
ENDBRANCH  81  85
ENDBRANCH  55  78
ENDBRANCH  29  30
ENDBRANCH  22  24
ENDBRANCH  21  22
ENDBRANCH  20  21
ENDBRANCH  19  20
ENDBRANCH   1  19
TORSDOF 20
ENDMDL
MODEL 2
REMARK VINA RESULT:     -10.2      4.813     10.188
REMARK SMILES O=C(COCCNS(=O)(=O)c1ccccc1)OCCOC(=O)c1ccc(-c2c3nc(c(-c4cc(S(=O)(=O)[O-])ccc4F)c4ccc([nH]4)c(-c4cc(S(=O)(=O)[O-])ccc4F)c4nc(c(-c5cc(S(=O)(=O)[O-])ccc5F)c5ccc2[nH]5)C=C4)C=C3)cc1
REMARK SMILES IDX 17 1 2 2 1 3 3 4 4 5 5 6 6 7 7 8 8 10 9 11 10 12 11 13 12 14
REMARK SMILES IDX 16 15 13 16 15 17 14 18 18 19 19 20 20 21 21 22 22 23 23 24
REMARK SMILES IDX 24 25 85 26 25 27 84 28 26 29 27 30 28 31 78 32 29 33 83 34
REMARK SMILES IDX 77 35 79 36 30 37 82 38 76 39 75 40 31 42 63 43 43 44 62 45
REMARK SMILES IDX 44 46 47 47 61 48 80 49 45 50 46 51 60 53 81 54 48 55 32 56
REMARK SMILES IDX 33 57 41 58 34 59 40 60 42 61 39 62 35 63 36 64 37 65 38 66
REMARK SMILES IDX 64 67 65 68 73 69 66 70 72 71 74 72 71 73 67 74 68 75 69 76
REMARK SMILES IDX 70 77 49 78 50 79 58 80 51 81 57 82 59 83 56 84 52 85 53 86
REMARK SMILES IDX 54 87 55 88
REMARK H PARENT 7 9 79 41 47 52
REMARK Flexibility Score: inf
ROOT
ATOM      1  O   UNL A   1      34.554  22.089  24.764  1.00  0.00    -0.460 OA
ENDROOT
BRANCH   1   2
ATOM      2  C   UNL A   1      34.522  22.975  23.741  1.00  0.00     0.332 C 
ATOM      3  O   UNL A   1      35.448  22.986  22.932  1.00  0.00    -0.250 OA
BRANCH   2   4
ATOM      4  C   UNL A   1      33.332  23.944  23.618  1.00  0.00     0.282 C 
BRANCH   4   5
ATOM      5  O   UNL A   1      32.076  23.456  23.189  1.00  0.00    -0.368 OA
BRANCH   5   6
ATOM      6  C   UNL A   1      30.946  23.850  23.972  1.00  0.00     0.177 C 
BRANCH   6   7
ATOM      7  C   UNL A   1      30.152  25.051  23.420  1.00  0.00     0.127 C 
BRANCH   7   8
ATOM      8  N   UNL A   1      30.331  26.228  24.299  1.00  0.00    -0.209 NA
ATOM      9  H   UNL A   1      30.908  25.926  25.084  1.00  0.00     0.141 HD
BRANCH   8  10
ATOM     10  S   UNL A   1      31.033  27.636  23.689  1.00  0.00     0.240 S 
ATOM     11  O   UNL A   1      31.876  28.152  24.739  1.00  0.00    -0.207 OA
ATOM     12  O   UNL A   1      31.586  27.282  22.402  1.00  0.00    -0.207 OA
BRANCH  10  13
ATOM     13  C   UNL A   1      29.690  28.744  23.457  1.00  0.00     0.082 A 
ATOM     14  C   UNL A   1      28.418  28.225  23.203  1.00  0.00     0.022 A 
ATOM     15  C   UNL A   1      29.903  30.116  23.585  1.00  0.00     0.022 A 
ATOM     16  C   UNL A   1      27.349  29.097  23.032  1.00  0.00     0.001 A 
ATOM     17  C   UNL A   1      28.825  30.982  23.429  1.00  0.00     0.001 A 
ATOM     18  C   UNL A   1      27.554  30.473  23.146  1.00  0.00     0.000 A 
ENDBRANCH  10  13
ENDBRANCH   8  10
ENDBRANCH   7   8
ENDBRANCH   6   7
ENDBRANCH   5   6
ENDBRANCH   4   5
ENDBRANCH   2   4
ENDBRANCH   1   2
BRANCH   1  19
ATOM     19  C   UNL A   1      34.660  20.663  24.620  1.00  0.00     0.274 C 
BRANCH  19  20
ATOM     20  C   UNL A   1      36.059  20.165  24.992  1.00  0.00     0.275 C 
BRANCH  20  21
ATOM     21  O   UNL A   1      36.877  21.217  25.543  1.00  0.00    -0.458 OA
BRANCH  21  22
ATOM     22  C   UNL A   1      38.204  20.941  25.684  1.00  0.00     0.338 C 
ATOM     23  O   UNL A   1      38.763  19.919  25.330  1.00  0.00    -0.246 OA
BRANCH  22  24
ATOM     24  C   UNL A   1      38.913  22.153  26.174  1.00  0.00     0.060 A 
ATOM     25  C   UNL A   1      40.148  21.993  26.813  1.00  0.00     0.016 A 
ATOM     26  C   UNL A   1      38.405  23.442  25.974  1.00  0.00     0.016 A 
ATOM     27  C   UNL A   1      40.886  23.116  27.208  1.00  0.00     0.010 A 
ATOM     28  C   UNL A   1      39.148  24.565  26.377  1.00  0.00     0.010 A 
ATOM     29  C   UNL A   1      40.408  24.415  26.978  1.00  0.00    -0.014 A 
BRANCH  29  30
ATOM     30  C   UNL A   1      41.197  25.604  27.422  1.00  0.00     0.031 A 
ATOM     31  C   UNL A   1      40.539  26.645  28.286  1.00  0.00     0.074 A 
ATOM     32  C   UNL A   1      42.495  25.753  27.085  1.00  0.00     0.049 A 
ATOM     33  N   UNL A   1      41.019  27.781  28.724  1.00  0.00    -0.248 NA
ATOM     34  C   UNL A   1      39.155  26.375  28.702  1.00  0.00     0.031 C 
ATOM     35  C   UNL A   1      43.280  24.783  26.323  1.00  0.00     0.029 A 
ATOM     36  N   UNL A   1      43.397  26.759  27.357  1.00  0.00    -0.354 N 
ATOM     37  C   UNL A   1      39.990  28.375  29.444  1.00  0.00     0.074 A 
ATOM     38  C   UNL A   1      38.866  27.464  29.400  1.00  0.00     0.031 C 
ATOM     39  C   UNL A   1      44.548  25.217  26.231  1.00  0.00     0.029 A 
ATOM     40  C   UNL A   1      44.658  26.541  26.841  1.00  0.00     0.049 A 
ATOM     41  H   UNL A   1      43.162  27.562  27.876  1.00  0.00     0.167 HD
ATOM     42  C   UNL A   1      39.974  29.584  30.055  1.00  0.00     0.034 A 
ATOM     43  C   UNL A   1      45.759  27.328  26.826  1.00  0.00     0.034 A 
ATOM     44  C   UNL A   1      41.091  30.497  30.084  1.00  0.00     0.049 A 
ATOM     45  C   UNL A   1      45.676  28.712  27.444  1.00  0.00     0.074 A 
ATOM     46  C   UNL A   1      41.160  31.743  30.684  1.00  0.00     0.029 A 
ATOM     47  N   UNL A   1      42.318  30.283  29.472  1.00  0.00    -0.354 N 
ATOM     48  N   UNL A   1      44.691  29.262  28.116  1.00  0.00    -0.248 NA
ATOM     49  C   UNL A   1      46.843  29.594  27.276  1.00  0.00     0.031 C 
ATOM     50  C   UNL A   1      42.387  32.323  30.350  1.00  0.00     0.029 A 
ATOM     51  C   UNL A   1      43.125  31.401  29.627  1.00  0.00     0.049 A 
ATOM     52  H   UNL A   1      42.577  29.459  28.998  1.00  0.00     0.167 HD
ATOM     53  C   UNL A   1      45.127  30.543  28.455  1.00  0.00     0.074 A 
ATOM     54  C   UNL A   1      46.475  30.673  27.950  1.00  0.00     0.031 C 
ATOM     55  C   UNL A   1      44.466  31.530  29.111  1.00  0.00     0.034 A 
BRANCH  42  56
ATOM     56  C   UNL A   1      38.670  30.047  30.649  1.00  0.00     0.023 A 
ATOM     57  C   UNL A   1      37.711  30.757  29.908  1.00  0.00     0.031 A 
ATOM     58  C   UNL A   1      38.386  29.754  31.996  1.00  0.00     0.131 A 
ATOM     59  C   UNL A   1      36.529  31.183  30.534  1.00  0.00     0.055 A 
ATOM     60  C   UNL A   1      37.179  30.118  32.590  1.00  0.00     0.041 A 
ATOM     61  F   UNL A   1      39.282  29.104  32.757  1.00  0.00    -0.206 F 
ATOM     62  C   UNL A   1      36.245  30.845  31.861  1.00  0.00     0.022 A 
BRANCH  59  63
ATOM     63  S   UNL A   1      35.410  32.285  29.626  1.00  0.00     0.124 S 
ATOM     64  O   UNL A   1      36.313  33.363  29.231  1.00  0.00    -0.237 OA
ATOM     65  O   UNL A   1      34.927  31.428  28.549  1.00  0.00    -0.237 OA
ATOM     66  O   UNL A   1      34.409  32.655  30.624  1.00  0.00    -0.744 OA
ENDBRANCH  59  63
ENDBRANCH  42  56
BRANCH  43  67
ATOM     67  C   UNL A   1      47.012  26.913  26.108  1.00  0.00     0.023 A 
ATOM     68  C   UNL A   1      48.035  26.200  26.759  1.00  0.00     0.031 A 
ATOM     69  C   UNL A   1      47.263  27.347  24.792  1.00  0.00     0.131 A 
ATOM     70  C   UNL A   1      49.277  26.012  26.126  1.00  0.00     0.055 A 
ATOM     71  C   UNL A   1      48.468  27.084  24.138  1.00  0.00     0.041 A 
ATOM     72  F   UNL A   1      46.345  28.059  24.120  1.00  0.00    -0.206 F 
ATOM     73  C   UNL A   1      49.493  26.432  24.812  1.00  0.00     0.022 A 
BRANCH  70  74
ATOM     74  S   UNL A   1      50.668  25.357  27.095  1.00  0.00     0.124 S 
ATOM     75  O   UNL A   1      51.015  26.505  27.925  1.00  0.00    -0.237 OA
ATOM     76  O   UNL A   1      50.053  24.227  27.781  1.00  0.00    -0.237 OA
ATOM     77  O   UNL A   1      51.655  25.004  26.076  1.00  0.00    -0.744 OA
ENDBRANCH  70  74
ENDBRANCH  43  67
BRANCH  55  78
ATOM     78  C   UNL A   1      45.197  32.833  29.346  1.00  0.00     0.023 A 
ATOM     79  C   UNL A   1      45.081  33.918  28.458  1.00  0.00     0.031 A 
ATOM     80  C   UNL A   1      45.996  33.002  30.492  1.00  0.00     0.131 A 
ATOM     81  C   UNL A   1      45.781  35.109  28.710  1.00  0.00     0.055 A 
ATOM     82  C   UNL A   1      46.639  34.209  30.769  1.00  0.00     0.041 A 
ATOM     83  F   UNL A   1      46.148  32.001  31.373  1.00  0.00    -0.206 F 
ATOM     84  C   UNL A   1      46.542  35.268  29.871  1.00  0.00     0.022 A 
BRANCH  81  85
ATOM     85  S   UNL A   1      45.742  36.429  27.467  1.00  0.00     0.124 S 
ATOM     86  O   UNL A   1      44.342  36.418  27.055  1.00  0.00    -0.237 OA
ATOM     87  O   UNL A   1      46.172  37.594  28.232  1.00  0.00    -0.237 OA
ATOM     88  O   UNL A   1      46.690  35.972  26.451  1.00  0.00    -0.744 OA
ENDBRANCH  81  85
ENDBRANCH  55  78
ENDBRANCH  29  30
ENDBRANCH  22  24
ENDBRANCH  21  22
ENDBRANCH  20  21
ENDBRANCH  19  20
ENDBRANCH   1  19
TORSDOF 20
ENDMDL
MODEL 3
REMARK VINA RESULT:     -10.1      5.005     10.050
REMARK SMILES O=C(COCCNS(=O)(=O)c1ccccc1)OCCOC(=O)c1ccc(-c2c3nc(c(-c4cc(S(=O)(=O)[O-])ccc4F)c4ccc([nH]4)c(-c4cc(S(=O)(=O)[O-])ccc4F)c4nc(c(-c5cc(S(=O)(=O)[O-])ccc5F)c5ccc2[nH]5)C=C4)C=C3)cc1
REMARK SMILES IDX 17 1 2 2 1 3 3 4 4 5 5 6 6 7 7 8 8 10 9 11 10 12 11 13 12 14
REMARK SMILES IDX 16 15 13 16 15 17 14 18 18 19 19 20 20 21 21 22 22 23 23 24
REMARK SMILES IDX 24 25 85 26 25 27 84 28 26 29 27 30 28 31 78 32 29 33 83 34
REMARK SMILES IDX 77 35 79 36 30 37 82 38 76 39 75 40 31 42 63 43 43 44 62 45
REMARK SMILES IDX 44 46 47 47 61 48 80 49 45 50 46 51 60 53 81 54 48 55 32 56
REMARK SMILES IDX 33 57 41 58 34 59 40 60 42 61 39 62 35 63 36 64 37 65 38 66
REMARK SMILES IDX 64 67 65 68 73 69 66 70 72 71 74 72 71 73 67 74 68 75 69 76
REMARK SMILES IDX 70 77 49 78 50 79 58 80 51 81 57 82 59 83 56 84 52 85 53 86
REMARK SMILES IDX 54 87 55 88
REMARK H PARENT 7 9 79 41 47 52
REMARK Flexibility Score: inf
ROOT
ATOM      1  O   UNL A   1      34.460  21.312  24.204  1.00  0.00    -0.460 OA
ENDROOT
BRANCH   1   2
ATOM      2  C   UNL A   1      33.261  21.941  24.192  1.00  0.00     0.332 C 
ATOM      3  O   UNL A   1      32.731  22.237  25.260  1.00  0.00    -0.250 OA
BRANCH   2   4
ATOM      4  C   UNL A   1      32.594  22.266  22.842  1.00  0.00     0.282 C 
BRANCH   4   5
ATOM      5  O   UNL A   1      32.962  23.441  22.147  1.00  0.00    -0.368 OA
BRANCH   5   6
ATOM      6  C   UNL A   1      32.159  24.598  22.396  1.00  0.00     0.177 C 
BRANCH   6   7
ATOM      7  C   UNL A   1      32.772  25.626  23.366  1.00  0.00     0.127 C 
BRANCH   7   8
ATOM      8  N   UNL A   1      32.331  25.348  24.751  1.00  0.00    -0.209 NA
ATOM      9  H   UNL A   1      33.065  25.691  25.370  1.00  0.00     0.141 HD
BRANCH   8  10
ATOM     10  S   UNL A   1      30.875  25.989  25.316  1.00  0.00     0.240 S 
ATOM     11  O   UNL A   1      29.994  26.051  24.175  1.00  0.00    -0.207 OA
ATOM     12  O   UNL A   1      30.522  25.214  26.482  1.00  0.00    -0.207 OA
BRANCH  10  13
ATOM     13  C   UNL A   1      31.267  27.629  25.806  1.00  0.00     0.082 A 
ATOM     14  C   UNL A   1      31.651  27.870  27.128  1.00  0.00     0.022 A 
ATOM     15  C   UNL A   1      31.243  28.653  24.859  1.00  0.00     0.022 A 
ATOM     16  C   UNL A   1      31.976  29.164  27.517  1.00  0.00     0.001 A 
ATOM     17  C   UNL A   1      31.585  29.943  25.253  1.00  0.00     0.001 A 
ATOM     18  C   UNL A   1      31.943  30.197  26.580  1.00  0.00     0.000 A 
ENDBRANCH  10  13
ENDBRANCH   8  10
ENDBRANCH   7   8
ENDBRANCH   6   7
ENDBRANCH   5   6
ENDBRANCH   4   5
ENDBRANCH   2   4
ENDBRANCH   1   2
BRANCH   1  19
ATOM     19  C   UNL A   1      35.153  20.879  25.387  1.00  0.00     0.274 C 
BRANCH  19  20
ATOM     20  C   UNL A   1      36.625  20.572  25.094  1.00  0.00     0.275 C 
BRANCH  20  21
ATOM     21  O   UNL A   1      37.481  21.690  25.406  1.00  0.00    -0.458 OA
BRANCH  21  22
ATOM     22  C   UNL A   1      38.669  21.393  26.004  1.00  0.00     0.338 C 
ATOM     23  O   UNL A   1      39.208  20.302  26.020  1.00  0.00    -0.246 OA
BRANCH  22  24
ATOM     24  C   UNL A   1      39.308  22.647  26.485  1.00  0.00     0.060 A 
ATOM     25  C   UNL A   1      40.436  22.549  27.307  1.00  0.00     0.016 A 
ATOM     26  C   UNL A   1      38.843  23.911  26.104  1.00  0.00     0.016 A 
ATOM     27  C   UNL A   1      41.117  23.706  27.707  1.00  0.00     0.010 A 
ATOM     28  C   UNL A   1      39.528  25.068  26.512  1.00  0.00     0.010 A 
ATOM     29  C   UNL A   1      40.687  24.978  27.300  1.00  0.00    -0.014 A 
BRANCH  29  30
ATOM     30  C   UNL A   1      41.412  26.205  27.749  1.00  0.00     0.031 A 
ATOM     31  C   UNL A   1      40.695  27.213  28.605  1.00  0.00     0.074 A 
ATOM     32  C   UNL A   1      42.704  26.418  27.424  1.00  0.00     0.049 A 
ATOM     33  N   UNL A   1      41.114  28.371  29.045  1.00  0.00    -0.248 NA
ATOM     34  C   UNL A   1      39.322  26.875  29.009  1.00  0.00     0.031 C 
ATOM     35  C   UNL A   1      43.543  25.486  26.671  1.00  0.00     0.029 A 
ATOM     36  N   UNL A   1      43.552  27.467  27.703  1.00  0.00    -0.354 N 
ATOM     37  C   UNL A   1      40.050  28.915  29.755  1.00  0.00     0.074 A 
ATOM     38  C   UNL A   1      38.973  27.949  29.702  1.00  0.00     0.031 C 
ATOM     39  C   UNL A   1      44.789  25.983  26.590  1.00  0.00     0.029 A 
ATOM     40  C   UNL A   1      44.827  27.311  27.199  1.00  0.00     0.049 A 
ATOM     41  H   UNL A   1      43.272  28.259  28.218  1.00  0.00     0.167 HD
ATOM     42  C   UNL A   1      39.968  30.122  30.364  1.00  0.00     0.034 A 
ATOM     43  C   UNL A   1      45.888  28.152  27.193  1.00  0.00     0.034 A 
ATOM     44  C   UNL A   1      41.038  31.090  30.402  1.00  0.00     0.049 A 
ATOM     45  C   UNL A   1      45.731  29.531  27.808  1.00  0.00     0.074 A 
ATOM     46  C   UNL A   1      41.040  32.339  31.001  1.00  0.00     0.029 A 
ATOM     47  N   UNL A   1      42.280  30.936  29.802  1.00  0.00    -0.354 N 
ATOM     48  N   UNL A   1      44.714  30.032  28.470  1.00  0.00    -0.248 NA
ATOM     49  C   UNL A   1      46.854  30.470  27.650  1.00  0.00     0.031 C 
ATOM     50  C   UNL A   1      42.239  32.978  30.677  1.00  0.00     0.029 A 
ATOM     51  C   UNL A   1      43.029  32.093  29.962  1.00  0.00     0.049 A 
ATOM     52  H   UNL A   1      42.584  30.126  29.332  1.00  0.00     0.167 HD
ATOM     53  C   UNL A   1      45.082  31.334  28.810  1.00  0.00     0.074 A 
ATOM     54  C   UNL A   1      46.426  31.530  28.318  1.00  0.00     0.031 C 
ATOM     55  C   UNL A   1      44.367  32.287  29.459  1.00  0.00     0.034 A 
BRANCH  42  56
ATOM     56  C   UNL A   1      38.637  30.521  30.945  1.00  0.00     0.023 A 
ATOM     57  C   UNL A   1      37.639  31.153  30.186  1.00  0.00     0.031 A 
ATOM     58  C   UNL A   1      38.368  30.244  32.299  1.00  0.00     0.131 A 
ATOM     59  C   UNL A   1      36.432  31.523  30.800  1.00  0.00     0.055 A 
ATOM     60  C   UNL A   1      37.140  30.550  32.882  1.00  0.00     0.041 A 
ATOM     61  F   UNL A   1      39.299  29.669  33.076  1.00  0.00    -0.206 F 
ATOM     62  C   UNL A   1      36.166  31.201  32.134  1.00  0.00     0.022 A 
BRANCH  59  63
ATOM     63  S   UNL A   1      35.252  32.534  29.863  1.00  0.00     0.124 S 
ATOM     64  O   UNL A   1      36.097  33.637  29.415  1.00  0.00    -0.237 OA
ATOM     65  O   UNL A   1      34.800  31.613  28.827  1.00  0.00    -0.237 OA
ATOM     66  O   UNL A   1      34.245  32.894  30.859  1.00  0.00    -0.744 OA
ENDBRANCH  59  63
ENDBRANCH  42  56
BRANCH  43  67
ATOM     67  C   UNL A   1      47.166  27.799  26.488  1.00  0.00     0.023 A 
ATOM     68  C   UNL A   1      47.335  28.018  25.109  1.00  0.00     0.031 A 
ATOM     69  C   UNL A   1      48.191  27.104  27.161  1.00  0.00     0.131 A 
ATOM     70  C   UNL A   1      48.453  27.486  24.440  1.00  0.00     0.055 A 
ATOM     71  C   UNL A   1      49.339  26.652  26.508  1.00  0.00     0.041 A 
ATOM     72  F   UNL A   1      48.085  26.832  28.471  1.00  0.00    -0.206 F 
ATOM     73  C   UNL A   1      49.465  26.823  25.135  1.00  0.00     0.022 A 
BRANCH  70  74
ATOM     74  S   UNL A   1      48.493  27.526  22.624  1.00  0.00     0.124 S 
ATOM     75  O   UNL A   1      47.252  28.228  22.317  1.00  0.00    -0.237 OA
ATOM     76  O   UNL A   1      49.728  28.257  22.365  1.00  0.00    -0.237 OA
ATOM     77  O   UNL A   1      48.518  26.112  22.254  1.00  0.00    -0.744 OA
ENDBRANCH  70  74
ENDBRANCH  43  67
BRANCH  55  78
ATOM     78  C   UNL A   1      45.030  33.625  29.698  1.00  0.00     0.023 A 
ATOM     79  C   UNL A   1      44.919  34.682  28.777  1.00  0.00     0.031 A 
ATOM     80  C   UNL A   1      45.757  33.855  30.881  1.00  0.00     0.131 A 
ATOM     81  C   UNL A   1      45.556  35.908  29.035  1.00  0.00     0.055 A 
ATOM     82  C   UNL A   1      46.335  35.095  31.161  1.00  0.00     0.041 A 
ATOM     83  F   UNL A   1      45.901  32.884  31.795  1.00  0.00    -0.206 F 
ATOM     84  C   UNL A   1      46.244  36.127  30.231  1.00  0.00     0.022 A 
BRANCH  81  85
ATOM     85  S   UNL A   1      45.531  37.194  27.758  1.00  0.00     0.124 S 
ATOM     86  O   UNL A   1      45.822  36.430  26.549  1.00  0.00    -0.237 OA
ATOM     87  O   UNL A   1      44.175  37.721  27.867  1.00  0.00    -0.237 OA
ATOM     88  O   UNL A   1      46.587  38.116  28.177  1.00  0.00    -0.744 OA
ENDBRANCH  81  85
ENDBRANCH  55  78
ENDBRANCH  29  30
ENDBRANCH  22  24
ENDBRANCH  21  22
ENDBRANCH  20  21
ENDBRANCH  19  20
ENDBRANCH   1  19
TORSDOF 20
ENDMDL
