MODEL 1
REMARK VINA RESULT:     -11.6      0.000      0.000
REMARK SMILES O=C(OCCOC(=O)[C@H]1CCCCN1S(=O)(=O)c1cc[nH]c1)c1ccc(-c2c3nc(c(-c4cc(S(=O)(=O)[O-])ccc4F)c4ccc([nH]4)c(-c4cc(S(=O)(=O)[O-])ccc4F)c4nc(c(-c5cc(S(=O)(=O)[O-])ccc5F)c5ccc2[nH]5)C=C4)C=C3)cc1
REMARK SMILES IDX 4 1 3 2 2 3 1 4 23 5 24 6 85 7 25 8 84 9 26 10 27 11 28 12
REMARK SMILES IDX 78 13 29 14 83 15 77 16 79 17 30 18 82 19 76 20 75 21 31 23
REMARK SMILES IDX 63 24 43 25 62 26 44 27 47 28 61 29 80 30 45 31 46 32 60 34
REMARK SMILES IDX 81 35 48 36 32 37 33 38 41 39 34 40 40 41 42 42 39 43 35 44
REMARK SMILES IDX 36 45 37 46 38 47 64 48 65 49 73 50 66 51 72 52 74 53 71 54
REMARK SMILES IDX 67 55 68 56 69 57 70 58 49 59 50 60 58 61 51 62 57 63 59 64
REMARK SMILES IDX 56 65 52 66 53 67 54 68 55 69 5 70 6 71 7 72 8 73 9 74 10 75
REMARK SMILES IDX 14 76 11 77 13 78 12 79 15 80 16 81 17 82 18 83 19 84 22 85
REMARK SMILES IDX 20 86 21 87
REMARK H PARENT 79 22 47 33 21 88
REMARK Flexibility Score: inf
ROOT
ATOM      1  C   UNL A   1      38.593  31.114  31.334  1.00  0.00     0.275 C 
ENDROOT
BRANCH   1   2
ATOM      2  O   UNL A   1      37.839  31.694  30.279  1.00  0.00    -0.458 OA
BRANCH   2   3
ATOM      3  C   UNL A   1      36.878  30.923  29.769  1.00  0.00     0.338 C 
ATOM      4  O   UNL A   1      35.693  31.212  29.873  1.00  0.00    -0.246 OA
BRANCH   3   5
ATOM      5  C   UNL A   1      37.301  29.614  29.184  1.00  0.00     0.060 A 
ATOM      6  C   UNL A   1      37.724  28.282  30.131  1.00  0.00     0.016 A 
ATOM      7  C   UNL A   1      38.248  29.926  27.775  1.00  0.00     0.016 A 
ATOM      8  C   UNL A   1      39.100  27.322  29.846  1.00  0.00     0.010 A 
ATOM      9  C   UNL A   1      39.805  28.832  27.340  1.00  0.00     0.010 A 
ATOM     10  C   UNL A   1      40.242  27.600  28.602  1.00  0.00    -0.014 A 
BRANCH  10  11
ATOM     11  C   UNL A   1      41.713  27.178  29.115  1.00  0.00     0.031 A 
ATOM     12  C   UNL A   1      41.886  25.936  28.196  1.00  0.00     0.074 A 
ATOM     13  C   UNL A   1      42.427  27.721  30.283  1.00  0.00     0.049 A 
ATOM     14  N   UNL A   1      41.727  24.681  28.505  1.00  0.00    -0.248 NA
ATOM     15  C   UNL A   1      41.748  26.080  26.694  1.00  0.00     0.031 C 
ATOM     16  C   UNL A   1      42.250  29.060  30.989  1.00  0.00     0.029 A 
ATOM     17  N   UNL A   1      43.533  27.298  31.130  1.00  0.00    -0.354 N 
ATOM     18  C   UNL A   1      41.940  24.000  27.293  1.00  0.00     0.074 A 
ATOM     19  C   UNL A   1      41.422  24.849  26.282  1.00  0.00     0.031 C 
ATOM     20  C   UNL A   1      43.002  29.233  32.130  1.00  0.00     0.029 A 
ATOM     21  C   UNL A   1      43.846  28.084  32.402  1.00  0.00     0.049 A 
ATOM     22  H   UNL A   1      44.073  26.512  30.886  1.00  0.00     0.167 HD
ATOM     23  C   UNL A   1      43.041  23.217  27.073  1.00  0.00     0.034 A 
ATOM     24  C   UNL A   1      44.704  27.747  33.501  1.00  0.00     0.034 A 
ATOM     25  C   UNL A   1      43.846  23.195  28.253  1.00  0.00     0.049 A 
ATOM     26  C   UNL A   1      45.430  26.637  32.874  1.00  0.00     0.074 A 
ATOM     27  C   UNL A   1      43.494  22.853  29.536  1.00  0.00     0.029 A 
ATOM     28  N   UNL A   1      44.928  24.059  28.292  1.00  0.00    -0.354 N 
ATOM     29  N   UNL A   1      46.301  26.768  31.921  1.00  0.00    -0.248 NA
ATOM     30  C   UNL A   1      45.008  25.284  33.229  1.00  0.00     0.031 C 
ATOM     31  C   UNL A   1      43.906  23.999  30.232  1.00  0.00     0.029 A 
ATOM     32  C   UNL A   1      44.990  24.566  29.559  1.00  0.00     0.049 A 
ATOM     33  H   UNL A   1      45.536  24.269  27.547  1.00  0.00     0.167 HD
ATOM     34  C   UNL A   1      46.197  25.557  31.286  1.00  0.00     0.074 A 
ATOM     35  C   UNL A   1      45.644  24.622  32.268  1.00  0.00     0.031 C 
ATOM     36  C   UNL A   1      45.967  25.546  29.938  1.00  0.00     0.034 A 
BRANCH  23  37
ATOM     37  C   UNL A   1      43.681  22.747  25.807  1.00  0.00     0.023 A 
ATOM     38  C   UNL A   1      43.771  21.348  25.714  1.00  0.00     0.031 A 
ATOM     39  C   UNL A   1      44.435  23.497  24.890  1.00  0.00     0.131 A 
ATOM     40  C   UNL A   1      44.651  20.738  24.822  1.00  0.00     0.055 A 
ATOM     41  C   UNL A   1      45.257  22.880  23.937  1.00  0.00     0.041 A 
ATOM     42  F   UNL A   1      44.484  24.836  24.933  1.00  0.00    -0.206 F 
ATOM     43  C   UNL A   1      45.391  21.493  23.918  1.00  0.00     0.022 A 
BRANCH  40  44
ATOM     44  S   UNL A   1      44.899  18.960  25.018  1.00  0.00     0.124 S 
ATOM     45  O   UNL A   1      44.984  18.513  23.632  1.00  0.00    -0.237 OA
ATOM     46  O   UNL A   1      46.144  18.914  25.779  1.00  0.00    -0.237 OA
ATOM     47  O   UNL A   1      43.707  18.531  25.746  1.00  0.00    -0.744 OA
ENDBRANCH  40  44
ENDBRANCH  23  37
BRANCH  24  48
ATOM     48  C   UNL A   1      45.271  27.933  35.060  1.00  0.00     0.023 A 
ATOM     49  C   UNL A   1      44.810  27.432  36.311  1.00  0.00     0.031 A 
ATOM     50  C   UNL A   1      46.562  28.593  35.237  1.00  0.00     0.131 A 
ATOM     51  C   UNL A   1      45.660  27.450  37.511  1.00  0.00     0.055 A 
ATOM     52  C   UNL A   1      47.417  28.507  36.357  1.00  0.00     0.041 A 
ATOM     53  F   UNL A   1      47.077  29.413  34.310  1.00  0.00    -0.206 F 
ATOM     54  C   UNL A   1      46.983  27.893  37.498  1.00  0.00     0.022 A 
BRANCH  51  55
ATOM     55  S   UNL A   1      45.089  26.860  39.164  1.00  0.00     0.124 S 
ATOM     56  O   UNL A   1      46.026  25.779  39.451  1.00  0.00    -0.237 OA
ATOM     57  O   UNL A   1      45.208  28.060  39.983  1.00  0.00    -0.237 OA
ATOM     58  O   UNL A   1      43.711  26.421  38.930  1.00  0.00    -0.744 OA
ENDBRANCH  51  55
ENDBRANCH  24  48
BRANCH  36  59
ATOM     59  C   UNL A   1      46.446  26.749  29.125  1.00  0.00     0.023 A 
ATOM     60  C   UNL A   1      45.491  27.590  28.520  1.00  0.00     0.031 A 
ATOM     61  C   UNL A   1      47.795  27.068  28.859  1.00  0.00     0.131 A 
ATOM     62  C   UNL A   1      45.873  28.672  27.701  1.00  0.00     0.055 A 
ATOM     63  C   UNL A   1      48.180  28.144  28.036  1.00  0.00     0.041 A 
ATOM     64  F   UNL A   1      48.790  26.332  29.368  1.00  0.00    -0.206 F 
ATOM     65  C   UNL A   1      47.213  28.960  27.459  1.00  0.00     0.022 A 
BRANCH  62  66
ATOM     66  S   UNL A   1      44.579  29.716  26.976  1.00  0.00     0.124 S 
ATOM     67  O   UNL A   1      43.750  28.747  26.270  1.00  0.00    -0.237 OA
ATOM     68  O   UNL A   1      43.983  30.336  28.156  1.00  0.00    -0.237 OA
ATOM     69  O   UNL A   1      45.325  30.634  26.115  1.00  0.00    -0.744 OA
ENDBRANCH  62  66
ENDBRANCH  36  59
ENDBRANCH  10  11
ENDBRANCH   3   5
ENDBRANCH   2   3
ENDBRANCH   1   2
BRANCH   1  70
ATOM     70  C   UNL A   1      37.833  31.072  32.704  1.00  0.00     0.274 C 
BRANCH  70  71
ATOM     71  O   UNL A   1      38.417  31.897  33.784  1.00  0.00    -0.461 OA
BRANCH  71  72
ATOM     72  C   UNL A   1      37.804  32.559  34.836  1.00  0.00     0.324 C 
ATOM     73  O   UNL A   1      37.221  31.974  35.739  1.00  0.00    -0.250 OA
BRANCH  72  74
ATOM     74  C   UNL A   1      38.130  34.253  34.820  1.00  0.00     0.183 C 
ATOM     75  C   UNL A   1      39.891  34.792  34.948  1.00  0.00     0.032 C 
ATOM     76  N   UNL A   1      37.320  34.933  33.380  1.00  0.00    -0.184 NA
ATOM     77  C   UNL A   1      41.137  34.591  33.518  1.00  0.00     0.004 C 
ATOM     78  C   UNL A   1      38.183  34.664  31.656  1.00  0.00     0.103 C 
ATOM     79  C   UNL A   1      40.392  34.340  31.695  1.00  0.00     0.017 C 
BRANCH  76  80
ATOM     80  S   UNL A   1      35.602  34.422  33.556  1.00  0.00     0.245 S 
ATOM     81  O   UNL A   1      35.395  33.137  32.921  1.00  0.00    -0.207 OA
ATOM     82  O   UNL A   1      35.257  34.607  34.958  1.00  0.00    -0.207 OA
BRANCH  80  83
ATOM     83  C   UNL A   1      34.384  35.361  32.759  1.00  0.00     0.100 A 
ATOM     84  C   UNL A   1      34.049  36.682  33.139  1.00  0.00     0.041 A 
ATOM     85  C   UNL A   1      33.832  35.151  31.500  1.00  0.00     0.104 A 
ATOM     86  C   UNL A   1      33.268  37.219  32.139  1.00  0.00     0.083 A 
ATOM     87  N   UNL A   1      33.118  36.274  31.157  1.00  0.00    -0.366 N 
ATOM     88  H   UNL A   1      32.584  36.383  30.337  1.00  0.00     0.165 HD
ENDBRANCH  80  83
ENDBRANCH  76  80
ENDBRANCH  72  74
ENDBRANCH  71  72
ENDBRANCH  70  71
ENDBRANCH   1  70
TORSDOF 16
ENDMDL
MODEL 2
REMARK VINA RESULT:     -11.2      4.348     12.659
REMARK SMILES O=C(OCCOC(=O)[C@H]1CCCCN1S(=O)(=O)c1cc[nH]c1)c1ccc(-c2c3nc(c(-c4cc(S(=O)(=O)[O-])ccc4F)c4ccc([nH]4)c(-c4cc(S(=O)(=O)[O-])ccc4F)c4nc(c(-c5cc(S(=O)(=O)[O-])ccc5F)c5ccc2[nH]5)C=C4)C=C3)cc1
REMARK SMILES IDX 4 1 3 2 2 3 1 4 23 5 24 6 85 7 25 8 84 9 26 10 27 11 28 12
REMARK SMILES IDX 78 13 29 14 83 15 77 16 79 17 30 18 82 19 76 20 75 21 31 23
REMARK SMILES IDX 63 24 43 25 62 26 44 27 47 28 61 29 80 30 45 31 46 32 60 34
REMARK SMILES IDX 81 35 48 36 32 37 33 38 41 39 34 40 40 41 42 42 39 43 35 44
REMARK SMILES IDX 36 45 37 46 38 47 64 48 65 49 73 50 66 51 72 52 74 53 71 54
REMARK SMILES IDX 67 55 68 56 69 57 70 58 49 59 50 60 58 61 51 62 57 63 59 64
REMARK SMILES IDX 56 65 52 66 53 67 54 68 55 69 5 70 6 71 7 72 8 73 9 74 10 75
REMARK SMILES IDX 14 76 11 77 13 78 12 79 15 80 16 81 17 82 18 83 19 84 22 85
REMARK SMILES IDX 20 86 21 87
REMARK H PARENT 79 22 47 33 21 88
REMARK Flexibility Score: inf
ROOT
ATOM      1  C   UNL A   1      43.945  24.592  26.611  1.00  0.00     0.275 C 
ENDROOT
BRANCH   1   2
ATOM      2  O   UNL A   1      42.865  25.243  27.265  1.00  0.00    -0.458 OA
BRANCH   2   3
ATOM      3  C   UNL A   1      41.649  24.804  26.940  1.00  0.00     0.338 C 
ATOM      4  O   UNL A   1      41.472  23.709  26.423  1.00  0.00    -0.246 OA
BRANCH   3   5
ATOM      5  C   UNL A   1      40.517  25.768  27.105  1.00  0.00     0.060 A 
ATOM      6  C   UNL A   1      40.522  27.311  26.421  1.00  0.00     0.016 A 
ATOM      7  C   UNL A   1      39.887  25.603  28.704  1.00  0.00     0.016 A 
ATOM      8  C   UNL A   1      40.069  28.717  27.267  1.00  0.00     0.010 A 
ATOM      9  C   UNL A   1      39.286  27.158  29.719  1.00  0.00     0.010 A 
ATOM     10  C   UNL A   1      39.593  28.756  28.910  1.00  0.00    -0.014 A 
BRANCH  10  11
ATOM     11  C   UNL A   1      40.092  30.134  29.585  1.00  0.00     0.031 A 
ATOM     12  C   UNL A   1      38.687  30.772  29.777  1.00  0.00     0.074 A 
ATOM     13  C   UNL A   1      41.479  30.619  29.674  1.00  0.00     0.049 A 
ATOM     14  N   UNL A   1      38.106  31.673  29.037  1.00  0.00    -0.248 NA
ATOM     15  C   UNL A   1      37.617  30.029  30.551  1.00  0.00     0.031 C 
ATOM     16  C   UNL A   1      42.783  29.832  29.633  1.00  0.00     0.029 A 
ATOM     17  N   UNL A   1      42.134  31.901  29.890  1.00  0.00    -0.354 N 
ATOM     18  C   UNL A   1      36.837  31.831  29.621  1.00  0.00     0.074 A 
ATOM     19  C   UNL A   1      36.471  30.545  30.092  1.00  0.00     0.031 C 
ATOM     20  C   UNL A   1      43.934  30.589  29.633  1.00  0.00     0.029 A 
ATOM     21  C   UNL A   1      43.647  32.011  29.707  1.00  0.00     0.049 A 
ATOM     22  H   UNL A   1      41.607  32.690  30.151  1.00  0.00     0.167 HD
ATOM     23  C   UNL A   1      36.472  32.967  30.292  1.00  0.00     0.034 A 
ATOM     24  C   UNL A   1      44.480  33.175  29.628  1.00  0.00     0.034 A 
ATOM     25  C   UNL A   1      37.545  33.909  30.241  1.00  0.00     0.049 A 
ATOM     26  C   UNL A   1      43.514  34.163  30.123  1.00  0.00     0.074 A 
ATOM     27  C   UNL A   1      38.205  34.413  29.146  1.00  0.00     0.029 A 
ATOM     28  N   UNL A   1      38.380  33.971  31.344  1.00  0.00    -0.354 N 
ATOM     29  N   UNL A   1      43.104  34.245  31.351  1.00  0.00    -0.248 NA
ATOM     30  C   UNL A   1      42.843  34.991  29.124  1.00  0.00     0.031 C 
ATOM     31  C   UNL A   1      39.534  34.115  29.484  1.00  0.00     0.029 A 
ATOM     32  C   UNL A   1      39.654  34.123  30.875  1.00  0.00     0.049 A 
ATOM     33  H   UNL A   1      38.107  33.915  32.289  1.00  0.00     0.167 HD
ATOM     34  C   UNL A   1      41.861  34.798  31.188  1.00  0.00     0.074 A 
ATOM     35  C   UNL A   1      41.880  35.486  29.896  1.00  0.00     0.031 C 
ATOM     36  C   UNL A   1      40.787  34.166  31.753  1.00  0.00     0.034 A 
BRANCH  23  37
ATOM     37  C   UNL A   1      35.400  33.216  31.303  1.00  0.00     0.023 A 
ATOM     38  C   UNL A   1      34.559  34.290  30.971  1.00  0.00     0.031 A 
ATOM     39  C   UNL A   1      35.323  32.728  32.617  1.00  0.00     0.131 A 
ATOM     40  C   UNL A   1      33.763  34.910  31.933  1.00  0.00     0.055 A 
ATOM     41  C   UNL A   1      34.461  33.300  33.563  1.00  0.00     0.041 A 
ATOM     42  F   UNL A   1      36.131  31.756  33.067  1.00  0.00    -0.206 F 
ATOM     43  C   UNL A   1      33.695  34.416  33.232  1.00  0.00     0.022 A 
BRANCH  40  44
ATOM     44  S   UNL A   1      32.974  36.463  31.454  1.00  0.00     0.124 S 
ATOM     45  O   UNL A   1      31.706  36.389  32.170  1.00  0.00    -0.237 OA
ATOM     46  O   UNL A   1      33.929  37.449  31.950  1.00  0.00    -0.237 OA
ATOM     47  O   UNL A   1      32.883  36.359  29.999  1.00  0.00    -0.744 OA
ENDBRANCH  40  44
ENDBRANCH  23  37
BRANCH  24  48
ATOM     48  C   UNL A   1      45.904  33.967  29.263  1.00  0.00     0.023 A 
ATOM     49  C   UNL A   1      46.599  34.167  28.036  1.00  0.00     0.031 A 
ATOM     50  C   UNL A   1      46.530  34.755  30.322  1.00  0.00     0.131 A 
ATOM     51  C   UNL A   1      47.656  35.180  27.904  1.00  0.00     0.055 A 
ATOM     52  C   UNL A   1      47.464  35.803  30.165  1.00  0.00     0.041 A 
ATOM     53  F   UNL A   1      46.287  34.527  31.620  1.00  0.00    -0.206 F 
ATOM     54  C   UNL A   1      48.007  36.051  28.936  1.00  0.00     0.022 A 
BRANCH  51  55
ATOM     55  S   UNL A   1      48.619  35.441  26.352  1.00  0.00     0.124 S 
ATOM     56  O   UNL A   1      49.961  35.021  26.742  1.00  0.00    -0.237 OA
ATOM     57  O   UNL A   1      47.920  34.585  25.401  1.00  0.00    -0.237 OA
ATOM     58  O   UNL A   1      48.487  36.876  26.086  1.00  0.00    -0.744 OA
ENDBRANCH  51  55
ENDBRANCH  24  48
BRANCH  36  59
ATOM     59  C   UNL A   1      41.040  33.307  32.993  1.00  0.00     0.023 A 
ATOM     60  C   UNL A   1      40.767  31.927  32.937  1.00  0.00     0.031 A 
ATOM     61  C   UNL A   1      41.469  33.793  34.247  1.00  0.00     0.131 A 
ATOM     62  C   UNL A   1      40.912  31.098  34.068  1.00  0.00     0.055 A 
ATOM     63  C   UNL A   1      41.609  32.969  35.381  1.00  0.00     0.041 A 
ATOM     64  F   UNL A   1      41.746  35.090  34.426  1.00  0.00    -0.206 F 
ATOM     65  C   UNL A   1      41.339  31.609  35.291  1.00  0.00     0.022 A 
BRANCH  62  66
ATOM     66  S   UNL A   1      40.558  29.327  33.904  1.00  0.00     0.124 S 
ATOM     67  O   UNL A   1      40.897  28.813  35.226  1.00  0.00    -0.237 OA
ATOM     68  O   UNL A   1      39.140  29.325  33.556  1.00  0.00    -0.237 OA
ATOM     69  O   UNL A   1      41.452  28.899  32.828  1.00  0.00    -0.744 OA
ENDBRANCH  62  66
ENDBRANCH  36  59
ENDBRANCH  10  11
ENDBRANCH   3   5
ENDBRANCH   2   3
ENDBRANCH   1   2
BRANCH   1  70
ATOM     70  C   UNL A   1      45.329  25.294  26.827  1.00  0.00     0.274 C 
BRANCH  70  71
ATOM     71  O   UNL A   1      45.290  26.769  26.925  1.00  0.00    -0.461 OA
BRANCH  71  72
ATOM     72  C   UNL A   1      45.170  27.729  25.934  1.00  0.00     0.324 C 
ATOM     73  O   UNL A   1      44.222  27.771  25.160  1.00  0.00    -0.250 OA
BRANCH  72  74
ATOM     74  C   UNL A   1      46.388  28.945  26.053  1.00  0.00     0.183 C 
ATOM     75  C   UNL A   1      46.574  29.821  27.667  1.00  0.00     0.032 C 
ATOM     76  N   UNL A   1      47.922  28.213  25.501  1.00  0.00    -0.184 NA
ATOM     77  C   UNL A   1      47.327  28.988  29.209  1.00  0.00     0.004 C 
ATOM     78  C   UNL A   1      48.851  27.038  26.745  1.00  0.00     0.103 C 
ATOM     79  C   UNL A   1      48.443  27.374  28.915  1.00  0.00     0.017 C 
BRANCH  76  80
ATOM     80  S   UNL A   1      47.543  27.577  23.859  1.00  0.00     0.245 S 
ATOM     81  O   UNL A   1      47.051  26.218  23.950  1.00  0.00    -0.207 OA
ATOM     82  O   UNL A   1      46.748  28.599  23.194  1.00  0.00    -0.207 OA
BRANCH  80  83
ATOM     83  C   UNL A   1      48.852  27.359  22.746  1.00  0.00     0.100 A 
ATOM     84  C   UNL A   1      48.793  27.753  21.388  1.00  0.00     0.041 A 
ATOM     85  C   UNL A   1      50.191  27.124  23.039  1.00  0.00     0.104 A 
ATOM     86  C   UNL A   1      50.071  27.699  20.881  1.00  0.00     0.083 A 
ATOM     87  N   UNL A   1      50.915  27.291  21.882  1.00  0.00    -0.366 N 
ATOM     88  H   UNL A   1      51.883  27.142  21.787  1.00  0.00     0.165 HD
ENDBRANCH  80  83
ENDBRANCH  76  80
ENDBRANCH  72  74
ENDBRANCH  71  72
ENDBRANCH  70  71
ENDBRANCH   1  70
TORSDOF 16
ENDMDL
MODEL 3
REMARK VINA RESULT:     -11.2      3.901     12.862
REMARK SMILES O=C(OCCOC(=O)[C@H]1CCCCN1S(=O)(=O)c1cc[nH]c1)c1ccc(-c2c3nc(c(-c4cc(S(=O)(=O)[O-])ccc4F)c4ccc([nH]4)c(-c4cc(S(=O)(=O)[O-])ccc4F)c4nc(c(-c5cc(S(=O)(=O)[O-])ccc5F)c5ccc2[nH]5)C=C4)C=C3)cc1
REMARK SMILES IDX 4 1 3 2 2 3 1 4 23 5 24 6 85 7 25 8 84 9 26 10 27 11 28 12
REMARK SMILES IDX 78 13 29 14 83 15 77 16 79 17 30 18 82 19 76 20 75 21 31 23
REMARK SMILES IDX 63 24 43 25 62 26 44 27 47 28 61 29 80 30 45 31 46 32 60 34
REMARK SMILES IDX 81 35 48 36 32 37 33 38 41 39 34 40 40 41 42 42 39 43 35 44
REMARK SMILES IDX 36 45 37 46 38 47 64 48 65 49 73 50 66 51 72 52 74 53 71 54
REMARK SMILES IDX 67 55 68 56 69 57 70 58 49 59 50 60 58 61 51 62 57 63 59 64
REMARK SMILES IDX 56 65 52 66 53 67 54 68 55 69 5 70 6 71 7 72 8 73 9 74 10 75
REMARK SMILES IDX 14 76 11 77 13 78 12 79 15 80 16 81 17 82 18 83 19 84 22 85
REMARK SMILES IDX 20 86 21 87
REMARK H PARENT 79 22 47 33 21 88
REMARK Flexibility Score: inf
ROOT
ATOM      1  C   UNL A   1      43.212  26.052  26.460  1.00  0.00     0.275 C 
ENDROOT
BRANCH   1   2
ATOM      2  O   UNL A   1      42.556  25.118  27.306  1.00  0.00    -0.458 OA
BRANCH   2   3
ATOM      3  C   UNL A   1      41.345  24.731  26.903  1.00  0.00     0.338 C 
ATOM      4  O   UNL A   1      41.173  23.698  26.269  1.00  0.00    -0.246 OA
BRANCH   3   5
ATOM      5  C   UNL A   1      40.219  25.686  27.138  1.00  0.00     0.060 A 
ATOM      6  C   UNL A   1      40.167  27.227  26.450  1.00  0.00     0.016 A 
ATOM      7  C   UNL A   1      39.695  25.522  28.775  1.00  0.00     0.016 A 
ATOM      8  C   UNL A   1      39.758  28.632  27.318  1.00  0.00     0.010 A 
ATOM      9  C   UNL A   1      39.148  27.076  29.822  1.00  0.00     0.010 A 
ATOM     10  C   UNL A   1      39.389  28.674  28.989  1.00  0.00    -0.014 A 
BRANCH  10  11
ATOM     11  C   UNL A   1      39.919  30.058  29.626  1.00  0.00     0.031 A 
ATOM     12  C   UNL A   1      38.527  30.721  29.827  1.00  0.00     0.074 A 
ATOM     13  C   UNL A   1      41.314  30.524  29.682  1.00  0.00     0.049 A 
ATOM     14  N   UNL A   1      37.947  31.615  29.077  1.00  0.00    -0.248 NA
ATOM     15  C   UNL A   1      37.459  30.011  30.635  1.00  0.00     0.031 C 
ATOM     16  C   UNL A   1      42.606  29.717  29.635  1.00  0.00     0.029 A 
ATOM     17  N   UNL A   1      41.992  31.800  29.859  1.00  0.00    -0.354 N 
ATOM     18  C   UNL A   1      36.691  31.804  29.679  1.00  0.00     0.074 A 
ATOM     19  C   UNL A   1      36.313  30.534  30.184  1.00  0.00     0.031 C 
ATOM     20  C   UNL A   1      43.768  30.457  29.600  1.00  0.00     0.029 A 
ATOM     21  C   UNL A   1      43.502  31.884  29.649  1.00  0.00     0.049 A 
ATOM     22  H   UNL A   1      41.480  32.603  30.111  1.00  0.00     0.167 HD
ATOM     23  C   UNL A   1      36.353  32.959  30.331  1.00  0.00     0.034 A 
ATOM     24  C   UNL A   1      44.351  33.034  29.530  1.00  0.00     0.034 A 
ATOM     25  C   UNL A   1      37.439  33.884  30.242  1.00  0.00     0.049 A 
ATOM     26  C   UNL A   1      43.408  34.046  30.019  1.00  0.00     0.074 A 
ATOM     27  C   UNL A   1      38.088  34.354  29.126  1.00  0.00     0.029 A 
ATOM     28  N   UNL A   1      38.293  33.956  31.330  1.00  0.00    -0.354 N 
ATOM     29  N   UNL A   1      43.021  34.160  31.252  1.00  0.00    -0.248 NA
ATOM     30  C   UNL A   1      42.732  34.863  29.015  1.00  0.00     0.031 C 
ATOM     31  C   UNL A   1      39.417  34.044  29.448  1.00  0.00     0.029 A 
ATOM     32  C   UNL A   1      39.561  34.079  30.836  1.00  0.00     0.049 A 
ATOM     33  H   UNL A   1      38.035  33.925  32.280  1.00  0.00     0.167 HD
ATOM     34  C   UNL A   1      41.782  34.728  31.098  1.00  0.00     0.074 A 
ATOM     35  C   UNL A   1      41.790  35.388  29.791  1.00  0.00     0.031 C 
ATOM     36  C   UNL A   1      40.710  34.125  31.695  1.00  0.00     0.034 A 
BRANCH  23  37
ATOM     37  C   UNL A   1      35.303  33.246  31.355  1.00  0.00     0.023 A 
ATOM     38  C   UNL A   1      34.417  34.267  30.974  1.00  0.00     0.031 A 
ATOM     39  C   UNL A   1      35.278  32.849  32.701  1.00  0.00     0.131 A 
ATOM     40  C   UNL A   1      33.629  34.928  31.914  1.00  0.00     0.055 A 
ATOM     41  C   UNL A   1      34.425  33.459  33.631  1.00  0.00     0.041 A 
ATOM     42  F   UNL A   1      36.129  31.937  33.193  1.00  0.00    -0.206 F 
ATOM     43  C   UNL A   1      33.614  34.525  33.245  1.00  0.00     0.022 A 
BRANCH  40  44
ATOM     44  S   UNL A   1      32.777  36.419  31.352  1.00  0.00     0.124 S 
ATOM     45  O   UNL A   1      33.764  37.454  31.632  1.00  0.00    -0.237 OA
ATOM     46  O   UNL A   1      32.551  36.119  29.941  1.00  0.00    -0.237 OA
ATOM     47  O   UNL A   1      31.575  36.453  32.182  1.00  0.00    -0.744 OA
ENDBRANCH  40  44
ENDBRANCH  23  37
BRANCH  24  48
ATOM     48  C   UNL A   1      45.780  33.796  29.125  1.00  0.00     0.023 A 
ATOM     49  C   UNL A   1      46.293  34.266  27.882  1.00  0.00     0.031 A 
ATOM     50  C   UNL A   1      46.648  34.232  30.216  1.00  0.00     0.131 A 
ATOM     51  C   UNL A   1      47.423  35.205  27.819  1.00  0.00     0.055 A 
ATOM     52  C   UNL A   1      47.656  35.219  30.161  1.00  0.00     0.041 A 
ATOM     53  F   UNL A   1      46.586  33.686  31.439  1.00  0.00    -0.206 F 
ATOM     54  C   UNL A   1      48.026  35.747  28.956  1.00  0.00     0.022 A 
BRANCH  51  55
ATOM     55  S   UNL A   1      48.156  35.801  26.234  1.00  0.00     0.124 S 
ATOM     56  O   UNL A   1      48.282  34.569  25.464  1.00  0.00    -0.237 OA
ATOM     57  O   UNL A   1      47.162  36.760  25.770  1.00  0.00    -0.237 OA
ATOM     58  O   UNL A   1      49.433  36.399  26.633  1.00  0.00    -0.744 OA
ENDBRANCH  51  55
ENDBRANCH  24  48
BRANCH  36  59
ATOM     59  C   UNL A   1      40.970  33.289  32.949  1.00  0.00     0.023 A 
ATOM     60  C   UNL A   1      40.660  31.915  32.933  1.00  0.00     0.031 A 
ATOM     61  C   UNL A   1      41.444  33.792  34.180  1.00  0.00     0.131 A 
ATOM     62  C   UNL A   1      40.812  31.110  34.080  1.00  0.00     0.055 A 
ATOM     63  C   UNL A   1      41.591  32.992  35.329  1.00  0.00     0.041 A 
ATOM     64  F   UNL A   1      41.759  35.086  34.320  1.00  0.00    -0.206 F 
ATOM     65  C   UNL A   1      41.282  31.638  35.279  1.00  0.00     0.022 A 
BRANCH  62  66
ATOM     66  S   UNL A   1      40.408  29.345  33.966  1.00  0.00     0.124 S 
ATOM     67  O   UNL A   1      38.975  29.367  33.693  1.00  0.00    -0.237 OA
ATOM     68  O   UNL A   1      41.265  28.899  32.872  1.00  0.00    -0.237 OA
ATOM     69  O   UNL A   1      40.776  28.826  35.283  1.00  0.00    -0.744 OA
ENDBRANCH  62  66
ENDBRANCH  36  59
ENDBRANCH  10  11
ENDBRANCH   3   5
ENDBRANCH   2   3
ENDBRANCH   1   2
BRANCH   1  70
ATOM     70  C   UNL A   1      44.371  26.836  27.165  1.00  0.00     0.274 C 
BRANCH  70  71
ATOM     71  O   UNL A   1      45.665  26.845  26.449  1.00  0.00    -0.461 OA
BRANCH  71  72
ATOM     72  C   UNL A   1      46.220  25.909  25.592  1.00  0.00     0.324 C 
ATOM     73  O   UNL A   1      46.059  25.939  24.379  1.00  0.00    -0.250 OA
BRANCH  72  74
ATOM     74  C   UNL A   1      47.303  24.841  26.407  1.00  0.00     0.183 C 
ATOM     75  C   UNL A   1      48.228  25.499  27.863  1.00  0.00     0.032 C 
ATOM     76  N   UNL A   1      46.385  23.359  26.804  1.00  0.00    -0.184 NA
ATOM     77  C   UNL A   1      47.392  25.849  29.541  1.00  0.00     0.004 C 
ATOM     78  C   UNL A   1      45.177  23.437  28.329  1.00  0.00     0.103 C 
ATOM     79  C   UNL A   1      45.655  24.956  29.894  1.00  0.00     0.017 C 
BRANCH  76  80
ATOM     80  S   UNL A   1      45.718  22.815  25.222  1.00  0.00     0.245 S 
ATOM     81  O   UNL A   1      44.423  23.419  24.991  1.00  0.00    -0.207 OA
ATOM     82  O   UNL A   1      46.785  22.979  24.246  1.00  0.00    -0.207 OA
BRANCH  80  83
ATOM     83  C   UNL A   1      45.316  21.140  25.038  1.00  0.00     0.100 A 
ATOM     84  C   UNL A   1      46.283  20.122  24.867  1.00  0.00     0.041 A 
ATOM     85  C   UNL A   1      44.120  20.509  25.364  1.00  0.00     0.104 A 
ATOM     86  C   UNL A   1      45.651  18.911  25.038  1.00  0.00     0.083 A 
ATOM     87  N   UNL A   1      44.329  19.151  25.316  1.00  0.00    -0.366 N 
ATOM     88  H   UNL A   1      43.642  18.462  25.457  1.00  0.00     0.165 HD
ENDBRANCH  80  83
ENDBRANCH  76  80
ENDBRANCH  72  74
ENDBRANCH  71  72
ENDBRANCH  70  71
ENDBRANCH   1  70
TORSDOF 16
ENDMDL
