MODEL 1
REMARK VINA RESULT:     -11.4      0.000      0.000
REMARK SMILES CC(C)(C)[N@H+](CCC(=O)Nc1ccccc1F)CC(=O)OCCOC(=O)c1ccc(-c2c3nc(c(-c4cc(S(=O)(=O)[O-])ccc4F)c4ccc([nH]4)c(-c4cc(S(=O)(=O)[O-])ccc4F)c4nc(c(-c5cc(S(=O)(=O)[O-])ccc5F)c5ccc2[nH]5)C=C4)C=C3)cc1
REMARK SMILES IDX 22 1 21 2 19 3 20 4 18 5 5 6 2 8 1 9 3 10 4 11 6 12 7 13
REMARK SMILES IDX 8 14 9 15 10 16 11 18 12 19 16 20 13 21 15 22 17 23 14 24
REMARK SMILES IDX 23 25 24 26 25 27 26 28 27 29 28 30 89 31 29 32 88 33 30 34
REMARK SMILES IDX 31 35 32 36 82 37 33 38 87 39 81 40 83 41 34 42 86 43 80 44
REMARK SMILES IDX 79 45 35 47 67 48 47 49 66 50 48 51 51 52 65 53 84 54 49 55
REMARK SMILES IDX 50 56 64 58 85 59 52 60 36 61 37 62 45 63 38 64 44 65 46 66
REMARK SMILES IDX 43 67 39 68 40 69 41 70 42 71 68 72 69 73 77 74 70 75 76 76
REMARK SMILES IDX 78 77 75 78 71 79 72 80 73 81 74 82 53 83 54 84 62 85 55 86
REMARK SMILES IDX 61 87 63 88 60 89 56 90 57 91 58 92 59 93
REMARK H PARENT 5 7 10 17 83 46 51 57
REMARK Flexibility Score: inf
ROOT
ATOM      1  C   UNL A   1      34.299  20.787  25.574  1.00  0.00     0.274 C 
ENDROOT
BRANCH   1   2
ATOM      2  O   UNL A   1      34.321  21.800  26.589  1.00  0.00    -0.458 OA
BRANCH   2   3
ATOM      3  C   UNL A   1      33.092  22.260  26.953  1.00  0.00     0.361 C 
ATOM      4  O   UNL A   1      32.767  22.570  28.095  1.00  0.00    -0.245 OA
BRANCH   3   5
ATOM      5  C   UNL A   1      32.257  22.589  25.734  1.00  0.00     0.386 C 
BRANCH   5   6
ATOM      6  N   UNL A   1      32.391  23.978  25.243  1.00  0.00    -0.321 N 
ATOM      7  H   UNL A   1      33.180  24.415  25.720  1.00  0.00     0.349 HD
BRANCH   6   8
ATOM      8  C   UNL A   1      31.155  24.779  25.590  1.00  0.00     0.090 C 
ATOM      9  C   UNL A   1      30.342  25.230  24.351  1.00  0.00     0.078 C 
ATOM     10  C   UNL A   1      31.624  26.082  26.284  1.00  0.00     0.078 C 
ATOM     11  C   UNL A   1      30.162  24.040  26.524  1.00  0.00     0.078 C 
ENDBRANCH   6   8
BRANCH   6  12
ATOM     12  C   UNL A   1      32.727  24.028  23.800  1.00  0.00     0.273 C 
BRANCH  12  13
ATOM     13  C   UNL A   1      33.535  25.189  23.202  1.00  0.00     0.161 C 
BRANCH  13  14
ATOM     14  C   UNL A   1      33.160  26.052  22.005  1.00  0.00     0.230 C 
ATOM     15  O   UNL A   1      33.401  25.597  20.875  1.00  0.00    -0.275 OA
ATOM     16  N   UNL A   1      32.543  27.259  22.044  1.00  0.00    -0.323 N 
ATOM     17  H   UNL A   1      32.185  27.544  21.172  1.00  0.00     0.170 HD
BRANCH  16  18
ATOM     18  C   UNL A   1      32.315  28.181  23.070  1.00  0.00     0.077 A 
ATOM     19  C   UNL A   1      31.000  28.628  23.236  1.00  0.00     0.029 A 
ATOM     20  C   UNL A   1      33.303  28.658  23.930  1.00  0.00     0.146 A 
ATOM     21  C   UNL A   1      30.659  29.407  24.345  1.00  0.00     0.002 A 
ATOM     22  C   UNL A   1      32.971  29.451  25.027  1.00  0.00     0.041 A 
ATOM     23  F   UNL A   1      34.590  28.337  23.729  1.00  0.00    -0.205 F 
ATOM     24  C   UNL A   1      31.641  29.798  25.253  1.00  0.00     0.003 A 
ENDBRANCH  16  18
ENDBRANCH  13  14
ENDBRANCH  12  13
ENDBRANCH   6  12
ENDBRANCH   5   6
ENDBRANCH   3   5
ENDBRANCH   2   3
ENDBRANCH   1   2
BRANCH   1  25
ATOM     25  C   UNL A   1      35.696  20.664  24.961  1.00  0.00     0.275 C 
BRANCH  25  26
ATOM     26  O   UNL A   1      36.544  21.746  25.407  1.00  0.00    -0.458 OA
BRANCH  26  27
ATOM     27  C   UNL A   1      37.855  21.450  25.580  1.00  0.00     0.338 C 
ATOM     28  O   UNL A   1      38.403  20.394  25.287  1.00  0.00    -0.246 OA
BRANCH  27  29
ATOM     29  C   UNL A   1      38.594  22.580  26.192  1.00  0.00     0.060 A 
ATOM     30  C   UNL A   1      38.143  23.898  26.111  1.00  0.00     0.016 A 
ATOM     31  C   UNL A   1      39.831  22.317  26.788  1.00  0.00     0.016 A 
ATOM     32  C   UNL A   1      38.953  24.945  26.575  1.00  0.00     0.010 A 
ATOM     33  C   UNL A   1      40.600  23.362  27.317  1.00  0.00     0.010 A 
ATOM     34  C   UNL A   1      40.189  24.701  27.199  1.00  0.00    -0.014 A 
BRANCH  34  35
ATOM     35  C   UNL A   1      41.074  25.798  27.715  1.00  0.00     0.031 A 
ATOM     36  C   UNL A   1      40.508  26.862  28.630  1.00  0.00     0.074 A 
ATOM     37  C   UNL A   1      42.375  25.894  27.363  1.00  0.00     0.049 A 
ATOM     38  N   UNL A   1      40.961  28.063  28.889  1.00  0.00    -0.248 NA
ATOM     39  C   UNL A   1      39.262  26.530  29.340  1.00  0.00     0.031 C 
ATOM     40  C   UNL A   1      43.120  24.921  26.564  1.00  0.00     0.029 A 
ATOM     41  N   UNL A   1      43.304  26.877  27.627  1.00  0.00    -0.354 N 
ATOM     42  C   UNL A   1      40.019  28.658  29.726  1.00  0.00     0.074 A 
ATOM     43  C   UNL A   1      38.981  27.674  29.951  1.00  0.00     0.031 C 
ATOM     44  C   UNL A   1      44.390  25.330  26.440  1.00  0.00     0.029 A 
ATOM     45  C   UNL A   1      44.522  26.659  27.025  1.00  0.00     0.049 A 
ATOM     46  H   UNL A   1      43.114  27.659  28.194  1.00  0.00     0.167 HD
ATOM     47  C   UNL A   1      40.016  29.914  30.239  1.00  0.00     0.034 A 
ATOM     48  C   UNL A   1      45.600  27.457  26.870  1.00  0.00     0.034 A 
ATOM     49  C   UNL A   1      41.087  30.866  30.059  1.00  0.00     0.049 A 
ATOM     50  C   UNL A   1      45.552  28.872  27.375  1.00  0.00     0.074 A 
ATOM     51  C   UNL A   1      41.173  32.165  30.533  1.00  0.00     0.029 A 
ATOM     52  N   UNL A   1      42.267  30.618  29.374  1.00  0.00    -0.354 N 
ATOM     53  N   UNL A   1      44.583  29.486  28.010  1.00  0.00    -0.248 NA
ATOM     54  C   UNL A   1      46.726  29.714  27.104  1.00  0.00     0.031 C 
ATOM     55  C   UNL A   1      42.382  32.717  30.094  1.00  0.00     0.029 A 
ATOM     56  C   UNL A   1      43.077  31.742  29.399  1.00  0.00     0.049 A 
ATOM     57  H   UNL A   1      42.495  29.768  28.932  1.00  0.00     0.167 HD
ATOM     58  C   UNL A   1      45.029  30.789  28.209  1.00  0.00     0.074 A 
ATOM     59  C   UNL A   1      46.358  30.870  27.643  1.00  0.00     0.031 C 
ATOM     60  C   UNL A   1      44.389  31.825  28.808  1.00  0.00     0.034 A 
BRANCH  47  61
ATOM     61  C   UNL A   1      38.793  30.375  30.991  1.00  0.00     0.023 A 
ATOM     62  C   UNL A   1      37.739  31.062  30.368  1.00  0.00     0.031 A 
ATOM     63  C   UNL A   1      38.660  30.058  32.357  1.00  0.00     0.131 A 
ATOM     64  C   UNL A   1      36.609  31.430  31.117  1.00  0.00     0.055 A 
ATOM     65  C   UNL A   1      37.510  30.375  33.081  1.00  0.00     0.041 A 
ATOM     66  F   UNL A   1      39.644  29.414  33.006  1.00  0.00    -0.206 F 
ATOM     67  C   UNL A   1      36.476  31.069  32.460  1.00  0.00     0.022 A 
BRANCH  64  68
ATOM     68  S   UNL A   1      35.326  32.439  30.324  1.00  0.00     0.124 S 
ATOM     69  O   UNL A   1      36.025  33.706  30.134  1.00  0.00    -0.237 OA
ATOM     70  O   UNL A   1      35.031  31.684  29.112  1.00  0.00    -0.237 OA
ATOM     71  O   UNL A   1      34.252  32.468  31.316  1.00  0.00    -0.744 OA
ENDBRANCH  64  68
ENDBRANCH  47  61
BRANCH  48  72
ATOM     72  C   UNL A   1      46.772  26.964  26.092  1.00  0.00     0.023 A 
ATOM     73  C   UNL A   1      47.030  27.429  24.794  1.00  0.00     0.031 A 
ATOM     74  C   UNL A   1      47.672  26.045  26.661  1.00  0.00     0.131 A 
ATOM     75  C   UNL A   1      48.170  26.976  24.109  1.00  0.00     0.055 A 
ATOM     76  C   UNL A   1      48.826  25.634  25.994  1.00  0.00     0.041 A 
ATOM     77  F   UNL A   1      47.465  25.572  27.901  1.00  0.00    -0.206 F 
ATOM     78  C   UNL A   1      49.079  26.100  24.708  1.00  0.00     0.022 A 
BRANCH  75  79
ATOM     79  S   UNL A   1      48.453  27.546  22.410  1.00  0.00     0.124 S 
ATOM     80  O   UNL A   1      47.237  28.307  22.147  1.00  0.00    -0.237 OA
ATOM     81  O   UNL A   1      49.680  28.322  22.548  1.00  0.00    -0.237 OA
ATOM     82  O   UNL A   1      48.588  26.303  21.653  1.00  0.00    -0.744 OA
ENDBRANCH  75  79
ENDBRANCH  48  72
BRANCH  60  83
ATOM     83  C   UNL A   1      45.132  33.130  28.903  1.00  0.00     0.023 A 
ATOM     84  C   UNL A   1      46.051  33.376  29.937  1.00  0.00     0.031 A 
ATOM     85  C   UNL A   1      44.926  34.132  27.940  1.00  0.00     0.131 A 
ATOM     86  C   UNL A   1      46.706  34.615  30.003  1.00  0.00     0.055 A 
ATOM     87  C   UNL A   1      45.612  35.345  27.987  1.00  0.00     0.041 A 
ATOM     88  F   UNL A   1      44.059  33.941  26.933  1.00  0.00    -0.206 F 
ATOM     89  C   UNL A   1      46.504  35.595  29.028  1.00  0.00     0.022 A 
BRANCH  86  90
ATOM     90  S   UNL A   1      47.805  34.949  31.408  1.00  0.00     0.124 S 
ATOM     91  O   UNL A   1      47.378  33.937  32.370  1.00  0.00    -0.237 OA
ATOM     92  O   UNL A   1      49.129  34.759  30.827  1.00  0.00    -0.237 OA
ATOM     93  O   UNL A   1      47.484  36.327  31.775  1.00  0.00    -0.744 OA
ENDBRANCH  86  90
ENDBRANCH  60  83
ENDBRANCH  34  35
ENDBRANCH  27  29
ENDBRANCH  26  27
ENDBRANCH  25  26
ENDBRANCH   1  25
TORSDOF 20
ENDMDL
MODEL 2
REMARK VINA RESULT:     -11.1      1.754      2.366
REMARK SMILES CC(C)(C)[N@H+](CCC(=O)Nc1ccccc1F)CC(=O)OCCOC(=O)c1ccc(-c2c3nc(c(-c4cc(S(=O)(=O)[O-])ccc4F)c4ccc([nH]4)c(-c4cc(S(=O)(=O)[O-])ccc4F)c4nc(c(-c5cc(S(=O)(=O)[O-])ccc5F)c5ccc2[nH]5)C=C4)C=C3)cc1
REMARK SMILES IDX 22 1 21 2 19 3 20 4 18 5 5 6 2 8 1 9 3 10 4 11 6 12 7 13
REMARK SMILES IDX 8 14 9 15 10 16 11 18 12 19 16 20 13 21 15 22 17 23 14 24
REMARK SMILES IDX 23 25 24 26 25 27 26 28 27 29 28 30 89 31 29 32 88 33 30 34
REMARK SMILES IDX 31 35 32 36 82 37 33 38 87 39 81 40 83 41 34 42 86 43 80 44
REMARK SMILES IDX 79 45 35 47 67 48 47 49 66 50 48 51 51 52 65 53 84 54 49 55
REMARK SMILES IDX 50 56 64 58 85 59 52 60 36 61 37 62 45 63 38 64 44 65 46 66
REMARK SMILES IDX 43 67 39 68 40 69 41 70 42 71 68 72 69 73 77 74 70 75 76 76
REMARK SMILES IDX 78 77 75 78 71 79 72 80 73 81 74 82 53 83 54 84 62 85 55 86
REMARK SMILES IDX 61 87 63 88 60 89 56 90 57 91 58 92 59 93
REMARK H PARENT 5 7 10 17 83 46 51 57
REMARK Flexibility Score: inf
ROOT
ATOM      1  C   UNL A   1      34.499  21.177  25.329  1.00  0.00     0.274 C 
ENDROOT
BRANCH   1   2
ATOM      2  O   UNL A   1      34.350  21.561  26.702  1.00  0.00    -0.458 OA
BRANCH   2   3
ATOM      3  C   UNL A   1      33.297  22.391  26.944  1.00  0.00     0.361 C 
ATOM      4  O   UNL A   1      32.660  22.431  27.991  1.00  0.00    -0.245 OA
BRANCH   3   5
ATOM      5  C   UNL A   1      33.178  23.438  25.858  1.00  0.00     0.386 C 
BRANCH   5   6
ATOM      6  N   UNL A   1      31.809  23.640  25.334  1.00  0.00    -0.321 N 
ATOM      7  H   UNL A   1      31.234  22.847  25.619  1.00  0.00     0.349 HD
BRANCH   6   8
ATOM      8  C   UNL A   1      31.823  23.664  23.821  1.00  0.00     0.090 C 
ATOM      9  C   UNL A   1      31.956  22.259  23.182  1.00  0.00     0.078 C 
ATOM     10  C   UNL A   1      33.083  24.450  23.379  1.00  0.00     0.078 C 
ATOM     11  C   UNL A   1      30.570  24.320  23.186  1.00  0.00     0.078 C 
ENDBRANCH   6   8
BRANCH   6  12
ATOM     12  C   UNL A   1      31.156  24.832  25.926  1.00  0.00     0.273 C 
BRANCH  12  13
ATOM     13  C   UNL A   1      31.948  25.855  26.752  1.00  0.00     0.161 C 
BRANCH  13  14
ATOM     14  C   UNL A   1      31.661  27.344  26.897  1.00  0.00     0.230 C 
ATOM     15  O   UNL A   1      31.120  27.720  27.950  1.00  0.00    -0.275 OA
ATOM     16  N   UNL A   1      31.978  28.316  26.008  1.00  0.00    -0.323 N 
ATOM     17  H   UNL A   1      31.919  29.225  26.382  1.00  0.00     0.170 HD
BRANCH  16  18
ATOM     18  C   UNL A   1      32.370  28.290  24.666  1.00  0.00     0.077 A 
ATOM     19  C   UNL A   1      33.694  28.648  24.388  1.00  0.00     0.029 A 
ATOM     20  C   UNL A   1      31.537  27.918  23.612  1.00  0.00     0.146 A 
ATOM     21  C   UNL A   1      34.210  28.477  23.101  1.00  0.00     0.002 A 
ATOM     22  C   UNL A   1      32.043  27.763  22.323  1.00  0.00     0.041 A 
ATOM     23  F   UNL A   1      30.235  27.676  23.829  1.00  0.00    -0.205 F 
ATOM     24  C   UNL A   1      33.391  28.011  22.075  1.00  0.00     0.003 A 
ENDBRANCH  16  18
ENDBRANCH  13  14
ENDBRANCH  12  13
ENDBRANCH   6  12
ENDBRANCH   5   6
ENDBRANCH   3   5
ENDBRANCH   2   3
ENDBRANCH   1   2
BRANCH   1  25
ATOM     25  C   UNL A   1      35.985  20.960  25.029  1.00  0.00     0.275 C 
BRANCH  25  26
ATOM     26  O   UNL A   1      36.805  21.635  26.010  1.00  0.00    -0.458 OA
BRANCH  26  27
ATOM     27  C   UNL A   1      38.145  21.546  25.837  1.00  0.00     0.338 C 
ATOM     28  O   UNL A   1      38.743  20.635  25.279  1.00  0.00    -0.246 OA
BRANCH  27  29
ATOM     29  C   UNL A   1      38.850  22.714  26.419  1.00  0.00     0.060 A 
ATOM     30  C   UNL A   1      38.447  24.027  26.174  1.00  0.00     0.016 A 
ATOM     31  C   UNL A   1      40.012  22.483  27.161  1.00  0.00     0.016 A 
ATOM     32  C   UNL A   1      39.236  25.097  26.624  1.00  0.00     0.010 A 
ATOM     33  C   UNL A   1      40.752  23.558  27.671  1.00  0.00     0.010 A 
ATOM     34  C   UNL A   1      40.395  24.887  27.392  1.00  0.00    -0.014 A 
BRANCH  34  35
ATOM     35  C   UNL A   1      41.253  26.010  27.897  1.00  0.00     0.031 A 
ATOM     36  C   UNL A   1      40.653  27.089  28.772  1.00  0.00     0.074 A 
ATOM     37  C   UNL A   1      42.559  26.116  27.569  1.00  0.00     0.049 A 
ATOM     38  N   UNL A   1      41.083  28.304  29.008  1.00  0.00    -0.248 NA
ATOM     39  C   UNL A   1      39.397  26.758  29.464  1.00  0.00     0.031 C 
ATOM     40  C   UNL A   1      43.335  25.133  26.812  1.00  0.00     0.029 A 
ATOM     41  N   UNL A   1      43.469  27.119  27.827  1.00  0.00    -0.354 N 
ATOM     42  C   UNL A   1      40.117  28.907  29.809  1.00  0.00     0.074 A 
ATOM     43  C   UNL A   1      39.088  27.914  30.039  1.00  0.00     0.031 C 
ATOM     44  C   UNL A   1      44.602  25.557  26.704  1.00  0.00     0.029 A 
ATOM     45  C   UNL A   1      44.702  26.902  27.256  1.00  0.00     0.049 A 
ATOM     46  H   UNL A   1      43.257  27.913  28.369  1.00  0.00     0.167 HD
ATOM     47  C   UNL A   1      40.085  30.175  30.288  1.00  0.00     0.034 A 
ATOM     48  C   UNL A   1      45.773  27.711  27.103  1.00  0.00     0.034 A 
ATOM     49  C   UNL A   1      41.146  31.138  30.106  1.00  0.00     0.049 A 
ATOM     50  C   UNL A   1      45.695  29.138  27.569  1.00  0.00     0.074 A 
ATOM     51  C   UNL A   1      41.205  32.450  30.547  1.00  0.00     0.029 A 
ATOM     52  N   UNL A   1      42.344  30.889  29.452  1.00  0.00    -0.354 N 
ATOM     53  N   UNL A   1      44.704  29.755  28.167  1.00  0.00    -0.248 NA
ATOM     54  C   UNL A   1      46.862  29.990  27.300  1.00  0.00     0.031 C 
ATOM     55  C   UNL A   1      42.415  33.007  30.118  1.00  0.00     0.029 A 
ATOM     56  C   UNL A   1      43.138  32.025  29.464  1.00  0.00     0.049 A 
ATOM     57  H   UNL A   1      42.593  30.031  29.038  1.00  0.00     0.167 HD
ATOM     58  C   UNL A   1      45.127  31.069  28.341  1.00  0.00     0.074 A 
ATOM     59  C   UNL A   1      46.467  31.154  27.800  1.00  0.00     0.031 C 
ATOM     60  C   UNL A   1      44.461  32.110  28.899  1.00  0.00     0.034 A 
BRANCH  47  61
ATOM     61  C   UNL A   1      38.840  30.638  31.002  1.00  0.00     0.023 A 
ATOM     62  C   UNL A   1      37.761  31.232  30.328  1.00  0.00     0.031 A 
ATOM     63  C   UNL A   1      38.714  30.418  32.387  1.00  0.00     0.131 A 
ATOM     64  C   UNL A   1      36.613  31.606  31.046  1.00  0.00     0.055 A 
ATOM     65  C   UNL A   1      37.549  30.740  33.085  1.00  0.00     0.041 A 
ATOM     66  F   UNL A   1      39.722  29.868  33.084  1.00  0.00    -0.206 F 
ATOM     67  C   UNL A   1      36.489  31.341  32.412  1.00  0.00     0.022 A 
BRANCH  64  68
ATOM     68  S   UNL A   1      35.291  32.497  30.179  1.00  0.00     0.124 S 
ATOM     69  O   UNL A   1      34.292  32.637  31.234  1.00  0.00    -0.237 OA
ATOM     70  O   UNL A   1      35.956  33.726  29.762  1.00  0.00    -0.237 OA
ATOM     71  O   UNL A   1      34.921  31.590  29.093  1.00  0.00    -0.744 OA
ENDBRANCH  64  68
ENDBRANCH  47  61
BRANCH  48  72
ATOM     72  C   UNL A   1      46.967  27.215  26.362  1.00  0.00     0.023 A 
ATOM     73  C   UNL A   1      48.025  26.580  27.030  1.00  0.00     0.031 A 
ATOM     74  C   UNL A   1      47.041  27.336  24.963  1.00  0.00     0.131 A 
ATOM     75  C   UNL A   1      49.112  26.084  26.292  1.00  0.00     0.055 A 
ATOM     76  C   UNL A   1      48.102  26.802  24.232  1.00  0.00     0.041 A 
ATOM     77  F   UNL A   1      46.052  27.937  24.280  1.00  0.00    -0.206 F 
ATOM     78  C   UNL A   1      49.147  26.171  24.898  1.00  0.00     0.022 A 
BRANCH  75  79
ATOM     79  S   UNL A   1      50.495  25.319  27.183  1.00  0.00     0.124 S 
ATOM     80  O   UNL A   1      50.940  26.414  28.037  1.00  0.00    -0.237 OA
ATOM     81  O   UNL A   1      49.845  24.201  27.858  1.00  0.00    -0.237 OA
ATOM     82  O   UNL A   1      51.420  24.944  26.116  1.00  0.00    -0.744 OA
ENDBRANCH  75  79
ENDBRANCH  48  72
BRANCH  60  83
ATOM     83  C   UNL A   1      45.184  33.428  28.975  1.00  0.00     0.023 A 
ATOM     84  C   UNL A   1      46.039  33.734  30.046  1.00  0.00     0.031 A 
ATOM     85  C   UNL A   1      45.023  34.382  27.955  1.00  0.00     0.131 A 
ATOM     86  C   UNL A   1      46.677  34.983  30.091  1.00  0.00     0.055 A 
ATOM     87  C   UNL A   1      45.692  35.605  27.984  1.00  0.00     0.041 A 
ATOM     88  F   UNL A   1      44.217  34.134  26.911  1.00  0.00    -0.206 F 
ATOM     89  C   UNL A   1      46.520  35.913  29.061  1.00  0.00     0.022 A 
BRANCH  86  90
ATOM     90  S   UNL A   1      47.689  35.396  31.539  1.00  0.00     0.124 S 
ATOM     91  O   UNL A   1      47.775  36.851  31.439  1.00  0.00    -0.237 OA
ATOM     92  O   UNL A   1      46.890  34.878  32.643  1.00  0.00    -0.237 OA
ATOM     93  O   UNL A   1      48.942  34.684  31.297  1.00  0.00    -0.744 OA
ENDBRANCH  86  90
ENDBRANCH  60  83
ENDBRANCH  34  35
ENDBRANCH  27  29
ENDBRANCH  26  27
ENDBRANCH  25  26
ENDBRANCH   1  25
TORSDOF 20
ENDMDL
MODEL 3
REMARK VINA RESULT:     -11.0      1.795      2.378
REMARK SMILES CC(C)(C)[N@H+](CCC(=O)Nc1ccccc1F)CC(=O)OCCOC(=O)c1ccc(-c2c3nc(c(-c4cc(S(=O)(=O)[O-])ccc4F)c4ccc([nH]4)c(-c4cc(S(=O)(=O)[O-])ccc4F)c4nc(c(-c5cc(S(=O)(=O)[O-])ccc5F)c5ccc2[nH]5)C=C4)C=C3)cc1
REMARK SMILES IDX 22 1 21 2 19 3 20 4 18 5 5 6 2 8 1 9 3 10 4 11 6 12 7 13
REMARK SMILES IDX 8 14 9 15 10 16 11 18 12 19 16 20 13 21 15 22 17 23 14 24
REMARK SMILES IDX 23 25 24 26 25 27 26 28 27 29 28 30 89 31 29 32 88 33 30 34
REMARK SMILES IDX 31 35 32 36 82 37 33 38 87 39 81 40 83 41 34 42 86 43 80 44
REMARK SMILES IDX 79 45 35 47 67 48 47 49 66 50 48 51 51 52 65 53 84 54 49 55
REMARK SMILES IDX 50 56 64 58 85 59 52 60 36 61 37 62 45 63 38 64 44 65 46 66
REMARK SMILES IDX 43 67 39 68 40 69 41 70 42 71 68 72 69 73 77 74 70 75 76 76
REMARK SMILES IDX 78 77 75 78 71 79 72 80 73 81 74 82 53 83 54 84 62 85 55 86
REMARK SMILES IDX 61 87 63 88 60 89 56 90 57 91 58 92 59 93
REMARK H PARENT 5 7 10 17 83 46 51 57
REMARK Flexibility Score: inf
ROOT
ATOM      1  C   UNL A   1      34.736  21.298  25.298  1.00  0.00     0.274 C 
ENDROOT
BRANCH   1   2
ATOM      2  O   UNL A   1      34.542  21.670  26.669  1.00  0.00    -0.458 OA
BRANCH   2   3
ATOM      3  C   UNL A   1      33.439  22.437  26.894  1.00  0.00     0.361 C 
ATOM      4  O   UNL A   1      32.779  22.433  27.927  1.00  0.00    -0.245 OA
BRANCH   3   5
ATOM      5  C   UNL A   1      33.282  23.484  25.812  1.00  0.00     0.386 C 
BRANCH   5   6
ATOM      6  N   UNL A   1      31.899  23.673  25.323  1.00  0.00    -0.321 N 
ATOM      7  H   UNL A   1      31.340  22.871  25.615  1.00  0.00     0.349 HD
BRANCH   6   8
ATOM      8  C   UNL A   1      31.877  23.710  23.811  1.00  0.00     0.090 C 
ATOM      9  C   UNL A   1      31.981  22.310  23.157  1.00  0.00     0.078 C 
ATOM     10  C   UNL A   1      33.132  24.489  23.345  1.00  0.00     0.078 C 
ATOM     11  C   UNL A   1      30.614  24.383  23.212  1.00  0.00     0.078 C 
ENDBRANCH   6   8
BRANCH   6  12
ATOM     12  C   UNL A   1      31.246  24.852  25.941  1.00  0.00     0.273 C 
BRANCH  12  13
ATOM     13  C   UNL A   1      32.046  25.879  26.756  1.00  0.00     0.161 C 
BRANCH  13  14
ATOM     14  C   UNL A   1      31.745  27.363  26.917  1.00  0.00     0.230 C 
ATOM     15  O   UNL A   1      31.225  27.727  27.984  1.00  0.00    -0.275 OA
ATOM     16  N   UNL A   1      32.031  28.345  26.027  1.00  0.00    -0.323 N 
ATOM     17  H   UNL A   1      31.971  29.251  26.408  1.00  0.00     0.170 HD
BRANCH  16  18
ATOM     18  C   UNL A   1      32.392  28.331  24.676  1.00  0.00     0.077 A 
ATOM     19  C   UNL A   1      33.710  28.689  24.371  1.00  0.00     0.029 A 
ATOM     20  C   UNL A   1      31.535  27.972  23.638  1.00  0.00     0.146 A 
ATOM     21  C   UNL A   1      34.197  28.530  23.071  1.00  0.00     0.002 A 
ATOM     22  C   UNL A   1      32.011  27.830  22.336  1.00  0.00     0.041 A 
ATOM     23  F   UNL A   1      30.238  27.732  23.882  1.00  0.00    -0.205 F 
ATOM     24  C   UNL A   1      33.354  28.077  22.060  1.00  0.00     0.003 A 
ENDBRANCH  16  18
ENDBRANCH  13  14
ENDBRANCH  12  13
ENDBRANCH   6  12
ENDBRANCH   5   6
ENDBRANCH   3   5
ENDBRANCH   2   3
ENDBRANCH   1   2
BRANCH   1  25
ATOM     25  C   UNL A   1      36.237  21.202  25.013  1.00  0.00     0.275 C 
BRANCH  25  26
ATOM     26  O   UNL A   1      36.991  21.916  26.020  1.00  0.00    -0.458 OA
BRANCH  26  27
ATOM     27  C   UNL A   1      38.340  21.806  25.950  1.00  0.00     0.338 C 
ATOM     28  O   UNL A   1      38.965  20.873  25.463  1.00  0.00    -0.246 OA
BRANCH  27  29
ATOM     29  C   UNL A   1      39.015  22.979  26.555  1.00  0.00     0.060 A 
ATOM     30  C   UNL A   1      38.616  24.290  26.288  1.00  0.00     0.016 A 
ATOM     31  C   UNL A   1      40.147  22.758  27.344  1.00  0.00     0.016 A 
ATOM     32  C   UNL A   1      39.380  25.365  26.765  1.00  0.00     0.010 A 
ATOM     33  C   UNL A   1      40.861  23.838  27.879  1.00  0.00     0.010 A 
ATOM     34  C   UNL A   1      40.508  25.165  27.579  1.00  0.00    -0.014 A 
BRANCH  34  35
ATOM     35  C   UNL A   1      41.340  26.294  28.114  1.00  0.00     0.031 A 
ATOM     36  C   UNL A   1      40.708  27.356  28.987  1.00  0.00     0.074 A 
ATOM     37  C   UNL A   1      42.651  26.422  27.814  1.00  0.00     0.049 A 
ATOM     38  N   UNL A   1      41.116  28.574  29.244  1.00  0.00    -0.248 NA
ATOM     39  C   UNL A   1      39.442  27.000  29.649  1.00  0.00     0.031 C 
ATOM     40  C   UNL A   1      43.456  25.458  27.063  1.00  0.00     0.029 A 
ATOM     41  N   UNL A   1      43.541  27.434  28.100  1.00  0.00    -0.354 N 
ATOM     42  C   UNL A   1      40.124  29.155  30.030  1.00  0.00     0.074 A 
ATOM     43  C   UNL A   1      39.105  28.146  30.229  1.00  0.00     0.031 C 
ATOM     44  C   UNL A   1      44.719  25.900  26.985  1.00  0.00     0.029 A 
ATOM     45  C   UNL A   1      44.789  27.241  27.553  1.00  0.00     0.049 A 
ATOM     46  H   UNL A   1      43.307  28.219  28.646  1.00  0.00     0.167 HD
ATOM     47  C   UNL A   1      40.065  30.418  30.522  1.00  0.00     0.034 A 
ATOM     48  C   UNL A   1      45.851  28.066  27.430  1.00  0.00     0.034 A 
ATOM     49  C   UNL A   1      41.116  31.397  30.371  1.00  0.00     0.049 A 
ATOM     50  C   UNL A   1      45.743  29.487  27.909  1.00  0.00     0.074 A 
ATOM     51  C   UNL A   1      41.147  32.705  30.826  1.00  0.00     0.029 A 
ATOM     52  N   UNL A   1      42.330  31.172  29.739  1.00  0.00    -0.354 N 
ATOM     53  N   UNL A   1      44.732  30.083  28.492  1.00  0.00    -0.248 NA
ATOM     54  C   UNL A   1      46.904  30.357  27.673  1.00  0.00     0.031 C 
ATOM     55  C   UNL A   1      42.357  33.284  30.429  1.00  0.00     0.029 A 
ATOM     56  C   UNL A   1      43.108  32.318  29.780  1.00  0.00     0.049 A 
ATOM     57  H   UNL A   1      42.600  30.322  29.322  1.00  0.00     0.167 HD
ATOM     58  C   UNL A   1      45.133  31.401  28.688  1.00  0.00     0.074 A 
ATOM     59  C   UNL A   1      46.483  31.510  28.176  1.00  0.00     0.031 C 
ATOM     60  C   UNL A   1      44.441  32.428  29.242  1.00  0.00     0.034 A 
BRANCH  47  61
ATOM     61  C   UNL A   1      38.799  30.856  31.215  1.00  0.00     0.023 A 
ATOM     62  C   UNL A   1      37.720  31.428  30.522  1.00  0.00     0.031 A 
ATOM     63  C   UNL A   1      38.655  30.634  32.598  1.00  0.00     0.131 A 
ATOM     64  C   UNL A   1      36.553  31.779  31.220  1.00  0.00     0.055 A 
ATOM     65  C   UNL A   1      37.472  30.932  33.275  1.00  0.00     0.041 A 
ATOM     66  F   UNL A   1      39.662  30.104  33.312  1.00  0.00    -0.206 F 
ATOM     67  C   UNL A   1      36.412  31.512  32.585  1.00  0.00     0.022 A 
BRANCH  64  68
ATOM     68  S   UNL A   1      35.228  32.643  30.331  1.00  0.00     0.124 S 
ATOM     69  O   UNL A   1      34.231  32.812  31.383  1.00  0.00    -0.237 OA
ATOM     70  O   UNL A   1      35.890  33.861  29.879  1.00  0.00    -0.237 OA
ATOM     71  O   UNL A   1      34.858  31.705  29.272  1.00  0.00    -0.744 OA
ENDBRANCH  64  68
ENDBRANCH  47  61
BRANCH  48  72
ATOM     72  C   UNL A   1      47.067  27.594  26.709  1.00  0.00     0.023 A 
ATOM     73  C   UNL A   1      47.191  27.739  25.319  1.00  0.00     0.031 A 
ATOM     74  C   UNL A   1      48.141  27.025  27.417  1.00  0.00     0.131 A 
ATOM     75  C   UNL A   1      48.372  27.324  24.682  1.00  0.00     0.055 A 
ATOM     76  C   UNL A   1      49.328  26.656  26.785  1.00  0.00     0.041 A 
ATOM     77  F   UNL A   1      48.067  26.865  28.749  1.00  0.00    -0.206 F 
ATOM     78  C   UNL A   1      49.448  26.805  25.407  1.00  0.00     0.022 A 
BRANCH  75  79
ATOM     79  S   UNL A   1      48.487  27.468  22.877  1.00  0.00     0.124 S 
ATOM     80  O   UNL A   1      49.756  28.168  22.716  1.00  0.00    -0.237 OA
ATOM     81  O   UNL A   1      48.466  26.072  22.456  1.00  0.00    -0.237 OA
ATOM     82  O   UNL A   1      47.298  28.240  22.522  1.00  0.00    -0.744 OA
ENDBRANCH  75  79
ENDBRANCH  48  72
BRANCH  60  83
ATOM     83  C   UNL A   1      45.143  33.754  29.347  1.00  0.00     0.023 A 
ATOM     84  C   UNL A   1      45.147  34.667  28.280  1.00  0.00     0.031 A 
ATOM     85  C   UNL A   1      45.806  34.111  30.534  1.00  0.00     0.131 A 
ATOM     86  C   UNL A   1      45.834  35.884  28.408  1.00  0.00     0.055 A 
ATOM     87  C   UNL A   1      46.451  35.340  30.671  1.00  0.00     0.041 A 
ATOM     88  F   UNL A   1      45.828  33.272  31.581  1.00  0.00    -0.206 F 
ATOM     89  C   UNL A   1      46.473  36.232  29.601  1.00  0.00     0.022 A 
BRANCH  86  90
ATOM     90  S   UNL A   1      45.916  36.998  26.979  1.00  0.00     0.124 S 
ATOM     91  O   UNL A   1      47.016  37.884  27.352  1.00  0.00    -0.237 OA
ATOM     92  O   UNL A   1      46.182  36.081  25.877  1.00  0.00    -0.237 OA
ATOM     93  O   UNL A   1      44.596  37.625  26.955  1.00  0.00    -0.744 OA
ENDBRANCH  86  90
ENDBRANCH  60  83
ENDBRANCH  34  35
ENDBRANCH  27  29
ENDBRANCH  26  27
ENDBRANCH  25  26
ENDBRANCH   1  25
TORSDOF 20
ENDMDL
