MODEL 1
REMARK VINA RESULT:     -12.0      0.000      0.000
REMARK SMILES CC(=O)c1nnn(-c2ccc(C(=O)OCCOC(=O)c3ccc(-c4c5nc(c(-c6cc(S(=O)(=O)[O-])ccc6F)c6ccc([nH]6)c(-c6cc(S(=O)(=O)[O-])ccc6F)c6nc(c(-c7cc(S(=O)(=O)[O-])ccc7F)c7ccc4[nH]7)C=C6)C=C5)cc3)cc2)c1C
REMARK SMILES IDX 16 1 15 2 14 3 12 4 13 5 11 6 8 7 9 8 84 9 10 10 83 11 7 12
REMARK SMILES IDX 4 13 5 14 85 15 6 16 86 17 2 18 1 19 3 20 17 21 18 22 19 23
REMARK SMILES IDX 20 24 21 25 82 26 22 27 81 28 23 29 24 30 25 31 75 32 26 33
REMARK SMILES IDX 80 34 74 35 76 36 27 37 79 38 73 39 72 40 28 42 60 43 40 44
REMARK SMILES IDX 59 45 41 46 44 47 58 48 77 49 42 50 43 51 57 53 78 54 45 55
REMARK SMILES IDX 29 56 30 57 38 58 31 59 37 60 39 61 36 62 32 63 33 64 34 65
REMARK SMILES IDX 35 66 61 67 62 68 70 69 63 70 69 71 71 72 68 73 64 74 65 75
REMARK SMILES IDX 66 76 67 77 46 78 47 79 55 80 48 81 54 82 56 83 53 84 49 85
REMARK SMILES IDX 50 86 51 87 52 88
REMARK H PARENT 76 41 44 52
REMARK Flexibility Score: inf
ROOT
ATOM      1  C   UNL A   1      42.500  23.610  26.387  1.00  0.00     0.275 C 
ENDROOT
BRANCH   1   2
ATOM      2  C   UNL A   1      41.961  22.197  26.213  1.00  0.00     0.275 C 
BRANCH   2   3
ATOM      3  O   UNL A   1      40.644  22.069  26.777  1.00  0.00    -0.458 OA
BRANCH   3   4
ATOM      4  C   UNL A   1      39.832  21.141  26.208  1.00  0.00     0.338 C 
ATOM      5  O   UNL A   1      40.054  19.942  26.117  1.00  0.00    -0.246 OA
BRANCH   4   6
ATOM      6  C   UNL A   1      38.568  21.772  25.744  1.00  0.00     0.060 A 
ATOM      7  C   UNL A   1      36.082  22.875  25.186  1.00  0.00     0.067 A 
ATOM      8  C   UNL A   1      37.046  23.671  25.807  1.00  0.00     0.029 A 
ATOM      9  C   UNL A   1      36.406  21.605  24.696  1.00  0.00     0.029 A 
ATOM     10  C   UNL A   1      38.287  23.101  26.108  1.00  0.00     0.018 A 
ATOM     11  C   UNL A   1      37.652  21.055  24.971  1.00  0.00     0.018 A 
BRANCH   7  12
ATOM     12  N   UNL A   1      34.729  23.266  25.211  1.00  0.00    -0.217 N 
ATOM     13  C   UNL A   1      32.645  23.584  25.775  1.00  0.00     0.151 A 
ATOM     14  N   UNL A   1      32.906  24.262  24.612  1.00  0.00    -0.126 NA
ATOM     15  C   UNL A   1      33.810  22.980  26.216  1.00  0.00     0.073 A 
ATOM     16  N   UNL A   1      34.203  24.159  24.351  1.00  0.00    -0.061 NA
ATOM     17  C   UNL A   1      34.164  22.274  27.474  1.00  0.00     0.069 C 
BRANCH  13  18
ATOM     18  C   UNL A   1      31.338  23.627  26.412  1.00  0.00     0.181 C 
ATOM     19  C   UNL A   1      30.360  22.522  26.092  1.00  0.00     0.095 C 
ATOM     20  O   UNL A   1      31.029  24.517  27.204  1.00  0.00    -0.293 OA
ENDBRANCH  13  18
ENDBRANCH   7  12
ENDBRANCH   4   6
ENDBRANCH   3   4
ENDBRANCH   2   3
ENDBRANCH   1   2
BRANCH   1  21
ATOM     21  O   UNL A   1      41.457  24.494  26.785  1.00  0.00    -0.458 OA
BRANCH  21  22
ATOM     22  C   UNL A   1      41.347  25.616  26.037  1.00  0.00     0.338 C 
ATOM     23  O   UNL A   1      41.908  25.855  24.981  1.00  0.00    -0.246 OA
BRANCH  22  24
ATOM     24  C   UNL A   1      40.576  26.612  26.780  1.00  0.00     0.060 A 
ATOM     25  C   UNL A   1      40.695  27.944  26.365  1.00  0.00     0.016 A 
ATOM     26  C   UNL A   1      40.089  26.257  28.044  1.00  0.00     0.016 A 
ATOM     27  C   UNL A   1      40.550  28.932  27.312  1.00  0.00     0.010 A 
ATOM     28  C   UNL A   1      39.980  27.238  28.990  1.00  0.00     0.010 A 
ATOM     29  C   UNL A   1      40.303  28.545  28.630  1.00  0.00    -0.014 A 
BRANCH  29  30
ATOM     30  C   UNL A   1      40.354  29.545  29.673  1.00  0.00     0.031 A 
ATOM     31  C   UNL A   1      39.098  30.315  29.792  1.00  0.00     0.074 A 
ATOM     32  C   UNL A   1      41.381  29.570  30.545  1.00  0.00     0.049 A 
ATOM     33  N   UNL A   1      38.912  31.576  29.599  1.00  0.00    -0.248 NA
ATOM     34  C   UNL A   1      37.850  29.545  29.951  1.00  0.00     0.031 C 
ATOM     35  C   UNL A   1      42.489  28.615  30.653  1.00  0.00     0.029 A 
ATOM     36  N   UNL A   1      41.567  30.370  31.624  1.00  0.00    -0.354 N 
ATOM     37  C   UNL A   1      37.562  31.789  29.857  1.00  0.00     0.074 A 
ATOM     38  C   UNL A   1      36.936  30.500  29.798  1.00  0.00     0.031 C 
ATOM     39  C   UNL A   1      43.059  28.736  31.874  1.00  0.00     0.029 A 
ATOM     40  C   UNL A   1      42.431  29.844  32.578  1.00  0.00     0.049 A 
ATOM     41  H   UNL A   1      41.128  31.246  31.723  1.00  0.00     0.167 HD
ATOM     42  C   UNL A   1      37.123  32.958  30.395  1.00  0.00     0.034 A 
ATOM     43  C   UNL A   1      42.522  30.220  33.883  1.00  0.00     0.034 A 
ATOM     44  C   UNL A   1      38.112  34.000  30.242  1.00  0.00     0.049 A 
ATOM     45  C   UNL A   1      41.884  31.562  33.988  1.00  0.00     0.074 A 
ATOM     46  C   UNL A   1      38.751  34.565  29.154  1.00  0.00     0.029 A 
ATOM     47  N   UNL A   1      38.878  34.337  31.337  1.00  0.00    -0.354 N 
ATOM     48  N   UNL A   1      42.355  32.630  33.403  1.00  0.00    -0.248 NA
ATOM     49  C   UNL A   1      40.462  31.618  34.305  1.00  0.00     0.031 C 
ATOM     50  C   UNL A   1      40.096  34.767  29.582  1.00  0.00     0.029 A 
ATOM     51  C   UNL A   1      40.187  34.392  30.924  1.00  0.00     0.049 A 
ATOM     52  H   UNL A   1      38.546  34.508  32.248  1.00  0.00     0.167 HD
ATOM     53  C   UNL A   1      41.244  33.288  32.894  1.00  0.00     0.074 A 
ATOM     54  C   UNL A   1      40.100  32.672  33.565  1.00  0.00     0.031 C 
ATOM     55  C   UNL A   1      41.325  34.054  31.763  1.00  0.00     0.034 A 
BRANCH  42  56
ATOM     56  C   UNL A   1      35.982  33.058  31.385  1.00  0.00     0.023 A 
ATOM     57  C   UNL A   1      34.901  33.879  31.019  1.00  0.00     0.031 A 
ATOM     58  C   UNL A   1      36.007  32.649  32.741  1.00  0.00     0.131 A 
ATOM     59  C   UNL A   1      33.992  34.347  31.982  1.00  0.00     0.055 A 
ATOM     60  C   UNL A   1      35.055  33.057  33.678  1.00  0.00     0.041 A 
ATOM     61  F   UNL A   1      36.990  31.914  33.270  1.00  0.00    -0.206 F 
ATOM     62  C   UNL A   1      34.061  33.942  33.311  1.00  0.00     0.022 A 
BRANCH  59  63
ATOM     63  S   UNL A   1      32.838  35.653  31.496  1.00  0.00     0.124 S 
ATOM     64  O   UNL A   1      33.624  36.853  31.757  1.00  0.00    -0.237 OA
ATOM     65  O   UNL A   1      32.597  35.329  30.094  1.00  0.00    -0.237 OA
ATOM     66  O   UNL A   1      31.700  35.445  32.390  1.00  0.00    -0.744 OA
ENDBRANCH  59  63
ENDBRANCH  42  56
BRANCH  43  67
ATOM     67  C   UNL A   1      42.759  29.312  35.044  1.00  0.00     0.023 A 
ATOM     68  C   UNL A   1      42.048  28.111  35.245  1.00  0.00     0.031 A 
ATOM     69  C   UNL A   1      43.873  29.532  35.890  1.00  0.00     0.131 A 
ATOM     70  C   UNL A   1      42.446  27.206  36.262  1.00  0.00     0.055 A 
ATOM     71  C   UNL A   1      44.254  28.645  36.898  1.00  0.00     0.041 A 
ATOM     72  F   UNL A   1      44.686  30.586  35.712  1.00  0.00    -0.206 F 
ATOM     73  C   UNL A   1      43.544  27.471  37.085  1.00  0.00     0.022 A 
BRANCH  70  74
ATOM     74  S   UNL A   1      41.584  25.615  36.480  1.00  0.00     0.124 S 
ATOM     75  O   UNL A   1      42.672  24.652  36.357  1.00  0.00    -0.237 OA
ATOM     76  O   UNL A   1      40.990  25.760  37.804  1.00  0.00    -0.237 OA
ATOM     77  O   UNL A   1      40.621  25.593  35.378  1.00  0.00    -0.744 OA
ENDBRANCH  70  74
ENDBRANCH  43  67
BRANCH  55  78
ATOM     78  C   UNL A   1      42.699  34.388  31.211  1.00  0.00     0.023 A 
ATOM     79  C   UNL A   1      43.326  33.709  30.141  1.00  0.00     0.031 A 
ATOM     80  C   UNL A   1      43.332  35.540  31.711  1.00  0.00     0.131 A 
ATOM     81  C   UNL A   1      44.545  34.188  29.618  1.00  0.00     0.055 A 
ATOM     82  C   UNL A   1      44.528  36.021  31.178  1.00  0.00     0.041 A 
ATOM     83  F   UNL A   1      42.773  36.246  32.707  1.00  0.00    -0.206 F 
ATOM     84  C   UNL A   1      45.141  35.344  30.132  1.00  0.00     0.022 A 
BRANCH  81  85
ATOM     85  S   UNL A   1      45.389  33.305  28.264  1.00  0.00     0.124 S 
ATOM     86  O   UNL A   1      46.246  34.324  27.672  1.00  0.00    -0.237 OA
ATOM     87  O   UNL A   1      46.071  32.223  28.969  1.00  0.00    -0.237 OA
ATOM     88  O   UNL A   1      44.285  32.866  27.406  1.00  0.00    -0.744 OA
ENDBRANCH  81  85
ENDBRANCH  55  78
ENDBRANCH  29  30
ENDBRANCH  22  24
ENDBRANCH  21  22
ENDBRANCH   1  21
TORSDOF 16
ENDMDL
MODEL 2
REMARK VINA RESULT:     -11.7      4.604     10.651
REMARK SMILES CC(=O)c1nnn(-c2ccc(C(=O)OCCOC(=O)c3ccc(-c4c5nc(c(-c6cc(S(=O)(=O)[O-])ccc6F)c6ccc([nH]6)c(-c6cc(S(=O)(=O)[O-])ccc6F)c6nc(c(-c7cc(S(=O)(=O)[O-])ccc7F)c7ccc4[nH]7)C=C6)C=C5)cc3)cc2)c1C
REMARK SMILES IDX 16 1 15 2 14 3 12 4 13 5 11 6 8 7 9 8 84 9 10 10 83 11 7 12
REMARK SMILES IDX 4 13 5 14 85 15 6 16 86 17 2 18 1 19 3 20 17 21 18 22 19 23
REMARK SMILES IDX 20 24 21 25 82 26 22 27 81 28 23 29 24 30 25 31 75 32 26 33
REMARK SMILES IDX 80 34 74 35 76 36 27 37 79 38 73 39 72 40 28 42 60 43 40 44
REMARK SMILES IDX 59 45 41 46 44 47 58 48 77 49 42 50 43 51 57 53 78 54 45 55
REMARK SMILES IDX 29 56 30 57 38 58 31 59 37 60 39 61 36 62 32 63 33 64 34 65
REMARK SMILES IDX 35 66 61 67 62 68 70 69 63 70 69 71 71 72 68 73 64 74 65 75
REMARK SMILES IDX 66 76 67 77 46 78 47 79 55 80 48 81 54 82 56 83 53 84 49 85
REMARK SMILES IDX 50 86 51 87 52 88
REMARK H PARENT 76 41 44 52
REMARK Flexibility Score: inf
ROOT
ATOM      1  C   UNL A   1      35.470  31.690  27.964  1.00  0.00     0.275 C 
ENDROOT
BRANCH   1   2
ATOM      2  C   UNL A   1      33.974  31.971  27.957  1.00  0.00     0.275 C 
BRANCH   2   3
ATOM      3  O   UNL A   1      33.223  30.790  27.629  1.00  0.00    -0.458 OA
BRANCH   3   4
ATOM      4  C   UNL A   1      32.098  30.974  26.893  1.00  0.00     0.338 C 
ATOM      5  O   UNL A   1      31.503  32.031  26.729  1.00  0.00    -0.246 OA
BRANCH   4   6
ATOM      6  C   UNL A   1      31.691  29.703  26.237  1.00  0.00     0.060 A 
ATOM      7  C   UNL A   1      31.266  27.265  24.978  1.00  0.00     0.067 A 
ATOM      8  C   UNL A   1      31.448  27.284  26.362  1.00  0.00     0.029 A 
ATOM      9  C   UNL A   1      31.127  28.456  24.256  1.00  0.00     0.029 A 
ATOM     10  C   UNL A   1      31.687  28.513  26.986  1.00  0.00     0.018 A 
ATOM     11  C   UNL A   1      31.334  29.676  24.886  1.00  0.00     0.018 A 
BRANCH   7  12
ATOM     12  N   UNL A   1      31.406  26.056  24.270  1.00  0.00    -0.217 N 
ATOM     13  C   UNL A   1      32.203  24.287  23.271  1.00  0.00     0.151 A 
ATOM     14  N   UNL A   1      30.833  24.225  23.273  1.00  0.00    -0.126 NA
ATOM     15  C   UNL A   1      32.604  25.423  23.953  1.00  0.00     0.073 A 
ATOM     16  N   UNL A   1      30.370  25.242  23.989  1.00  0.00    -0.061 NA
ATOM     17  C   UNL A   1      33.932  25.910  24.406  1.00  0.00     0.069 C 
BRANCH  13  18
ATOM     18  C   UNL A   1      33.018  23.230  22.693  1.00  0.00     0.181 C 
ATOM     19  C   UNL A   1      33.424  22.083  23.588  1.00  0.00     0.095 C 
ATOM     20  O   UNL A   1      33.360  23.244  21.511  1.00  0.00    -0.293 OA
ENDBRANCH  13  18
ENDBRANCH   7  12
ENDBRANCH   4   6
ENDBRANCH   3   4
ENDBRANCH   2   3
ENDBRANCH   1   2
BRANCH   1  21
ATOM     21  O   UNL A   1      35.725  30.365  28.418  1.00  0.00    -0.458 OA
BRANCH  21  22
ATOM     22  C   UNL A   1      36.726  30.255  29.320  1.00  0.00     0.338 C 
ATOM     23  O   UNL A   1      36.931  30.974  30.284  1.00  0.00    -0.246 OA
BRANCH  22  24
ATOM     24  C   UNL A   1      37.668  29.232  28.868  1.00  0.00     0.060 A 
ATOM     25  C   UNL A   1      38.081  28.288  29.815  1.00  0.00     0.016 A 
ATOM     26  C   UNL A   1      38.372  29.466  27.680  1.00  0.00     0.016 A 
ATOM     27  C   UNL A   1      39.339  27.745  29.682  1.00  0.00     0.010 A 
ATOM     28  C   UNL A   1      39.634  28.953  27.569  1.00  0.00     0.010 A 
ATOM     29  C   UNL A   1      40.130  28.178  28.616  1.00  0.00    -0.014 A 
BRANCH  29  30
ATOM     30  C   UNL A   1      41.520  27.785  28.572  1.00  0.00     0.031 A 
ATOM     31  C   UNL A   1      41.727  26.481  27.909  1.00  0.00     0.074 A 
ATOM     32  C   UNL A   1      42.487  28.657  28.919  1.00  0.00     0.049 A 
ATOM     33  N   UNL A   1      42.191  25.390  28.417  1.00  0.00    -0.248 NA
ATOM     34  C   UNL A   1      41.158  26.316  26.558  1.00  0.00     0.031 C 
ATOM     35  C   UNL A   1      42.333  30.070  29.278  1.00  0.00     0.029 A 
ATOM     36  N   UNL A   1      43.834  28.503  28.872  1.00  0.00    -0.354 N 
ATOM     37  C   UNL A   1      42.196  24.474  27.370  1.00  0.00     0.074 A 
ATOM     38  C   UNL A   1      41.321  25.009  26.367  1.00  0.00     0.031 C 
ATOM     39  C   UNL A   1      43.528  30.691  29.151  1.00  0.00     0.029 A 
ATOM     40  C   UNL A   1      44.539  29.700  28.815  1.00  0.00     0.049 A 
ATOM     41  H   UNL A   1      44.273  27.622  28.876  1.00  0.00     0.167 HD
ATOM     42  C   UNL A   1      43.148  23.507  27.285  1.00  0.00     0.034 A 
ATOM     43  C   UNL A   1      45.825  29.863  28.398  1.00  0.00     0.034 A 
ATOM     44  C   UNL A   1      43.804  23.315  28.558  1.00  0.00     0.049 A 
ATOM     45  C   UNL A   1      46.467  28.521  28.454  1.00  0.00     0.074 A 
ATOM     46  C   UNL A   1      43.363  22.981  29.825  1.00  0.00     0.029 A 
ATOM     47  N   UNL A   1      45.056  23.862  28.735  1.00  0.00    -0.354 N 
ATOM     48  N   UNL A   1      46.662  27.863  29.565  1.00  0.00    -0.248 NA
ATOM     49  C   UNL A   1      46.422  27.691  27.256  1.00  0.00     0.031 C 
ATOM     50  C   UNL A   1      44.135  23.791  30.708  1.00  0.00     0.029 A 
ATOM     51  C   UNL A   1      45.056  24.513  29.945  1.00  0.00     0.049 A 
ATOM     52  H   UNL A   1      45.812  23.798  28.108  1.00  0.00     0.167 HD
ATOM     53  C   UNL A   1      46.332  26.546  29.274  1.00  0.00     0.074 A 
ATOM     54  C   UNL A   1      46.287  26.484  27.814  1.00  0.00     0.031 C 
ATOM     55  C   UNL A   1      45.830  25.708  30.233  1.00  0.00     0.034 A 
BRANCH  42  56
ATOM     56  C   UNL A   1      43.741  23.016  25.982  1.00  0.00     0.023 A 
ATOM     57  C   UNL A   1      43.809  21.623  25.806  1.00  0.00     0.031 A 
ATOM     58  C   UNL A   1      44.483  23.786  25.053  1.00  0.00     0.131 A 
ATOM     59  C   UNL A   1      44.662  21.057  24.844  1.00  0.00     0.055 A 
ATOM     60  C   UNL A   1      45.272  23.218  24.049  1.00  0.00     0.041 A 
ATOM     61  F   UNL A   1      44.574  25.118  25.108  1.00  0.00    -0.206 F 
ATOM     62  C   UNL A   1      45.395  21.846  23.963  1.00  0.00     0.022 A 
BRANCH  59  63
ATOM     63  S   UNL A   1      44.942  19.271  24.903  1.00  0.00     0.124 S 
ATOM     64  O   UNL A   1      44.894  18.919  23.489  1.00  0.00    -0.237 OA
ATOM     65  O   UNL A   1      46.250  19.197  25.545  1.00  0.00    -0.237 OA
ATOM     66  O   UNL A   1      43.824  18.782  25.707  1.00  0.00    -0.744 OA
ENDBRANCH  59  63
ENDBRANCH  42  56
BRANCH  43  67
ATOM     67  C   UNL A   1      46.351  31.010  27.600  1.00  0.00     0.023 A 
ATOM     68  C   UNL A   1      45.521  31.952  26.957  1.00  0.00     0.031 A 
ATOM     69  C   UNL A   1      47.734  31.313  27.636  1.00  0.00     0.131 A 
ATOM     70  C   UNL A   1      46.080  33.116  26.373  1.00  0.00     0.055 A 
ATOM     71  C   UNL A   1      48.282  32.454  27.048  1.00  0.00     0.041 A 
ATOM     72  F   UNL A   1      48.598  30.544  28.318  1.00  0.00    -0.206 F 
ATOM     73  C   UNL A   1      47.454  33.367  26.419  1.00  0.00     0.022 A 
BRANCH  70  74
ATOM     74  S   UNL A   1      45.010  34.379  25.608  1.00  0.00     0.124 S 
ATOM     75  O   UNL A   1      45.563  35.619  26.140  1.00  0.00    -0.237 OA
ATOM     76  O   UNL A   1      45.209  34.136  24.184  1.00  0.00    -0.237 OA
ATOM     77  O   UNL A   1      43.675  34.042  26.105  1.00  0.00    -0.744 OA
ENDBRANCH  70  74
ENDBRANCH  43  67
BRANCH  55  78
ATOM     78  C   UNL A   1      45.879  26.155  31.682  1.00  0.00     0.023 A 
ATOM     79  C   UNL A   1      44.792  26.721  32.389  1.00  0.00     0.031 A 
ATOM     80  C   UNL A   1      47.045  25.859  32.410  1.00  0.00     0.131 A 
ATOM     81  C   UNL A   1      44.904  26.974  33.772  1.00  0.00     0.055 A 
ATOM     82  C   UNL A   1      47.144  26.093  33.781  1.00  0.00     0.041 A 
ATOM     83  F   UNL A   1      48.100  25.293  31.803  1.00  0.00    -0.206 F 
ATOM     84  C   UNL A   1      46.075  26.656  34.467  1.00  0.00     0.022 A 
BRANCH  81  85
ATOM     85  S   UNL A   1      43.530  27.740  34.694  1.00  0.00     0.124 S 
ATOM     86  O   UNL A   1      42.395  27.608  33.788  1.00  0.00    -0.237 OA
ATOM     87  O   UNL A   1      43.477  26.934  35.910  1.00  0.00    -0.237 OA
ATOM     88  O   UNL A   1      43.985  29.117  34.898  1.00  0.00    -0.744 OA
ENDBRANCH  81  85
ENDBRANCH  55  78
ENDBRANCH  29  30
ENDBRANCH  22  24
ENDBRANCH  21  22
ENDBRANCH   1  21
TORSDOF 16
ENDMDL
MODEL 3
REMARK VINA RESULT:     -11.6      4.501     10.367
REMARK SMILES CC(=O)c1nnn(-c2ccc(C(=O)OCCOC(=O)c3ccc(-c4c5nc(c(-c6cc(S(=O)(=O)[O-])ccc6F)c6ccc([nH]6)c(-c6cc(S(=O)(=O)[O-])ccc6F)c6nc(c(-c7cc(S(=O)(=O)[O-])ccc7F)c7ccc4[nH]7)C=C6)C=C5)cc3)cc2)c1C
REMARK SMILES IDX 16 1 15 2 14 3 12 4 13 5 11 6 8 7 9 8 84 9 10 10 83 11 7 12
REMARK SMILES IDX 4 13 5 14 85 15 6 16 86 17 2 18 1 19 3 20 17 21 18 22 19 23
REMARK SMILES IDX 20 24 21 25 82 26 22 27 81 28 23 29 24 30 25 31 75 32 26 33
REMARK SMILES IDX 80 34 74 35 76 36 27 37 79 38 73 39 72 40 28 42 60 43 40 44
REMARK SMILES IDX 59 45 41 46 44 47 58 48 77 49 42 50 43 51 57 53 78 54 45 55
REMARK SMILES IDX 29 56 30 57 38 58 31 59 37 60 39 61 36 62 32 63 33 64 34 65
REMARK SMILES IDX 35 66 61 67 62 68 70 69 63 70 69 71 71 72 68 73 64 74 65 75
REMARK SMILES IDX 66 76 67 77 46 78 47 79 55 80 48 81 54 82 56 83 53 84 49 85
REMARK SMILES IDX 50 86 51 87 52 88
REMARK H PARENT 76 41 44 52
REMARK Flexibility Score: inf
ROOT
ATOM      1  C   UNL A   1      34.828  30.605  28.023  1.00  0.00     0.275 C 
ENDROOT
BRANCH   1   2
ATOM      2  C   UNL A   1      34.610  29.511  26.986  1.00  0.00     0.275 C 
BRANCH   2   3
ATOM      3  O   UNL A   1      33.348  28.850  27.184  1.00  0.00    -0.458 OA
BRANCH   3   4
ATOM      4  C   UNL A   1      32.742  28.361  26.073  1.00  0.00     0.338 C 
ATOM      5  O   UNL A   1      32.223  29.019  25.181  1.00  0.00    -0.246 OA
BRANCH   4   6
ATOM      6  C   UNL A   1      32.838  26.878  26.038  1.00  0.00     0.060 A 
ATOM      7  C   UNL A   1      32.908  24.129  25.650  1.00  0.00     0.067 A 
ATOM      8  C   UNL A   1      34.022  24.888  25.289  1.00  0.00     0.029 A 
ATOM      9  C   UNL A   1      31.843  24.707  26.351  1.00  0.00     0.029 A 
ATOM     10  C   UNL A   1      33.971  26.274  25.464  1.00  0.00     0.018 A 
ATOM     11  C   UNL A   1      31.810  26.081  26.550  1.00  0.00     0.018 A 
BRANCH   7  12
ATOM     12  N   UNL A   1      32.759  22.820  25.152  1.00  0.00    -0.217 N 
ATOM     13  C   UNL A   1      32.812  20.654  24.889  1.00  0.00     0.151 A 
ATOM     14  N   UNL A   1      32.096  21.216  23.863  1.00  0.00    -0.126 NA
ATOM     15  C   UNL A   1      33.204  21.653  25.765  1.00  0.00     0.073 A 
ATOM     16  N   UNL A   1      31.970  22.515  24.104  1.00  0.00    -0.061 NA
ATOM     17  C   UNL A   1      33.840  21.623  27.107  1.00  0.00     0.069 C 
BRANCH  13  18
ATOM     18  C   UNL A   1      32.999  19.216  24.998  1.00  0.00     0.181 C 
ATOM     19  C   UNL A   1      34.323  18.641  24.555  1.00  0.00     0.095 C 
ATOM     20  O   UNL A   1      32.124  18.478  25.452  1.00  0.00    -0.293 OA
ENDBRANCH  13  18
ENDBRANCH   7  12
ENDBRANCH   4   6
ENDBRANCH   3   4
ENDBRANCH   2   3
ENDBRANCH   1   2
BRANCH   1  21
ATOM     21  O   UNL A   1      36.220  30.826  28.227  1.00  0.00    -0.458 OA
BRANCH  21  22
ATOM     22  C   UNL A   1      36.732  30.239  29.332  1.00  0.00     0.338 C 
ATOM     23  O   UNL A   1      36.586  30.596  30.490  1.00  0.00    -0.246 OA
BRANCH  22  24
ATOM     24  C   UNL A   1      37.662  29.186  28.928  1.00  0.00     0.060 A 
ATOM     25  C   UNL A   1      38.072  28.287  29.920  1.00  0.00     0.016 A 
ATOM     26  C   UNL A   1      38.361  29.353  27.727  1.00  0.00     0.016 A 
ATOM     27  C   UNL A   1      39.324  27.727  29.808  1.00  0.00     0.010 A 
ATOM     28  C   UNL A   1      39.619  28.824  27.635  1.00  0.00     0.010 A 
ATOM     29  C   UNL A   1      40.113  28.098  28.718  1.00  0.00    -0.014 A 
BRANCH  29  30
ATOM     30  C   UNL A   1      41.499  27.691  28.687  1.00  0.00     0.031 A 
ATOM     31  C   UNL A   1      41.703  26.398  28.002  1.00  0.00     0.074 A 
ATOM     32  C   UNL A   1      42.470  28.546  29.065  1.00  0.00     0.049 A 
ATOM     33  N   UNL A   1      42.147  25.292  28.495  1.00  0.00    -0.248 NA
ATOM     34  C   UNL A   1      41.152  26.265  26.640  1.00  0.00     0.031 C 
ATOM     35  C   UNL A   1      42.326  29.954  29.449  1.00  0.00     0.029 A 
ATOM     36  N   UNL A   1      43.816  28.378  29.035  1.00  0.00    -0.354 N 
ATOM     37  C   UNL A   1      42.158  24.397  27.431  1.00  0.00     0.074 A 
ATOM     38  C   UNL A   1      41.305  24.960  26.426  1.00  0.00     0.031 C 
ATOM     39  C   UNL A   1      43.529  30.564  29.352  1.00  0.00     0.029 A 
ATOM     40  C   UNL A   1      44.535  29.569  29.012  1.00  0.00     0.049 A 
ATOM     41  H   UNL A   1      44.245  27.493  29.029  1.00  0.00     0.167 HD
ATOM     42  C   UNL A   1      43.101  23.421  27.341  1.00  0.00     0.034 A 
ATOM     43  C   UNL A   1      45.828  29.726  28.618  1.00  0.00     0.034 A 
ATOM     44  C   UNL A   1      43.736  23.198  28.620  1.00  0.00     0.049 A 
ATOM     45  C   UNL A   1      46.455  28.375  28.657  1.00  0.00     0.074 A 
ATOM     46  C   UNL A   1      43.273  22.844  29.874  1.00  0.00     0.029 A 
ATOM     47  N   UNL A   1      44.991  23.728  28.826  1.00  0.00    -0.354 N 
ATOM     48  N   UNL A   1      46.627  27.694  29.758  1.00  0.00    -0.248 NA
ATOM     49  C   UNL A   1      46.419  27.570  27.442  1.00  0.00     0.031 C 
ATOM     50  C   UNL A   1      44.039  23.629  30.784  1.00  0.00     0.029 A 
ATOM     51  C   UNL A   1      44.979  24.355  30.048  1.00  0.00     0.049 A 
ATOM     52  H   UNL A   1      45.756  23.668  28.209  1.00  0.00     0.167 HD
ATOM     53  C   UNL A   1      46.287  26.387  29.436  1.00  0.00     0.074 A 
ATOM     54  C   UNL A   1      46.263  26.353  27.975  1.00  0.00     0.031 C 
ATOM     55  C   UNL A   1      45.762  25.536  30.371  1.00  0.00     0.034 A 
BRANCH  42  56
ATOM     56  C   UNL A   1      43.709  22.950  26.037  1.00  0.00     0.023 A 
ATOM     57  C   UNL A   1      43.641  21.570  25.774  1.00  0.00     0.031 A 
ATOM     58  C   UNL A   1      44.576  23.690  25.197  1.00  0.00     0.131 A 
ATOM     59  C   UNL A   1      44.481  20.975  24.818  1.00  0.00     0.055 A 
ATOM     60  C   UNL A   1      45.353  23.103  24.196  1.00  0.00     0.041 A 
ATOM     61  F   UNL A   1      44.801  24.999  25.344  1.00  0.00    -0.206 F 
ATOM     62  C   UNL A   1      45.337  21.732  24.026  1.00  0.00     0.022 A 
BRANCH  59  63
ATOM     63  S   UNL A   1      44.570  19.170  24.772  1.00  0.00     0.124 S 
ATOM     64  O   UNL A   1      45.628  18.903  25.740  1.00  0.00    -0.237 OA
ATOM     65  O   UNL A   1      43.218  18.795  25.172  1.00  0.00    -0.237 OA
ATOM     66  O   UNL A   1      44.912  18.885  23.380  1.00  0.00    -0.744 OA
ENDBRANCH  59  63
ENDBRANCH  42  56
BRANCH  43  67
ATOM     67  C   UNL A   1      46.378  30.882  27.850  1.00  0.00     0.023 A 
ATOM     68  C   UNL A   1      45.595  31.692  27.003  1.00  0.00     0.031 A 
ATOM     69  C   UNL A   1      47.693  31.337  28.115  1.00  0.00     0.131 A 
ATOM     70  C   UNL A   1      46.136  32.881  26.450  1.00  0.00     0.055 A 
ATOM     71  C   UNL A   1      48.225  32.501  27.559  1.00  0.00     0.041 A 
ATOM     72  F   UNL A   1      48.485  30.704  28.996  1.00  0.00    -0.206 F 
ATOM     73  C   UNL A   1      47.445  33.284  26.727  1.00  0.00     0.022 A 
BRANCH  70  74
ATOM     74  S   UNL A   1      45.108  33.977  25.417  1.00  0.00     0.124 S 
ATOM     75  O   UNL A   1      44.433  33.032  24.537  1.00  0.00    -0.237 OA
ATOM     76  O   UNL A   1      44.278  34.652  26.407  1.00  0.00    -0.237 OA
ATOM     77  O   UNL A   1      46.089  34.838  24.753  1.00  0.00    -0.744 OA
ENDBRANCH  70  74
ENDBRANCH  43  67
BRANCH  55  78
ATOM     78  C   UNL A   1      45.793  25.954  31.829  1.00  0.00     0.023 A 
ATOM     79  C   UNL A   1      44.692  26.486  32.540  1.00  0.00     0.031 A 
ATOM     80  C   UNL A   1      46.960  25.664  32.559  1.00  0.00     0.131 A 
ATOM     81  C   UNL A   1      44.791  26.714  33.928  1.00  0.00     0.055 A 
ATOM     82  C   UNL A   1      47.046  25.872  33.935  1.00  0.00     0.041 A 
ATOM     83  F   UNL A   1      48.029  25.129  31.948  1.00  0.00    -0.206 F 
ATOM     84  C   UNL A   1      45.963  26.402  34.625  1.00  0.00     0.022 A 
BRANCH  81  85
ATOM     85  S   UNL A   1      43.397  27.436  34.856  1.00  0.00     0.124 S 
ATOM     86  O   UNL A   1      43.759  27.210  36.250  1.00  0.00    -0.237 OA
ATOM     87  O   UNL A   1      43.405  28.825  34.408  1.00  0.00    -0.237 OA
ATOM     88  O   UNL A   1      42.245  26.657  34.395  1.00  0.00    -0.744 OA
ENDBRANCH  81  85
ENDBRANCH  55  78
ENDBRANCH  29  30
ENDBRANCH  22  24
ENDBRANCH  21  22
ENDBRANCH   1  21
TORSDOF 16
ENDMDL
