MODEL 1
REMARK VINA RESULT:     -12.1      0.000      0.000
REMARK SMILES O=C(OCCOC(=O)[C@@H]1CN(C(=O)CCC(F)(F)F)C[C@H]1c1ccc2c(c1)OCO2)c1ccc(-c2c3nc(c(-c4cc(S(=O)(=O)[O-])ccc4F)c4ccc([nH]4)c(-c4cc(S(=O)(=O)[O-])ccc4F)c4nc(c(-c5cc(S(=O)(=O)[O-])ccc5F)c5ccc2[nH]5)C=C4)C=C3)cc1
REMARK SMILES IDX 5 1 4 2 3 3 2 4 1 5 31 6 32 7 93 8 33 9 92 10 34 11 35 12
REMARK SMILES IDX 36 13 86 14 37 15 91 16 85 17 87 18 38 19 90 20 84 21 83 22
REMARK SMILES IDX 39 24 71 25 51 26 70 27 52 28 55 29 69 30 88 31 53 32 54 33
REMARK SMILES IDX 68 35 89 36 56 37 40 38 41 39 49 40 42 41 48 42 50 43 47 44
REMARK SMILES IDX 43 45 44 46 45 47 46 48 72 49 73 50 81 51 74 52 80 53 82 54
REMARK SMILES IDX 79 55 75 56 76 57 77 58 78 59 57 60 58 61 66 62 59 63 65 64
REMARK SMILES IDX 67 65 64 66 60 67 61 68 62 69 63 70 6 71 7 72 8 73 9 74
REMARK SMILES IDX 10 75 21 76 11 77 20 78 22 79 23 80 27 81 24 82 26 83 25 84
REMARK SMILES IDX 28 85 30 86 29 87 12 88 13 89 14 90 15 91 16 92 17 93 18 94
REMARK SMILES IDX 19 95
REMARK H PARENT 87 23 55 34
REMARK Flexibility Score: inf
ROOT
ATOM      1  C   UNL A   1      33.696  29.497  26.564  1.00  0.00     0.274 C 
ENDROOT
BRANCH   1   2
ATOM      2  C   UNL A   1      32.964  30.637  27.271  1.00  0.00     0.275 C 
BRANCH   2   3
ATOM      3  O   UNL A   1      33.726  31.834  27.518  1.00  0.00    -0.458 OA
BRANCH   3   4
ATOM      4  C   UNL A   1      34.449  32.070  28.637  1.00  0.00     0.338 C 
ATOM      5  O   UNL A   1      34.022  32.844  29.486  1.00  0.00    -0.246 OA
BRANCH   4   6
ATOM      6  C   UNL A   1      35.738  31.340  28.859  1.00  0.00     0.060 A 
ATOM      7  C   UNL A   1      36.983  31.704  28.341  1.00  0.00     0.016 A 
ATOM      8  C   UNL A   1      35.678  30.200  29.665  1.00  0.00     0.016 A 
ATOM      9  C   UNL A   1      38.158  31.048  28.751  1.00  0.00     0.010 A 
ATOM     10  C   UNL A   1      36.846  29.563  30.093  1.00  0.00     0.010 A 
ATOM     11  C   UNL A   1      38.110  29.994  29.670  1.00  0.00    -0.014 A 
BRANCH  11  12
ATOM     12  C   UNL A   1      39.337  29.286  30.144  1.00  0.00     0.031 A 
ATOM     13  C   UNL A   1      40.108  29.847  31.315  1.00  0.00     0.074 A 
ATOM     14  C   UNL A   1      39.828  28.209  29.491  1.00  0.00     0.049 A 
ATOM     15  N   UNL A   1      41.260  29.471  31.809  1.00  0.00    -0.248 NA
ATOM     16  C   UNL A   1      39.528  31.024  31.980  1.00  0.00     0.031 C 
ATOM     17  C   UNL A   1      39.248  27.594  28.295  1.00  0.00     0.029 A 
ATOM     18  N   UNL A   1      40.952  27.449  29.730  1.00  0.00    -0.354 N 
ATOM     19  C   UNL A   1      41.550  30.386  32.815  1.00  0.00     0.074 A 
ATOM     20  C   UNL A   1      40.514  31.394  32.778  1.00  0.00     0.031 C 
ATOM     21  C   UNL A   1      40.025  26.569  27.903  1.00  0.00     0.029 A 
ATOM     22  C   UNL A   1      41.170  26.460  28.795  1.00  0.00     0.049 A 
ATOM     23  H   UNL A   1      41.547  27.600  30.499  1.00  0.00     0.167 HD
ATOM     24  C   UNL A   1      42.543  30.356  33.739  1.00  0.00     0.034 A 
ATOM     25  C   UNL A   1      42.180  25.575  28.662  1.00  0.00     0.034 A 
ATOM     26  C   UNL A   1      43.513  29.299  33.835  1.00  0.00     0.049 A 
ATOM     27  C   UNL A   1      43.275  25.553  29.695  1.00  0.00     0.074 A 
ATOM     28  C   UNL A   1      44.440  29.067  34.835  1.00  0.00     0.029 A 
ATOM     29  N   UNL A   1      43.677  28.294  32.894  1.00  0.00    -0.354 N 
ATOM     30  N   UNL A   1      43.450  26.345  30.725  1.00  0.00    -0.248 NA
ATOM     31  C   UNL A   1      44.287  24.497  29.563  1.00  0.00     0.031 C 
ATOM     32  C   UNL A   1      45.189  27.938  34.482  1.00  0.00     0.029 A 
ATOM     33  C   UNL A   1      44.704  27.447  33.280  1.00  0.00     0.049 A 
ATOM     34  H   UNL A   1      43.144  28.195  32.073  1.00  0.00     0.167 HD
ATOM     35  C   UNL A   1      44.567  25.852  31.390  1.00  0.00     0.074 A 
ATOM     36  C   UNL A   1      45.029  24.701  30.643  1.00  0.00     0.031 C 
ATOM     37  C   UNL A   1      45.149  26.300  32.531  1.00  0.00     0.034 A 
BRANCH  24  38
ATOM     38  C   UNL A   1      42.578  31.480  34.743  1.00  0.00     0.023 A 
ATOM     39  C   UNL A   1      41.662  31.526  35.809  1.00  0.00     0.031 A 
ATOM     40  C   UNL A   1      43.485  32.542  34.606  1.00  0.00     0.131 A 
ATOM     41  C   UNL A   1      41.592  32.663  36.622  1.00  0.00     0.055 A 
ATOM     42  C   UNL A   1      43.473  33.631  35.482  1.00  0.00     0.041 A 
ATOM     43  F   UNL A   1      44.377  32.556  33.604  1.00  0.00    -0.206 F 
ATOM     44  C   UNL A   1      42.508  33.707  36.484  1.00  0.00     0.022 A 
BRANCH  41  45
ATOM     45  S   UNL A   1      40.186  32.823  37.756  1.00  0.00     0.124 S 
ATOM     46  O   UNL A   1      39.833  34.230  37.584  1.00  0.00    -0.237 OA
ATOM     47  O   UNL A   1      39.232  31.858  37.221  1.00  0.00    -0.237 OA
ATOM     48  O   UNL A   1      40.756  32.482  39.058  1.00  0.00    -0.744 OA
ENDBRANCH  41  45
ENDBRANCH  24  38
BRANCH  25  49
ATOM     49  C   UNL A   1      42.255  24.643  27.500  1.00  0.00     0.023 A 
ATOM     50  C   UNL A   1      41.517  23.451  27.458  1.00  0.00     0.031 A 
ATOM     51  C   UNL A   1      43.177  24.883  26.468  1.00  0.00     0.131 A 
ATOM     52  C   UNL A   1      41.741  22.526  26.423  1.00  0.00     0.055 A 
ATOM     53  C   UNL A   1      43.358  23.987  25.412  1.00  0.00     0.041 A 
ATOM     54  F   UNL A   1      43.942  25.981  26.494  1.00  0.00    -0.206 F 
ATOM     55  C   UNL A   1      42.646  22.793  25.392  1.00  0.00     0.022 A 
BRANCH  52  56
ATOM     56  S   UNL A   1      40.922  20.907  26.507  1.00  0.00     0.124 S 
ATOM     57  O   UNL A   1      40.784  20.714  27.945  1.00  0.00    -0.237 OA
ATOM     58  O   UNL A   1      39.687  21.158  25.769  1.00  0.00    -0.237 OA
ATOM     59  O   UNL A   1      41.868  20.012  25.843  1.00  0.00    -0.744 OA
ENDBRANCH  52  56
ENDBRANCH  25  49
BRANCH  37  60
ATOM     60  C   UNL A   1      46.297  25.495  33.069  1.00  0.00     0.023 A 
ATOM     61  C   UNL A   1      46.090  24.358  33.864  1.00  0.00     0.031 A 
ATOM     62  C   UNL A   1      47.618  25.888  32.793  1.00  0.00     0.131 A 
ATOM     63  C   UNL A   1      47.192  23.671  34.394  1.00  0.00     0.055 A 
ATOM     64  C   UNL A   1      48.711  25.172  33.281  1.00  0.00     0.041 A 
ATOM     65  F   UNL A   1      47.866  26.973  32.042  1.00  0.00    -0.206 F 
ATOM     66  C   UNL A   1      48.500  24.061  34.094  1.00  0.00     0.022 A 
BRANCH  63  67
ATOM     67  S   UNL A   1      46.894  22.290  35.530  1.00  0.00     0.124 S 
ATOM     68  O   UNL A   1      46.631  21.191  34.605  1.00  0.00    -0.237 OA
ATOM     69  O   UNL A   1      48.149  22.213  36.269  1.00  0.00    -0.237 OA
ATOM     70  O   UNL A   1      45.742  22.732  36.312  1.00  0.00    -0.744 OA
ENDBRANCH  63  67
ENDBRANCH  37  60
ENDBRANCH  11  12
ENDBRANCH   4   6
ENDBRANCH   3   4
ENDBRANCH   2   3
ENDBRANCH   1   2
BRANCH   1  71
ATOM     71  O   UNL A   1      33.337  28.181  27.023  1.00  0.00    -0.462 OA
BRANCH  71  72
ATOM     72  C   UNL A   1      32.011  27.881  26.901  1.00  0.00     0.311 C 
ATOM     73  O   UNL A   1      31.226  27.828  27.842  1.00  0.00    -0.252 OA
BRANCH  72  74
ATOM     74  C   UNL A   1      31.600  27.443  25.513  1.00  0.00     0.128 C 
ATOM     75  C   UNL A   1      30.977  28.648  24.811  1.00  0.00     0.135 C 
ATOM     76  C   UNL A   1      30.532  26.351  25.373  1.00  0.00     0.055 C 
ATOM     77  N   UNL A   1      30.142  28.085  23.772  1.00  0.00    -0.341 N 
ATOM     78  C   UNL A   1      29.927  26.669  23.993  1.00  0.00     0.128 C 
BRANCH  76  79
ATOM     79  C   UNL A   1      30.960  24.892  25.515  1.00  0.00    -0.038 A 
ATOM     80  C   UNL A   1      30.412  24.045  26.508  1.00  0.00     0.008 A 
ATOM     81  C   UNL A   1      31.801  24.311  24.541  1.00  0.00     0.054 A 
ATOM     82  C   UNL A   1      30.668  22.664  26.516  1.00  0.00     0.051 A 
ATOM     83  C   UNL A   1      32.028  22.950  24.568  1.00  0.00     0.166 A 
ATOM     84  C   UNL A   1      31.471  22.144  25.526  1.00  0.00     0.165 A 
ATOM     85  O   UNL A   1      32.757  22.250  23.659  1.00  0.00    -0.454 OA
ATOM     86  O   UNL A   1      31.778  20.831  25.343  1.00  0.00    -0.454 OA
ATOM     87  C   UNL A   1      32.539  20.901  24.115  1.00  0.00     0.468 C 
ENDBRANCH  76  79
BRANCH  77  88
ATOM     88  C   UNL A   1      29.622  28.676  22.650  1.00  0.00     0.222 C 
ATOM     89  O   UNL A   1      30.307  28.848  21.642  1.00  0.00    -0.275 OA
BRANCH  88  90
ATOM     90  C   UNL A   1      28.198  29.183  22.674  1.00  0.00     0.109 C 
BRANCH  90  91
ATOM     91  C   UNL A   1      28.039  30.632  22.233  1.00  0.00     0.125 C 
BRANCH  91  92
ATOM     92  C   UNL A   1      28.075  31.611  23.380  1.00  0.00     0.389 C 
ATOM     93  F   UNL A   1      28.221  32.881  22.929  1.00  0.00    -0.171 F 
ATOM     94  F   UNL A   1      26.929  31.572  24.091  1.00  0.00    -0.171 F 
ATOM     95  F   UNL A   1      29.089  31.370  24.232  1.00  0.00    -0.171 F 
ENDBRANCH  91  92
ENDBRANCH  90  91
ENDBRANCH  88  90
ENDBRANCH  77  88
ENDBRANCH  72  74
ENDBRANCH  71  72
ENDBRANCH   1  71
TORSDOF 19
ENDMDL
MODEL 2
REMARK VINA RESULT:     -11.9      3.119      4.824
REMARK SMILES O=C(OCCOC(=O)[C@@H]1CN(C(=O)CCC(F)(F)F)C[C@H]1c1ccc2c(c1)OCO2)c1ccc(-c2c3nc(c(-c4cc(S(=O)(=O)[O-])ccc4F)c4ccc([nH]4)c(-c4cc(S(=O)(=O)[O-])ccc4F)c4nc(c(-c5cc(S(=O)(=O)[O-])ccc5F)c5ccc2[nH]5)C=C4)C=C3)cc1
REMARK SMILES IDX 5 1 4 2 3 3 2 4 1 5 31 6 32 7 93 8 33 9 92 10 34 11 35 12
REMARK SMILES IDX 36 13 86 14 37 15 91 16 85 17 87 18 38 19 90 20 84 21 83 22
REMARK SMILES IDX 39 24 71 25 51 26 70 27 52 28 55 29 69 30 88 31 53 32 54 33
REMARK SMILES IDX 68 35 89 36 56 37 40 38 41 39 49 40 42 41 48 42 50 43 47 44
REMARK SMILES IDX 43 45 44 46 45 47 46 48 72 49 73 50 81 51 74 52 80 53 82 54
REMARK SMILES IDX 79 55 75 56 76 57 77 58 78 59 57 60 58 61 66 62 59 63 65 64
REMARK SMILES IDX 67 65 64 66 60 67 61 68 62 69 63 70 6 71 7 72 8 73 9 74
REMARK SMILES IDX 10 75 21 76 11 77 20 78 22 79 23 80 27 81 24 82 26 83 25 84
REMARK SMILES IDX 28 85 30 86 29 87 12 88 13 89 14 90 15 91 16 92 17 93 18 94
REMARK SMILES IDX 19 95
REMARK H PARENT 87 23 55 34
REMARK Flexibility Score: inf
ROOT
ATOM      1  C   UNL A   1      32.011  29.137  25.428  1.00  0.00     0.274 C 
ENDROOT
BRANCH   1   2
ATOM      2  C   UNL A   1      31.629  30.581  25.752  1.00  0.00     0.275 C 
BRANCH   2   3
ATOM      3  O   UNL A   1      32.015  31.071  27.051  1.00  0.00    -0.458 OA
BRANCH   3   4
ATOM      4  C   UNL A   1      32.974  32.000  27.270  1.00  0.00     0.338 C 
ATOM      5  O   UNL A   1      32.732  33.184  27.066  1.00  0.00    -0.246 OA
BRANCH   4   6
ATOM      6  C   UNL A   1      34.304  31.583  27.817  1.00  0.00     0.060 A 
ATOM      7  C   UNL A   1      35.397  32.424  28.037  1.00  0.00     0.016 A 
ATOM      8  C   UNL A   1      34.449  30.231  28.141  1.00  0.00     0.016 A 
ATOM      9  C   UNL A   1      36.541  31.963  28.713  1.00  0.00     0.010 A 
ATOM     10  C   UNL A   1      35.573  29.778  28.836  1.00  0.00     0.010 A 
ATOM     11  C   UNL A   1      36.626  30.641  29.164  1.00  0.00    -0.014 A 
BRANCH  11  12
ATOM     12  C   UNL A   1      37.816  30.120  29.903  1.00  0.00     0.031 A 
ATOM     13  C   UNL A   1      38.082  30.604  31.308  1.00  0.00     0.074 A 
ATOM     14  C   UNL A   1      38.712  29.300  29.312  1.00  0.00     0.049 A 
ATOM     15  N   UNL A   1      39.115  30.386  32.082  1.00  0.00    -0.248 NA
ATOM     16  C   UNL A   1      37.075  31.502  31.896  1.00  0.00     0.031 C 
ATOM     17  C   UNL A   1      38.644  28.807  27.934  1.00  0.00     0.029 A 
ATOM     18  N   UNL A   1      39.881  28.751  29.791  1.00  0.00    -0.354 N 
ATOM     19  C   UNL A   1      38.891  31.144  33.226  1.00  0.00     0.074 A 
ATOM     20  C   UNL A   1      37.689  31.912  32.992  1.00  0.00     0.031 C 
ATOM     21  C   UNL A   1      39.724  28.046  27.681  1.00  0.00     0.029 A 
ATOM     22  C   UNL A   1      40.578  28.011  28.860  1.00  0.00     0.049 A 
ATOM     23  H   UNL A   1      40.192  28.877  30.716  1.00  0.00     0.167 HD
ATOM     24  C   UNL A   1      39.575  31.147  34.398  1.00  0.00     0.034 A 
ATOM     25  C   UNL A   1      41.771  27.386  28.939  1.00  0.00     0.034 A 
ATOM     26  C   UNL A   1      40.712  30.307  34.661  1.00  0.00     0.049 A 
ATOM     27  C   UNL A   1      42.519  27.399  30.245  1.00  0.00     0.074 A 
ATOM     28  C   UNL A   1      41.363  30.089  35.862  1.00  0.00     0.029 A 
ATOM     29  N   UNL A   1      41.364  29.542  33.707  1.00  0.00    -0.354 N 
ATOM     30  N   UNL A   1      42.212  28.011  31.364  1.00  0.00    -0.248 NA
ATOM     31  C   UNL A   1      43.756  26.609  30.307  1.00  0.00     0.031 C 
ATOM     32  C   UNL A   1      42.433  29.217  35.626  1.00  0.00     0.029 A 
ATOM     33  C   UNL A   1      42.424  28.864  34.286  1.00  0.00     0.049 A 
ATOM     34  H   UNL A   1      41.112  29.488  32.757  1.00  0.00     0.167 HD
ATOM     35  C   UNL A   1      43.195  27.640  32.275  1.00  0.00     0.074 A 
ATOM     36  C   UNL A   1      44.107  26.760  31.576  1.00  0.00     0.031 C 
ATOM     37  C   UNL A   1      43.320  27.984  33.581  1.00  0.00     0.034 A 
BRANCH  24  38
ATOM     38  C   UNL A   1      39.062  32.056  35.486  1.00  0.00     0.023 A 
ATOM     39  C   UNL A   1      39.475  33.398  35.561  1.00  0.00     0.031 A 
ATOM     40  C   UNL A   1      38.208  31.571  36.489  1.00  0.00     0.131 A 
ATOM     41  C   UNL A   1      39.133  34.174  36.675  1.00  0.00     0.055 A 
ATOM     42  C   UNL A   1      37.793  32.381  37.549  1.00  0.00     0.041 A 
ATOM     43  F   UNL A   1      37.788  30.297  36.474  1.00  0.00    -0.206 F 
ATOM     44  C   UNL A   1      38.273  33.684  37.658  1.00  0.00     0.022 A 
BRANCH  41  45
ATOM     45  S   UNL A   1      39.959  35.773  36.892  1.00  0.00     0.124 S 
ATOM     46  O   UNL A   1      41.349  35.359  37.070  1.00  0.00    -0.237 OA
ATOM     47  O   UNL A   1      39.655  36.463  35.644  1.00  0.00    -0.237 OA
ATOM     48  O   UNL A   1      39.321  36.328  38.084  1.00  0.00    -0.744 OA
ENDBRANCH  41  45
ENDBRANCH  24  38
BRANCH  25  49
ATOM     49  C   UNL A   1      42.381  26.713  27.756  1.00  0.00     0.023 A 
ATOM     50  C   UNL A   1      42.271  25.329  27.553  1.00  0.00     0.031 A 
ATOM     51  C   UNL A   1      43.198  27.444  26.877  1.00  0.00     0.131 A 
ATOM     52  C   UNL A   1      42.997  24.715  26.517  1.00  0.00     0.055 A 
ATOM     53  C   UNL A   1      43.874  26.840  25.817  1.00  0.00     0.041 A 
ATOM     54  F   UNL A   1      43.376  28.758  27.065  1.00  0.00    -0.206 F 
ATOM     55  C   UNL A   1      43.786  25.463  25.638  1.00  0.00     0.022 A 
BRANCH  52  56
ATOM     56  S   UNL A   1      42.995  22.903  26.406  1.00  0.00     0.124 S 
ATOM     57  O   UNL A   1      42.680  22.688  24.999  1.00  0.00    -0.237 OA
ATOM     58  O   UNL A   1      44.357  22.576  26.818  1.00  0.00    -0.237 OA
ATOM     59  O   UNL A   1      41.950  22.505  27.348  1.00  0.00    -0.744 OA
ENDBRANCH  52  56
ENDBRANCH  25  49
BRANCH  37  60
ATOM     60  C   UNL A   1      44.442  27.342  34.347  1.00  0.00     0.023 A 
ATOM     61  C   UNL A   1      44.294  26.088  34.957  1.00  0.00     0.031 A 
ATOM     62  C   UNL A   1      45.672  28.010  34.478  1.00  0.00     0.131 A 
ATOM     63  C   UNL A   1      45.349  25.554  35.712  1.00  0.00     0.055 A 
ATOM     64  C   UNL A   1      46.735  27.451  35.187  1.00  0.00     0.041 A 
ATOM     65  F   UNL A   1      45.859  29.215  33.916  1.00  0.00    -0.206 F 
ATOM     66  C   UNL A   1      46.574  26.220  35.816  1.00  0.00     0.022 A 
BRANCH  63  67
ATOM     67  S   UNL A   1      45.083  23.999  36.603  1.00  0.00     0.124 S 
ATOM     68  O   UNL A   1      44.007  23.387  35.829  1.00  0.00    -0.237 OA
ATOM     69  O   UNL A   1      46.386  23.351  36.505  1.00  0.00    -0.237 OA
ATOM     70  O   UNL A   1      44.710  24.434  37.948  1.00  0.00    -0.744 OA
ENDBRANCH  63  67
ENDBRANCH  37  60
ENDBRANCH  11  12
ENDBRANCH   4   6
ENDBRANCH   3   4
ENDBRANCH   2   3
ENDBRANCH   1   2
BRANCH   1  71
ATOM     71  O   UNL A   1      33.416  28.932  25.188  1.00  0.00    -0.462 OA
BRANCH  71  72
ATOM     72  C   UNL A   1      33.709  28.400  23.966  1.00  0.00     0.311 C 
ATOM     73  O   UNL A   1      34.436  28.937  23.136  1.00  0.00    -0.252 OA
BRANCH  72  74
ATOM     74  C   UNL A   1      32.924  27.152  23.628  1.00  0.00     0.128 C 
ATOM     75  C   UNL A   1      33.926  26.032  23.354  1.00  0.00     0.135 C 
ATOM     76  C   UNL A   1      32.038  27.159  22.375  1.00  0.00     0.055 C 
ATOM     77  N   UNL A   1      33.206  25.078  22.540  1.00  0.00    -0.341 N 
ATOM     78  C   UNL A   1      31.992  25.665  22.007  1.00  0.00     0.128 C 
BRANCH  76  79
ATOM     79  C   UNL A   1      30.652  27.793  22.468  1.00  0.00    -0.038 A 
ATOM     80  C   UNL A   1      29.584  27.160  23.146  1.00  0.00     0.008 A 
ATOM     81  C   UNL A   1      30.454  29.116  22.012  1.00  0.00     0.054 A 
ATOM     82  C   UNL A   1      28.371  27.826  23.389  1.00  0.00     0.051 A 
ATOM     83  C   UNL A   1      29.256  29.749  22.272  1.00  0.00     0.166 A 
ATOM     84  C   UNL A   1      28.242  29.125  22.950  1.00  0.00     0.165 A 
ATOM     85  O   UNL A   1      28.955  31.036  21.954  1.00  0.00    -0.454 OA
ATOM     86  O   UNL A   1      27.170  29.940  23.145  1.00  0.00    -0.454 OA
ATOM     87  C   UNL A   1      27.659  31.172  22.570  1.00  0.00     0.468 C 
ENDBRANCH  76  79
BRANCH  77  88
ATOM     88  C   UNL A   1      33.483  23.760  22.283  1.00  0.00     0.222 C 
ATOM     89  O   UNL A   1      33.279  23.268  21.174  1.00  0.00    -0.275 OA
BRANCH  88  90
ATOM     90  C   UNL A   1      33.989  22.879  23.402  1.00  0.00     0.109 C 
BRANCH  90  91
ATOM     91  C   UNL A   1      32.947  22.549  24.462  1.00  0.00     0.125 C 
BRANCH  91  92
ATOM     92  C   UNL A   1      32.969  21.102  24.890  1.00  0.00     0.389 C 
ATOM     93  F   UNL A   1      33.878  20.901  25.874  1.00  0.00    -0.171 F 
ATOM     94  F   UNL A   1      31.769  20.718  25.373  1.00  0.00    -0.171 F 
ATOM     95  F   UNL A   1      33.284  20.272  23.878  1.00  0.00    -0.171 F 
ENDBRANCH  91  92
ENDBRANCH  90  91
ENDBRANCH  88  90
ENDBRANCH  77  88
ENDBRANCH  72  74
ENDBRANCH  71  72
ENDBRANCH   1  71
TORSDOF 19
ENDMDL
MODEL 3
REMARK VINA RESULT:     -11.9      2.012      3.788
REMARK SMILES O=C(OCCOC(=O)[C@@H]1CN(C(=O)CCC(F)(F)F)C[C@H]1c1ccc2c(c1)OCO2)c1ccc(-c2c3nc(c(-c4cc(S(=O)(=O)[O-])ccc4F)c4ccc([nH]4)c(-c4cc(S(=O)(=O)[O-])ccc4F)c4nc(c(-c5cc(S(=O)(=O)[O-])ccc5F)c5ccc2[nH]5)C=C4)C=C3)cc1
REMARK SMILES IDX 5 1 4 2 3 3 2 4 1 5 31 6 32 7 93 8 33 9 92 10 34 11 35 12
REMARK SMILES IDX 36 13 86 14 37 15 91 16 85 17 87 18 38 19 90 20 84 21 83 22
REMARK SMILES IDX 39 24 71 25 51 26 70 27 52 28 55 29 69 30 88 31 53 32 54 33
REMARK SMILES IDX 68 35 89 36 56 37 40 38 41 39 49 40 42 41 48 42 50 43 47 44
REMARK SMILES IDX 43 45 44 46 45 47 46 48 72 49 73 50 81 51 74 52 80 53 82 54
REMARK SMILES IDX 79 55 75 56 76 57 77 58 78 59 57 60 58 61 66 62 59 63 65 64
REMARK SMILES IDX 67 65 64 66 60 67 61 68 62 69 63 70 6 71 7 72 8 73 9 74
REMARK SMILES IDX 10 75 21 76 11 77 20 78 22 79 23 80 27 81 24 82 26 83 25 84
REMARK SMILES IDX 28 85 30 86 29 87 12 88 13 89 14 90 15 91 16 92 17 93 18 94
REMARK SMILES IDX 19 95
REMARK H PARENT 87 23 55 34
REMARK Flexibility Score: inf
ROOT
ATOM      1  C   UNL A   1      32.100  29.899  25.602  1.00  0.00     0.274 C 
ENDROOT
BRANCH   1   2
ATOM      2  C   UNL A   1      32.129  31.026  26.633  1.00  0.00     0.275 C 
BRANCH   2   3
ATOM      3  O   UNL A   1      33.177  30.966  27.620  1.00  0.00    -0.458 OA
BRANCH   3   4
ATOM      4  C   UNL A   1      34.277  31.753  27.625  1.00  0.00     0.338 C 
ATOM      5  O   UNL A   1      34.181  32.937  27.321  1.00  0.00    -0.246 OA
BRANCH   4   6
ATOM      6  C   UNL A   1      35.596  31.189  28.057  1.00  0.00     0.060 A 
ATOM      7  C   UNL A   1      36.735  31.930  28.381  1.00  0.00     0.016 A 
ATOM      8  C   UNL A   1      35.678  29.797  28.150  1.00  0.00     0.016 A 
ATOM      9  C   UNL A   1      37.867  31.309  28.939  1.00  0.00     0.010 A 
ATOM     10  C   UNL A   1      36.792  29.183  28.728  1.00  0.00     0.010 A 
ATOM     11  C   UNL A   1      37.894  29.929  29.163  1.00  0.00    -0.014 A 
BRANCH  11  12
ATOM     12  C   UNL A   1      39.070  29.237  29.772  1.00  0.00     0.031 A 
ATOM     13  C   UNL A   1      39.636  29.750  31.074  1.00  0.00     0.074 A 
ATOM     14  C   UNL A   1      39.699  28.222  29.139  1.00  0.00     0.049 A 
ATOM     15  N   UNL A   1      40.719  29.386  31.711  1.00  0.00    -0.248 NA
ATOM     16  C   UNL A   1      38.912  30.861  31.713  1.00  0.00     0.031 C 
ATOM     17  C   UNL A   1      39.328  27.664  27.836  1.00  0.00     0.029 A 
ATOM     18  N   UNL A   1      40.810  27.491  29.497  1.00  0.00    -0.354 N 
ATOM     19  C   UNL A   1      40.818  30.246  32.800  1.00  0.00     0.074 A 
ATOM     20  C   UNL A   1      39.753  31.215  32.669  1.00  0.00     0.031 C 
ATOM     21  C   UNL A   1      40.200  26.695  27.505  1.00  0.00     0.029 A 
ATOM     22  C   UNL A   1      41.207  26.571  28.550  1.00  0.00     0.049 A 
ATOM     23  H   UNL A   1      41.279  27.614  30.353  1.00  0.00     0.167 HD
ATOM     24  C   UNL A   1      41.666  30.192  33.858  1.00  0.00     0.034 A 
ATOM     25  C   UNL A   1      42.265  25.734  28.517  1.00  0.00     0.034 A 
ATOM     26  C   UNL A   1      42.659  29.168  34.036  1.00  0.00     0.049 A 
ATOM     27  C   UNL A   1      43.197  25.687  29.698  1.00  0.00     0.074 A 
ATOM     28  C   UNL A   1      43.439  28.907  35.147  1.00  0.00     0.029 A 
ATOM     29  N   UNL A   1      43.004  28.231  33.074  1.00  0.00    -0.354 N 
ATOM     30  N   UNL A   1      43.184  26.418  30.787  1.00  0.00    -0.248 NA
ATOM     31  C   UNL A   1      44.265  24.679  29.657  1.00  0.00     0.031 C 
ATOM     32  C   UNL A   1      44.283  27.831  34.845  1.00  0.00     0.029 A 
ATOM     33  C   UNL A   1      44.001  27.400  33.558  1.00  0.00     0.049 A 
ATOM     34  H   UNL A   1      42.601  28.165  32.178  1.00  0.00     0.167 HD
ATOM     35  C   UNL A   1      44.214  25.924  31.580  1.00  0.00     0.074 A 
ATOM     36  C   UNL A   1      44.831  24.840  30.845  1.00  0.00     0.031 C 
ATOM     37  C   UNL A   1      44.602  26.320  32.818  1.00  0.00     0.034 A 
BRANCH  24  38
ATOM     38  C   UNL A   1      41.503  31.252  34.919  1.00  0.00     0.023 A 
ATOM     39  C   UNL A   1      40.374  31.267  35.757  1.00  0.00     0.031 A 
ATOM     40  C   UNL A   1      42.444  32.284  35.059  1.00  0.00     0.131 A 
ATOM     41  C   UNL A   1      40.151  32.355  36.610  1.00  0.00     0.055 A 
ATOM     42  C   UNL A   1      42.262  33.317  35.982  1.00  0.00     0.041 A 
ATOM     43  F   UNL A   1      43.536  32.325  34.282  1.00  0.00    -0.206 F 
ATOM     44  C   UNL A   1      41.101  33.369  36.749  1.00  0.00     0.022 A 
BRANCH  41  45
ATOM     45  S   UNL A   1      38.532  32.499  37.413  1.00  0.00     0.124 S 
ATOM     46  O   UNL A   1      38.892  32.338  38.821  1.00  0.00    -0.237 OA
ATOM     47  O   UNL A   1      38.096  33.832  37.017  1.00  0.00    -0.237 OA
ATOM     48  O   UNL A   1      37.767  31.394  36.840  1.00  0.00    -0.744 OA
ENDBRANCH  41  45
ENDBRANCH  24  38
BRANCH  25  49
ATOM     49  C   UNL A   1      42.551  24.881  27.327  1.00  0.00     0.023 A 
ATOM     50  C   UNL A   1      42.088  23.560  27.235  1.00  0.00     0.031 A 
ATOM     51  C   UNL A   1      43.408  25.350  26.319  1.00  0.00     0.131 A 
ATOM     52  C   UNL A   1      42.517  22.742  26.175  1.00  0.00     0.055 A 
ATOM     53  C   UNL A   1      43.789  24.552  25.238  1.00  0.00     0.041 A 
ATOM     54  F   UNL A   1      43.917  26.586  26.393  1.00  0.00    -0.206 F 
ATOM     55  C   UNL A   1      43.352  23.233  25.168  1.00  0.00     0.022 A 
BRANCH  52  56
ATOM     56  S   UNL A   1      42.067  20.983  26.194  1.00  0.00     0.124 S 
ATOM     57  O   UNL A   1      42.264  20.636  27.596  1.00  0.00    -0.237 OA
ATOM     58  O   UNL A   1      40.684  21.022  25.729  1.00  0.00    -0.237 OA
ATOM     59  O   UNL A   1      43.017  20.378  25.261  1.00  0.00    -0.744 OA
ENDBRANCH  52  56
ENDBRANCH  25  49
BRANCH  37  60
ATOM     60  C   UNL A   1      45.695  25.525  33.474  1.00  0.00     0.023 A 
ATOM     61  C   UNL A   1      45.425  24.337  34.170  1.00  0.00     0.031 A 
ATOM     62  C   UNL A   1      47.024  25.977  33.412  1.00  0.00     0.131 A 
ATOM     63  C   UNL A   1      46.468  23.659  34.817  1.00  0.00     0.055 A 
ATOM     64  C   UNL A   1      48.066  25.272  34.014  1.00  0.00     0.041 A 
ATOM     65  F   UNL A   1      47.331  27.112  32.763  1.00  0.00    -0.206 F 
ATOM     66  C   UNL A   1      47.789  24.109  34.729  1.00  0.00     0.022 A 
BRANCH  63  67
ATOM     67  S   UNL A   1      46.071  22.205  35.823  1.00  0.00     0.124 S 
ATOM     68  O   UNL A   1      44.890  21.680  35.143  1.00  0.00    -0.237 OA
ATOM     69  O   UNL A   1      47.282  21.400  35.709  1.00  0.00    -0.237 OA
ATOM     70  O   UNL A   1      45.825  22.764  37.151  1.00  0.00    -0.744 OA
ENDBRANCH  63  67
ENDBRANCH  37  60
ENDBRANCH  11  12
ENDBRANCH   4   6
ENDBRANCH   3   4
ENDBRANCH   2   3
ENDBRANCH   1   2
BRANCH   1  71
ATOM     71  O   UNL A   1      33.356  29.218  25.427  1.00  0.00    -0.462 OA
BRANCH  71  72
ATOM     72  C   UNL A   1      33.523  28.646  24.199  1.00  0.00     0.311 C 
ATOM     73  O   UNL A   1      34.179  29.145  23.289  1.00  0.00    -0.252 OA
BRANCH  72  74
ATOM     74  C   UNL A   1      32.687  27.406  23.973  1.00  0.00     0.128 C 
ATOM     75  C   UNL A   1      33.641  26.220  23.847  1.00  0.00     0.135 C 
ATOM     76  C   UNL A   1      31.832  27.319  22.702  1.00  0.00     0.055 C 
ATOM     77  N   UNL A   1      32.895  25.217  23.119  1.00  0.00    -0.341 N 
ATOM     78  C   UNL A   1      31.723  25.797  22.493  1.00  0.00     0.128 C 
BRANCH  76  79
ATOM     79  C   UNL A   1      30.476  28.021  22.688  1.00  0.00    -0.038 A 
ATOM     80  C   UNL A   1      29.311  27.408  23.208  1.00  0.00     0.008 A 
ATOM     81  C   UNL A   1      30.393  29.377  22.301  1.00  0.00     0.054 A 
ATOM     82  C   UNL A   1      28.112  28.124  23.363  1.00  0.00     0.051 A 
ATOM     83  C   UNL A   1      29.205  30.058  22.473  1.00  0.00     0.166 A 
ATOM     84  C   UNL A   1      28.094  29.451  22.998  1.00  0.00     0.165 A 
ATOM     85  O   UNL A   1      29.002  31.376  22.209  1.00  0.00    -0.454 OA
ATOM     86  O   UNL A   1      27.047  30.310  23.131  1.00  0.00    -0.454 OA
ATOM     87  C   UNL A   1      27.655  31.546  22.691  1.00  0.00     0.468 C 
ENDBRANCH  76  79
BRANCH  77  88
ATOM     88  C   UNL A   1      33.115  23.868  23.011  1.00  0.00     0.222 C 
ATOM     89  O   UNL A   1      33.776  23.400  22.084  1.00  0.00    -0.275 OA
BRANCH  88  90
ATOM     90  C   UNL A   1      32.479  22.933  24.013  1.00  0.00     0.109 C 
BRANCH  90  91
ATOM     91  C   UNL A   1      32.700  23.325  25.468  1.00  0.00     0.125 C 
BRANCH  91  92
ATOM     92  C   UNL A   1      31.514  24.028  26.082  1.00  0.00     0.389 C 
ATOM     93  F   UNL A   1      31.001  23.306  27.108  1.00  0.00    -0.171 F 
ATOM     94  F   UNL A   1      31.865  25.232  26.580  1.00  0.00    -0.171 F 
ATOM     95  F   UNL A   1      30.520  24.229  25.197  1.00  0.00    -0.171 F 
ENDBRANCH  91  92
ENDBRANCH  90  91
ENDBRANCH  88  90
ENDBRANCH  77  88
ENDBRANCH  72  74
ENDBRANCH  71  72
ENDBRANCH   1  71
TORSDOF 19
ENDMDL
