MODEL 1
REMARK VINA RESULT:     -11.5      0.000      0.000
REMARK SMILES O=C(C[C@H]1C[C@H]2CC[C@@H](C1)[N@H+]2[C@@H]1CCCSC1)OCCOC(=O)c1ccc(-c2c3nc(c(-c4cc(S(=O)(=O)[O-])ccc4F)c4ccc([nH]4)c(-c4cc(S(=O)(=O)[O-])ccc4F)c4nc(c(-c5cc(S(=O)(=O)[O-])ccc5F)c5ccc2[nH]5)C=C4)C=C3)cc1
REMARK SMILES IDX 20 1 19 2 18 3 2 4 1 5 3 6 4 7 5 8 10 9 6 10 9 11 7 12 11 13
REMARK SMILES IDX 8 14 12 16 13 17 17 18 14 19 16 20 15 21 21 22 22 23 23 24
REMARK SMILES IDX 24 25 25 26 86 27 26 28 85 29 27 30 28 31 29 32 79 33 30 34
REMARK SMILES IDX 84 35 78 36 80 37 31 38 83 39 77 40 76 41 32 43 64 44 44 45
REMARK SMILES IDX 63 46 45 47 48 48 62 49 81 50 46 51 47 52 61 54 82 55 49 56
REMARK SMILES IDX 33 57 34 58 42 59 35 60 41 61 43 62 40 63 36 64 37 65 38 66
REMARK SMILES IDX 39 67 65 68 66 69 74 70 67 71 73 72 75 73 72 74 68 75 69 76
REMARK SMILES IDX 70 77 71 78 50 79 51 80 59 81 52 82 58 83 60 84 57 85 53 86
REMARK SMILES IDX 54 87 55 88 56 89
REMARK H PARENT 11 15 80 42 48 53
REMARK Flexibility Score: inf
ROOT
ATOM      1  C   UNL A   1      36.370  20.433  25.070  1.00  0.00     0.275 C 
ENDROOT
BRANCH   1   2
ATOM      2  C   UNL A   1      34.945  20.896  25.410  1.00  0.00     0.274 C 
BRANCH   2   3
ATOM      3  O   UNL A   1      33.959  20.296  24.559  1.00  0.00    -0.462 OA
BRANCH   3   4
ATOM      4  C   UNL A   1      32.810  21.017  24.449  1.00  0.00     0.306 C 
ATOM      5  O   UNL A   1      31.787  20.730  25.054  1.00  0.00    -0.252 OA
BRANCH   4   6
ATOM      6  C   UNL A   1      32.912  22.121  23.421  1.00  0.00     0.126 C 
BRANCH   6   7
ATOM      7  C   UNL A   1      32.896  23.546  23.989  1.00  0.00     0.012 C 
ATOM      8  C   UNL A   1      34.033  24.431  23.418  1.00  0.00     0.069 C 
ATOM      9  C   UNL A   1      31.475  24.149  23.855  1.00  0.00     0.069 C 
ATOM     10  C   UNL A   1      33.685  25.885  23.056  1.00  0.00     0.185 C 
ATOM     11  C   UNL A   1      31.415  25.575  23.293  1.00  0.00     0.185 C 
ATOM     12  C   UNL A   1      33.143  25.937  21.622  1.00  0.00     0.071 C 
ATOM     13  N   UNL A   1      32.520  26.410  23.741  1.00  0.00    -0.327 N 
ATOM     14  C   UNL A   1      31.675  25.558  21.780  1.00  0.00     0.071 C 
ATOM     15  H   UNL A   1      32.338  27.381  23.486  1.00  0.00     0.348 HD
BRANCH  13  16
ATOM     16  C   UNL A   1      32.614  26.926  25.106  1.00  0.00     0.194 C 
ATOM     17  C   UNL A   1      31.285  27.323  25.770  1.00  0.00     0.067 C 
ATOM     18  C   UNL A   1      33.671  28.056  25.157  1.00  0.00     0.134 C 
ATOM     19  C   UNL A   1      31.412  27.869  27.189  1.00  0.00     0.017 C 
ATOM     20  S   UNL A   1      33.983  28.693  26.833  1.00  0.00    -0.156 SA
ATOM     21  C   UNL A   1      32.275  29.117  27.253  1.00  0.00     0.070 C 
ENDBRANCH  13  16
ENDBRANCH   6   7
ENDBRANCH   4   6
ENDBRANCH   3   4
ENDBRANCH   2   3
ENDBRANCH   1   2
BRANCH   1  22
ATOM     22  O   UNL A   1      37.347  21.485  25.184  1.00  0.00    -0.458 OA
BRANCH  22  23
ATOM     23  C   UNL A   1      38.530  21.109  25.755  1.00  0.00     0.338 C 
ATOM     24  O   UNL A   1      39.012  19.994  25.746  1.00  0.00    -0.246 OA
BRANCH  23  25
ATOM     25  C   UNL A   1      39.257  22.316  26.226  1.00  0.00     0.060 A 
ATOM     26  C   UNL A   1      38.725  23.576  25.914  1.00  0.00     0.016 A 
ATOM     27  C   UNL A   1      40.410  22.223  27.007  1.00  0.00     0.016 A 
ATOM     28  C   UNL A   1      39.338  24.743  26.386  1.00  0.00     0.010 A 
ATOM     29  C   UNL A   1      41.022  23.393  27.478  1.00  0.00     0.010 A 
ATOM     30  C   UNL A   1      40.502  24.664  27.162  1.00  0.00    -0.014 A 
BRANCH  30  31
ATOM     31  C   UNL A   1      41.304  25.884  27.467  1.00  0.00     0.031 A 
ATOM     32  C   UNL A   1      40.645  26.968  28.278  1.00  0.00     0.074 A 
ATOM     33  C   UNL A   1      42.566  26.064  27.030  1.00  0.00     0.049 A 
ATOM     34  N   UNL A   1      41.073  28.168  28.578  1.00  0.00    -0.248 NA
ATOM     35  C   UNL A   1      39.305  26.657  28.791  1.00  0.00     0.031 C 
ATOM     36  C   UNL A   1      43.344  25.104  26.252  1.00  0.00     0.029 A 
ATOM     37  N   UNL A   1      43.411  27.143  27.169  1.00  0.00    -0.354 N 
ATOM     38  C   UNL A   1      40.039  28.763  29.293  1.00  0.00     0.074 A 
ATOM     39  C   UNL A   1      38.948  27.811  29.322  1.00  0.00     0.031 C 
ATOM     40  C   UNL A   1      44.544  25.643  25.966  1.00  0.00     0.029 A 
ATOM     41  C   UNL A   1      44.613  26.998  26.516  1.00  0.00     0.049 A 
ATOM     42  H   UNL A   1      43.175  27.945  27.690  1.00  0.00     0.167 HD
ATOM     43  C   UNL A   1      40.002  29.979  29.894  1.00  0.00     0.034 A 
ATOM     44  C   UNL A   1      45.639  27.861  26.360  1.00  0.00     0.034 A 
ATOM     45  C   UNL A   1      41.090  30.923  29.873  1.00  0.00     0.049 A 
ATOM     46  C   UNL A   1      45.567  29.236  26.986  1.00  0.00     0.074 A 
ATOM     47  C   UNL A   1      41.165  32.164  30.479  1.00  0.00     0.029 A 
ATOM     48  N   UNL A   1      42.290  30.736  29.200  1.00  0.00    -0.354 N 
ATOM     49  N   UNL A   1      44.596  29.778  27.684  1.00  0.00    -0.248 NA
ATOM     50  C   UNL A   1      46.735  30.115  26.809  1.00  0.00     0.031 C 
ATOM     51  C   UNL A   1      42.381  32.755  30.119  1.00  0.00     0.029 A 
ATOM     52  C   UNL A   1      43.098  31.851  29.351  1.00  0.00     0.049 A 
ATOM     53  H   UNL A   1      42.531  29.928  28.691  1.00  0.00     0.167 HD
ATOM     54  C   UNL A   1      45.050  31.043  28.056  1.00  0.00     0.074 A 
ATOM     55  C   UNL A   1      46.380  31.188  27.504  1.00  0.00     0.031 C 
ATOM     56  C   UNL A   1      44.426  31.992  28.800  1.00  0.00     0.034 A 
BRANCH  43  57
ATOM     57  C   UNL A   1      38.708  30.355  30.575  1.00  0.00     0.023 A 
ATOM     58  C   UNL A   1      37.649  30.945  29.861  1.00  0.00     0.031 A 
ATOM     59  C   UNL A   1      38.574  30.225  31.967  1.00  0.00     0.131 A 
ATOM     60  C   UNL A   1      36.565  31.499  30.556  1.00  0.00     0.055 A 
ATOM     61  C   UNL A   1      37.441  30.683  32.641  1.00  0.00     0.041 A 
ATOM     62  F   UNL A   1      39.561  29.687  32.702  1.00  0.00    -0.206 F 
ATOM     63  C   UNL A   1      36.441  31.350  31.938  1.00  0.00     0.022 A 
BRANCH  60  64
ATOM     64  S   UNL A   1      35.449  32.609  29.655  1.00  0.00     0.124 S 
ATOM     65  O   UNL A   1      34.404  32.847  30.648  1.00  0.00    -0.237 OA
ATOM     66  O   UNL A   1      36.312  33.745  29.350  1.00  0.00    -0.237 OA
ATOM     67  O   UNL A   1      35.031  31.813  28.503  1.00  0.00    -0.744 OA
ENDBRANCH  60  64
ENDBRANCH  43  57
BRANCH  44  68
ATOM     68  C   UNL A   1      46.823  27.481  25.534  1.00  0.00     0.023 A 
ATOM     69  C   UNL A   1      46.954  27.909  24.203  1.00  0.00     0.031 A 
ATOM     70  C   UNL A   1      47.815  26.632  26.056  1.00  0.00     0.131 A 
ATOM     71  C   UNL A   1      48.032  27.454  23.425  1.00  0.00     0.055 A 
ATOM     72  C   UNL A   1      48.908  26.217  25.292  1.00  0.00     0.041 A 
ATOM     73  F   UNL A   1      47.735  26.197  27.324  1.00  0.00    -0.206 F 
ATOM     74  C   UNL A   1      49.015  26.620  23.965  1.00  0.00     0.022 A 
BRANCH  71  75
ATOM     75  S   UNL A   1      48.107  27.924  21.674  1.00  0.00     0.124 S 
ATOM     76  O   UNL A   1      46.810  28.564  21.485  1.00  0.00    -0.237 OA
ATOM     77  O   UNL A   1      49.268  28.806  21.645  1.00  0.00    -0.237 OA
ATOM     78  O   UNL A   1      48.281  26.647  20.986  1.00  0.00    -0.744 OA
ENDBRANCH  71  75
ENDBRANCH  44  68
BRANCH  56  79
ATOM     79  C   UNL A   1      45.191  33.252  29.125  1.00  0.00     0.023 A 
ATOM     80  C   UNL A   1      45.210  34.363  28.263  1.00  0.00     0.031 A 
ATOM     81  C   UNL A   1      45.877  33.354  30.350  1.00  0.00     0.131 A 
ATOM     82  C   UNL A   1      45.921  35.519  28.631  1.00  0.00     0.055 A 
ATOM     83  C   UNL A   1      46.543  34.520  30.729  1.00  0.00     0.041 A 
ATOM     84  F   UNL A   1      45.891  32.323  31.211  1.00  0.00    -0.206 F 
ATOM     85  C   UNL A   1      46.572  35.610  29.864  1.00  0.00     0.022 A 
BRANCH  82  86
ATOM     86  S   UNL A   1      46.022  36.899  27.456  1.00  0.00     0.124 S 
ATOM     87  O   UNL A   1      47.276  37.537  27.844  1.00  0.00    -0.237 OA
ATOM     88  O   UNL A   1      46.028  36.214  26.167  1.00  0.00    -0.237 OA
ATOM     89  O   UNL A   1      44.818  37.679  27.736  1.00  0.00    -0.744 OA
ENDBRANCH  82  86
ENDBRANCH  56  79
ENDBRANCH  30  31
ENDBRANCH  23  25
ENDBRANCH  22  23
ENDBRANCH   1  22
TORSDOF 16
ENDMDL
MODEL 2
REMARK VINA RESULT:     -11.5      5.386     10.406
REMARK SMILES O=C(C[C@H]1C[C@H]2CC[C@@H](C1)[N@H+]2[C@@H]1CCCSC1)OCCOC(=O)c1ccc(-c2c3nc(c(-c4cc(S(=O)(=O)[O-])ccc4F)c4ccc([nH]4)c(-c4cc(S(=O)(=O)[O-])ccc4F)c4nc(c(-c5cc(S(=O)(=O)[O-])ccc5F)c5ccc2[nH]5)C=C4)C=C3)cc1
REMARK SMILES IDX 20 1 19 2 18 3 2 4 1 5 3 6 4 7 5 8 10 9 6 10 9 11 7 12 11 13
REMARK SMILES IDX 8 14 12 16 13 17 17 18 14 19 16 20 15 21 21 22 22 23 23 24
REMARK SMILES IDX 24 25 25 26 86 27 26 28 85 29 27 30 28 31 29 32 79 33 30 34
REMARK SMILES IDX 84 35 78 36 80 37 31 38 83 39 77 40 76 41 32 43 64 44 44 45
REMARK SMILES IDX 63 46 45 47 48 48 62 49 81 50 46 51 47 52 61 54 82 55 49 56
REMARK SMILES IDX 33 57 34 58 42 59 35 60 41 61 43 62 40 63 36 64 37 65 38 66
REMARK SMILES IDX 39 67 65 68 66 69 74 70 67 71 73 72 75 73 72 74 68 75 69 76
REMARK SMILES IDX 70 77 71 78 50 79 51 80 59 81 52 82 58 83 60 84 57 85 53 86
REMARK SMILES IDX 54 87 55 88 56 89
REMARK H PARENT 11 15 80 42 48 53
REMARK Flexibility Score: inf
ROOT
ATOM      1  C   UNL A   1      31.391  30.642  25.462  1.00  0.00     0.275 C 
ENDROOT
BRANCH   1   2
ATOM      2  C   UNL A   1      31.496  29.310  24.702  1.00  0.00     0.274 C 
BRANCH   2   3
ATOM      3  O   UNL A   1      30.260  28.937  24.080  1.00  0.00    -0.462 OA
BRANCH   3   4
ATOM      4  C   UNL A   1      30.336  27.803  23.333  1.00  0.00     0.306 C 
ATOM      5  O   UNL A   1      30.443  27.818  22.115  1.00  0.00    -0.252 OA
BRANCH   4   6
ATOM      6  C   UNL A   1      30.156  26.549  24.158  1.00  0.00     0.126 C 
BRANCH   6   7
ATOM      7  C   UNL A   1      31.434  25.734  24.395  1.00  0.00     0.012 C 
ATOM      8  C   UNL A   1      31.833  25.667  25.891  1.00  0.00     0.069 C 
ATOM      9  C   UNL A   1      31.318  24.359  23.692  1.00  0.00     0.069 C 
ATOM     10  C   UNL A   1      32.338  24.318  26.430  1.00  0.00     0.185 C 
ATOM     11  C   UNL A   1      31.731  23.149  24.540  1.00  0.00     0.185 C 
ATOM     12  C   UNL A   1      31.141  23.468  26.877  1.00  0.00     0.071 C 
ATOM     13  N   UNL A   1      32.862  23.426  25.414  1.00  0.00    -0.327 N 
ATOM     14  C   UNL A   1      30.645  22.838  25.581  1.00  0.00     0.071 C 
ATOM     15  H   UNL A   1      33.202  22.552  25.818  1.00  0.00     0.348 HD
BRANCH  13  16
ATOM     16  C   UNL A   1      34.227  23.571  24.912  1.00  0.00     0.194 C 
ATOM     17  C   UNL A   1      34.580  22.740  23.667  1.00  0.00     0.067 C 
ATOM     18  C   UNL A   1      35.228  23.361  26.076  1.00  0.00     0.134 C 
ATOM     19  C   UNL A   1      36.014  22.900  23.170  1.00  0.00     0.017 C 
ATOM     20  S   UNL A   1      36.964  23.650  25.610  1.00  0.00    -0.156 SA
ATOM     21  C   UNL A   1      37.037  22.496  24.219  1.00  0.00     0.070 C 
ENDBRANCH  13  16
ENDBRANCH   6   7
ENDBRANCH   4   6
ENDBRANCH   3   4
ENDBRANCH   2   3
ENDBRANCH   1   2
BRANCH   1  22
ATOM     22  O   UNL A   1      32.015  30.602  26.760  1.00  0.00    -0.458 OA
BRANCH  22  23
ATOM     23  C   UNL A   1      32.599  31.774  27.150  1.00  0.00     0.338 C 
ATOM     24  O   UNL A   1      32.097  32.879  27.109  1.00  0.00    -0.246 OA
BRANCH  23  25
ATOM     25  C   UNL A   1      33.888  31.479  27.831  1.00  0.00     0.060 A 
ATOM     26  C   UNL A   1      34.261  30.137  27.994  1.00  0.00     0.016 A 
ATOM     27  C   UNL A   1      34.745  32.496  28.255  1.00  0.00     0.016 A 
ATOM     28  C   UNL A   1      35.492  29.808  28.574  1.00  0.00     0.010 A 
ATOM     29  C   UNL A   1      35.977  32.163  28.835  1.00  0.00     0.010 A 
ATOM     30  C   UNL A   1      36.358  30.818  29.014  1.00  0.00    -0.014 A 
BRANCH  30  31
ATOM     31  C   UNL A   1      37.551  30.496  29.849  1.00  0.00     0.031 A 
ATOM     32  C   UNL A   1      38.588  29.576  29.259  1.00  0.00     0.074 A 
ATOM     33  C   UNL A   1      37.723  30.964  31.099  1.00  0.00     0.049 A 
ATOM     34  N   UNL A   1      39.648  29.046  29.811  1.00  0.00    -0.248 NA
ATOM     35  C   UNL A   1      38.370  29.183  27.861  1.00  0.00     0.031 C 
ATOM     36  C   UNL A   1      36.821  31.874  31.801  1.00  0.00     0.029 A 
ATOM     37  N   UNL A   1      38.723  30.717  32.014  1.00  0.00    -0.354 N 
ATOM     38  C   UNL A   1      40.210  28.233  28.832  1.00  0.00     0.074 A 
ATOM     39  C   UNL A   1      39.333  28.297  27.681  1.00  0.00     0.031 C 
ATOM     40  C   UNL A   1      37.297  32.093  33.041  1.00  0.00     0.029 A 
ATOM     41  C   UNL A   1      38.524  31.319  33.235  1.00  0.00     0.049 A 
ATOM     42  H   UNL A   1      39.509  30.159  31.811  1.00  0.00     0.167 HD
ATOM     43  C   UNL A   1      41.361  27.515  28.871  1.00  0.00     0.034 A 
ATOM     44  C   UNL A   1      39.234  31.238  34.381  1.00  0.00     0.034 A 
ATOM     45  C   UNL A   1      42.237  27.457  30.012  1.00  0.00     0.049 A 
ATOM     46  C   UNL A   1      40.485  30.391  34.433  1.00  0.00     0.074 A 
ATOM     47  C   UNL A   1      43.442  26.788  30.140  1.00  0.00     0.029 A 
ATOM     48  N   UNL A   1      41.999  28.082  31.229  1.00  0.00    -0.354 N 
ATOM     49  N   UNL A   1      41.022  29.649  33.493  1.00  0.00    -0.248 NA
ATOM     50  C   UNL A   1      41.232  30.377  35.701  1.00  0.00     0.031 C 
ATOM     51  C   UNL A   1      43.898  26.953  31.452  1.00  0.00     0.029 A 
ATOM     52  C   UNL A   1      43.017  27.789  32.121  1.00  0.00     0.049 A 
ATOM     53  H   UNL A   1      41.219  28.651  31.427  1.00  0.00     0.167 HD
ATOM     54  C   UNL A   1      42.183  29.110  34.045  1.00  0.00     0.074 A 
ATOM     55  C   UNL A   1      42.270  29.607  35.402  1.00  0.00     0.031 C 
ATOM     56  C   UNL A   1      43.102  28.288  33.475  1.00  0.00     0.034 A 
BRANCH  43  57
ATOM     57  C   UNL A   1      41.687  26.699  27.644  1.00  0.00     0.023 A 
ATOM     58  C   UNL A   1      41.312  25.347  27.542  1.00  0.00     0.031 A 
ATOM     59  C   UNL A   1      42.475  27.244  26.617  1.00  0.00     0.131 A 
ATOM     60  C   UNL A   1      41.833  24.556  26.509  1.00  0.00     0.055 A 
ATOM     61  C   UNL A   1      42.901  26.476  25.532  1.00  0.00     0.041 A 
ATOM     62  F   UNL A   1      42.879  28.523  26.670  1.00  0.00    -0.206 F 
ATOM     63  C   UNL A   1      42.604  25.116  25.488  1.00  0.00     0.022 A 
BRANCH  60  64
ATOM     64  S   UNL A   1      41.677  22.754  26.649  1.00  0.00     0.124 S 
ATOM     65  O   UNL A   1      42.503  22.476  27.821  1.00  0.00    -0.237 OA
ATOM     66  O   UNL A   1      40.240  22.574  26.822  1.00  0.00    -0.237 OA
ATOM     67  O   UNL A   1      42.221  22.264  25.384  1.00  0.00    -0.744 OA
ENDBRANCH  60  64
ENDBRANCH  43  57
BRANCH  44  68
ATOM     68  C   UNL A   1      38.762  31.945  35.608  1.00  0.00     0.023 A 
ATOM     69  C   UNL A   1      38.160  31.248  36.669  1.00  0.00     0.031 A 
ATOM     70  C   UNL A   1      38.858  33.344  35.708  1.00  0.00     0.131 A 
ATOM     71  C   UNL A   1      37.641  31.956  37.766  1.00  0.00     0.055 A 
ATOM     72  C   UNL A   1      38.380  34.039  36.821  1.00  0.00     0.041 A 
ATOM     73  F   UNL A   1      39.427  34.056  34.722  1.00  0.00    -0.206 F 
ATOM     74  C   UNL A   1      37.757  33.345  37.854  1.00  0.00     0.022 A 
BRANCH  71  75
ATOM     75  S   UNL A   1      36.760  31.039  39.060  1.00  0.00     0.124 S 
ATOM     76  O   UNL A   1      36.636  29.718  38.453  1.00  0.00    -0.237 OA
ATOM     77  O   UNL A   1      37.679  31.143  40.187  1.00  0.00    -0.237 OA
ATOM     78  O   UNL A   1      35.509  31.779  39.210  1.00  0.00    -0.744 OA
ENDBRANCH  71  75
ENDBRANCH  44  68
BRANCH  56  79
ATOM     79  C   UNL A   1      44.322  27.921  34.284  1.00  0.00     0.023 A 
ATOM     80  C   UNL A   1      44.364  26.780  35.105  1.00  0.00     0.031 A 
ATOM     81  C   UNL A   1      45.483  28.711  34.189  1.00  0.00     0.131 A 
ATOM     82  C   UNL A   1      45.537  26.475  35.816  1.00  0.00     0.055 A 
ATOM     83  C   UNL A   1      46.659  28.378  34.862  1.00  0.00     0.041 A 
ATOM     84  F   UNL A   1      45.499  29.811  33.419  1.00  0.00    -0.206 F 
ATOM     85  C   UNL A   1      46.689  27.257  35.686  1.00  0.00     0.022 A 
BRANCH  82  86
ATOM     86  S   UNL A   1      45.533  25.061  36.954  1.00  0.00     0.124 S 
ATOM     87  O   UNL A   1      44.688  24.105  36.247  1.00  0.00    -0.237 OA
ATOM     88  O   UNL A   1      46.950  24.721  37.036  1.00  0.00    -0.237 OA
ATOM     89  O   UNL A   1      44.958  25.608  38.181  1.00  0.00    -0.744 OA
ENDBRANCH  82  86
ENDBRANCH  56  79
ENDBRANCH  30  31
ENDBRANCH  23  25
ENDBRANCH  22  23
ENDBRANCH   1  22
TORSDOF 16
ENDMDL
MODEL 3
REMARK VINA RESULT:     -11.4      5.140      7.823
REMARK SMILES O=C(C[C@H]1C[C@H]2CC[C@@H](C1)[N@H+]2[C@@H]1CCCSC1)OCCOC(=O)c1ccc(-c2c3nc(c(-c4cc(S(=O)(=O)[O-])ccc4F)c4ccc([nH]4)c(-c4cc(S(=O)(=O)[O-])ccc4F)c4nc(c(-c5cc(S(=O)(=O)[O-])ccc5F)c5ccc2[nH]5)C=C4)C=C3)cc1
REMARK SMILES IDX 20 1 19 2 18 3 2 4 1 5 3 6 4 7 5 8 10 9 6 10 9 11 7 12 11 13
REMARK SMILES IDX 8 14 12 16 13 17 17 18 14 19 16 20 15 21 21 22 22 23 23 24
REMARK SMILES IDX 24 25 25 26 86 27 26 28 85 29 27 30 28 31 29 32 79 33 30 34
REMARK SMILES IDX 84 35 78 36 80 37 31 38 83 39 77 40 76 41 32 43 64 44 44 45
REMARK SMILES IDX 63 46 45 47 48 48 62 49 81 50 46 51 47 52 61 54 82 55 49 56
REMARK SMILES IDX 33 57 34 58 42 59 35 60 41 61 43 62 40 63 36 64 37 65 38 66
REMARK SMILES IDX 39 67 65 68 66 69 74 70 67 71 73 72 75 73 72 74 68 75 69 76
REMARK SMILES IDX 70 77 71 78 50 79 51 80 59 81 52 82 58 83 60 84 57 85 53 86
REMARK SMILES IDX 54 87 55 88 56 89
REMARK H PARENT 11 15 80 42 48 53
REMARK Flexibility Score: inf
ROOT
ATOM      1  C   UNL A   1      31.849  31.631  26.534  1.00  0.00     0.275 C 
ENDROOT
BRANCH   1   2
ATOM      2  C   UNL A   1      31.322  30.656  25.469  1.00  0.00     0.274 C 
BRANCH   2   3
ATOM      3  O   UNL A   1      31.553  29.286  25.821  1.00  0.00    -0.462 OA
BRANCH   3   4
ATOM      4  C   UNL A   1      31.422  28.418  24.782  1.00  0.00     0.306 C 
ATOM      5  O   UNL A   1      30.408  27.763  24.589  1.00  0.00    -0.252 OA
BRANCH   4   6
ATOM      6  C   UNL A   1      32.696  28.272  23.980  1.00  0.00     0.126 C 
BRANCH   6   7
ATOM      7  C   UNL A   1      33.491  26.987  24.244  1.00  0.00     0.012 C 
ATOM      8  C   UNL A   1      33.510  26.591  25.742  1.00  0.00     0.069 C 
ATOM      9  C   UNL A   1      33.015  25.869  23.284  1.00  0.00     0.069 C 
ATOM     10  C   UNL A   1      33.342  25.101  26.084  1.00  0.00     0.185 C 
ATOM     11  C   UNL A   1      32.752  24.506  23.939  1.00  0.00     0.185 C 
ATOM     12  C   UNL A   1      31.849  24.766  26.181  1.00  0.00     0.071 C 
ATOM     13  N   UNL A   1      33.692  24.197  25.006  1.00  0.00    -0.327 N 
ATOM     14  C   UNL A   1      31.436  24.546  24.730  1.00  0.00     0.071 C 
ATOM     15  H   UNL A   1      33.584  23.221  25.282  1.00  0.00     0.348 HD
BRANCH  13  16
ATOM     16  C   UNL A   1      35.084  23.831  24.747  1.00  0.00     0.194 C 
ATOM     17  C   UNL A   1      35.332  22.957  23.507  1.00  0.00     0.067 C 
ATOM     18  C   UNL A   1      35.707  23.237  26.034  1.00  0.00     0.134 C 
ATOM     19  C   UNL A   1      36.791  22.579  23.266  1.00  0.00     0.017 C 
ATOM     20  S   UNL A   1      37.483  22.865  25.884  1.00  0.00    -0.156 SA
ATOM     21  C   UNL A   1      37.384  21.798  24.426  1.00  0.00     0.070 C 
ENDBRANCH  13  16
ENDBRANCH   6   7
ENDBRANCH   4   6
ENDBRANCH   3   4
ENDBRANCH   2   3
ENDBRANCH   1   2
BRANCH   1  22
ATOM     22  O   UNL A   1      32.998  31.126  27.242  1.00  0.00    -0.458 OA
BRANCH  22  23
ATOM     23  C   UNL A   1      33.848  32.088  27.710  1.00  0.00     0.338 C 
ATOM     24  O   UNL A   1      33.584  33.259  27.890  1.00  0.00    -0.246 OA
BRANCH  23  25
ATOM     25  C   UNL A   1      35.110  31.449  28.168  1.00  0.00     0.060 A 
ATOM     26  C   UNL A   1      35.120  30.060  28.358  1.00  0.00     0.016 A 
ATOM     27  C   UNL A   1      36.281  32.185  28.355  1.00  0.00     0.016 A 
ATOM     28  C   UNL A   1      36.300  29.402  28.730  1.00  0.00     0.010 A 
ATOM     29  C   UNL A   1      37.460  31.524  28.727  1.00  0.00     0.010 A 
ATOM     30  C   UNL A   1      37.480  30.130  28.932  1.00  0.00    -0.014 A 
BRANCH  30  31
ATOM     31  C   UNL A   1      38.674  29.495  29.559  1.00  0.00     0.031 A 
ATOM     32  C   UNL A   1      39.111  30.008  30.906  1.00  0.00     0.074 A 
ATOM     33  C   UNL A   1      39.383  28.514  28.968  1.00  0.00     0.049 A 
ATOM     34  N   UNL A   1      40.175  29.717  31.610  1.00  0.00    -0.248 NA
ATOM     35  C   UNL A   1      38.233  31.012  31.521  1.00  0.00     0.031 C 
ATOM     36  C   UNL A   1      39.079  27.900  27.679  1.00  0.00     0.029 A 
ATOM     37  N   UNL A   1      40.530  27.873  29.380  1.00  0.00    -0.354 N 
ATOM     38  C   UNL A   1      40.106  30.524  32.740  1.00  0.00     0.074 A 
ATOM     39  C   UNL A   1      38.931  31.357  32.589  1.00  0.00     0.031 C 
ATOM     40  C   UNL A   1      40.025  26.986  27.395  1.00  0.00     0.029 A 
ATOM     41  C   UNL A   1      41.019  26.965  28.468  1.00  0.00     0.049 A 
ATOM     42  H   UNL A   1      40.961  28.047  30.248  1.00  0.00     0.167 HD
ATOM     43  C   UNL A   1      40.928  30.560  33.819  1.00  0.00     0.034 A 
ATOM     44  C   UNL A   1      42.147  26.222  28.485  1.00  0.00     0.034 A 
ATOM     45  C   UNL A   1      42.093  29.727  33.974  1.00  0.00     0.049 A 
ATOM     46  C   UNL A   1      43.087  26.309  29.667  1.00  0.00     0.074 A 
ATOM     47  C   UNL A   1      42.969  29.661  35.042  1.00  0.00     0.029 A 
ATOM     48  N   UNL A   1      42.552  28.821  33.027  1.00  0.00    -0.354 N 
ATOM     49  N   UNL A   1      42.998  27.056  30.743  1.00  0.00    -0.248 NA
ATOM     50  C   UNL A   1      44.278  25.445  29.639  1.00  0.00     0.031 C 
ATOM     51  C   UNL A   1      43.994  28.767  34.715  1.00  0.00     0.029 A 
ATOM     52  C   UNL A   1      43.715  28.216  33.474  1.00  0.00     0.049 A 
ATOM     53  H   UNL A   1      42.114  28.636  32.164  1.00  0.00     0.167 HD
ATOM     54  C   UNL A   1      44.100  26.726  31.531  1.00  0.00     0.074 A 
ATOM     55  C   UNL A   1      44.843  25.716  30.809  1.00  0.00     0.031 C 
ATOM     56  C   UNL A   1      44.455  27.207  32.750  1.00  0.00     0.034 A 
BRANCH  43  57
ATOM     57  C   UNL A   1      40.601  31.581  34.881  1.00  0.00     0.023 A 
ATOM     58  C   UNL A   1      39.700  31.293  35.922  1.00  0.00     0.031 A 
ATOM     59  C   UNL A   1      41.107  32.889  34.789  1.00  0.00     0.131 A 
ATOM     60  C   UNL A   1      39.235  32.328  36.746  1.00  0.00     0.055 A 
ATOM     61  C   UNL A   1      40.720  33.890  35.681  1.00  0.00     0.041 A 
ATOM     62  F   UNL A   1      41.955  33.227  33.804  1.00  0.00    -0.206 F 
ATOM     63  C   UNL A   1      39.757  33.619  36.650  1.00  0.00     0.022 A 
BRANCH  60  64
ATOM     64  S   UNL A   1      37.779  32.008  37.780  1.00  0.00     0.124 S 
ATOM     65  O   UNL A   1      37.411  30.657  37.362  1.00  0.00    -0.237 OA
ATOM     66  O   UNL A   1      38.317  32.136  39.129  1.00  0.00    -0.237 OA
ATOM     67  O   UNL A   1      36.839  33.052  37.379  1.00  0.00    -0.744 OA
ENDBRANCH  60  64
ENDBRANCH  43  57
BRANCH  44  68
ATOM     68  C   UNL A   1      42.491  25.351  27.323  1.00  0.00     0.023 A 
ATOM     69  C   UNL A   1      42.088  24.007  27.270  1.00  0.00     0.031 A 
ATOM     70  C   UNL A   1      43.283  25.845  26.271  1.00  0.00     0.131 A 
ATOM     71  C   UNL A   1      42.512  23.191  26.208  1.00  0.00     0.055 A 
ATOM     72  C   UNL A   1      43.666  25.041  25.195  1.00  0.00     0.041 A 
ATOM     73  F   UNL A   1      43.693  27.124  26.274  1.00  0.00    -0.206 F 
ATOM     74  C   UNL A   1      43.288  23.702  25.165  1.00  0.00     0.022 A 
BRANCH  71  75
ATOM     75  S   UNL A   1      42.078  21.429  26.232  1.00  0.00     0.124 S 
ATOM     76  O   UNL A   1      42.275  21.096  27.638  1.00  0.00    -0.237 OA
ATOM     77  O   UNL A   1      40.697  21.449  25.765  1.00  0.00    -0.237 OA
ATOM     78  O   UNL A   1      43.037  20.830  25.307  1.00  0.00    -0.744 OA
ENDBRANCH  71  75
ENDBRANCH  44  68
BRANCH  56  79
ATOM     79  C   UNL A   1      45.665  26.605  33.423  1.00  0.00     0.023 A 
ATOM     80  C   UNL A   1      45.594  25.422  34.179  1.00  0.00     0.031 A 
ATOM     81  C   UNL A   1      46.925  27.211  33.260  1.00  0.00     0.131 A 
ATOM     82  C   UNL A   1      46.760  24.895  34.762  1.00  0.00     0.055 A 
ATOM     83  C   UNL A   1      48.086  26.659  33.803  1.00  0.00     0.041 A 
ATOM     84  F   UNL A   1      47.050  28.343  32.547  1.00  0.00    -0.206 F 
ATOM     85  C   UNL A   1      48.006  25.498  34.564  1.00  0.00     0.022 A 
BRANCH  82  86
ATOM     86  S   UNL A   1      46.627  23.429  35.823  1.00  0.00     0.124 S 
ATOM     87  O   UNL A   1      46.120  22.426  34.894  1.00  0.00    -0.237 OA
ATOM     88  O   UNL A   1      48.003  23.243  36.274  1.00  0.00    -0.237 OA
ATOM     89  O   UNL A   1      45.688  23.841  36.864  1.00  0.00    -0.744 OA
ENDBRANCH  82  86
ENDBRANCH  56  79
ENDBRANCH  30  31
ENDBRANCH  23  25
ENDBRANCH  22  23
ENDBRANCH   1  22
TORSDOF 16
ENDMDL
