MODEL 1
REMARK VINA RESULT:     -11.6      0.000      0.000
REMARK SMILES O=C(NCc1ccc(C(=O)OCCOC(=O)c2ccc(-c3c4nc(c(-c5cc(S(=O)(=O)[O-])ccc5F)c5ccc([nH]5)c(-c5cc(S(=O)(=O)[O-])ccc5F)c5nc(c(-c6cc(S(=O)(=O)[O-])ccc6F)c6ccc3[nH]6)C=C5)C=C4)cc2)o1)Nc1ccc(F)c(Cl)c1
REMARK SMILES IDX 12 1 11 2 9 3 10 4 8 5 5 6 6 7 80 8 7 9 4 10 3 11 1 12 2 13
REMARK SMILES IDX 81 14 82 17 83 18 89 19 84 20 87 21 85 22 88 23 86 24 13 25
REMARK SMILES IDX 14 26 15 27 16 28 17 29 18 30 79 31 19 32 78 33 20 34 21 35
REMARK SMILES IDX 22 36 72 37 23 38 77 39 71 40 73 41 24 42 76 43 70 44 69 45
REMARK SMILES IDX 25 47 57 48 37 49 56 50 38 51 41 52 55 53 74 54 39 55 40 56
REMARK SMILES IDX 54 58 75 59 42 60 26 61 27 62 35 63 28 64 34 65 36 66 33 67
REMARK SMILES IDX 29 68 30 69 31 70 32 71 58 72 59 73 67 74 60 75 66 76 68 77
REMARK SMILES IDX 65 78 61 79 62 80 63 81 64 82 43 83 44 84 52 85 45 86 51 87
REMARK SMILES IDX 53 88 50 89 46 90 47 91 48 92 49 93
REMARK H PARENT 3 15 81 16 73 46 41 57
REMARK Flexibility Score: inf
ROOT
ATOM      1  C   UNL A   1      45.610  20.632  24.786  1.00  0.00     0.275 C 
ENDROOT
BRANCH   1   2
ATOM      2  O   UNL A   1      44.328  20.068  24.455  1.00  0.00    -0.456 OA
BRANCH   2   3
ATOM      3  C   UNL A   1      43.830  19.157  25.345  1.00  0.00     0.374 C 
ATOM      4  O   UNL A   1      44.311  18.047  25.535  1.00  0.00    -0.242 OA
BRANCH   3   5
ATOM      5  C   UNL A   1      42.727  19.734  26.079  1.00  0.00     0.211 A 
ATOM      6  C   UNL A   1      40.628  20.385  26.280  1.00  0.00     0.124 A 
ATOM      7  C   UNL A   1      41.166  20.420  27.549  1.00  0.00     0.048 A 
ATOM      8  O   UNL A   1      41.588  20.039  25.379  1.00  0.00    -0.452 OA
ATOM      9  C   UNL A   1      42.512  19.991  27.421  1.00  0.00     0.058 A 
BRANCH   6  10
ATOM     10  C   UNL A   1      39.249  20.550  25.748  1.00  0.00     0.193 C 
BRANCH  10  11
ATOM     11  N   UNL A   1      38.895  21.946  25.911  1.00  0.00    -0.331 N 
ATOM     12  O   UNL A   1      37.709  23.783  25.551  1.00  0.00    -0.248 OA
ATOM     13  C   UNL A   1      37.700  22.572  25.747  1.00  0.00     0.319 C 
ATOM     14  N   UNL A   1      36.590  21.778  25.813  1.00  0.00    -0.308 N 
ATOM     15  H   UNL A   1      39.636  22.533  26.185  1.00  0.00     0.165 HD
ATOM     16  H   UNL A   1      36.732  20.849  26.110  1.00  0.00     0.171 HD
BRANCH  14  17
ATOM     17  C   UNL A   1      35.264  22.143  25.503  1.00  0.00     0.044 A 
ATOM     18  C   UNL A   1      34.882  22.079  24.154  1.00  0.00     0.029 A 
ATOM     19  C   UNL A   1      34.334  22.582  26.454  1.00  0.00     0.049 A 
ATOM     20  C   UNL A   1      33.589  22.436  23.764  1.00  0.00     0.043 A 
ATOM     21  C   UNL A   1      33.043  22.944  26.060  1.00  0.00     0.078 A 
ATOM     22  C   UNL A   1      32.677  22.868  24.720  1.00  0.00     0.141 A 
ATOM     23  Cl  UNL A   1      31.918  23.507  27.238  1.00  0.00    -0.081 Cl
ATOM     24  F   UNL A   1      31.446  23.221  24.320  1.00  0.00    -0.205 F 
ENDBRANCH  14  17
ENDBRANCH  10  11
ENDBRANCH   6  10
ENDBRANCH   3   5
ENDBRANCH   2   3
ENDBRANCH   1   2
BRANCH   1  25
ATOM     25  C   UNL A   1      45.562  22.164  24.801  1.00  0.00     0.275 C 
BRANCH  25  26
ATOM     26  O   UNL A   1      44.641  22.668  25.786  1.00  0.00    -0.458 OA
BRANCH  26  27
ATOM     27  C   UNL A   1      43.530  23.268  25.292  1.00  0.00     0.338 C 
ATOM     28  O   UNL A   1      42.946  22.980  24.261  1.00  0.00    -0.246 OA
BRANCH  27  29
ATOM     29  C   UNL A   1      43.029  24.258  26.262  1.00  0.00     0.060 A 
ATOM     30  C   UNL A   1      43.561  25.549  26.222  1.00  0.00     0.016 A 
ATOM     31  C   UNL A   1      42.087  23.911  27.234  1.00  0.00     0.016 A 
ATOM     32  C   UNL A   1      43.155  26.505  27.150  1.00  0.00     0.010 A 
ATOM     33  C   UNL A   1      41.684  24.870  28.169  1.00  0.00     0.010 A 
ATOM     34  C   UNL A   1      42.219  26.170  28.135  1.00  0.00    -0.014 A 
BRANCH  34  35
ATOM     35  C   UNL A   1      41.837  27.162  29.167  1.00  0.00     0.031 A 
ATOM     36  C   UNL A   1      42.618  27.237  30.447  1.00  0.00     0.074 A 
ATOM     37  C   UNL A   1      40.797  27.988  28.955  1.00  0.00     0.049 A 
ATOM     38  N   UNL A   1      42.381  27.939  31.523  1.00  0.00    -0.248 NA
ATOM     39  C   UNL A   1      43.828  26.404  30.521  1.00  0.00     0.031 C 
ATOM     40  C   UNL A   1      40.003  28.044  27.727  1.00  0.00     0.029 A 
ATOM     41  N   UNL A   1      40.220  28.929  29.770  1.00  0.00    -0.354 N 
ATOM     42  C   UNL A   1      43.401  27.624  32.414  1.00  0.00     0.074 A 
ATOM     43  C   UNL A   1      44.250  26.653  31.752  1.00  0.00     0.031 C 
ATOM     44  C   UNL A   1      39.032  28.961  27.877  1.00  0.00     0.029 A 
ATOM     45  C   UNL A   1      39.104  29.520  29.225  1.00  0.00     0.049 A 
ATOM     46  H   UNL A   1      40.572  29.159  30.660  1.00  0.00     0.167 HD
ATOM     47  C   UNL A   1      43.605  28.099  33.667  1.00  0.00     0.034 A 
ATOM     48  C   UNL A   1      38.218  30.379  29.766  1.00  0.00     0.034 A 
ATOM     49  C   UNL A   1      42.745  29.062  34.310  1.00  0.00     0.049 A 
ATOM     50  C   UNL A   1      38.418  30.832  31.191  1.00  0.00     0.074 A 
ATOM     51  C   UNL A   1      42.859  29.614  35.575  1.00  0.00     0.029 A 
ATOM     52  N   UNL A   1      41.604  29.611  33.739  1.00  0.00    -0.354 N 
ATOM     53  N   UNL A   1      39.369  30.504  32.033  1.00  0.00    -0.248 NA
ATOM     54  C   UNL A   1      37.422  31.763  31.739  1.00  0.00     0.031 C 
ATOM     55  C   UNL A   1      41.759  30.453  35.788  1.00  0.00     0.029 A 
ATOM     56  C   UNL A   1      40.991  30.474  34.635  1.00  0.00     0.049 A 
ATOM     57  H   UNL A   1      41.279  29.417  32.831  1.00  0.00     0.167 HD
ATOM     58  C   UNL A   1      39.101  31.211  33.202  1.00  0.00     0.074 A 
ATOM     59  C   UNL A   1      37.899  31.981  32.956  1.00  0.00     0.031 C 
ATOM     60  C   UNL A   1      39.790  31.229  34.370  1.00  0.00     0.034 A 
BRANCH  47  61
ATOM     61  C   UNL A   1      44.768  27.530  34.439  1.00  0.00     0.023 A 
ATOM     62  C   UNL A   1      44.633  26.390  35.251  1.00  0.00     0.031 A 
ATOM     63  C   UNL A   1      46.024  28.161  34.387  1.00  0.00     0.131 A 
ATOM     64  C   UNL A   1      45.718  25.954  36.027  1.00  0.00     0.055 A 
ATOM     65  C   UNL A   1      47.117  27.682  35.111  1.00  0.00     0.041 A 
ATOM     66  F   UNL A   1      46.203  29.265  33.646  1.00  0.00    -0.206 F 
ATOM     67  C   UNL A   1      46.965  26.580  35.947  1.00  0.00     0.022 A 
BRANCH  64  68
ATOM     68  S   UNL A   1      45.446  24.633  37.238  1.00  0.00     0.124 S 
ATOM     69  O   UNL A   1      46.638  24.750  38.071  1.00  0.00    -0.237 OA
ATOM     70  O   UNL A   1      44.187  25.030  37.859  1.00  0.00    -0.237 OA
ATOM     71  O   UNL A   1      45.383  23.424  36.418  1.00  0.00    -0.744 OA
ENDBRANCH  64  68
ENDBRANCH  47  61
BRANCH  48  72
ATOM     72  C   UNL A   1      37.027  30.819  28.987  1.00  0.00     0.023 A 
ATOM     73  C   UNL A   1      36.100  29.892  28.488  1.00  0.00     0.031 A 
ATOM     74  C   UNL A   1      36.821  32.181  28.703  1.00  0.00     0.131 A 
ATOM     75  C   UNL A   1      35.024  30.336  27.704  1.00  0.00     0.055 A 
ATOM     76  C   UNL A   1      35.725  32.621  27.959  1.00  0.00     0.041 A 
ATOM     77  F   UNL A   1      37.681  33.107  29.157  1.00  0.00    -0.206 F 
ATOM     78  C   UNL A   1      34.824  31.695  27.447  1.00  0.00     0.022 A 
BRANCH  75  79
ATOM     79  S   UNL A   1      33.916  29.102  26.968  1.00  0.00     0.124 S 
ATOM     80  O   UNL A   1      33.530  29.754  25.722  1.00  0.00    -0.237 OA
ATOM     81  O   UNL A   1      34.794  27.943  26.841  1.00  0.00    -0.237 OA
ATOM     82  O   UNL A   1      32.850  28.967  27.959  1.00  0.00    -0.744 OA
ENDBRANCH  75  79
ENDBRANCH  48  72
BRANCH  60  83
ATOM     83  C   UNL A   1      39.290  32.155  35.446  1.00  0.00     0.023 A 
ATOM     84  C   UNL A   1      39.781  33.464  35.582  1.00  0.00     0.031 A 
ATOM     85  C   UNL A   1      38.296  31.717  36.340  1.00  0.00     0.131 A 
ATOM     86  C   UNL A   1      39.298  34.282  36.616  1.00  0.00     0.055 A 
ATOM     87  C   UNL A   1      37.791  32.549  37.338  1.00  0.00     0.041 A 
ATOM     88  F   UNL A   1      37.797  30.474  36.248  1.00  0.00    -0.206 F 
ATOM     89  C   UNL A   1      38.296  33.838  37.485  1.00  0.00     0.022 A 
BRANCH  86  90
ATOM     90  S   UNL A   1      40.023  35.930  36.838  1.00  0.00     0.124 S 
ATOM     91  O   UNL A   1      39.684  36.582  35.576  1.00  0.00    -0.237 OA
ATOM     92  O   UNL A   1      39.323  36.426  38.019  1.00  0.00    -0.237 OA
ATOM     93  O   UNL A   1      41.446  35.657  37.032  1.00  0.00    -0.744 OA
ENDBRANCH  86  90
ENDBRANCH  60  83
ENDBRANCH  34  35
ENDBRANCH  27  29
ENDBRANCH  26  27
ENDBRANCH  25  26
ENDBRANCH   1  25
TORSDOF 17
ENDMDL
MODEL 2
REMARK VINA RESULT:     -11.6      4.085     11.655
REMARK SMILES O=C(NCc1ccc(C(=O)OCCOC(=O)c2ccc(-c3c4nc(c(-c5cc(S(=O)(=O)[O-])ccc5F)c5ccc([nH]5)c(-c5cc(S(=O)(=O)[O-])ccc5F)c5nc(c(-c6cc(S(=O)(=O)[O-])ccc6F)c6ccc3[nH]6)C=C5)C=C4)cc2)o1)Nc1ccc(F)c(Cl)c1
REMARK SMILES IDX 12 1 11 2 9 3 10 4 8 5 5 6 6 7 80 8 7 9 4 10 3 11 1 12 2 13
REMARK SMILES IDX 81 14 82 17 83 18 89 19 84 20 87 21 85 22 88 23 86 24 13 25
REMARK SMILES IDX 14 26 15 27 16 28 17 29 18 30 79 31 19 32 78 33 20 34 21 35
REMARK SMILES IDX 22 36 72 37 23 38 77 39 71 40 73 41 24 42 76 43 70 44 69 45
REMARK SMILES IDX 25 47 57 48 37 49 56 50 38 51 41 52 55 53 74 54 39 55 40 56
REMARK SMILES IDX 54 58 75 59 42 60 26 61 27 62 35 63 28 64 34 65 36 66 33 67
REMARK SMILES IDX 29 68 30 69 31 70 32 71 58 72 59 73 67 74 60 75 66 76 68 77
REMARK SMILES IDX 65 78 61 79 62 80 63 81 64 82 43 83 44 84 52 85 45 86 51 87
REMARK SMILES IDX 53 88 50 89 46 90 47 91 48 92 49 93
REMARK H PARENT 3 15 81 16 73 46 41 57
REMARK Flexibility Score: inf
ROOT
ATOM      1  C   UNL A   1      33.393  34.714  28.091  1.00  0.00     0.275 C 
ENDROOT
BRANCH   1   2
ATOM      2  O   UNL A   1      32.571  35.317  29.108  1.00  0.00    -0.456 OA
BRANCH   2   3
ATOM      3  C   UNL A   1      33.090  36.429  29.711  1.00  0.00     0.374 C 
ATOM      4  O   UNL A   1      33.267  37.499  29.145  1.00  0.00    -0.242 OA
BRANCH   3   5
ATOM      5  C   UNL A   1      33.304  36.174  31.117  1.00  0.00     0.211 A 
ATOM      6  C   UNL A   1      33.713  34.847  32.833  1.00  0.00     0.124 A 
ATOM      7  C   UNL A   1      33.856  36.137  33.300  1.00  0.00     0.048 A 
ATOM      8  O   UNL A   1      33.310  34.867  31.533  1.00  0.00    -0.452 OA
ATOM      9  C   UNL A   1      33.604  36.989  32.194  1.00  0.00     0.058 A 
BRANCH   6  10
ATOM     10  C   UNL A   1      33.992  33.510  33.420  1.00  0.00     0.193 C 
BRANCH  10  11
ATOM     11  N   UNL A   1      35.230  33.622  34.165  1.00  0.00    -0.331 N 
ATOM     12  O   UNL A   1      37.410  33.409  34.500  1.00  0.00    -0.248 OA
ATOM     13  C   UNL A   1      36.512  33.719  33.726  1.00  0.00     0.319 C 
ATOM     14  N   UNL A   1      36.676  34.156  32.441  1.00  0.00    -0.308 N 
ATOM     15  H   UNL A   1      35.126  33.629  35.144  1.00  0.00     0.165 HD
ATOM     16  H   UNL A   1      35.871  34.497  31.987  1.00  0.00     0.171 HD
BRANCH  14  17
ATOM     17  C   UNL A   1      37.873  34.176  31.696  1.00  0.00     0.044 A 
ATOM     18  C   UNL A   1      37.788  33.825  30.340  1.00  0.00     0.029 A 
ATOM     19  C   UNL A   1      39.124  34.498  32.239  1.00  0.00     0.049 A 
ATOM     20  C   UNL A   1      38.930  33.808  29.537  1.00  0.00     0.043 A 
ATOM     21  C   UNL A   1      40.266  34.473  31.435  1.00  0.00     0.078 A 
ATOM     22  C   UNL A   1      40.164  34.132  30.090  1.00  0.00     0.141 A 
ATOM     23  Cl  UNL A   1      41.802  34.847  32.122  1.00  0.00    -0.081 Cl
ATOM     24  F   UNL A   1      41.250  34.092  29.304  1.00  0.00    -0.205 F 
ENDBRANCH  14  17
ENDBRANCH  10  11
ENDBRANCH   6  10
ENDBRANCH   3   5
ENDBRANCH   2   3
ENDBRANCH   1   2
BRANCH   1  25
ATOM     25  C   UNL A   1      34.284  33.611  28.672  1.00  0.00     0.275 C 
BRANCH  25  26
ATOM     26  O   UNL A   1      34.795  32.733  27.652  1.00  0.00    -0.458 OA
BRANCH  26  27
ATOM     27  C   UNL A   1      34.560  31.413  27.848  1.00  0.00     0.338 C 
ATOM     28  O   UNL A   1      33.524  30.816  27.609  1.00  0.00    -0.246 OA
BRANCH  27  29
ATOM     29  C   UNL A   1      35.802  30.747  28.279  1.00  0.00     0.060 A 
ATOM     30  C   UNL A   1      35.737  29.859  29.355  1.00  0.00     0.016 A 
ATOM     31  C   UNL A   1      37.027  31.030  27.669  1.00  0.00     0.016 A 
ATOM     32  C   UNL A   1      36.894  29.243  29.828  1.00  0.00     0.010 A 
ATOM     33  C   UNL A   1      38.188  30.416  28.148  1.00  0.00     0.010 A 
ATOM     34  C   UNL A   1      38.129  29.523  29.234  1.00  0.00    -0.014 A 
BRANCH  34  35
ATOM     35  C   UNL A   1      39.370  28.926  29.779  1.00  0.00     0.031 A 
ATOM     36  C   UNL A   1      40.039  29.562  30.963  1.00  0.00     0.074 A 
ATOM     37  C   UNL A   1      39.891  27.821  29.215  1.00  0.00     0.049 A 
ATOM     38  N   UNL A   1      41.187  29.278  31.518  1.00  0.00    -0.248 NA
ATOM     39  C   UNL A   1      39.313  30.668  31.604  1.00  0.00     0.031 C 
ATOM     40  C   UNL A   1      39.296  27.086  28.098  1.00  0.00     0.029 A 
ATOM     41  N   UNL A   1      41.044  27.132  29.493  1.00  0.00    -0.354 N 
ATOM     42  C   UNL A   1      41.336  30.180  32.565  1.00  0.00     0.074 A 
ATOM     43  C   UNL A   1      40.162  31.030  32.555  1.00  0.00     0.031 C 
ATOM     44  C   UNL A   1      40.098  26.057  27.777  1.00  0.00     0.029 A 
ATOM     45  C   UNL A   1      41.284  26.090  28.629  1.00  0.00     0.049 A 
ATOM     46  H   UNL A   1      41.643  27.363  30.239  1.00  0.00     0.167 HD
ATOM     47  C   UNL A   1      42.359  30.289  33.448  1.00  0.00     0.034 A 
ATOM     48  C   UNL A   1      42.356  25.282  28.511  1.00  0.00     0.034 A 
ATOM     49  C   UNL A   1      43.522  29.435  33.438  1.00  0.00     0.049 A 
ATOM     50  C   UNL A   1      43.520  25.474  29.451  1.00  0.00     0.074 A 
ATOM     51  C   UNL A   1      44.616  29.454  34.286  1.00  0.00     0.029 A 
ATOM     52  N   UNL A   1      43.746  28.412  32.525  1.00  0.00    -0.354 N 
ATOM     53  N   UNL A   1      43.662  26.349  30.419  1.00  0.00    -0.248 NA
ATOM     54  C   UNL A   1      44.670  24.574  29.279  1.00  0.00     0.031 C 
ATOM     55  C   UNL A   1      45.524  28.481  33.854  1.00  0.00     0.029 A 
ATOM     56  C   UNL A   1      44.971  27.811  32.774  1.00  0.00     0.049 A 
ATOM     57  H   UNL A   1      43.125  28.150  31.808  1.00  0.00     0.167 HD
ATOM     58  C   UNL A   1      44.905  26.087  30.988  1.00  0.00     0.074 A 
ATOM     59  C   UNL A   1      45.472  24.973  30.255  1.00  0.00     0.031 C 
ATOM     60  C   UNL A   1      45.519  26.705  32.027  1.00  0.00     0.034 A 
BRANCH  47  61
ATOM     61  C   UNL A   1      42.287  31.411  34.452  1.00  0.00     0.023 A 
ATOM     62  C   UNL A   1      41.331  31.424  35.482  1.00  0.00     0.031 A 
ATOM     63  C   UNL A   1      43.170  32.501  34.353  1.00  0.00     0.131 A 
ATOM     64  C   UNL A   1      41.240  32.537  36.333  1.00  0.00     0.055 A 
ATOM     65  C   UNL A   1      43.117  33.573  35.244  1.00  0.00     0.041 A 
ATOM     66  F   UNL A   1      44.088  32.549  33.375  1.00  0.00    -0.206 F 
ATOM     67  C   UNL A   1      42.139  33.602  36.234  1.00  0.00     0.022 A 
BRANCH  64  68
ATOM     68  S   UNL A   1      39.850  32.631  37.494  1.00  0.00     0.124 S 
ATOM     69  O   UNL A   1      40.529  32.469  38.776  1.00  0.00    -0.237 OA
ATOM     70  O   UNL A   1      39.302  33.955  37.222  1.00  0.00    -0.237 OA
ATOM     71  O   UNL A   1      38.998  31.511  37.100  1.00  0.00    -0.744 OA
ENDBRANCH  64  68
ENDBRANCH  47  61
BRANCH  48  72
ATOM     72  C   UNL A   1      42.413  24.263  27.426  1.00  0.00     0.023 A 
ATOM     73  C   UNL A   1      41.722  23.047  27.533  1.00  0.00     0.031 A 
ATOM     74  C   UNL A   1      43.194  24.483  26.277  1.00  0.00     0.131 A 
ATOM     75  C   UNL A   1      41.848  22.082  26.521  1.00  0.00     0.055 A 
ATOM     76  C   UNL A   1      43.281  23.538  25.254  1.00  0.00     0.041 A 
ATOM     77  F   UNL A   1      43.875  25.630  26.129  1.00  0.00    -0.206 F 
ATOM     78  C   UNL A   1      42.614  22.325  25.378  1.00  0.00     0.022 A 
BRANCH  75  79
ATOM     79  S   UNL A   1      41.044  20.471  26.749  1.00  0.00     0.124 S 
ATOM     80  O   UNL A   1      40.874  20.426  28.196  1.00  0.00    -0.237 OA
ATOM     81  O   UNL A   1      39.824  20.628  25.963  1.00  0.00    -0.237 OA
ATOM     82  O   UNL A   1      42.016  19.526  26.203  1.00  0.00    -0.744 OA
ENDBRANCH  75  79
ENDBRANCH  48  72
BRANCH  60  83
ATOM     83  C   UNL A   1      46.847  26.149  32.467  1.00  0.00     0.023 A 
ATOM     84  C   UNL A   1      46.937  25.080  33.375  1.00  0.00     0.031 A 
ATOM     85  C   UNL A   1      48.038  26.694  31.957  1.00  0.00     0.131 A 
ATOM     86  C   UNL A   1      48.199  24.611  33.771  1.00  0.00     0.055 A 
ATOM     87  C   UNL A   1      49.287  26.196  32.322  1.00  0.00     0.041 A 
ATOM     88  F   UNL A   1      48.001  27.717  31.087  1.00  0.00    -0.206 F 
ATOM     89  C   UNL A   1      49.374  25.153  33.240  1.00  0.00     0.022 A 
BRANCH  86  90
ATOM     90  S   UNL A   1      48.292  23.302  35.023  1.00  0.00     0.124 S 
ATOM     91  O   UNL A   1      48.552  24.065  36.240  1.00  0.00    -0.237 OA
ATOM     92  O   UNL A   1      46.974  22.680  34.929  1.00  0.00    -0.237 OA
ATOM     93  O   UNL A   1      49.402  22.467  34.566  1.00  0.00    -0.744 OA
ENDBRANCH  86  90
ENDBRANCH  60  83
ENDBRANCH  34  35
ENDBRANCH  27  29
ENDBRANCH  26  27
ENDBRANCH  25  26
ENDBRANCH   1  25
TORSDOF 17
ENDMDL
MODEL 3
REMARK VINA RESULT:     -11.5      5.470      9.706
REMARK SMILES O=C(NCc1ccc(C(=O)OCCOC(=O)c2ccc(-c3c4nc(c(-c5cc(S(=O)(=O)[O-])ccc5F)c5ccc([nH]5)c(-c5cc(S(=O)(=O)[O-])ccc5F)c5nc(c(-c6cc(S(=O)(=O)[O-])ccc6F)c6ccc3[nH]6)C=C5)C=C4)cc2)o1)Nc1ccc(F)c(Cl)c1
REMARK SMILES IDX 12 1 11 2 9 3 10 4 8 5 5 6 6 7 80 8 7 9 4 10 3 11 1 12 2 13
REMARK SMILES IDX 81 14 82 17 83 18 89 19 84 20 87 21 85 22 88 23 86 24 13 25
REMARK SMILES IDX 14 26 15 27 16 28 17 29 18 30 79 31 19 32 78 33 20 34 21 35
REMARK SMILES IDX 22 36 72 37 23 38 77 39 71 40 73 41 24 42 76 43 70 44 69 45
REMARK SMILES IDX 25 47 57 48 37 49 56 50 38 51 41 52 55 53 74 54 39 55 40 56
REMARK SMILES IDX 54 58 75 59 42 60 26 61 27 62 35 63 28 64 34 65 36 66 33 67
REMARK SMILES IDX 29 68 30 69 31 70 32 71 58 72 59 73 67 74 60 75 66 76 68 77
REMARK SMILES IDX 65 78 61 79 62 80 63 81 64 82 43 83 44 84 52 85 45 86 51 87
REMARK SMILES IDX 53 88 50 89 46 90 47 91 48 92 49 93
REMARK H PARENT 3 15 81 16 73 46 41 57
REMARK Flexibility Score: inf
ROOT
ATOM      1  C   UNL A   1      35.276  21.834  26.221  1.00  0.00     0.275 C 
ENDROOT
BRANCH   1   2
ATOM      2  O   UNL A   1      35.134  23.160  25.679  1.00  0.00    -0.456 OA
BRANCH   2   3
ATOM      3  C   UNL A   1      33.851  23.610  25.534  1.00  0.00     0.374 C 
ATOM      4  O   UNL A   1      33.150  23.999  26.459  1.00  0.00    -0.242 OA
BRANCH   3   5
ATOM      5  C   UNL A   1      33.493  23.641  24.135  1.00  0.00     0.211 A 
ATOM      6  C   UNL A   1      33.055  24.688  22.242  1.00  0.00     0.124 A 
ATOM      7  C   UNL A   1      33.187  23.353  21.923  1.00  0.00     0.048 A 
ATOM      8  O   UNL A   1      33.169  24.856  23.587  1.00  0.00    -0.452 OA
ATOM      9  C   UNL A   1      33.479  22.682  23.138  1.00  0.00     0.058 A 
BRANCH   6  10
ATOM     10  C   UNL A   1      32.914  25.925  21.429  1.00  0.00     0.193 C 
BRANCH  10  11
ATOM     11  N   UNL A   1      33.366  27.030  22.252  1.00  0.00    -0.331 N 
ATOM     12  O   UNL A   1      33.417  29.128  22.963  1.00  0.00    -0.248 OA
ATOM     13  C   UNL A   1      32.730  28.178  22.604  1.00  0.00     0.319 C 
ATOM     14  N   UNL A   1      31.366  28.160  22.519  1.00  0.00    -0.308 N 
ATOM     15  H   UNL A   1      34.277  26.933  22.613  1.00  0.00     0.165 HD
ATOM     16  H   UNL A   1      30.948  27.286  22.346  1.00  0.00     0.171 HD
BRANCH  14  17
ATOM     17  C   UNL A   1      30.492  29.259  22.653  1.00  0.00     0.044 A 
ATOM     18  C   UNL A   1      30.317  29.783  23.943  1.00  0.00     0.029 A 
ATOM     19  C   UNL A   1      29.784  29.826  21.586  1.00  0.00     0.049 A 
ATOM     20  C   UNL A   1      29.459  30.863  24.160  1.00  0.00     0.043 A 
ATOM     21  C   UNL A   1      28.921  30.903  21.808  1.00  0.00     0.078 A 
ATOM     22  C   UNL A   1      28.765  31.416  23.091  1.00  0.00     0.141 A 
ATOM     23  Cl  UNL A   1      28.037  31.573  20.489  1.00  0.00    -0.081 Cl
ATOM     24  F   UNL A   1      27.933  32.442  23.327  1.00  0.00    -0.205 F 
ENDBRANCH  14  17
ENDBRANCH  10  11
ENDBRANCH   6  10
ENDBRANCH   3   5
ENDBRANCH   2   3
ENDBRANCH   1   2
BRANCH   1  25
ATOM     25  C   UNL A   1      36.165  20.956  25.332  1.00  0.00     0.275 C 
BRANCH  25  26
ATOM     26  O   UNL A   1      37.403  21.609  24.992  1.00  0.00    -0.458 OA
BRANCH  26  27
ATOM     27  C   UNL A   1      38.487  21.204  25.697  1.00  0.00     0.338 C 
ATOM     28  O   UNL A   1      38.898  20.061  25.807  1.00  0.00    -0.246 OA
BRANCH  27  29
ATOM     29  C   UNL A   1      39.203  22.380  26.222  1.00  0.00     0.060 A 
ATOM     30  C   UNL A   1      38.732  23.649  25.874  1.00  0.00     0.016 A 
ATOM     31  C   UNL A   1      40.353  22.243  27.004  1.00  0.00     0.016 A 
ATOM     32  C   UNL A   1      39.404  24.791  26.305  1.00  0.00     0.010 A 
ATOM     33  C   UNL A   1      41.030  23.390  27.432  1.00  0.00     0.010 A 
ATOM     34  C   UNL A   1      40.562  24.669  27.081  1.00  0.00    -0.014 A 
BRANCH  34  35
ATOM     35  C   UNL A   1      41.319  25.878  27.483  1.00  0.00     0.031 A 
ATOM     36  C   UNL A   1      40.646  26.927  28.320  1.00  0.00     0.074 A 
ATOM     37  C   UNL A   1      42.599  26.031  27.098  1.00  0.00     0.049 A 
ATOM     38  N   UNL A   1      41.080  28.107  28.676  1.00  0.00    -0.248 NA
ATOM     39  C   UNL A   1      39.302  26.599  28.819  1.00  0.00     0.031 C 
ATOM     40  C   UNL A   1      43.371  25.051  26.333  1.00  0.00     0.029 A 
ATOM     41  N   UNL A   1      43.472  27.072  27.285  1.00  0.00    -0.354 N 
ATOM     42  C   UNL A   1      40.058  28.675  29.429  1.00  0.00     0.074 A 
ATOM     43  C   UNL A   1      38.977  27.711  29.462  1.00  0.00     0.031 C 
ATOM     44  C   UNL A   1      44.598  25.546  26.103  1.00  0.00     0.029 A 
ATOM     45  C   UNL A   1      44.683  26.895  26.660  1.00  0.00     0.049 A 
ATOM     46  H   UNL A   1      43.251  27.871  27.817  1.00  0.00     0.167 HD
ATOM     47  C   UNL A   1      40.027  29.889  30.031  1.00  0.00     0.034 A 
ATOM     48  C   UNL A   1      45.724  27.738  26.516  1.00  0.00     0.034 A 
ATOM     49  C   UNL A   1      41.113  30.837  29.982  1.00  0.00     0.049 A 
ATOM     50  C   UNL A   1      45.636  29.116  27.124  1.00  0.00     0.074 A 
ATOM     51  C   UNL A   1      41.190  32.095  30.557  1.00  0.00     0.029 A 
ATOM     52  N   UNL A   1      42.311  30.636  29.308  1.00  0.00    -0.354 N 
ATOM     53  N   UNL A   1      44.653  29.653  27.808  1.00  0.00    -0.248 NA
ATOM     54  C   UNL A   1      46.793  30.002  26.934  1.00  0.00     0.031 C 
ATOM     55  C   UNL A   1      42.410  32.673  30.187  1.00  0.00     0.029 A 
ATOM     56  C   UNL A   1      43.122  31.754  29.432  1.00  0.00     0.049 A 
ATOM     57  H   UNL A   1      42.551  29.817  28.816  1.00  0.00     0.167 HD
ATOM     58  C   UNL A   1      45.085  30.930  28.154  1.00  0.00     0.074 A 
ATOM     59  C   UNL A   1      46.416  31.083  27.602  1.00  0.00     0.031 C 
ATOM     60  C   UNL A   1      44.444  31.886  28.870  1.00  0.00     0.034 A 
BRANCH  47  61
ATOM     61  C   UNL A   1      38.753  30.277  30.736  1.00  0.00     0.023 A 
ATOM     62  C   UNL A   1      37.758  31.042  30.102  1.00  0.00     0.031 A 
ATOM     63  C   UNL A   1      38.547  29.901  32.075  1.00  0.00     0.131 A 
ATOM     64  C   UNL A   1      36.633  31.461  30.830  1.00  0.00     0.055 A 
ATOM     65  C   UNL A   1      37.394  30.265  32.772  1.00  0.00     0.041 A 
ATOM     66  F   UNL A   1      39.474  29.189  32.735  1.00  0.00    -0.206 F 
ATOM     67  C   UNL A   1      36.434  31.061  32.153  1.00  0.00     0.022 A 
BRANCH  64  68
ATOM     68  S   UNL A   1      35.491  32.640  30.060  1.00  0.00     0.124 S 
ATOM     69  O   UNL A   1      36.417  33.581  29.438  1.00  0.00    -0.237 OA
ATOM     70  O   UNL A   1      34.730  31.793  29.149  1.00  0.00    -0.237 OA
ATOM     71  O   UNL A   1      34.735  33.175  31.192  1.00  0.00    -0.744 OA
ENDBRANCH  64  68
ENDBRANCH  47  61
BRANCH  48  72
ATOM     72  C   UNL A   1      46.912  27.335  25.713  1.00  0.00     0.023 A 
ATOM     73  C   UNL A   1      47.065  27.748  24.381  1.00  0.00     0.031 A 
ATOM     74  C   UNL A   1      47.898  26.497  26.264  1.00  0.00     0.131 A 
ATOM     75  C   UNL A   1      48.164  27.298  23.633  1.00  0.00     0.055 A 
ATOM     76  C   UNL A   1      49.012  26.088  25.530  1.00  0.00     0.041 A 
ATOM     77  F   UNL A   1      47.797  26.074  27.534  1.00  0.00    -0.206 F 
ATOM     78  C   UNL A   1      49.144  26.481  24.202  1.00  0.00     0.022 A 
BRANCH  75  79
ATOM     79  S   UNL A   1      48.265  27.746  21.878  1.00  0.00     0.124 S 
ATOM     80  O   UNL A   1      46.976  28.394  21.662  1.00  0.00    -0.237 OA
ATOM     81  O   UNL A   1      49.434  28.620  21.855  1.00  0.00    -0.237 OA
ATOM     82  O   UNL A   1      48.439  26.459  21.207  1.00  0.00    -0.744 OA
ENDBRANCH  75  79
ENDBRANCH  48  72
BRANCH  60  83
ATOM     83  C   UNL A   1      45.200  33.159  29.144  1.00  0.00     0.023 A 
ATOM     84  C   UNL A   1      45.217  34.221  28.225  1.00  0.00     0.031 A 
ATOM     85  C   UNL A   1      45.904  33.309  30.352  1.00  0.00     0.131 A 
ATOM     86  C   UNL A   1      45.955  35.379  28.516  1.00  0.00     0.055 A 
ATOM     87  C   UNL A   1      46.601  34.478  30.653  1.00  0.00     0.041 A 
ATOM     88  F   UNL A   1      45.917  32.320  31.261  1.00  0.00    -0.206 F 
ATOM     89  C   UNL A   1      46.634  35.520  29.730  1.00  0.00     0.022 A 
BRANCH  86  90
ATOM     90  S   UNL A   1      46.048  36.694  27.269  1.00  0.00     0.124 S 
ATOM     91  O   UNL A   1      47.157  37.503  27.765  1.00  0.00    -0.237 OA
ATOM     92  O   UNL A   1      46.303  35.947  26.041  1.00  0.00    -0.237 OA
ATOM     93  O   UNL A   1      44.734  37.331  27.342  1.00  0.00    -0.744 OA
ENDBRANCH  86  90
ENDBRANCH  60  83
ENDBRANCH  34  35
ENDBRANCH  27  29
ENDBRANCH  26  27
ENDBRANCH  25  26
ENDBRANCH   1  25
TORSDOF 17
ENDMDL
