MODEL 1
REMARK VINA RESULT:     -12.7      0.000      0.000
REMARK SMILES Cc1cc(Cl)c(C)c2c1O[C@H](C(F)(F)F)C(C(=O)OCCOC(=O)c1ccc(-c3c4nc(c(-c5cc(S(=O)(=O)[O-])ccc5F)c5ccc([nH]5)c(-c5cc(S(=O)(=O)[O-])ccc5F)c5nc(c(-c6cc(S(=O)(=O)[O-])ccc6F)c6ccc3[nH]6)C=C5)C=C4)cc1)=C2
REMARK SMILES IDX 21 1 20 2 19 3 17 4 18 5 16 6 1 7 2 8 3 9 9 10 4 11 8 12
REMARK SMILES IDX 10 13 5 14 6 15 88 16 11 17 7 18 12 19 13 20 14 21 15 22
REMARK SMILES IDX 22 23 23 24 24 25 25 26 26 27 87 28 27 29 86 30 28 31 29 32
REMARK SMILES IDX 30 33 80 34 31 35 85 36 79 37 81 38 32 39 84 40 78 41 77 42
REMARK SMILES IDX 33 44 65 45 45 46 64 47 46 48 49 49 63 50 82 51 47 52 48 53
REMARK SMILES IDX 62 55 83 56 50 57 34 58 35 59 43 60 36 61 42 62 44 63 41 64
REMARK SMILES IDX 37 65 38 66 39 67 40 68 66 69 67 70 75 71 68 72 74 73 76 74
REMARK SMILES IDX 73 75 69 76 70 77 71 78 72 79 51 80 52 81 60 82 53 83 59 84
REMARK SMILES IDX 61 85 58 86 54 87 55 88 56 89 57 90
REMARK H PARENT 81 43 49 54
REMARK Flexibility Score: inf
ROOT
ATOM      1  C   UNL A   1      36.117  21.027  25.244  1.00  0.00     0.275 C 
ENDROOT
BRANCH   1   2
ATOM      2  C   UNL A   1      34.899  21.703  24.614  1.00  0.00     0.275 C 
BRANCH   2   3
ATOM      3  O   UNL A   1      34.955  23.137  24.767  1.00  0.00    -0.459 OA
BRANCH   3   4
ATOM      4  C   UNL A   1      34.102  23.661  25.679  1.00  0.00     0.338 C 
ATOM      5  O   UNL A   1      33.885  23.230  26.800  1.00  0.00    -0.246 OA
BRANCH   4   6
ATOM      6  C   UNL A   1      33.422  24.850  25.130  1.00  0.00     0.087 C 
ATOM      7  C   UNL A   1      30.180  27.921  22.616  1.00  0.00     0.048 C 
ATOM      8  C   UNL A   1      31.109  28.060  23.787  1.00  0.00    -0.007 A 
ATOM      9  C   UNL A   1      31.093  29.254  24.518  1.00  0.00     0.028 A 
ATOM     10  C   UNL A   1      31.929  27.010  24.221  1.00  0.00     0.131 A 
ATOM     11  C   UNL A   1      31.902  29.421  25.644  1.00  0.00     0.045 A 
ATOM     12  C   UNL A   1      32.736  27.160  25.363  1.00  0.00     0.022 A 
ATOM     13  O   UNL A   1      31.901  25.871  23.460  1.00  0.00    -0.475 OA
ATOM     14  Cl  UNL A   1      31.784  30.944  26.454  1.00  0.00    -0.084 Cl
ATOM     15  C   UNL A   1      32.742  28.386  26.084  1.00  0.00    -0.021 A 
ATOM     16  C   UNL A   1      33.522  26.006  25.795  1.00  0.00     0.027 C 
ATOM     17  C   UNL A   1      32.542  24.666  23.938  1.00  0.00     0.316 C 
ATOM     18  C   UNL A   1      33.630  28.564  27.294  1.00  0.00     0.047 C 
BRANCH  17  19
ATOM     19  C   UNL A   1      31.464  23.599  24.187  1.00  0.00     0.430 C 
ATOM     20  F   UNL A   1      30.355  23.837  23.444  1.00  0.00    -0.167 F 
ATOM     21  F   UNL A   1      31.895  22.361  23.837  1.00  0.00    -0.167 F 
ATOM     22  F   UNL A   1      31.080  23.543  25.481  1.00  0.00    -0.167 F 
ENDBRANCH  17  19
ENDBRANCH   4   6
ENDBRANCH   3   4
ENDBRANCH   2   3
ENDBRANCH   1   2
BRANCH   1  23
ATOM     23  O   UNL A   1      37.314  21.752  24.913  1.00  0.00    -0.458 OA
BRANCH  23  24
ATOM     24  C   UNL A   1      38.425  21.355  25.577  1.00  0.00     0.338 C 
ATOM     25  O   UNL A   1      38.965  20.264  25.522  1.00  0.00    -0.246 OA
BRANCH  24  26
ATOM     26  C   UNL A   1      38.980  22.475  26.353  1.00  0.00     0.060 A 
ATOM     27  C   UNL A   1      38.503  23.755  26.107  1.00  0.00     0.016 A 
ATOM     28  C   UNL A   1      40.100  22.293  27.159  1.00  0.00     0.016 A 
ATOM     29  C   UNL A   1      39.241  24.860  26.516  1.00  0.00     0.010 A 
ATOM     30  C   UNL A   1      40.754  23.411  27.696  1.00  0.00     0.010 A 
ATOM     31  C   UNL A   1      40.373  24.715  27.330  1.00  0.00    -0.014 A 
BRANCH  31  32
ATOM     32  C   UNL A   1      41.176  25.911  27.740  1.00  0.00     0.031 A 
ATOM     33  C   UNL A   1      40.560  26.974  28.625  1.00  0.00     0.074 A 
ATOM     34  C   UNL A   1      42.469  26.042  27.371  1.00  0.00     0.049 A 
ATOM     35  N   UNL A   1      40.991  28.182  28.889  1.00  0.00    -0.248 NA
ATOM     36  C   UNL A   1      39.288  26.641  29.286  1.00  0.00     0.031 C 
ATOM     37  C   UNL A   1      43.238  25.065  26.595  1.00  0.00     0.029 A 
ATOM     38  N   UNL A   1      43.379  27.043  27.616  1.00  0.00    -0.354 N 
ATOM     39  C   UNL A   1      40.016  28.773  29.688  1.00  0.00     0.074 A 
ATOM     40  C   UNL A   1      38.968  27.791  29.863  1.00  0.00     0.031 C 
ATOM     41  C   UNL A   1      44.510  25.475  26.497  1.00  0.00     0.029 A 
ATOM     42  C   UNL A   1      44.621  26.810  27.068  1.00  0.00     0.049 A 
ATOM     43  H   UNL A   1      43.163  27.851  28.136  1.00  0.00     0.167 HD
ATOM     44  C   UNL A   1      39.999  30.019  30.221  1.00  0.00     0.034 A 
ATOM     45  C   UNL A   1      45.710  27.597  26.963  1.00  0.00     0.034 A 
ATOM     46  C   UNL A   1      41.083  30.961  30.095  1.00  0.00     0.049 A 
ATOM     47  C   UNL A   1      45.639  29.005  27.484  1.00  0.00     0.074 A 
ATOM     48  C   UNL A   1      41.164  32.252  30.591  1.00  0.00     0.029 A 
ATOM     49  N   UNL A   1      42.286  30.711  29.449  1.00  0.00    -0.354 N 
ATOM     50  N   UNL A   1      44.652  29.599  28.112  1.00  0.00    -0.248 NA
ATOM     51  C   UNL A   1      46.810  29.858  27.249  1.00  0.00     0.031 C 
ATOM     52  C   UNL A   1      42.387  32.800  30.194  1.00  0.00     0.029 A 
ATOM     53  C   UNL A   1      43.102  31.829  29.513  1.00  0.00     0.049 A 
ATOM     54  H   UNL A   1      42.523  29.862  29.008  1.00  0.00     0.167 HD
ATOM     55  C   UNL A   1      45.089  30.896  28.356  1.00  0.00     0.074 A 
ATOM     56  C   UNL A   1      46.433  30.993  27.823  1.00  0.00     0.031 C 
ATOM     57  C   UNL A   1      44.433  31.916  28.965  1.00  0.00     0.034 A 
BRANCH  44  58
ATOM     58  C   UNL A   1      38.755  30.467  30.948  1.00  0.00     0.023 A 
ATOM     59  C   UNL A   1      37.698  31.122  30.296  1.00  0.00     0.031 A 
ATOM     60  C   UNL A   1      38.613  30.190  32.322  1.00  0.00     0.131 A 
ATOM     61  C   UNL A   1      36.559  31.505  31.023  1.00  0.00     0.055 A 
ATOM     62  C   UNL A   1      37.453  30.517  33.025  1.00  0.00     0.041 A 
ATOM     63  F   UNL A   1      39.600  29.583  33.000  1.00  0.00    -0.206 F 
ATOM     64  C   UNL A   1      36.419  31.184  32.377  1.00  0.00     0.022 A 
BRANCH  61  65
ATOM     65  S   UNL A   1      35.285  32.495  30.195  1.00  0.00     0.124 S 
ATOM     66  O   UNL A   1      34.310  32.676  31.268  1.00  0.00    -0.237 OA
ATOM     67  O   UNL A   1      36.023  33.688  29.793  1.00  0.00    -0.237 OA
ATOM     68  O   UNL A   1      34.843  31.637  29.098  1.00  0.00    -0.744 OA
ENDBRANCH  61  65
ENDBRANCH  44  58
BRANCH  45  69
ATOM     69  C   UNL A   1      46.925  27.100  26.254  1.00  0.00     0.023 A 
ATOM     70  C   UNL A   1      47.969  26.482  26.958  1.00  0.00     0.031 A 
ATOM     71  C   UNL A   1      47.057  27.233  24.859  1.00  0.00     0.131 A 
ATOM     72  C   UNL A   1      49.103  26.027  26.265  1.00  0.00     0.055 A 
ATOM     73  C   UNL A   1      48.161  26.732  24.170  1.00  0.00     0.041 A 
ATOM     74  F   UNL A   1      46.088  27.821  24.138  1.00  0.00    -0.206 F 
ATOM     75  C   UNL A   1      49.196  26.129  24.875  1.00  0.00     0.022 A 
BRANCH  72  76
ATOM     76  S   UNL A   1      50.483  25.331  27.214  1.00  0.00     0.124 S 
ATOM     77  O   UNL A   1      49.822  24.269  27.962  1.00  0.00    -0.237 OA
ATOM     78  O   UNL A   1      51.395  24.902  26.159  1.00  0.00    -0.237 OA
ATOM     79  O   UNL A   1      50.950  26.462  28.014  1.00  0.00    -0.744 OA
ENDBRANCH  72  76
ENDBRANCH  45  69
BRANCH  57  80
ATOM     80  C   UNL A   1      45.172  33.219  29.110  1.00  0.00     0.023 A 
ATOM     81  C   UNL A   1      45.040  34.245  28.161  1.00  0.00     0.031 A 
ATOM     82  C   UNL A   1      45.996  33.445  30.227  1.00  0.00     0.131 A 
ATOM     83  C   UNL A   1      45.750  35.443  28.328  1.00  0.00     0.055 A 
ATOM     84  C   UNL A   1      46.659  34.658  30.414  1.00  0.00     0.041 A 
ATOM     85  F   UNL A   1      46.153  32.495  31.162  1.00  0.00    -0.206 F 
ATOM     86  C   UNL A   1      46.545  35.662  29.457  1.00  0.00     0.022 A 
BRANCH  83  87
ATOM     87  S   UNL A   1      45.662  36.696  27.021  1.00  0.00     0.124 S 
ATOM     88  O   UNL A   1      46.436  37.791  27.600  1.00  0.00    -0.237 OA
ATOM     89  O   UNL A   1      46.275  36.013  25.886  1.00  0.00    -0.237 OA
ATOM     90  O   UNL A   1      44.230  36.953  26.888  1.00  0.00    -0.744 OA
ENDBRANCH  83  87
ENDBRANCH  57  80
ENDBRANCH  31  32
ENDBRANCH  24  26
ENDBRANCH  23  24
ENDBRANCH   1  23
TORSDOF 15
ENDMDL
MODEL 2
REMARK VINA RESULT:     -12.6      5.076      9.894
REMARK SMILES Cc1cc(Cl)c(C)c2c1O[C@H](C(F)(F)F)C(C(=O)OCCOC(=O)c1ccc(-c3c4nc(c(-c5cc(S(=O)(=O)[O-])ccc5F)c5ccc([nH]5)c(-c5cc(S(=O)(=O)[O-])ccc5F)c5nc(c(-c6cc(S(=O)(=O)[O-])ccc6F)c6ccc3[nH]6)C=C5)C=C4)cc1)=C2
REMARK SMILES IDX 21 1 20 2 19 3 17 4 18 5 16 6 1 7 2 8 3 9 9 10 4 11 8 12
REMARK SMILES IDX 10 13 5 14 6 15 88 16 11 17 7 18 12 19 13 20 14 21 15 22
REMARK SMILES IDX 22 23 23 24 24 25 25 26 26 27 87 28 27 29 86 30 28 31 29 32
REMARK SMILES IDX 30 33 80 34 31 35 85 36 79 37 81 38 32 39 84 40 78 41 77 42
REMARK SMILES IDX 33 44 65 45 45 46 64 47 46 48 49 49 63 50 82 51 47 52 48 53
REMARK SMILES IDX 62 55 83 56 50 57 34 58 35 59 43 60 36 61 42 62 44 63 41 64
REMARK SMILES IDX 37 65 38 66 39 67 40 68 66 69 67 70 75 71 68 72 74 73 76 74
REMARK SMILES IDX 73 75 69 76 70 77 71 78 72 79 51 80 52 81 60 82 53 83 59 84
REMARK SMILES IDX 61 85 58 86 54 87 55 88 56 89 57 90
REMARK H PARENT 81 43 49 54
REMARK Flexibility Score: inf
ROOT
ATOM      1  C   UNL A   1      32.664  29.706  25.227  1.00  0.00     0.275 C 
ENDROOT
BRANCH   1   2
ATOM      2  C   UNL A   1      32.005  28.389  24.821  1.00  0.00     0.275 C 
BRANCH   2   3
ATOM      3  O   UNL A   1      32.717  27.255  25.361  1.00  0.00    -0.459 OA
BRANCH   3   4
ATOM      4  C   UNL A   1      31.977  26.403  26.109  1.00  0.00     0.338 C 
ATOM      5  O   UNL A   1      31.117  26.709  26.920  1.00  0.00    -0.246 OA
BRANCH   4   6
ATOM      6  C   UNL A   1      32.362  25.005  25.836  1.00  0.00     0.087 C 
ATOM      7  C   UNL A   1      32.449  20.205  24.041  1.00  0.00     0.048 C 
ATOM      8  C   UNL A   1      33.456  21.163  24.609  1.00  0.00    -0.007 A 
ATOM      9  C   UNL A   1      34.807  20.800  24.598  1.00  0.00     0.028 A 
ATOM     10  C   UNL A   1      33.099  22.437  25.071  1.00  0.00     0.131 A 
ATOM     11  C   UNL A   1      35.792  21.671  25.070  1.00  0.00     0.045 A 
ATOM     12  C   UNL A   1      34.083  23.329  25.533  1.00  0.00     0.022 A 
ATOM     13  O   UNL A   1      31.760  22.728  25.059  1.00  0.00    -0.475 OA
ATOM     14  Cl  UNL A   1      37.422  21.097  24.998  1.00  0.00    -0.084 Cl
ATOM     15  C   UNL A   1      35.452  22.945  25.552  1.00  0.00    -0.021 A 
ATOM     16  C   UNL A   1      33.650  24.663  25.946  1.00  0.00     0.027 C 
ATOM     17  C   UNL A   1      31.312  24.080  25.313  1.00  0.00     0.316 C 
ATOM     18  C   UNL A   1      36.510  23.887  26.076  1.00  0.00     0.047 C 
BRANCH  17  19
ATOM     19  C   UNL A   1      30.654  24.630  24.037  1.00  0.00     0.430 C 
ATOM     20  F   UNL A   1      31.547  25.314  23.279  1.00  0.00    -0.167 F 
ATOM     21  F   UNL A   1      30.177  23.633  23.251  1.00  0.00    -0.167 F 
ATOM     22  F   UNL A   1      29.626  25.464  24.304  1.00  0.00    -0.167 F 
ENDBRANCH  17  19
ENDBRANCH   4   6
ENDBRANCH   3   4
ENDBRANCH   2   3
ENDBRANCH   1   2
BRANCH   1  23
ATOM     23  O   UNL A   1      32.441  29.963  26.625  1.00  0.00    -0.458 OA
BRANCH  23  24
ATOM     24  C   UNL A   1      32.997  31.106  27.091  1.00  0.00     0.338 C 
ATOM     25  O   UNL A   1      32.443  32.179  27.257  1.00  0.00    -0.246 OA
BRANCH  24  26
ATOM     26  C   UNL A   1      34.399  30.871  27.469  1.00  0.00     0.060 A 
ATOM     27  C   UNL A   1      34.807  29.571  27.736  1.00  0.00     0.016 A 
ATOM     28  C   UNL A   1      35.243  31.939  27.762  1.00  0.00     0.016 A 
ATOM     29  C   UNL A   1      35.976  29.345  28.452  1.00  0.00     0.010 A 
ATOM     30  C   UNL A   1      36.492  31.690  28.349  1.00  0.00     0.010 A 
ATOM     31  C   UNL A   1      36.852  30.395  28.762  1.00  0.00    -0.014 A 
BRANCH  31  32
ATOM     32  C   UNL A   1      38.095  30.143  29.559  1.00  0.00     0.031 A 
ATOM     33  C   UNL A   1      39.209  29.295  28.983  1.00  0.00     0.074 A 
ATOM     34  C   UNL A   1      38.265  30.699  30.778  1.00  0.00     0.049 A 
ATOM     35  N   UNL A   1      40.240  28.762  29.589  1.00  0.00    -0.248 NA
ATOM     36  C   UNL A   1      39.147  28.996  27.543  1.00  0.00     0.031 C 
ATOM     37  C   UNL A   1      37.328  31.611  31.439  1.00  0.00     0.029 A 
ATOM     38  N   UNL A   1      39.300  30.597  31.678  1.00  0.00    -0.354 N 
ATOM     39  C   UNL A   1      40.910  28.015  28.623  1.00  0.00     0.074 A 
ATOM     40  C   UNL A   1      40.165  28.159  27.391  1.00  0.00     0.031 C 
ATOM     41  C   UNL A   1      37.861  32.043  32.590  1.00  0.00     0.029 A 
ATOM     42  C   UNL A   1      39.107  31.328  32.830  1.00  0.00     0.049 A 
ATOM     43  H   UNL A   1      40.104  30.053  31.515  1.00  0.00     0.167 HD
ATOM     44  C   UNL A   1      42.038  27.276  28.757  1.00  0.00     0.034 A 
ATOM     45  C   UNL A   1      39.803  31.372  33.984  1.00  0.00     0.034 A 
ATOM     46  C   UNL A   1      42.807  27.197  29.974  1.00  0.00     0.049 A 
ATOM     47  C   UNL A   1      41.001  30.479  34.141  1.00  0.00     0.074 A 
ATOM     48  C   UNL A   1      43.962  26.471  30.217  1.00  0.00     0.029 A 
ATOM     49  N   UNL A   1      42.519  27.884  31.145  1.00  0.00    -0.354 N 
ATOM     50  N   UNL A   1      41.540  29.665  33.264  1.00  0.00    -0.248 NA
ATOM     51  C   UNL A   1      41.661  30.481  35.452  1.00  0.00     0.031 C 
ATOM     52  C   UNL A   1      44.335  26.673  31.549  1.00  0.00     0.029 A 
ATOM     53  C   UNL A   1      43.458  27.581  32.118  1.00  0.00     0.049 A 
ATOM     54  H   UNL A   1      41.757  28.497  31.266  1.00  0.00     0.167 HD
ATOM     55  C   UNL A   1      42.610  29.064  33.917  1.00  0.00     0.074 A 
ATOM     56  C   UNL A   1      42.651  29.620  35.254  1.00  0.00     0.031 C 
ATOM     57  C   UNL A   1      43.478  28.132  33.451  1.00  0.00     0.034 A 
BRANCH  44  58
ATOM     58  C   UNL A   1      42.492  26.447  27.580  1.00  0.00     0.023 A 
ATOM     59  C   UNL A   1      42.105  25.107  27.410  1.00  0.00     0.031 A 
ATOM     60  C   UNL A   1      43.298  27.033  26.585  1.00  0.00     0.131 A 
ATOM     61  C   UNL A   1      42.549  24.389  26.288  1.00  0.00     0.055 A 
ATOM     62  C   UNL A   1      43.684  26.333  25.442  1.00  0.00     0.041 A 
ATOM     63  F   UNL A   1      43.713  28.304  26.705  1.00  0.00    -0.206 F 
ATOM     64  C   UNL A   1      43.314  25.001  25.290  1.00  0.00     0.022 A 
BRANCH  61  65
ATOM     65  S   UNL A   1      42.175  22.618  26.179  1.00  0.00     0.124 S 
ATOM     66  O   UNL A   1      42.810  22.261  24.913  1.00  0.00    -0.237 OA
ATOM     67  O   UNL A   1      42.803  22.087  27.383  1.00  0.00    -0.237 OA
ATOM     68  O   UNL A   1      40.714  22.577  26.169  1.00  0.00    -0.744 OA
ENDBRANCH  61  65
ENDBRANCH  44  58
BRANCH  45  69
ATOM     69  C   UNL A   1      39.326  32.225  35.110  1.00  0.00     0.023 A 
ATOM     70  C   UNL A   1      38.650  31.665  36.204  1.00  0.00     0.031 A 
ATOM     71  C   UNL A   1      39.547  33.616  35.112  1.00  0.00     0.131 A 
ATOM     72  C   UNL A   1      38.209  32.494  37.250  1.00  0.00     0.055 A 
ATOM     73  C   UNL A   1      39.154  34.426  36.177  1.00  0.00     0.041 A 
ATOM     74  F   UNL A   1      40.186  34.203  34.087  1.00  0.00    -0.206 F 
ATOM     75  C   UNL A   1      38.476  33.865  37.253  1.00  0.00     0.022 A 
BRANCH  72  76
ATOM     76  S   UNL A   1      37.242  31.758  38.596  1.00  0.00     0.124 S 
ATOM     77  O   UNL A   1      36.044  32.589  38.589  1.00  0.00    -0.237 OA
ATOM     78  O   UNL A   1      37.074  30.384  38.135  1.00  0.00    -0.237 OA
ATOM     79  O   UNL A   1      38.108  31.917  39.763  1.00  0.00    -0.744 OA
ENDBRANCH  72  76
ENDBRANCH  45  69
BRANCH  57  80
ATOM     80  C   UNL A   1      44.564  27.675  34.386  1.00  0.00     0.023 A 
ATOM     81  C   UNL A   1      44.408  26.532  35.187  1.00  0.00     0.031 A 
ATOM     82  C   UNL A   1      45.781  28.377  34.456  1.00  0.00     0.131 A 
ATOM     83  C   UNL A   1      45.440  26.141  36.052  1.00  0.00     0.055 A 
ATOM     84  C   UNL A   1      46.824  27.954  35.280  1.00  0.00     0.041 A 
ATOM     85  F   UNL A   1      45.978  29.475  33.710  1.00  0.00    -0.206 F 
ATOM     86  C   UNL A   1      46.654  26.835  36.090  1.00  0.00     0.022 A 
BRANCH  83  87
ATOM     87  S   UNL A   1      45.159  24.739  37.166  1.00  0.00     0.124 S 
ATOM     88  O   UNL A   1      46.490  24.528  37.728  1.00  0.00    -0.237 OA
ATOM     89  O   UNL A   1      44.155  25.265  38.087  1.00  0.00    -0.237 OA
ATOM     90  O   UNL A   1      44.687  23.682  36.276  1.00  0.00    -0.744 OA
ENDBRANCH  83  87
ENDBRANCH  57  80
ENDBRANCH  31  32
ENDBRANCH  24  26
ENDBRANCH  23  24
ENDBRANCH   1  23
TORSDOF 15
ENDMDL
MODEL 3
REMARK VINA RESULT:     -12.6      1.366      1.723
REMARK SMILES Cc1cc(Cl)c(C)c2c1O[C@H](C(F)(F)F)C(C(=O)OCCOC(=O)c1ccc(-c3c4nc(c(-c5cc(S(=O)(=O)[O-])ccc5F)c5ccc([nH]5)c(-c5cc(S(=O)(=O)[O-])ccc5F)c5nc(c(-c6cc(S(=O)(=O)[O-])ccc6F)c6ccc3[nH]6)C=C5)C=C4)cc1)=C2
REMARK SMILES IDX 21 1 20 2 19 3 17 4 18 5 16 6 1 7 2 8 3 9 9 10 4 11 8 12
REMARK SMILES IDX 10 13 5 14 6 15 88 16 11 17 7 18 12 19 13 20 14 21 15 22
REMARK SMILES IDX 22 23 23 24 24 25 25 26 26 27 87 28 27 29 86 30 28 31 29 32
REMARK SMILES IDX 30 33 80 34 31 35 85 36 79 37 81 38 32 39 84 40 78 41 77 42
REMARK SMILES IDX 33 44 65 45 45 46 64 47 46 48 49 49 63 50 82 51 47 52 48 53
REMARK SMILES IDX 62 55 83 56 50 57 34 58 35 59 43 60 36 61 42 62 44 63 41 64
REMARK SMILES IDX 37 65 38 66 39 67 40 68 66 69 67 70 75 71 68 72 74 73 76 74
REMARK SMILES IDX 73 75 69 76 70 77 71 78 72 79 51 80 52 81 60 82 53 83 59 84
REMARK SMILES IDX 61 85 58 86 54 87 55 88 56 89 57 90
REMARK H PARENT 81 43 49 54
REMARK Flexibility Score: inf
ROOT
ATOM      1  C   UNL A   1      36.212  21.072  25.153  1.00  0.00     0.275 C 
ENDROOT
BRANCH   1   2
ATOM      2  C   UNL A   1      35.025  21.773  24.494  1.00  0.00     0.275 C 
BRANCH   2   3
ATOM      3  O   UNL A   1      35.080  23.202  24.694  1.00  0.00    -0.459 OA
BRANCH   3   4
ATOM      4  C   UNL A   1      34.227  23.694  25.624  1.00  0.00     0.338 C 
ATOM      5  O   UNL A   1      34.039  23.247  26.745  1.00  0.00    -0.246 OA
BRANCH   4   6
ATOM      6  C   UNL A   1      33.507  24.869  25.097  1.00  0.00     0.087 C 
ATOM      7  C   UNL A   1      30.120  27.875  22.698  1.00  0.00     0.048 C 
ATOM      8  C   UNL A   1      31.092  28.036  23.831  1.00  0.00    -0.007 A 
ATOM      9  C   UNL A   1      31.087  29.233  24.556  1.00  0.00     0.028 A 
ATOM     10  C   UNL A   1      31.945  27.001  24.237  1.00  0.00     0.131 A 
ATOM     11  C   UNL A   1      31.937  29.420  25.648  1.00  0.00     0.045 A 
ATOM     12  C   UNL A   1      32.794  27.170  25.346  1.00  0.00     0.022 A 
ATOM     13  O   UNL A   1      31.905  25.858  23.483  1.00  0.00    -0.475 OA
ATOM     14  Cl  UNL A   1      31.826  30.945  26.455  1.00  0.00    -0.084 Cl
ATOM     15  C   UNL A   1      32.810  28.400  26.060  1.00  0.00    -0.021 A 
ATOM     16  C   UNL A   1      33.615  26.031  25.752  1.00  0.00     0.027 C 
ATOM     17  C   UNL A   1      32.584  24.665  23.942  1.00  0.00     0.316 C 
ATOM     18  C   UNL A   1      33.742  28.599  27.232  1.00  0.00     0.047 C 
BRANCH  17  19
ATOM     19  C   UNL A   1      31.533  23.583  24.238  1.00  0.00     0.430 C 
ATOM     20  F   UNL A   1      31.148  23.613  25.538  1.00  0.00    -0.167 F 
ATOM     21  F   UNL A   1      30.407  23.764  23.505  1.00  0.00    -0.167 F 
ATOM     22  F   UNL A   1      31.988  22.337  23.981  1.00  0.00    -0.167 F 
ENDBRANCH  17  19
ENDBRANCH   4   6
ENDBRANCH   3   4
ENDBRANCH   2   3
ENDBRANCH   1   2
BRANCH   1  23
ATOM     23  O   UNL A   1      37.428  21.787  24.875  1.00  0.00    -0.458 OA
BRANCH  23  24
ATOM     24  C   UNL A   1      38.501  21.394  25.601  1.00  0.00     0.338 C 
ATOM     25  O   UNL A   1      39.028  20.295  25.600  1.00  0.00    -0.246 OA
BRANCH  24  26
ATOM     26  C   UNL A   1      39.034  22.527  26.374  1.00  0.00     0.060 A 
ATOM     27  C   UNL A   1      38.542  23.799  26.115  1.00  0.00     0.016 A 
ATOM     28  C   UNL A   1      40.150  22.366  27.191  1.00  0.00     0.016 A 
ATOM     29  C   UNL A   1      39.262  24.916  26.522  1.00  0.00     0.010 A 
ATOM     30  C   UNL A   1      40.784  23.497  27.725  1.00  0.00     0.010 A 
ATOM     31  C   UNL A   1      40.388  24.793  27.347  1.00  0.00    -0.014 A 
BRANCH  31  32
ATOM     32  C   UNL A   1      41.172  26.003  27.756  1.00  0.00     0.031 A 
ATOM     33  C   UNL A   1      40.543  27.049  28.651  1.00  0.00     0.074 A 
ATOM     34  C   UNL A   1      42.458  26.160  27.375  1.00  0.00     0.049 A 
ATOM     35  N   UNL A   1      40.952  28.264  28.917  1.00  0.00    -0.248 NA
ATOM     36  C   UNL A   1      39.284  26.688  29.322  1.00  0.00     0.031 C 
ATOM     37  C   UNL A   1      43.238  25.203  26.587  1.00  0.00     0.029 A 
ATOM     38  N   UNL A   1      43.350  27.178  27.616  1.00  0.00    -0.354 N 
ATOM     39  C   UNL A   1      39.973  28.831  29.728  1.00  0.00     0.074 A 
ATOM     40  C   UNL A   1      38.946  27.828  29.908  1.00  0.00     0.031 C 
ATOM     41  C   UNL A   1      44.501  25.638  26.480  1.00  0.00     0.029 A 
ATOM     42  C   UNL A   1      44.591  26.973  27.055  1.00  0.00     0.049 A 
ATOM     43  H   UNL A   1      43.123  27.980  28.142  1.00  0.00     0.167 HD
ATOM     44  C   UNL A   1      39.937  30.074  30.267  1.00  0.00     0.034 A 
ATOM     45  C   UNL A   1      45.664  27.781  26.944  1.00  0.00     0.034 A 
ATOM     46  C   UNL A   1      41.001  31.038  30.135  1.00  0.00     0.049 A 
ATOM     47  C   UNL A   1      45.569  29.185  27.473  1.00  0.00     0.074 A 
ATOM     48  C   UNL A   1      41.061  32.328  30.637  1.00  0.00     0.029 A 
ATOM     49  N   UNL A   1      42.203  30.815  29.477  1.00  0.00    -0.354 N 
ATOM     50  N   UNL A   1      44.577  29.757  28.113  1.00  0.00    -0.248 NA
ATOM     51  C   UNL A   1      46.721  30.063  27.231  1.00  0.00     0.031 C 
ATOM     52  C   UNL A   1      42.269  32.902  30.232  1.00  0.00     0.029 A 
ATOM     53  C   UNL A   1      42.996  31.949  29.539  1.00  0.00     0.049 A 
ATOM     54  H   UNL A   1      42.452  29.974  29.030  1.00  0.00     0.167 HD
ATOM     55  C   UNL A   1      44.990  31.061  28.360  1.00  0.00     0.074 A 
ATOM     56  C   UNL A   1      46.327  31.187  27.814  1.00  0.00     0.031 C 
ATOM     57  C   UNL A   1      44.321  32.065  28.979  1.00  0.00     0.034 A 
BRANCH  44  58
ATOM     58  C   UNL A   1      38.691  30.494  31.008  1.00  0.00     0.023 A 
ATOM     59  C   UNL A   1      37.635  31.172  30.378  1.00  0.00     0.031 A 
ATOM     60  C   UNL A   1      38.547  30.166  32.370  1.00  0.00     0.131 A 
ATOM     61  C   UNL A   1      36.494  31.527  31.117  1.00  0.00     0.055 A 
ATOM     62  C   UNL A   1      37.386  30.467  33.083  1.00  0.00     0.041 A 
ATOM     63  F   UNL A   1      39.533  29.535  33.027  1.00  0.00    -0.206 F 
ATOM     64  C   UNL A   1      36.352  31.156  32.458  1.00  0.00     0.022 A 
BRANCH  61  65
ATOM     65  S   UNL A   1      35.221  32.547  30.324  1.00  0.00     0.124 S 
ATOM     66  O   UNL A   1      35.980  33.744  29.973  1.00  0.00    -0.237 OA
ATOM     67  O   UNL A   1      34.794  31.709  29.209  1.00  0.00    -0.237 OA
ATOM     68  O   UNL A   1      34.226  32.734  31.379  1.00  0.00    -0.744 OA
ENDBRANCH  61  65
ENDBRANCH  44  58
BRANCH  45  69
ATOM     69  C   UNL A   1      46.881  27.312  26.222  1.00  0.00     0.023 A 
ATOM     70  C   UNL A   1      47.108  27.664  24.883  1.00  0.00     0.031 A 
ATOM     71  C   UNL A   1      47.841  26.507  26.864  1.00  0.00     0.131 A 
ATOM     72  C   UNL A   1      48.262  27.204  24.227  1.00  0.00     0.055 A 
ATOM     73  C   UNL A   1      49.011  26.098  26.224  1.00  0.00     0.041 A 
ATOM     74  F   UNL A   1      47.671  26.137  28.145  1.00  0.00    -0.206 F 
ATOM     75  C   UNL A   1      49.223  26.442  24.895  1.00  0.00     0.022 A 
BRANCH  72  76
ATOM     76  S   UNL A   1      48.472  27.585  22.466  1.00  0.00     0.124 S 
ATOM     77  O   UNL A   1      47.259  28.340  22.179  1.00  0.00    -0.237 OA
ATOM     78  O   UNL A   1      49.718  28.345  22.465  1.00  0.00    -0.237 OA
ATOM     79  O   UNL A   1      48.551  26.266  21.841  1.00  0.00    -0.744 OA
ENDBRANCH  72  76
ENDBRANCH  45  69
BRANCH  57  80
ATOM     80  C   UNL A   1      45.035  33.381  29.124  1.00  0.00     0.023 A 
ATOM     81  C   UNL A   1      44.828  34.431  28.213  1.00  0.00     0.031 A 
ATOM     82  C   UNL A   1      45.912  33.597  30.202  1.00  0.00     0.131 A 
ATOM     83  C   UNL A   1      45.517  35.641  28.378  1.00  0.00     0.055 A 
ATOM     84  C   UNL A   1      46.555  34.820  30.390  1.00  0.00     0.041 A 
ATOM     85  F   UNL A   1      46.141  32.625  31.099  1.00  0.00    -0.206 F 
ATOM     86  C   UNL A   1      46.365  35.847  29.470  1.00  0.00     0.022 A 
BRANCH  83  87
ATOM     87  S   UNL A   1      45.330  36.928  27.115  1.00  0.00     0.124 S 
ATOM     88  O   UNL A   1      43.967  36.694  26.646  1.00  0.00    -0.237 OA
ATOM     89  O   UNL A   1      45.539  38.154  27.881  1.00  0.00    -0.237 OA
ATOM     90  O   UNL A   1      46.380  36.616  26.149  1.00  0.00    -0.744 OA
ENDBRANCH  83  87
ENDBRANCH  57  80
ENDBRANCH  31  32
ENDBRANCH  24  26
ENDBRANCH  23  24
ENDBRANCH   1  23
TORSDOF 15
ENDMDL
