MODEL 1
REMARK VINA RESULT:     -10.5      0.000      0.000
REMARK SMILES CC[NH2+][C@]1(C(=O)OCCOC(=O)c2ccc(-c3c4nc(c(-c5cc(S(=O)(=O)[O-])ccc5F)c5ccc([nH]5)c(-c5cc(S(=O)(=O)[O-])ccc5F)c5nc(c(-c6cc(S(=O)(=O)[O-])ccc6F)c6ccc3[nH]6)C=C5)C=C4)cc2)CC[C@@H]([N@@H+](C)CC(C)(C)C)C1
REMARK SMILES IDX 8 1 7 2 5 3 6 4 4 5 76 6 86 7 77 8 78 9 3 10 2 13 1 14 79 15
REMARK SMILES IDX 80 16 81 18 82 19 83 20 84 21 85 22 9 23 10 24 11 25 12 26
REMARK SMILES IDX 13 27 14 28 75 29 15 30 74 31 16 32 17 33 18 34 68 35 19 36
REMARK SMILES IDX 73 37 67 38 69 39 20 40 72 41 66 42 65 43 21 45 53 46 33 47
REMARK SMILES IDX 52 48 34 49 37 50 51 51 70 52 35 53 36 54 50 56 71 57 38 58
REMARK SMILES IDX 22 59 23 60 31 61 24 62 30 63 32 64 29 65 25 66 26 67 27 68
REMARK SMILES IDX 28 69 54 70 55 71 63 72 56 73 62 74 64 75 61 76 57 77 58 78
REMARK SMILES IDX 59 79 60 80 39 81 40 82 48 83 41 84 47 85 49 86 46 87 42 88
REMARK SMILES IDX 43 89 44 90 45 91
REMARK H PARENT 3 11 3 12 79 17 69 44 37 55
REMARK Flexibility Score: inf
ROOT
ATOM      1  C   UNL A   1      35.397  21.800  26.600  1.00  0.00     0.274 C 
ENDROOT
BRANCH   1   2
ATOM      2  O   UNL A   1      34.573  22.940  26.285  1.00  0.00    -0.457 OA
BRANCH   2   3
ATOM      3  C   UNL A   1      33.255  22.789  26.608  1.00  0.00     0.368 C 
ATOM      4  O   UNL A   1      32.866  22.610  27.762  1.00  0.00    -0.245 OA
BRANCH   3   5
ATOM      5  C   UNL A   1      32.311  22.728  25.382  1.00  0.00     0.200 C 
ATOM      6  C   UNL A   1      31.131  23.658  25.713  1.00  0.00     0.087 C 
ATOM      7  C   UNL A   1      32.988  23.394  24.157  1.00  0.00     0.146 C 
ATOM      8  C   UNL A   1      30.729  24.320  24.406  1.00  0.00     0.072 C 
ATOM      9  C   UNL A   1      31.993  24.394  23.554  1.00  0.00     0.191 C 
BRANCH   5  10
ATOM     10  N   UNL A   1      31.714  21.393  25.109  1.00  0.00    -0.332 N 
ATOM     11  H   UNL A   1      31.474  20.970  26.005  1.00  0.00     0.347 HD
ATOM     12  H   UNL A   1      30.914  21.572  24.501  1.00  0.00     0.347 HD
BRANCH  10  13
ATOM     13  C   UNL A   1      32.554  20.449  24.381  1.00  0.00     0.257 C 
ATOM     14  C   UNL A   1      32.821  19.226  25.250  1.00  0.00     0.071 C 
ENDBRANCH  10  13
ENDBRANCH   5  10
BRANCH   9  15
ATOM     15  N   UNL A   1      32.489  25.734  23.277  1.00  0.00    -0.334 N 
ATOM     16  C   UNL A   1      33.274  25.872  22.066  1.00  0.00     0.332 C 
ATOM     17  H   UNL A   1      32.912  25.661  24.201  1.00  0.00     0.348 HD
BRANCH  15  18
ATOM     18  C   UNL A   1      32.071  26.957  23.948  1.00  0.00     0.268 C 
BRANCH  18  19
ATOM     19  C   UNL A   1      32.702  27.416  25.307  1.00  0.00     0.011 C 
ATOM     20  C   UNL A   1      33.863  26.516  25.742  1.00  0.00     0.017 C 
ATOM     21  C   UNL A   1      33.286  28.833  25.097  1.00  0.00     0.017 C 
ATOM     22  C   UNL A   1      31.686  27.486  26.456  1.00  0.00     0.017 C 
ENDBRANCH  18  19
ENDBRANCH  15  18
ENDBRANCH   9  15
ENDBRANCH   3   5
ENDBRANCH   2   3
ENDBRANCH   1   2
BRANCH   1  23
ATOM     23  C   UNL A   1      36.126  21.285  25.362  1.00  0.00     0.275 C 
BRANCH  23  24
ATOM     24  O   UNL A   1      37.310  22.068  25.135  1.00  0.00    -0.458 OA
BRANCH  24  25
ATOM     25  C   UNL A   1      38.444  21.594  25.702  1.00  0.00     0.338 C 
ATOM     26  O   UNL A   1      38.829  20.437  25.688  1.00  0.00    -0.246 OA
BRANCH  25  27
ATOM     27  C   UNL A   1      39.211  22.698  26.338  1.00  0.00     0.060 A 
ATOM     28  C   UNL A   1      40.235  22.459  27.260  1.00  0.00     0.016 A 
ATOM     29  C   UNL A   1      38.834  24.014  26.059  1.00  0.00     0.016 A 
ATOM     30  C   UNL A   1      40.848  23.520  27.928  1.00  0.00     0.010 A 
ATOM     31  C   UNL A   1      39.517  25.078  26.656  1.00  0.00     0.010 A 
ATOM     32  C   UNL A   1      40.535  24.845  27.596  1.00  0.00    -0.014 A 
BRANCH  32  33
ATOM     33  C   UNL A   1      41.303  25.998  28.148  1.00  0.00     0.031 A 
ATOM     34  C   UNL A   1      40.602  27.080  28.924  1.00  0.00     0.074 A 
ATOM     35  C   UNL A   1      42.616  26.123  27.868  1.00  0.00     0.049 A 
ATOM     36  N   UNL A   1      41.008  28.291  29.208  1.00  0.00    -0.248 NA
ATOM     37  C   UNL A   1      39.259  26.761  29.430  1.00  0.00     0.031 C 
ATOM     38  C   UNL A   1      43.434  25.132  27.162  1.00  0.00     0.029 A 
ATOM     39  N   UNL A   1      43.491  27.155  28.113  1.00  0.00    -0.354 N 
ATOM     40  C   UNL A   1      39.955  28.899  29.884  1.00  0.00     0.074 A 
ATOM     41  C   UNL A   1      38.891  27.918  29.963  1.00  0.00     0.031 C 
ATOM     42  C   UNL A   1      44.683  25.600  27.034  1.00  0.00     0.029 A 
ATOM     43  C   UNL A   1      44.731  26.963  27.548  1.00  0.00     0.049 A 
ATOM     44  H   UNL A   1      43.253  27.952  28.639  1.00  0.00     0.167 HD
ATOM     45  C   UNL A   1      39.886  30.159  30.382  1.00  0.00     0.034 A 
ATOM     46  C   UNL A   1      45.769  27.807  27.382  1.00  0.00     0.034 A 
ATOM     47  C   UNL A   1      40.971  31.112  30.316  1.00  0.00     0.049 A 
ATOM     48  C   UNL A   1      45.639  29.226  27.858  1.00  0.00     0.074 A 
ATOM     49  C   UNL A   1      41.024  32.397  30.831  1.00  0.00     0.029 A 
ATOM     50  N   UNL A   1      42.192  30.888  29.693  1.00  0.00    -0.354 N 
ATOM     51  N   UNL A   1      44.622  29.806  28.450  1.00  0.00    -0.248 NA
ATOM     52  C   UNL A   1      46.789  30.108  27.623  1.00  0.00     0.031 C 
ATOM     53  C   UNL A   1      42.248  32.970  30.466  1.00  0.00     0.029 A 
ATOM     54  C   UNL A   1      42.988  32.021  29.779  1.00  0.00     0.049 A 
ATOM     55  H   UNL A   1      42.455  30.047  29.254  1.00  0.00     0.167 HD
ATOM     56  C   UNL A   1      45.014  31.122  28.667  1.00  0.00     0.074 A 
ATOM     57  C   UNL A   1      46.366  31.245  28.157  1.00  0.00     0.031 C 
ATOM     58  C   UNL A   1      44.321  32.139  29.238  1.00  0.00     0.034 A 
BRANCH  45  59
ATOM     59  C   UNL A   1      38.577  30.605  30.987  1.00  0.00     0.023 A 
ATOM     60  C   UNL A   1      37.567  31.211  30.221  1.00  0.00     0.031 A 
ATOM     61  C   UNL A   1      38.341  30.419  32.362  1.00  0.00     0.131 A 
ATOM     62  C   UNL A   1      36.392  31.660  30.845  1.00  0.00     0.055 A 
ATOM     63  C   UNL A   1      37.142  30.806  32.963  1.00  0.00     0.041 A 
ATOM     64  F   UNL A   1      39.277  29.863  33.147  1.00  0.00    -0.206 F 
ATOM     65  C   UNL A   1      36.163  31.442  32.206  1.00  0.00     0.022 A 
BRANCH  62  66
ATOM     66  S   UNL A   1      35.215  32.644  29.876  1.00  0.00     0.124 S 
ATOM     67  O   UNL A   1      34.823  31.696  28.835  1.00  0.00    -0.237 OA
ATOM     68  O   UNL A   1      34.192  32.971  30.861  1.00  0.00    -0.237 OA
ATOM     69  O   UNL A   1      36.015  33.774  29.409  1.00  0.00    -0.744 OA
ENDBRANCH  62  66
ENDBRANCH  45  59
BRANCH  46  70
ATOM     70  C   UNL A   1      46.982  27.356  26.644  1.00  0.00     0.023 A 
ATOM     71  C   UNL A   1      47.151  27.652  25.284  1.00  0.00     0.031 A 
ATOM     72  C   UNL A   1      47.983  26.607  27.290  1.00  0.00     0.131 A 
ATOM     73  C   UNL A   1      48.285  27.179  24.605  1.00  0.00     0.055 A 
ATOM     74  C   UNL A   1      49.134  26.185  26.623  1.00  0.00     0.041 A 
ATOM     75  F   UNL A   1      47.868  26.299  28.591  1.00  0.00    -0.206 F 
ATOM     76  C   UNL A   1      49.285  26.463  25.269  1.00  0.00     0.022 A 
BRANCH  73  77
ATOM     77  S   UNL A   1      48.406  27.461  22.818  1.00  0.00     0.124 S 
ATOM     78  O   UNL A   1      47.189  28.221  22.553  1.00  0.00    -0.237 OA
ATOM     79  O   UNL A   1      49.660  28.200  22.711  1.00  0.00    -0.237 OA
ATOM     80  O   UNL A   1      48.432  26.110  22.261  1.00  0.00    -0.744 OA
ENDBRANCH  73  77
ENDBRANCH  46  70
BRANCH  58  81
ATOM     81  C   UNL A   1      45.036  33.459  29.364  1.00  0.00     0.023 A 
ATOM     82  C   UNL A   1      45.056  34.386  28.308  1.00  0.00     0.031 A 
ATOM     83  C   UNL A   1      45.725  33.780  30.546  1.00  0.00     0.131 A 
ATOM     84  C   UNL A   1      45.792  35.573  28.438  1.00  0.00     0.055 A 
ATOM     85  C   UNL A   1      46.415  34.985  30.687  1.00  0.00     0.041 A 
ATOM     86  F   UNL A   1      45.741  32.925  31.581  1.00  0.00    -0.206 F 
ATOM     87  C   UNL A   1      46.460  35.884  29.627  1.00  0.00     0.022 A 
BRANCH  84  88
ATOM     88  S   UNL A   1      45.926  36.680  27.007  1.00  0.00     0.124 S 
ATOM     89  O   UNL A   1      44.635  37.361  27.031  1.00  0.00    -0.237 OA
ATOM     90  O   UNL A   1      47.085  37.499  27.350  1.00  0.00    -0.237 OA
ATOM     91  O   UNL A   1      46.125  35.767  25.883  1.00  0.00    -0.744 OA
ENDBRANCH  84  88
ENDBRANCH  58  81
ENDBRANCH  32  33
ENDBRANCH  25  27
ENDBRANCH  24  25
ENDBRANCH  23  24
ENDBRANCH   1  23
TORSDOF 19
ENDMDL
MODEL 2
REMARK VINA RESULT:     -10.2      1.877      2.196
REMARK SMILES CC[NH2+][C@]1(C(=O)OCCOC(=O)c2ccc(-c3c4nc(c(-c5cc(S(=O)(=O)[O-])ccc5F)c5ccc([nH]5)c(-c5cc(S(=O)(=O)[O-])ccc5F)c5nc(c(-c6cc(S(=O)(=O)[O-])ccc6F)c6ccc3[nH]6)C=C5)C=C4)cc2)CC[C@@H]([N@@H+](C)CC(C)(C)C)C1
REMARK SMILES IDX 8 1 7 2 5 3 6 4 4 5 76 6 86 7 77 8 78 9 3 10 2 13 1 14 79 15
REMARK SMILES IDX 80 16 81 18 82 19 83 20 84 21 85 22 9 23 10 24 11 25 12 26
REMARK SMILES IDX 13 27 14 28 75 29 15 30 74 31 16 32 17 33 18 34 68 35 19 36
REMARK SMILES IDX 73 37 67 38 69 39 20 40 72 41 66 42 65 43 21 45 53 46 33 47
REMARK SMILES IDX 52 48 34 49 37 50 51 51 70 52 35 53 36 54 50 56 71 57 38 58
REMARK SMILES IDX 22 59 23 60 31 61 24 62 30 63 32 64 29 65 25 66 26 67 27 68
REMARK SMILES IDX 28 69 54 70 55 71 63 72 56 73 62 74 64 75 61 76 57 77 58 78
REMARK SMILES IDX 59 79 60 80 39 81 40 82 48 83 41 84 47 85 49 86 46 87 42 88
REMARK SMILES IDX 43 89 44 90 45 91
REMARK H PARENT 3 11 3 12 79 17 69 44 37 55
REMARK Flexibility Score: inf
ROOT
ATOM      1  C   UNL A   1      35.021  21.355  26.296  1.00  0.00     0.274 C 
ENDROOT
BRANCH   1   2
ATOM      2  O   UNL A   1      34.536  22.712  26.321  1.00  0.00    -0.457 OA
BRANCH   2   3
ATOM      3  C   UNL A   1      33.190  22.825  26.518  1.00  0.00     0.368 C 
ATOM      4  O   UNL A   1      32.678  22.865  27.636  1.00  0.00    -0.245 OA
BRANCH   3   5
ATOM      5  C   UNL A   1      32.357  22.761  25.213  1.00  0.00     0.200 C 
ATOM      6  C   UNL A   1      31.085  23.581  25.485  1.00  0.00     0.087 C 
ATOM      7  C   UNL A   1      33.079  23.542  24.084  1.00  0.00     0.146 C 
ATOM      8  C   UNL A   1      30.741  24.282  24.181  1.00  0.00     0.072 C 
ATOM      9  C   UNL A   1      32.062  24.497  23.447  1.00  0.00     0.191 C 
BRANCH   5  10
ATOM     10  N   UNL A   1      31.893  21.403  24.824  1.00  0.00    -0.332 N 
ATOM     11  H   UNL A   1      32.047  20.782  25.619  1.00  0.00     0.347 HD
ATOM     12  H   UNL A   1      30.914  21.514  24.562  1.00  0.00     0.347 HD
BRANCH  10  13
ATOM     13  C   UNL A   1      32.543  20.807  23.662  1.00  0.00     0.257 C 
ATOM     14  C   UNL A   1      32.393  19.292  23.713  1.00  0.00     0.071 C 
ENDBRANCH  10  13
ENDBRANCH   5  10
BRANCH   9  15
ATOM     15  N   UNL A   1      32.470  25.884  23.279  1.00  0.00    -0.334 N 
ATOM     16  C   UNL A   1      33.297  26.156  22.119  1.00  0.00     0.332 C 
ATOM     17  H   UNL A   1      32.856  25.779  24.216  1.00  0.00     0.348 HD
BRANCH  15  18
ATOM     18  C   UNL A   1      31.936  27.027  24.004  1.00  0.00     0.268 C 
BRANCH  18  19
ATOM     19  C   UNL A   1      32.453  27.424  25.429  1.00  0.00     0.011 C 
ATOM     20  C   UNL A   1      33.746  26.692  25.802  1.00  0.00     0.017 C 
ATOM     21  C   UNL A   1      32.782  28.935  25.405  1.00  0.00     0.017 C 
ATOM     22  C   UNL A   1      31.421  27.180  26.539  1.00  0.00     0.017 C 
ENDBRANCH  18  19
ENDBRANCH  15  18
ENDBRANCH   9  15
ENDBRANCH   3   5
ENDBRANCH   2   3
ENDBRANCH   1   2
BRANCH   1  23
ATOM     23  C   UNL A   1      36.013  21.144  25.155  1.00  0.00     0.275 C 
BRANCH  23  24
ATOM     24  O   UNL A   1      37.082  22.099  25.257  1.00  0.00    -0.458 OA
BRANCH  24  25
ATOM     25  C   UNL A   1      38.263  21.612  25.706  1.00  0.00     0.338 C 
ATOM     26  O   UNL A   1      38.649  20.459  25.614  1.00  0.00    -0.246 OA
BRANCH  25  27
ATOM     27  C   UNL A   1      39.078  22.696  26.314  1.00  0.00     0.060 A 
ATOM     28  C   UNL A   1      40.178  22.430  27.135  1.00  0.00     0.016 A 
ATOM     29  C   UNL A   1      38.674  24.019  26.119  1.00  0.00     0.016 A 
ATOM     30  C   UNL A   1      40.844  23.470  27.788  1.00  0.00     0.010 A 
ATOM     31  C   UNL A   1      39.402  25.064  26.694  1.00  0.00     0.010 A 
ATOM     32  C   UNL A   1      40.499  24.804  27.534  1.00  0.00    -0.014 A 
BRANCH  32  33
ATOM     33  C   UNL A   1      41.308  25.940  28.061  1.00  0.00     0.031 A 
ATOM     34  C   UNL A   1      40.652  27.045  28.843  1.00  0.00     0.074 A 
ATOM     35  C   UNL A   1      42.618  26.029  27.752  1.00  0.00     0.049 A 
ATOM     36  N   UNL A   1      41.095  28.248  29.109  1.00  0.00    -0.248 NA
ATOM     37  C   UNL A   1      39.312  26.765  29.380  1.00  0.00     0.031 C 
ATOM     38  C   UNL A   1      43.395  25.012  27.037  1.00  0.00     0.029 A 
ATOM     39  N   UNL A   1      43.523  27.039  27.970  1.00  0.00    -0.354 N 
ATOM     40  C   UNL A   1      40.073  28.887  29.803  1.00  0.00     0.074 A 
ATOM     41  C   UNL A   1      38.985  27.935  29.911  1.00  0.00     0.031 C 
ATOM     42  C   UNL A   1      44.652  25.447  26.879  1.00  0.00     0.029 A 
ATOM     43  C   UNL A   1      44.746  26.811  27.381  1.00  0.00     0.049 A 
ATOM     44  H   UNL A   1      43.318  27.846  28.496  1.00  0.00     0.167 HD
ATOM     45  C   UNL A   1      40.047  30.153  30.292  1.00  0.00     0.034 A 
ATOM     46  C   UNL A   1      45.802  27.626  27.187  1.00  0.00     0.034 A 
ATOM     47  C   UNL A   1      41.154  31.077  30.196  1.00  0.00     0.049 A 
ATOM     48  C   UNL A   1      45.719  29.052  27.655  1.00  0.00     0.074 A 
ATOM     49  C   UNL A   1      41.251  32.363  30.700  1.00  0.00     0.029 A 
ATOM     50  N   UNL A   1      42.355  30.816  29.549  1.00  0.00    -0.354 N 
ATOM     51  N   UNL A   1      44.730  29.663  28.264  1.00  0.00    -0.248 NA
ATOM     52  C   UNL A   1      46.885  29.903  27.389  1.00  0.00     0.031 C 
ATOM     53  C   UNL A   1      42.481  32.901  30.304  1.00  0.00     0.029 A 
ATOM     54  C   UNL A   1      43.182  31.929  29.609  1.00  0.00     0.049 A 
ATOM     55  H   UNL A   1      42.587  29.965  29.111  1.00  0.00     0.167 HD
ATOM     56  C   UNL A   1      45.160  30.970  28.462  1.00  0.00     0.074 A 
ATOM     57  C   UNL A   1      46.504  31.054  27.924  1.00  0.00     0.031 C 
ATOM     58  C   UNL A   1      44.506  32.008  29.040  1.00  0.00     0.034 A 
BRANCH  45  59
ATOM     59  C   UNL A   1      38.763  30.636  30.921  1.00  0.00     0.023 A 
ATOM     60  C   UNL A   1      37.816  31.388  30.205  1.00  0.00     0.031 A 
ATOM     61  C   UNL A   1      38.486  30.338  32.268  1.00  0.00     0.131 A 
ATOM     62  C   UNL A   1      36.665  31.864  30.854  1.00  0.00     0.055 A 
ATOM     63  C   UNL A   1      37.308  30.756  32.889  1.00  0.00     0.041 A 
ATOM     64  F   UNL A   1      39.363  29.640  33.007  1.00  0.00    -0.206 F 
ATOM     65  C   UNL A   1      36.393  31.534  32.185  1.00  0.00     0.022 A 
BRANCH  62  66
ATOM     66  S   UNL A   1      35.584  33.022  29.971  1.00  0.00     0.124 S 
ATOM     67  O   UNL A   1      35.165  33.916  31.048  1.00  0.00    -0.237 OA
ATOM     68  O   UNL A   1      36.483  33.596  28.977  1.00  0.00    -0.237 OA
ATOM     69  O   UNL A   1      34.527  32.166  29.437  1.00  0.00    -0.744 OA
ENDBRANCH  62  66
ENDBRANCH  45  59
BRANCH  46  70
ATOM     70  C   UNL A   1      46.987  27.139  26.427  1.00  0.00     0.023 A 
ATOM     71  C   UNL A   1      48.039  26.479  27.077  1.00  0.00     0.031 A 
ATOM     72  C   UNL A   1      47.088  27.344  25.039  1.00  0.00     0.131 A 
ATOM     73  C   UNL A   1      49.162  26.066  26.341  1.00  0.00     0.055 A 
ATOM     74  C   UNL A   1      48.182  26.887  24.303  1.00  0.00     0.041 A 
ATOM     75  F   UNL A   1      46.107  27.972  24.371  1.00  0.00    -0.206 F 
ATOM     76  C   UNL A   1      49.232  26.251  24.958  1.00  0.00     0.022 A 
BRANCH  73  77
ATOM     77  S   UNL A   1      50.563  25.339  27.233  1.00  0.00     0.124 S 
ATOM     78  O   UNL A   1      49.901  24.339  28.063  1.00  0.00    -0.237 OA
ATOM     79  O   UNL A   1      51.383  24.825  26.140  1.00  0.00    -0.237 OA
ATOM     80  O   UNL A   1      51.132  26.474  27.955  1.00  0.00    -0.744 OA
ENDBRANCH  73  77
ENDBRANCH  46  70
BRANCH  58  81
ATOM     81  C   UNL A   1      45.257  33.310  29.140  1.00  0.00     0.023 A 
ATOM     82  C   UNL A   1      46.078  33.601  30.243  1.00  0.00     0.031 A 
ATOM     83  C   UNL A   1      45.129  34.280  28.131  1.00  0.00     0.131 A 
ATOM     84  C   UNL A   1      46.705  34.852  30.334  1.00  0.00     0.055 A 
ATOM     85  C   UNL A   1      45.794  35.504  28.203  1.00  0.00     0.041 A 
ATOM     86  F   UNL A   1      44.352  34.053  27.059  1.00  0.00    -0.206 F 
ATOM     87  C   UNL A   1      46.580  35.800  29.313  1.00  0.00     0.022 A 
BRANCH  84  88
ATOM     88  S   UNL A   1      47.635  35.258  31.838  1.00  0.00     0.124 S 
ATOM     89  O   UNL A   1      47.436  36.700  31.935  1.00  0.00    -0.237 OA
ATOM     90  O   UNL A   1      46.961  34.451  32.851  1.00  0.00    -0.237 OA
ATOM     91  O   UNL A   1      49.000  34.839  31.522  1.00  0.00    -0.744 OA
ENDBRANCH  84  88
ENDBRANCH  58  81
ENDBRANCH  32  33
ENDBRANCH  25  27
ENDBRANCH  24  25
ENDBRANCH  23  24
ENDBRANCH   1  23
TORSDOF 19
ENDMDL
MODEL 3
REMARK VINA RESULT:     -10.0      5.035      9.861
REMARK SMILES CC[NH2+][C@]1(C(=O)OCCOC(=O)c2ccc(-c3c4nc(c(-c5cc(S(=O)(=O)[O-])ccc5F)c5ccc([nH]5)c(-c5cc(S(=O)(=O)[O-])ccc5F)c5nc(c(-c6cc(S(=O)(=O)[O-])ccc6F)c6ccc3[nH]6)C=C5)C=C4)cc2)CC[C@@H]([N@@H+](C)CC(C)(C)C)C1
REMARK SMILES IDX 8 1 7 2 5 3 6 4 4 5 76 6 86 7 77 8 78 9 3 10 2 13 1 14 79 15
REMARK SMILES IDX 80 16 81 18 82 19 83 20 84 21 85 22 9 23 10 24 11 25 12 26
REMARK SMILES IDX 13 27 14 28 75 29 15 30 74 31 16 32 17 33 18 34 68 35 19 36
REMARK SMILES IDX 73 37 67 38 69 39 20 40 72 41 66 42 65 43 21 45 53 46 33 47
REMARK SMILES IDX 52 48 34 49 37 50 51 51 70 52 35 53 36 54 50 56 71 57 38 58
REMARK SMILES IDX 22 59 23 60 31 61 24 62 30 63 32 64 29 65 25 66 26 67 27 68
REMARK SMILES IDX 28 69 54 70 55 71 63 72 56 73 62 74 64 75 61 76 57 77 58 78
REMARK SMILES IDX 59 79 60 80 39 81 40 82 48 83 41 84 47 85 49 86 46 87 42 88
REMARK SMILES IDX 43 89 44 90 45 91
REMARK H PARENT 3 11 3 12 79 17 69 44 37 55
REMARK Flexibility Score: inf
ROOT
ATOM      1  C   UNL A   1      33.325  28.766  24.826  1.00  0.00     0.274 C 
ENDROOT
BRANCH   1   2
ATOM      2  O   UNL A   1      32.676  27.949  23.831  1.00  0.00    -0.457 OA
BRANCH   2   3
ATOM      3  C   UNL A   1      32.912  26.611  23.961  1.00  0.00     0.368 C 
ATOM      4  O   UNL A   1      33.937  26.069  23.549  1.00  0.00    -0.245 OA
BRANCH   3   5
ATOM      5  C   UNL A   1      31.719  25.817  24.549  1.00  0.00     0.200 C 
ATOM      6  C   UNL A   1      31.308  24.808  23.463  1.00  0.00     0.087 C 
ATOM      7  C   UNL A   1      32.199  24.932  25.728  1.00  0.00     0.146 C 
ATOM      8  C   UNL A   1      30.879  23.545  24.192  1.00  0.00     0.072 C 
ATOM      9  C   UNL A   1      31.675  23.510  25.495  1.00  0.00     0.191 C 
BRANCH   5  10
ATOM     10  N   UNL A   1      30.503  26.623  24.838  1.00  0.00    -0.332 N 
ATOM     11  H   UNL A   1      30.079  26.252  25.689  1.00  0.00     0.347 HD
ATOM     12  H   UNL A   1      30.827  27.587  24.916  1.00  0.00     0.347 HD
BRANCH  10  13
ATOM     13  C   UNL A   1      29.478  26.639  23.800  1.00  0.00     0.257 C 
ATOM     14  C   UNL A   1      29.354  28.044  23.225  1.00  0.00     0.071 C 
ENDBRANCH  10  13
ENDBRANCH   5  10
BRANCH   9  15
ATOM     15  N   UNL A   1      32.634  22.422  25.617  1.00  0.00    -0.334 N 
ATOM     16  C   UNL A   1      32.177  21.129  25.146  1.00  0.00     0.332 C 
ATOM     17  H   UNL A   1      32.644  22.675  26.604  1.00  0.00     0.348 HD
BRANCH  15  18
ATOM     18  C   UNL A   1      34.050  22.561  25.925  1.00  0.00     0.268 C 
BRANCH  18  19
ATOM     19  C   UNL A   1      35.148  22.566  24.808  1.00  0.00     0.011 C 
ATOM     20  C   UNL A   1      36.235  23.615  25.066  1.00  0.00     0.017 C 
ATOM     21  C   UNL A   1      35.843  21.184  24.827  1.00  0.00     0.017 C 
ATOM     22  C   UNL A   1      34.581  22.794  23.400  1.00  0.00     0.017 C 
ENDBRANCH  18  19
ENDBRANCH  15  18
ENDBRANCH   9  15
ENDBRANCH   3   5
ENDBRANCH   2   3
ENDBRANCH   1   2
BRANCH   1  23
ATOM     23  C   UNL A   1      32.369  29.812  25.391  1.00  0.00     0.275 C 
BRANCH  23  24
ATOM     24  O   UNL A   1      32.609  29.980  26.798  1.00  0.00    -0.458 OA
BRANCH  24  25
ATOM     25  C   UNL A   1      33.160  31.161  27.163  1.00  0.00     0.338 C 
ATOM     26  O   UNL A   1      32.660  32.265  27.022  1.00  0.00    -0.246 OA
BRANCH  25  27
ATOM     27  C   UNL A   1      34.480  30.943  27.811  1.00  0.00     0.060 A 
ATOM     28  C   UNL A   1      34.851  29.706  28.348  1.00  0.00     0.016 A 
ATOM     29  C   UNL A   1      35.337  32.037  27.955  1.00  0.00     0.016 A 
ATOM     30  C   UNL A   1      36.046  29.571  29.057  1.00  0.00     0.010 A 
ATOM     31  C   UNL A   1      36.577  31.875  28.580  1.00  0.00     0.010 A 
ATOM     32  C   UNL A   1      36.950  30.640  29.136  1.00  0.00    -0.014 A 
BRANCH  32  33
ATOM     33  C   UNL A   1      38.313  30.476  29.717  1.00  0.00     0.031 A 
ATOM     34  C   UNL A   1      39.313  29.557  29.069  1.00  0.00     0.074 A 
ATOM     35  C   UNL A   1      38.620  31.077  30.885  1.00  0.00     0.049 A 
ATOM     36  N   UNL A   1      40.406  29.038  29.568  1.00  0.00    -0.248 NA
ATOM     37  C   UNL A   1      39.035  29.156  27.682  1.00  0.00     0.031 C 
ATOM     38  C   UNL A   1      37.765  32.027  31.604  1.00  0.00     0.029 A 
ATOM     39  N   UNL A   1      39.724  30.954  31.693  1.00  0.00    -0.354 N 
ATOM     40  C   UNL A   1      40.923  28.211  28.577  1.00  0.00     0.074 A 
ATOM     41  C   UNL A   1      40.018  28.298  27.448  1.00  0.00     0.031 C 
ATOM     42  C   UNL A   1      38.374  32.398  32.738  1.00  0.00     0.029 A 
ATOM     43  C   UNL A   1      39.608  31.637  32.883  1.00  0.00     0.049 A 
ATOM     44  H   UNL A   1      40.520  30.430  31.447  1.00  0.00     0.167 HD
ATOM     45  C   UNL A   1      42.043  27.446  28.614  1.00  0.00     0.034 A 
ATOM     46  C   UNL A   1      40.356  31.600  34.003  1.00  0.00     0.034 A 
ATOM     47  C   UNL A   1      42.947  27.395  29.741  1.00  0.00     0.049 A 
ATOM     48  C   UNL A   1      41.541  30.678  34.058  1.00  0.00     0.074 A 
ATOM     49  C   UNL A   1      44.135  26.693  29.864  1.00  0.00     0.029 A 
ATOM     50  N   UNL A   1      42.762  28.069  30.942  1.00  0.00    -0.354 N 
ATOM     51  N   UNL A   1      41.994  29.862  33.136  1.00  0.00    -0.248 NA
ATOM     52  C   UNL A   1      42.302  30.656  35.314  1.00  0.00     0.031 C 
ATOM     53  C   UNL A   1      44.633  26.890  31.158  1.00  0.00     0.029 A 
ATOM     54  C   UNL A   1      43.792  27.769  31.822  1.00  0.00     0.049 A 
ATOM     55  H   UNL A   1      42.009  28.671  31.140  1.00  0.00     0.167 HD
ATOM     56  C   UNL A   1      43.100  29.235  33.699  1.00  0.00     0.074 A 
ATOM     57  C   UNL A   1      43.256  29.780  35.033  1.00  0.00     0.031 C 
ATOM     58  C   UNL A   1      43.917  28.295  33.160  1.00  0.00     0.034 A 
BRANCH  45  59
ATOM     59  C   UNL A   1      42.326  26.555  27.429  1.00  0.00     0.023 A 
ATOM     60  C   UNL A   1      41.909  25.214  27.385  1.00  0.00     0.031 A 
ATOM     61  C   UNL A   1      43.030  27.062  26.322  1.00  0.00     0.131 A 
ATOM     62  C   UNL A   1      42.249  24.412  26.284  1.00  0.00     0.055 A 
ATOM     63  C   UNL A   1      43.306  26.279  25.200  1.00  0.00     0.041 A 
ATOM     64  F   UNL A   1      43.470  28.331  26.315  1.00  0.00    -0.206 F 
ATOM     65  C   UNL A   1      42.925  24.941  25.181  1.00  0.00     0.022 A 
BRANCH  62  66
ATOM     66  S   UNL A   1      41.902  22.633  26.364  1.00  0.00     0.124 S 
ATOM     67  O   UNL A   1      40.441  22.617  26.374  1.00  0.00    -0.237 OA
ATOM     68  O   UNL A   1      42.538  22.133  25.152  1.00  0.00    -0.237 OA
ATOM     69  O   UNL A   1      42.530  22.216  27.616  1.00  0.00    -0.744 OA
ENDBRANCH  62  66
ENDBRANCH  45  59
BRANCH  46  70
ATOM     70  C   UNL A   1      39.946  32.390  35.198  1.00  0.00     0.023 A 
ATOM     71  C   UNL A   1      39.094  31.842  36.167  1.00  0.00     0.031 A 
ATOM     72  C   UNL A   1      40.390  33.713  35.375  1.00  0.00     0.131 A 
ATOM     73  C   UNL A   1      38.692  32.624  37.262  1.00  0.00     0.055 A 
ATOM     74  C   UNL A   1      40.029  34.469  36.492  1.00  0.00     0.041 A 
ATOM     75  F   UNL A   1      41.207  34.283  34.475  1.00  0.00    -0.206 F 
ATOM     76  C   UNL A   1      39.167  33.926  37.439  1.00  0.00     0.022 A 
BRANCH  73  77
ATOM     77  S   UNL A   1      37.483  31.933  38.422  1.00  0.00     0.124 S 
ATOM     78  O   UNL A   1      37.276  30.596  37.876  1.00  0.00    -0.237 OA
ATOM     79  O   UNL A   1      38.204  32.004  39.689  1.00  0.00    -0.237 OA
ATOM     80  O   UNL A   1      36.343  32.839  38.306  1.00  0.00    -0.744 OA
ENDBRANCH  73  77
ENDBRANCH  46  70
BRANCH  58  81
ATOM     81  C   UNL A   1      45.066  27.828  34.015  1.00  0.00     0.023 A 
ATOM     82  C   UNL A   1      44.950  26.702  34.849  1.00  0.00     0.031 A 
ATOM     83  C   UNL A   1      46.282  28.532  34.011  1.00  0.00     0.131 A 
ATOM     84  C   UNL A   1      46.019  26.341  35.682  1.00  0.00     0.055 A 
ATOM     85  C   UNL A   1      47.359  28.139  34.806  1.00  0.00     0.041 A 
ATOM     86  F   UNL A   1      46.441  29.617  33.236  1.00  0.00    -0.206 F 
ATOM     87  C   UNL A   1      47.228  27.044  35.655  1.00  0.00     0.022 A 
BRANCH  84  88
ATOM     88  S   UNL A   1      45.789  24.979  36.858  1.00  0.00     0.124 S 
ATOM     89  O   UNL A   1      46.150  25.609  38.123  1.00  0.00    -0.237 OA
ATOM     90  O   UNL A   1      44.377  24.652  36.688  1.00  0.00    -0.237 OA
ATOM     91  O   UNL A   1      46.721  23.956  36.385  1.00  0.00    -0.744 OA
ENDBRANCH  84  88
ENDBRANCH  58  81
ENDBRANCH  32  33
ENDBRANCH  25  27
ENDBRANCH  24  25
ENDBRANCH  23  24
ENDBRANCH   1  23
TORSDOF 19
ENDMDL
