MODEL 1
REMARK VINA RESULT:     -14.3      0.000      0.000
REMARK SMILES Cc1ccc(C)c(S(=O)(=O)N[C@H](CC2=c3ccccc3=NC2)C(=O)OCCOC(=O)c2ccc(-c3c4nc(c(-c5cc(S(=O)(=O)[O-])ccc5F)c5ccc([nH]5)c(-c5cc(S(=O)(=O)[O-])ccc5F)c5nc(c(-c6cc(S(=O)(=O)[O-])ccc6F)c6ccc3[nH]6)C=C5)C=C4)cc2)c1
REMARK SMILES IDX 26 1 25 2 23 3 24 4 12 5 11 6 8 8 9 9 10 10 7 11 1 12 2 13
REMARK SMILES IDX 3 14 94 15 4 16 5 17 6 18 13 19 14 20 15 21 22 22 16 23
REMARK SMILES IDX 20 24 21 25 17 26 19 27 18 28 27 29 28 30 29 31 30 32 31 33
REMARK SMILES IDX 32 34 93 35 33 36 92 37 34 38 35 39 36 40 86 41 37 42 91 43
REMARK SMILES IDX 85 44 87 45 38 46 90 47 84 48 83 49 39 51 71 52 51 53 70 54
REMARK SMILES IDX 52 55 55 56 69 57 88 58 53 59 54 60 68 62 89 63 56 64 40 65
REMARK SMILES IDX 41 66 49 67 42 68 48 69 50 70 47 71 43 72 44 73 45 74 46 75
REMARK SMILES IDX 72 76 73 77 81 78 74 79 80 80 82 81 79 82 75 83 76 84 77 85
REMARK SMILES IDX 78 86 57 87 58 88 66 89 59 90 65 91 67 92 64 93 60 94 61 95
REMARK SMILES IDX 62 96 63 97
REMARK H PARENT 11 7 87 50 55 61
REMARK Flexibility Score: inf
ROOT
ATOM      1  C   UNL A   1      32.832  29.795  26.180  1.00  0.00     0.274 C 
ENDROOT
BRANCH   1   2
ATOM      2  O   UNL A   1      31.474  29.346  26.264  1.00  0.00    -0.461 OA
BRANCH   2   3
ATOM      3  C   UNL A   1      31.270  28.005  26.792  1.00  0.00     0.324 C 
ATOM      4  O   UNL A   1      31.498  28.137  28.024  1.00  0.00    -0.250 OA
BRANCH   3   5
ATOM      5  C   UNL A   1      30.593  26.307  25.560  1.00  0.00     0.183 C 
BRANCH   5   6
ATOM      6  N   UNL A   1      30.008  24.766  25.918  1.00  0.00    -0.197 NA
ATOM      7  H   UNL A   1      29.180  24.928  26.490  1.00  0.00     0.142 HD
BRANCH   6   8
ATOM      8  S   UNL A   1      30.847  23.480  26.711  1.00  0.00     0.241 S 
ATOM      9  O   UNL A   1      29.856  22.640  27.344  1.00  0.00    -0.207 OA
ATOM     10  O   UNL A   1      31.858  24.167  27.495  1.00  0.00    -0.207 OA
BRANCH   8  11
ATOM     11  C   UNL A   1      31.855  22.300  25.724  1.00  0.00     0.085 A 
ATOM     12  C   UNL A   1      32.091  20.557  22.294  1.00  0.00     0.044 C 
ATOM     13  C   UNL A   1      32.362  20.975  23.713  1.00  0.00    -0.050 A 
ATOM     14  C   UNL A   1      33.400  20.315  24.378  1.00  0.00     0.004 A 
ATOM     15  C   UNL A   1      31.617  21.989  24.377  1.00  0.00     0.025 A 
ATOM     16  C   UNL A   1      33.703  20.661  25.682  1.00  0.00     0.005 A 
ATOM     17  C   UNL A   1      32.956  21.648  26.368  1.00  0.00    -0.031 A 
ATOM     18  C   UNL A   1      33.457  21.924  27.764  1.00  0.00     0.046 C 
ENDBRANCH   8  11
ENDBRANCH   6   8
ENDBRANCH   5   6
BRANCH   5  19
ATOM     19  C   UNL A   1      31.114  25.772  23.821  1.00  0.00     0.065 C 
BRANCH  19  20
ATOM     20  C   UNL A   1      32.466  25.315  23.221  1.00  0.00    -0.037 C 
ATOM     21  C   UNL A   1      33.623  25.030  23.838  1.00  0.00     0.001 A 
ATOM     22  C   UNL A   1      32.566  24.904  21.770  1.00  0.00     0.174 C 
ATOM     23  C   UNL A   1      34.199  25.223  25.134  1.00  0.00     0.010 A 
ATOM     24  C   UNL A   1      34.234  24.063  22.894  1.00  0.00     0.065 A 
ATOM     25  N   UNL A   1      33.696  23.943  21.720  1.00  0.00    -0.280 NA
ATOM     26  C   UNL A   1      35.266  24.490  25.499  1.00  0.00     0.001 A 
ATOM     27  C   UNL A   1      35.318  23.199  23.420  1.00  0.00     0.028 A 
ATOM     28  C   UNL A   1      35.780  23.421  24.660  1.00  0.00     0.002 A 
ENDBRANCH  19  20
ENDBRANCH   5  19
ENDBRANCH   3   5
ENDBRANCH   2   3
ENDBRANCH   1   2
BRANCH   1  29
ATOM     29  C   UNL A   1      33.033  31.118  26.943  1.00  0.00     0.275 C 
BRANCH  29  30
ATOM     30  O   UNL A   1      34.238  31.255  27.765  1.00  0.00    -0.458 OA
BRANCH  30  31
ATOM     31  C   UNL A   1      34.690  32.375  28.393  1.00  0.00     0.338 C 
ATOM     32  O   UNL A   1      34.410  33.516  28.058  1.00  0.00    -0.246 OA
BRANCH  31  33
ATOM     33  C   UNL A   1      35.764  32.148  29.361  1.00  0.00     0.060 A 
ATOM     34  C   UNL A   1      37.307  33.075  29.135  1.00  0.00     0.016 A 
ATOM     35  C   UNL A   1      35.829  30.519  30.132  1.00  0.00     0.016 A 
ATOM     36  C   UNL A   1      38.883  32.251  29.537  1.00  0.00     0.010 A 
ATOM     37  C   UNL A   1      37.405  29.780  30.626  1.00  0.00     0.010 A 
ATOM     38  C   UNL A   1      38.923  30.557  30.132  1.00  0.00    -0.014 A 
BRANCH  38  39
ATOM     39  C   UNL A   1      39.999  29.479  29.725  1.00  0.00     0.031 A 
ATOM     40  C   UNL A   1      40.387  28.898  31.018  1.00  0.00     0.074 A 
ATOM     41  C   UNL A   1      40.482  28.812  28.598  1.00  0.00     0.049 A 
ATOM     42  N   UNL A   1      41.147  29.528  31.850  1.00  0.00    -0.248 NA
ATOM     43  C   UNL A   1      39.596  27.815  31.625  1.00  0.00     0.031 C 
ATOM     44  C   UNL A   1      40.117  28.904  27.169  1.00  0.00     0.029 A 
ATOM     45  N   UNL A   1      41.482  27.812  28.504  1.00  0.00    -0.354 N 
ATOM     46  C   UNL A   1      41.198  28.702  32.949  1.00  0.00     0.074 A 
ATOM     47  C   UNL A   1      39.980  27.936  32.901  1.00  0.00     0.031 C 
ATOM     48  C   UNL A   1      40.688  27.904  26.426  1.00  0.00     0.029 A 
ATOM     49  C   UNL A   1      41.614  27.134  27.248  1.00  0.00     0.049 A 
ATOM     50  H   UNL A   1      42.063  27.594  29.269  1.00  0.00     0.167 HD
ATOM     51  C   UNL A   1      42.394  28.409  33.529  1.00  0.00     0.034 A 
ATOM     52  C   UNL A   1      42.541  26.188  26.825  1.00  0.00     0.034 A 
ATOM     53  C   UNL A   1      43.457  29.131  32.858  1.00  0.00     0.049 A 
ATOM     54  C   UNL A   1      43.700  26.288  27.723  1.00  0.00     0.074 A 
ATOM     55  C   UNL A   1      43.816  30.451  32.695  1.00  0.00     0.029 A 
ATOM     56  N   UNL A   1      44.026  28.430  31.823  1.00  0.00    -0.354 N 
ATOM     57  N   UNL A   1      44.527  27.286  27.729  1.00  0.00    -0.248 NA
ATOM     58  C   UNL A   1      43.683  25.451  28.905  1.00  0.00     0.031 C 
ATOM     59  C   UNL A   1      44.406  30.542  31.400  1.00  0.00     0.029 A 
ATOM     60  C   UNL A   1      44.498  29.266  30.848  1.00  0.00     0.049 A 
ATOM     61  H   UNL A   1      44.087  27.449  31.787  1.00  0.00     0.167 HD
ATOM     62  C   UNL A   1      44.697  27.530  29.075  1.00  0.00     0.074 A 
ATOM     63  C   UNL A   1      44.272  26.299  29.747  1.00  0.00     0.031 C 
ATOM     64  C   UNL A   1      44.832  28.813  29.511  1.00  0.00     0.034 A 
BRANCH  51  65
ATOM     65  C   UNL A   1      42.667  27.171  34.342  1.00  0.00     0.023 A 
ATOM     66  C   UNL A   1      43.428  26.077  33.889  1.00  0.00     0.031 A 
ATOM     67  C   UNL A   1      42.269  27.128  35.690  1.00  0.00     0.131 A 
ATOM     68  C   UNL A   1      43.697  24.977  34.711  1.00  0.00     0.055 A 
ATOM     69  C   UNL A   1      42.605  26.066  36.537  1.00  0.00     0.041 A 
ATOM     70  F   UNL A   1      41.563  28.133  36.231  1.00  0.00    -0.206 F 
ATOM     71  C   UNL A   1      43.310  24.975  36.046  1.00  0.00     0.022 A 
BRANCH  68  72
ATOM     72  S   UNL A   1      44.530  23.511  34.042  1.00  0.00     0.124 S 
ATOM     73  O   UNL A   1      45.904  23.978  33.898  1.00  0.00    -0.237 OA
ATOM     74  O   UNL A   1      44.300  22.534  35.103  1.00  0.00    -0.237 OA
ATOM     75  O   UNL A   1      43.814  23.249  32.796  1.00  0.00    -0.744 OA
ENDBRANCH  68  72
ENDBRANCH  51  65
BRANCH  52  76
ATOM     76  C   UNL A   1      42.464  24.880  26.041  1.00  0.00     0.023 A 
ATOM     77  C   UNL A   1      41.498  23.936  26.409  1.00  0.00     0.031 A 
ATOM     78  C   UNL A   1      43.567  24.362  25.287  1.00  0.00     0.131 A 
ATOM     79  C   UNL A   1      41.670  22.561  26.117  1.00  0.00     0.055 A 
ATOM     80  C   UNL A   1      43.716  22.994  24.964  1.00  0.00     0.041 A 
ATOM     81  F   UNL A   1      44.584  25.160  24.924  1.00  0.00    -0.206 F 
ATOM     82  C   UNL A   1      42.771  22.079  25.402  1.00  0.00     0.022 A 
BRANCH  79  83
ATOM     83  S   UNL A   1      40.519  21.338  26.806  1.00  0.00     0.124 S 
ATOM     84  O   UNL A   1      40.951  20.104  26.156  1.00  0.00    -0.237 OA
ATOM     85  O   UNL A   1      40.805  21.431  28.234  1.00  0.00    -0.237 OA
ATOM     86  O   UNL A   1      39.214  21.837  26.385  1.00  0.00    -0.744 OA
ENDBRANCH  79  83
ENDBRANCH  52  76
BRANCH  64  87
ATOM     87  C   UNL A   1      45.231  29.876  28.508  1.00  0.00     0.023 A 
ATOM     88  C   UNL A   1      46.607  30.123  28.408  1.00  0.00     0.031 A 
ATOM     89  C   UNL A   1      44.361  30.747  27.823  1.00  0.00     0.131 A 
ATOM     90  C   UNL A   1      47.081  31.250  27.733  1.00  0.00     0.055 A 
ATOM     91  C   UNL A   1      44.844  31.833  27.078  1.00  0.00     0.041 A 
ATOM     92  F   UNL A   1      43.029  30.624  27.908  1.00  0.00    -0.206 F 
ATOM     93  C   UNL A   1      46.209  32.103  27.053  1.00  0.00     0.022 A 
BRANCH  90  94
ATOM     94  S   UNL A   1      48.823  31.714  27.879  1.00  0.00     0.124 S 
ATOM     95  O   UNL A   1      49.292  30.826  28.938  1.00  0.00    -0.237 OA
ATOM     96  O   UNL A   1      49.333  31.419  26.542  1.00  0.00    -0.237 OA
ATOM     97  O   UNL A   1      48.783  33.132  28.227  1.00  0.00    -0.744 OA
ENDBRANCH  90  94
ENDBRANCH  64  87
ENDBRANCH  38  39
ENDBRANCH  31  33
ENDBRANCH  30  31
ENDBRANCH  29  30
ENDBRANCH   1  29
TORSDOF 19
ENDMDL
MODEL 2
REMARK VINA RESULT:     -14.1      3.906      7.298
REMARK SMILES Cc1ccc(C)c(S(=O)(=O)N[C@H](CC2=c3ccccc3=NC2)C(=O)OCCOC(=O)c2ccc(-c3c4nc(c(-c5cc(S(=O)(=O)[O-])ccc5F)c5ccc([nH]5)c(-c5cc(S(=O)(=O)[O-])ccc5F)c5nc(c(-c6cc(S(=O)(=O)[O-])ccc6F)c6ccc3[nH]6)C=C5)C=C4)cc2)c1
REMARK SMILES IDX 26 1 25 2 23 3 24 4 12 5 11 6 8 8 9 9 10 10 7 11 1 12 2 13
REMARK SMILES IDX 3 14 94 15 4 16 5 17 6 18 13 19 14 20 15 21 22 22 16 23
REMARK SMILES IDX 20 24 21 25 17 26 19 27 18 28 27 29 28 30 29 31 30 32 31 33
REMARK SMILES IDX 32 34 93 35 33 36 92 37 34 38 35 39 36 40 86 41 37 42 91 43
REMARK SMILES IDX 85 44 87 45 38 46 90 47 84 48 83 49 39 51 71 52 51 53 70 54
REMARK SMILES IDX 52 55 55 56 69 57 88 58 53 59 54 60 68 62 89 63 56 64 40 65
REMARK SMILES IDX 41 66 49 67 42 68 48 69 50 70 47 71 43 72 44 73 45 74 46 75
REMARK SMILES IDX 72 76 73 77 81 78 74 79 80 80 82 81 79 82 75 83 76 84 77 85
REMARK SMILES IDX 78 86 57 87 58 88 66 89 59 90 65 91 67 92 64 93 60 94 61 95
REMARK SMILES IDX 62 96 63 97
REMARK H PARENT 11 7 87 50 55 61
REMARK Flexibility Score: inf
ROOT
ATOM      1  C   UNL A   1      35.771  30.557  28.522  1.00  0.00     0.274 C 
ENDROOT
BRANCH   1   2
ATOM      2  O   UNL A   1      35.444  29.311  27.896  1.00  0.00    -0.461 OA
BRANCH   2   3
ATOM      3  C   UNL A   1      34.253  29.302  27.059  1.00  0.00     0.324 C 
ATOM      4  O   UNL A   1      33.648  30.353  27.399  1.00  0.00    -0.250 OA
BRANCH   3   5
ATOM      5  C   UNL A   1      33.861  27.767  25.525  1.00  0.00     0.183 C 
BRANCH   5   6
ATOM      6  N   UNL A   1      32.801  27.671  24.217  1.00  0.00    -0.197 NA
ATOM      7  H   UNL A   1      32.761  28.619  23.844  1.00  0.00     0.142 HD
BRANCH   6   8
ATOM      8  S   UNL A   1      31.159  27.132  24.230  1.00  0.00     0.241 S 
ATOM      9  O   UNL A   1      30.786  26.910  25.608  1.00  0.00    -0.207 OA
ATOM     10  O   UNL A   1      31.151  26.046  23.267  1.00  0.00    -0.207 OA
BRANCH   8  11
ATOM     11  C   UNL A   1      29.831  28.231  23.589  1.00  0.00     0.085 A 
ATOM     12  C   UNL A   1      29.128  31.788  22.280  1.00  0.00     0.044 C 
ATOM     13  C   UNL A   1      28.951  30.366  22.736  1.00  0.00    -0.050 A 
ATOM     14  C   UNL A   1      27.642  29.879  22.793  1.00  0.00     0.004 A 
ATOM     15  C   UNL A   1      30.043  29.528  23.101  1.00  0.00     0.025 A 
ATOM     16  C   UNL A   1      27.416  28.576  23.196  1.00  0.00     0.005 A 
ATOM     17  C   UNL A   1      28.486  27.737  23.589  1.00  0.00    -0.031 A 
ATOM     18  C   UNL A   1      28.055  26.338  23.956  1.00  0.00     0.046 C 
ENDBRANCH   8  11
ENDBRANCH   6   8
ENDBRANCH   5   6
BRANCH   5  19
ATOM     19  C   UNL A   1      34.029  25.884  25.607  1.00  0.00     0.065 C 
BRANCH  19  20
ATOM     20  C   UNL A   1      34.729  24.849  24.693  1.00  0.00    -0.037 C 
ATOM     21  C   UNL A   1      35.850  24.141  24.904  1.00  0.00     0.001 A 
ATOM     22  C   UNL A   1      34.043  24.327  23.452  1.00  0.00     0.174 C 
ATOM     23  C   UNL A   1      36.952  24.165  25.817  1.00  0.00     0.010 A 
ATOM     24  C   UNL A   1      35.605  22.938  24.071  1.00  0.00     0.065 A 
ATOM     25  N   UNL A   1      34.613  22.974  23.237  1.00  0.00    -0.280 NA
ATOM     26  C   UNL A   1      37.730  23.075  25.942  1.00  0.00     0.001 A 
ATOM     27  C   UNL A   1      36.418  21.736  24.369  1.00  0.00     0.028 A 
ATOM     28  C   UNL A   1      37.412  21.830  25.265  1.00  0.00     0.002 A 
ENDBRANCH  19  20
ENDBRANCH   5  19
ENDBRANCH   3   5
ENDBRANCH   2   3
ENDBRANCH   1   2
BRANCH   1  29
ATOM     29  C   UNL A   1      36.660  30.346  29.762  1.00  0.00     0.275 C 
BRANCH  29  30
ATOM     30  O   UNL A   1      36.984  28.968  30.141  1.00  0.00    -0.458 OA
BRANCH  30  31
ATOM     31  C   UNL A   1      38.197  28.353  30.074  1.00  0.00     0.338 C 
ATOM     32  O   UNL A   1      38.524  27.396  30.757  1.00  0.00    -0.246 OA
BRANCH  31  33
ATOM     33  C   UNL A   1      39.211  29.074  29.304  1.00  0.00     0.060 A 
ATOM     34  C   UNL A   1      39.113  28.985  27.494  1.00  0.00     0.016 A 
ATOM     35  C   UNL A   1      40.826  29.278  30.082  1.00  0.00     0.016 A 
ATOM     36  C   UNL A   1      40.666  28.928  26.541  1.00  0.00     0.010 A 
ATOM     37  C   UNL A   1      42.339  29.336  29.094  1.00  0.00     0.010 A 
ATOM     38  C   UNL A   1      42.264  28.949  27.362  1.00  0.00    -0.014 A 
BRANCH  38  39
ATOM     39  C   UNL A   1      43.520  28.105  26.920  1.00  0.00     0.031 A 
ATOM     40  C   UNL A   1      42.987  26.737  26.847  1.00  0.00     0.074 A 
ATOM     41  C   UNL A   1      44.805  28.278  26.402  1.00  0.00     0.049 A 
ATOM     42  N   UNL A   1      42.736  26.044  27.907  1.00  0.00    -0.248 NA
ATOM     43  C   UNL A   1      42.296  26.261  25.637  1.00  0.00     0.031 C 
ATOM     44  C   UNL A   1      45.568  29.493  26.048  1.00  0.00     0.029 A 
ATOM     45  N   UNL A   1      45.768  27.303  26.042  1.00  0.00    -0.354 N 
ATOM     46  C   UNL A   1      42.182  24.882  27.423  1.00  0.00     0.074 A 
ATOM     47  C   UNL A   1      41.603  25.240  26.154  1.00  0.00     0.031 C 
ATOM     48  C   UNL A   1      46.715  29.198  25.361  1.00  0.00     0.029 A 
ATOM     49  C   UNL A   1      46.918  27.755  25.316  1.00  0.00     0.049 A 
ATOM     50  H   UNL A   1      45.652  26.354  26.281  1.00  0.00     0.167 HD
ATOM     51  C   UNL A   1      42.619  23.675  27.877  1.00  0.00     0.034 A 
ATOM     52  C   UNL A   1      48.056  27.069  24.908  1.00  0.00     0.034 A 
ATOM     53  C   UNL A   1      43.621  23.870  28.906  1.00  0.00     0.049 A 
ATOM     54  C   UNL A   1      48.147  25.854  25.730  1.00  0.00     0.074 A 
ATOM     55  C   UNL A   1      43.653  24.402  30.177  1.00  0.00     0.029 A 
ATOM     56  N   UNL A   1      44.904  23.915  28.419  1.00  0.00    -0.354 N 
ATOM     57  N   UNL A   1      48.442  25.856  26.992  1.00  0.00    -0.248 NA
ATOM     58  C   UNL A   1      47.491  24.669  25.218  1.00  0.00     0.031 C 
ATOM     59  C   UNL A   1      44.945  24.987  30.326  1.00  0.00     0.029 A 
ATOM     60  C   UNL A   1      45.709  24.703  29.195  1.00  0.00     0.049 A 
ATOM     61  H   UNL A   1      45.207  23.441  27.612  1.00  0.00     0.167 HD
ATOM     62  C   UNL A   1      47.529  24.966  27.518  1.00  0.00     0.074 A 
ATOM     63  C   UNL A   1      47.067  24.169  26.378  1.00  0.00     0.031 C 
ATOM     64  C   UNL A   1      46.996  25.203  28.748  1.00  0.00     0.034 A 
BRANCH  51  65
ATOM     65  C   UNL A   1      42.514  22.385  27.107  1.00  0.00     0.023 A 
ATOM     66  C   UNL A   1      43.597  21.752  26.469  1.00  0.00     0.031 A 
ATOM     67  C   UNL A   1      41.303  21.670  27.119  1.00  0.00     0.131 A 
ATOM     68  C   UNL A   1      43.451  20.524  25.815  1.00  0.00     0.055 A 
ATOM     69  C   UNL A   1      41.175  20.404  26.536  1.00  0.00     0.041 A 
ATOM     70  F   UNL A   1      40.215  22.170  27.724  1.00  0.00    -0.206 F 
ATOM     71  C   UNL A   1      42.248  19.830  25.866  1.00  0.00     0.022 A 
BRANCH  68  72
ATOM     72  S   UNL A   1      44.823  19.823  24.857  1.00  0.00     0.124 S 
ATOM     73  O   UNL A   1      44.354  19.988  23.486  1.00  0.00    -0.237 OA
ATOM     74  O   UNL A   1      45.930  20.687  25.258  1.00  0.00    -0.237 OA
ATOM     75  O   UNL A   1      44.909  18.447  25.338  1.00  0.00    -0.744 OA
ENDBRANCH  68  72
ENDBRANCH  51  65
BRANCH  52  76
ATOM     76  C   UNL A   1      48.884  27.022  23.626  1.00  0.00     0.023 A 
ATOM     77  C   UNL A   1      50.247  26.718  23.722  1.00  0.00     0.031 A 
ATOM     78  C   UNL A   1      48.493  27.698  22.425  1.00  0.00     0.131 A 
ATOM     79  C   UNL A   1      51.163  27.139  22.727  1.00  0.00     0.055 A 
ATOM     80  C   UNL A   1      49.405  28.083  21.415  1.00  0.00     0.041 A 
ATOM     81  F   UNL A   1      47.222  28.091  22.241  1.00  0.00    -0.206 F 
ATOM     82  C   UNL A   1      50.757  27.822  21.576  1.00  0.00     0.022 A 
BRANCH  79  83
ATOM     83  S   UNL A   1      52.947  26.933  22.992  1.00  0.00     0.124 S 
ATOM     84  O   UNL A   1      53.350  26.173  21.812  1.00  0.00    -0.237 OA
ATOM     85  O   UNL A   1      53.404  28.317  23.036  1.00  0.00    -0.237 OA
ATOM     86  O   UNL A   1      53.012  26.200  24.252  1.00  0.00    -0.744 OA
ENDBRANCH  79  83
ENDBRANCH  52  76
BRANCH  64  87
ATOM     87  C   UNL A   1      47.718  26.159  29.675  1.00  0.00     0.023 A 
ATOM     88  C   UNL A   1      48.493  25.557  30.676  1.00  0.00     0.031 A 
ATOM     89  C   UNL A   1      47.540  27.554  29.741  1.00  0.00     0.131 A 
ATOM     90  C   UNL A   1      48.982  26.307  31.747  1.00  0.00     0.055 A 
ATOM     91  C   UNL A   1      48.100  28.320  30.774  1.00  0.00     0.041 A 
ATOM     92  F   UNL A   1      46.769  28.209  28.861  1.00  0.00    -0.206 F 
ATOM     93  C   UNL A   1      48.803  27.692  31.798  1.00  0.00     0.022 A 
BRANCH  90  94
ATOM     94  S   UNL A   1      49.706  25.464  33.174  1.00  0.00     0.124 S 
ATOM     95  O   UNL A   1      51.047  25.143  32.697  1.00  0.00    -0.237 OA
ATOM     96  O   UNL A   1      49.638  26.495  34.207  1.00  0.00    -0.237 OA
ATOM     97  O   UNL A   1      48.829  24.316  33.389  1.00  0.00    -0.744 OA
ENDBRANCH  90  94
ENDBRANCH  64  87
ENDBRANCH  38  39
ENDBRANCH  31  33
ENDBRANCH  30  31
ENDBRANCH  29  30
ENDBRANCH   1  29
TORSDOF 19
ENDMDL
MODEL 3
REMARK VINA RESULT:     -13.9      2.116      2.359
REMARK SMILES Cc1ccc(C)c(S(=O)(=O)N[C@H](CC2=c3ccccc3=NC2)C(=O)OCCOC(=O)c2ccc(-c3c4nc(c(-c5cc(S(=O)(=O)[O-])ccc5F)c5ccc([nH]5)c(-c5cc(S(=O)(=O)[O-])ccc5F)c5nc(c(-c6cc(S(=O)(=O)[O-])ccc6F)c6ccc3[nH]6)C=C5)C=C4)cc2)c1
REMARK SMILES IDX 26 1 25 2 23 3 24 4 12 5 11 6 8 8 9 9 10 10 7 11 1 12 2 13
REMARK SMILES IDX 3 14 94 15 4 16 5 17 6 18 13 19 14 20 15 21 22 22 16 23
REMARK SMILES IDX 20 24 21 25 17 26 19 27 18 28 27 29 28 30 29 31 30 32 31 33
REMARK SMILES IDX 32 34 93 35 33 36 92 37 34 38 35 39 36 40 86 41 37 42 91 43
REMARK SMILES IDX 85 44 87 45 38 46 90 47 84 48 83 49 39 51 71 52 51 53 70 54
REMARK SMILES IDX 52 55 55 56 69 57 88 58 53 59 54 60 68 62 89 63 56 64 40 65
REMARK SMILES IDX 41 66 49 67 42 68 48 69 50 70 47 71 43 72 44 73 45 74 46 75
REMARK SMILES IDX 72 76 73 77 81 78 74 79 80 80 82 81 79 82 75 83 76 84 77 85
REMARK SMILES IDX 78 86 57 87 58 88 66 89 59 90 65 91 67 92 64 93 60 94 61 95
REMARK SMILES IDX 62 96 63 97
REMARK H PARENT 11 7 87 50 55 61
REMARK Flexibility Score: inf
ROOT
ATOM      1  C   UNL A   1      33.234  29.390  26.472  1.00  0.00     0.274 C 
ENDROOT
BRANCH   1   2
ATOM      2  O   UNL A   1      31.848  29.142  26.205  1.00  0.00    -0.461 OA
BRANCH   2   3
ATOM      3  C   UNL A   1      31.293  27.915  26.759  1.00  0.00     0.324 C 
ATOM      4  O   UNL A   1      31.267  28.140  27.998  1.00  0.00    -0.250 OA
BRANCH   3   5
ATOM      5  C   UNL A   1      30.606  26.227  25.518  1.00  0.00     0.183 C 
BRANCH   5   6
ATOM      6  N   UNL A   1      30.033  24.680  25.869  1.00  0.00    -0.197 NA
ATOM      7  H   UNL A   1      29.185  24.834  26.415  1.00  0.00     0.142 HD
BRANCH   6   8
ATOM      8  S   UNL A   1      30.866  23.411  26.696  1.00  0.00     0.241 S 
ATOM      9  O   UNL A   1      29.869  22.576  27.327  1.00  0.00    -0.207 OA
ATOM     10  O   UNL A   1      31.861  24.116  27.483  1.00  0.00    -0.207 OA
BRANCH   8  11
ATOM     11  C   UNL A   1      31.895  22.221  25.743  1.00  0.00     0.085 A 
ATOM     12  C   UNL A   1      32.145  20.358  22.377  1.00  0.00     0.044 C 
ATOM     13  C   UNL A   1      32.418  20.835  23.778  1.00  0.00    -0.050 A 
ATOM     14  C   UNL A   1      33.477  20.226  24.456  1.00  0.00     0.004 A 
ATOM     15  C   UNL A   1      31.654  21.855  24.411  1.00  0.00     0.025 A 
ATOM     16  C   UNL A   1      33.783  20.627  25.744  1.00  0.00     0.005 A 
ATOM     17  C   UNL A   1      33.017  21.620  26.400  1.00  0.00    -0.031 A 
ATOM     18  C   UNL A   1      33.522  21.960  27.781  1.00  0.00     0.046 C 
ENDBRANCH   8  11
ENDBRANCH   6   8
ENDBRANCH   5   6
BRANCH   5  19
ATOM     19  C   UNL A   1      31.105  25.712  23.767  1.00  0.00     0.065 C 
BRANCH  19  20
ATOM     20  C   UNL A   1      32.447  25.254  23.146  1.00  0.00    -0.037 C 
ATOM     21  C   UNL A   1      33.611  24.960  23.747  1.00  0.00     0.001 A 
ATOM     22  C   UNL A   1      32.526  24.849  21.693  1.00  0.00     0.174 C 
ATOM     23  C   UNL A   1      34.205  25.145  25.035  1.00  0.00     0.010 A 
ATOM     24  C   UNL A   1      34.206  23.996  22.789  1.00  0.00     0.065 A 
ATOM     25  N   UNL A   1      33.651  23.884  21.622  1.00  0.00    -0.280 NA
ATOM     26  C   UNL A   1      35.274  24.406  25.382  1.00  0.00     0.001 A 
ATOM     27  C   UNL A   1      35.292  23.125  23.296  1.00  0.00     0.028 A 
ATOM     28  C   UNL A   1      35.772  23.339  24.532  1.00  0.00     0.002 A 
ENDBRANCH  19  20
ENDBRANCH   5  19
ENDBRANCH   3   5
ENDBRANCH   2   3
ENDBRANCH   1   2
BRANCH   1  29
ATOM     29  C   UNL A   1      33.438  30.756  27.153  1.00  0.00     0.275 C 
BRANCH  29  30
ATOM     30  O   UNL A   1      34.430  30.840  28.227  1.00  0.00    -0.458 OA
BRANCH  30  31
ATOM     31  C   UNL A   1      35.345  31.827  28.436  1.00  0.00     0.338 C 
ATOM     32  O   UNL A   1      35.554  32.749  27.663  1.00  0.00    -0.246 OA
BRANCH  31  33
ATOM     33  C   UNL A   1      36.274  31.583  29.540  1.00  0.00     0.060 A 
ATOM     34  C   UNL A   1      37.796  32.571  29.591  1.00  0.00     0.016 A 
ATOM     35  C   UNL A   1      36.290  29.918  30.233  1.00  0.00     0.016 A 
ATOM     36  C   UNL A   1      39.327  31.777  30.182  1.00  0.00     0.010 A 
ATOM     37  C   UNL A   1      37.804  29.205  30.919  1.00  0.00     0.010 A 
ATOM     38  C   UNL A   1      39.347  30.055  30.694  1.00  0.00    -0.014 A 
BRANCH  38  39
ATOM     39  C   UNL A   1      40.513  29.037  30.399  1.00  0.00     0.031 A 
ATOM     40  C   UNL A   1      41.105  28.823  31.728  1.00  0.00     0.074 A 
ATOM     41  C   UNL A   1      40.966  28.180  29.395  1.00  0.00     0.049 A 
ATOM     42  N   UNL A   1      41.852  29.710  32.295  1.00  0.00    -0.248 NA
ATOM     43  C   UNL A   1      40.534  27.833  32.656  1.00  0.00     0.031 C 
ATOM     44  C   UNL A   1      40.450  27.892  28.040  1.00  0.00     0.029 A 
ATOM     45  N   UNL A   1      42.078  27.302  29.396  1.00  0.00    -0.354 N 
ATOM     46  C   UNL A   1      42.125  29.176  33.533  1.00  0.00     0.074 A 
ATOM     47  C   UNL A   1      41.023  28.292  33.813  1.00  0.00     0.031 C 
ATOM     48  C   UNL A   1      41.075  26.814  27.470  1.00  0.00     0.029 A 
ATOM     49  C   UNL A   1      42.174  26.365  28.315  1.00  0.00     0.049 A 
ATOM     50  H   UNL A   1      42.758  27.334  30.109  1.00  0.00     0.167 HD
ATOM     51  C   UNL A   1      43.402  29.161  34.004  1.00  0.00     0.034 A 
ATOM     52  C   UNL A   1      43.174  25.453  27.996  1.00  0.00     0.034 A 
ATOM     53  C   UNL A   1      44.283  29.816  33.058  1.00  0.00     0.049 A 
ATOM     54  C   UNL A   1      44.393  25.888  28.692  1.00  0.00     0.074 A 
ATOM     55  C   UNL A   1      44.442  31.092  32.563  1.00  0.00     0.029 A 
ATOM     56  N   UNL A   1      44.836  28.957  32.139  1.00  0.00    -0.354 N 
ATOM     57  N   UNL A   1      45.073  26.943  28.370  1.00  0.00    -0.248 NA
ATOM     58  C   UNL A   1      44.610  25.356  30.022  1.00  0.00     0.031 C 
ATOM     59  C   UNL A   1      44.880  30.940  31.215  1.00  0.00     0.029 A 
ATOM     60  C   UNL A   1      45.089  29.587  30.951  1.00  0.00     0.049 A 
ATOM     61  H   UNL A   1      45.025  28.008  32.313  1.00  0.00     0.167 HD
ATOM     62  C   UNL A   1      45.343  27.515  29.596  1.00  0.00     0.074 A 
ATOM     63  C   UNL A   1      45.159  26.438  30.572  1.00  0.00     0.031 C 
ATOM     64  C   UNL A   1      45.346  28.871  29.716  1.00  0.00     0.034 A 
BRANCH  51  65
ATOM     65  C   UNL A   1      43.921  28.187  35.029  1.00  0.00     0.023 A 
ATOM     66  C   UNL A   1      44.270  28.535  36.347  1.00  0.00     0.031 A 
ATOM     67  C   UNL A   1      43.944  26.813  34.728  1.00  0.00     0.131 A 
ATOM     68  C   UNL A   1      44.693  27.575  37.274  1.00  0.00     0.055 A 
ATOM     69  C   UNL A   1      44.290  25.844  35.676  1.00  0.00     0.041 A 
ATOM     70  F   UNL A   1      43.603  26.371  33.507  1.00  0.00    -0.206 F 
ATOM     71  C   UNL A   1      44.682  26.224  36.953  1.00  0.00     0.022 A 
BRANCH  68  72
ATOM     72  S   UNL A   1      45.300  28.080  38.908  1.00  0.00     0.124 S 
ATOM     73  O   UNL A   1      46.746  27.987  38.739  1.00  0.00    -0.237 OA
ATOM     74  O   UNL A   1      44.759  29.433  39.014  1.00  0.00    -0.237 OA
ATOM     75  O   UNL A   1      44.701  27.103  39.813  1.00  0.00    -0.744 OA
ENDBRANCH  68  72
ENDBRANCH  51  65
BRANCH  52  76
ATOM     76  C   UNL A   1      43.198  23.998  27.537  1.00  0.00     0.023 A 
ATOM     77  C   UNL A   1      44.196  23.596  26.641  1.00  0.00     0.031 A 
ATOM     78  C   UNL A   1      42.044  23.151  27.583  1.00  0.00     0.131 A 
ATOM     79  C   UNL A   1      44.012  22.477  25.793  1.00  0.00     0.055 A 
ATOM     80  C   UNL A   1      41.879  22.011  26.761  1.00  0.00     0.041 A 
ATOM     81  F   UNL A   1      40.995  23.462  28.363  1.00  0.00    -0.206 F 
ATOM     82  C   UNL A   1      42.862  21.682  25.840  1.00  0.00     0.022 A 
BRANCH  79  83
ATOM     83  S   UNL A   1      45.222  22.121  24.488  1.00  0.00     0.124 S 
ATOM     84  O   UNL A   1      45.428  23.436  23.888  1.00  0.00    -0.237 OA
ATOM     85  O   UNL A   1      46.345  21.598  25.258  1.00  0.00    -0.237 OA
ATOM     86  O   UNL A   1      44.525  21.157  23.643  1.00  0.00    -0.744 OA
ENDBRANCH  79  83
ENDBRANCH  52  76
BRANCH  64  87
ATOM     87  C   UNL A   1      45.493  29.705  28.460  1.00  0.00     0.023 A 
ATOM     88  C   UNL A   1      46.790  30.164  28.190  1.00  0.00     0.031 A 
ATOM     89  C   UNL A   1      44.446  30.207  27.662  1.00  0.00     0.131 A 
ATOM     90  C   UNL A   1      47.010  31.153  27.230  1.00  0.00     0.055 A 
ATOM     91  C   UNL A   1      44.680  31.142  26.643  1.00  0.00     0.041 A 
ATOM     92  F   UNL A   1      43.168  29.870  27.883  1.00  0.00    -0.206 F 
ATOM     93  C   UNL A   1      45.965  31.639  26.441  1.00  0.00     0.022 A 
BRANCH  90  94
ATOM     94  S   UNL A   1      48.632  31.945  27.118  1.00  0.00     0.124 S 
ATOM     95  O   UNL A   1      48.844  32.413  28.484  1.00  0.00    -0.237 OA
ATOM     96  O   UNL A   1      49.487  30.838  26.694  1.00  0.00    -0.237 OA
ATOM     97  O   UNL A   1      48.445  32.997  26.122  1.00  0.00    -0.744 OA
ENDBRANCH  90  94
ENDBRANCH  64  87
ENDBRANCH  38  39
ENDBRANCH  31  33
ENDBRANCH  30  31
ENDBRANCH  29  30
ENDBRANCH   1  29
TORSDOF 19
ENDMDL
