MODEL 1
REMARK VINA RESULT:     -12.1      0.000      0.000
REMARK SMILES Cc1ccc(F)cc1S(=O)(=O)Nc1ccc(N(C)C)c(C(=O)OCCOC(=O)c2ccc(-c3c4nc(c(-c5cc(S(=O)(=O)[O-])ccc5F)c5ccc([nH]5)c(-c5cc(S(=O)(=O)[O-])ccc5F)c5nc(c(-c6cc(S(=O)(=O)[O-])ccc6F)c6ccc3[nH]6)C=C5)C=C4)cc2)c1
REMARK SMILES IDX 24 1 23 2 21 3 22 4 20 5 13 6 14 7 92 8 15 9 16 10 12 11
REMARK SMILES IDX 9 13 10 14 11 15 8 16 1 17 2 18 3 19 4 20 7 21 5 22 6 23
REMARK SMILES IDX 17 24 18 25 19 26 25 27 26 28 27 29 28 30 29 31 30 32 91 33
REMARK SMILES IDX 31 34 90 35 32 36 33 37 34 38 84 39 35 40 89 41 83 42 85 43
REMARK SMILES IDX 36 44 88 45 82 46 81 47 37 49 69 50 49 51 68 52 50 53 53 54
REMARK SMILES IDX 67 55 86 56 51 57 52 58 66 60 87 61 54 62 38 63 39 64 47 65
REMARK SMILES IDX 40 66 46 67 48 68 45 69 41 70 42 71 43 72 44 73 70 74 71 75
REMARK SMILES IDX 79 76 72 77 78 78 80 79 77 80 73 81 74 82 75 83 76 84 55 85
REMARK SMILES IDX 56 86 64 87 57 88 63 89 65 90 62 91 58 92 59 93 60 94 61 95
REMARK H PARENT 12 12 85 48 53 59
REMARK Flexibility Score: inf
ROOT
ATOM      1  C   UNL A   1      35.492  22.320  25.935  1.00  0.00     0.275 C 
ENDROOT
BRANCH   1   2
ATOM      2  O   UNL A   1      35.465  23.409  24.998  1.00  0.00    -0.458 OA
BRANCH   2   3
ATOM      3  C   UNL A   1      34.699  23.241  23.892  1.00  0.00     0.340 C 
ATOM      4  O   UNL A   1      35.096  23.018  22.762  1.00  0.00    -0.246 OA
BRANCH   3   5
ATOM      5  C   UNL A   1      33.300  23.548  24.263  1.00  0.00     0.085 A 
ATOM      6  C   UNL A   1      31.836  25.463  24.588  1.00  0.00     0.050 A 
ATOM      7  C   UNL A   1      30.782  24.603  24.836  1.00  0.00     0.029 A 
ATOM      8  C   UNL A   1      33.099  24.940  24.386  1.00  0.00     0.044 A 
ATOM      9  C   UNL A   1      30.991  23.216  24.756  1.00  0.00     0.029 A 
ATOM     10  C   UNL A   1      32.227  22.626  24.378  1.00  0.00     0.051 A 
BRANCH   6  11
ATOM     11  N   UNL A   1      31.647  26.870  24.420  1.00  0.00    -0.280 N 
ATOM     12  H   UNL A   1      31.616  27.472  25.199  1.00  0.00     0.180 HD
BRANCH  11  13
ATOM     13  S   UNL A   1      31.474  27.484  22.828  1.00  0.00     0.262 S 
ATOM     14  O   UNL A   1      31.256  26.313  21.998  1.00  0.00    -0.201 OA
ATOM     15  O   UNL A   1      32.614  28.332  22.553  1.00  0.00    -0.201 OA
BRANCH  13  16
ATOM     16  C   UNL A   1      29.983  28.480  22.755  1.00  0.00     0.093 A 
ATOM     17  C   UNL A   1      28.409  26.704  23.820  1.00  0.00     0.046 C 
ATOM     18  C   UNL A   1      28.713  28.028  23.176  1.00  0.00    -0.030 A 
ATOM     19  C   UNL A   1      27.605  28.892  23.024  1.00  0.00     0.008 A 
ATOM     20  C   UNL A   1      27.761  30.196  22.562  1.00  0.00     0.039 A 
ATOM     21  C   UNL A   1      30.133  29.809  22.318  1.00  0.00     0.061 A 
ATOM     22  C   UNL A   1      29.029  30.651  22.244  1.00  0.00     0.124 A 
ATOM     23  F   UNL A   1      29.194  31.925  21.864  1.00  0.00    -0.207 F 
ENDBRANCH  13  16
ENDBRANCH  11  13
ENDBRANCH   6  11
BRANCH  10  24
ATOM     24  N   UNL A   1      32.277  21.247  24.153  1.00  0.00    -0.377 N 
ATOM     25  C   UNL A   1      32.242  20.708  22.785  1.00  0.00     0.143 C 
ATOM     26  C   UNL A   1      32.726  20.293  25.165  1.00  0.00     0.143 C 
ENDBRANCH  10  24
ENDBRANCH   3   5
ENDBRANCH   2   3
ENDBRANCH   1   2
BRANCH   1  27
ATOM     27  C   UNL A   1      36.314  21.171  25.350  1.00  0.00     0.275 C 
BRANCH  27  28
ATOM     28  O   UNL A   1      37.617  21.648  24.972  1.00  0.00    -0.458 OA
BRANCH  28  29
ATOM     29  C   UNL A   1      38.623  21.239  25.789  1.00  0.00     0.338 C 
ATOM     30  O   UNL A   1      39.001  20.094  25.971  1.00  0.00    -0.246 OA
BRANCH  29  31
ATOM     31  C   UNL A   1      39.332  22.426  26.301  1.00  0.00     0.060 A 
ATOM     32  C   UNL A   1      38.894  23.676  25.861  1.00  0.00     0.016 A 
ATOM     33  C   UNL A   1      40.405  22.326  27.191  1.00  0.00     0.016 A 
ATOM     34  C   UNL A   1      39.505  24.835  26.337  1.00  0.00     0.010 A 
ATOM     35  C   UNL A   1      41.040  23.491  27.640  1.00  0.00     0.010 A 
ATOM     36  C   UNL A   1      40.590  24.751  27.217  1.00  0.00    -0.014 A 
BRANCH  36  37
ATOM     37  C   UNL A   1      41.336  25.987  27.551  1.00  0.00     0.031 A 
ATOM     38  C   UNL A   1      40.656  27.022  28.399  1.00  0.00     0.074 A 
ATOM     39  C   UNL A   1      42.619  26.153  27.181  1.00  0.00     0.049 A 
ATOM     40  N   UNL A   1      41.090  28.190  28.792  1.00  0.00    -0.248 NA
ATOM     41  C   UNL A   1      39.314  26.675  28.888  1.00  0.00     0.031 C 
ATOM     42  C   UNL A   1      43.425  25.163  26.470  1.00  0.00     0.029 A 
ATOM     43  N   UNL A   1      43.473  27.210  27.369  1.00  0.00    -0.354 N 
ATOM     44  C   UNL A   1      40.080  28.714  29.589  1.00  0.00     0.074 A 
ATOM     45  C   UNL A   1      39.008  27.742  29.607  1.00  0.00     0.031 C 
ATOM     46  C   UNL A   1      44.661  25.661  26.282  1.00  0.00     0.029 A 
ATOM     47  C   UNL A   1      44.716  27.026  26.806  1.00  0.00     0.049 A 
ATOM     48  H   UNL A   1      43.221  28.025  27.860  1.00  0.00     0.167 HD
ATOM     49  C   UNL A   1      40.046  29.903  30.240  1.00  0.00     0.034 A 
ATOM     50  C   UNL A   1      45.757  27.878  26.696  1.00  0.00     0.034 A 
ATOM     51  C   UNL A   1      41.085  30.896  30.148  1.00  0.00     0.049 A 
ATOM     52  C   UNL A   1      45.617  29.276  27.257  1.00  0.00     0.074 A 
ATOM     53  C   UNL A   1      41.111  32.174  30.676  1.00  0.00     0.029 A 
ATOM     54  N   UNL A   1      42.280  30.727  29.459  1.00  0.00    -0.354 N 
ATOM     55  N   UNL A   1      44.627  29.797  27.945  1.00  0.00    -0.248 NA
ATOM     56  C   UNL A   1      46.728  30.206  27.011  1.00  0.00     0.031 C 
ATOM     57  C   UNL A   1      42.287  32.802  30.247  1.00  0.00     0.029 A 
ATOM     58  C   UNL A   1      43.034  31.889  29.520  1.00  0.00     0.049 A 
ATOM     59  H   UNL A   1      42.553  29.903  28.995  1.00  0.00     0.167 HD
ATOM     60  C   UNL A   1      45.010  31.103  28.238  1.00  0.00     0.074 A 
ATOM     61  C   UNL A   1      46.325  31.289  27.659  1.00  0.00     0.031 C 
ATOM     62  C   UNL A   1      44.342  32.062  28.930  1.00  0.00     0.034 A 
BRANCH  49  63
ATOM     63  C   UNL A   1      38.786  30.207  31.010  1.00  0.00     0.023 A 
ATOM     64  C   UNL A   1      37.704  30.878  30.413  1.00  0.00     0.031 A 
ATOM     65  C   UNL A   1      38.709  29.918  32.383  1.00  0.00     0.131 A 
ATOM     66  C   UNL A   1      36.633  31.316  31.207  1.00  0.00     0.055 A 
ATOM     67  C   UNL A   1      37.603  30.285  33.150  1.00  0.00     0.041 A 
ATOM     68  F   UNL A   1      39.727  29.308  33.011  1.00  0.00    -0.206 F 
ATOM     69  C   UNL A   1      36.565  31.006  32.567  1.00  0.00     0.022 A 
BRANCH  66  70
ATOM     70  S   UNL A   1      35.426  32.457  30.476  1.00  0.00     0.124 S 
ATOM     71  O   UNL A   1      35.063  31.756  29.245  1.00  0.00    -0.237 OA
ATOM     72  O   UNL A   1      34.393  32.523  31.501  1.00  0.00    -0.237 OA
ATOM     73  O   UNL A   1      36.191  33.686  30.278  1.00  0.00    -0.744 OA
ENDBRANCH  66  70
ENDBRANCH  49  63
BRANCH  50  74
ATOM     74  C   UNL A   1      46.997  27.483  25.962  1.00  0.00     0.023 A 
ATOM     75  C   UNL A   1      47.178  27.810  24.608  1.00  0.00     0.031 A 
ATOM     76  C   UNL A   1      47.984  26.699  26.585  1.00  0.00     0.131 A 
ATOM     77  C   UNL A   1      48.294  27.318  23.912  1.00  0.00     0.055 A 
ATOM     78  C   UNL A   1      49.120  26.258  25.903  1.00  0.00     0.041 A 
ATOM     79  F   UNL A   1      47.858  26.344  27.874  1.00  0.00    -0.206 F 
ATOM     80  C   UNL A   1      49.273  26.556  24.554  1.00  0.00     0.022 A 
BRANCH  77  81
ATOM     81  S   UNL A   1      48.409  27.615  22.125  1.00  0.00     0.124 S 
ATOM     82  O   UNL A   1      47.109  28.214  21.842  1.00  0.00    -0.237 OA
ATOM     83  O   UNL A   1      49.561  28.506  22.039  1.00  0.00    -0.237 OA
ATOM     84  O   UNL A   1      48.615  26.279  21.570  1.00  0.00    -0.744 OA
ENDBRANCH  77  81
ENDBRANCH  50  74
BRANCH  62  85
ATOM     85  C   UNL A   1      45.044  33.382  29.142  1.00  0.00     0.023 A 
ATOM     86  C   UNL A   1      44.976  34.423  28.200  1.00  0.00     0.031 A 
ATOM     87  C   UNL A   1      45.780  33.603  30.321  1.00  0.00     0.131 A 
ATOM     88  C   UNL A   1      45.666  35.623  28.434  1.00  0.00     0.055 A 
ATOM     89  C   UNL A   1      46.420  34.817  30.572  1.00  0.00     0.041 A 
ATOM     90  F   UNL A   1      45.879  32.643  31.253  1.00  0.00    -0.206 F 
ATOM     91  C   UNL A   1      46.372  35.833  29.622  1.00  0.00     0.022 A 
BRANCH  88  92
ATOM     92  S   UNL A   1      45.684  36.890  27.135  1.00  0.00     0.124 S 
ATOM     93  O   UNL A   1      46.533  37.919  27.725  1.00  0.00    -0.237 OA
ATOM     94  O   UNL A   1      46.251  36.168  26.001  1.00  0.00    -0.237 OA
ATOM     95  O   UNL A   1      44.275  37.256  26.993  1.00  0.00    -0.744 OA
ENDBRANCH  88  92
ENDBRANCH  62  85
ENDBRANCH  36  37
ENDBRANCH  29  31
ENDBRANCH  28  29
ENDBRANCH  27  28
ENDBRANCH   1  27
TORSDOF 18
ENDMDL
MODEL 2
REMARK VINA RESULT:     -12.0      1.854      2.289
REMARK SMILES Cc1ccc(F)cc1S(=O)(=O)Nc1ccc(N(C)C)c(C(=O)OCCOC(=O)c2ccc(-c3c4nc(c(-c5cc(S(=O)(=O)[O-])ccc5F)c5ccc([nH]5)c(-c5cc(S(=O)(=O)[O-])ccc5F)c5nc(c(-c6cc(S(=O)(=O)[O-])ccc6F)c6ccc3[nH]6)C=C5)C=C4)cc2)c1
REMARK SMILES IDX 24 1 23 2 21 3 22 4 20 5 13 6 14 7 92 8 15 9 16 10 12 11
REMARK SMILES IDX 9 13 10 14 11 15 8 16 1 17 2 18 3 19 4 20 7 21 5 22 6 23
REMARK SMILES IDX 17 24 18 25 19 26 25 27 26 28 27 29 28 30 29 31 30 32 91 33
REMARK SMILES IDX 31 34 90 35 32 36 33 37 34 38 84 39 35 40 89 41 83 42 85 43
REMARK SMILES IDX 36 44 88 45 82 46 81 47 37 49 69 50 49 51 68 52 50 53 53 54
REMARK SMILES IDX 67 55 86 56 51 57 52 58 66 60 87 61 54 62 38 63 39 64 47 65
REMARK SMILES IDX 40 66 46 67 48 68 45 69 41 70 42 71 43 72 44 73 70 74 71 75
REMARK SMILES IDX 79 76 72 77 78 78 80 79 77 80 73 81 74 82 75 83 76 84 55 85
REMARK SMILES IDX 56 86 64 87 57 88 63 89 65 90 62 91 58 92 59 93 60 94 61 95
REMARK H PARENT 12 12 85 48 53 59
REMARK Flexibility Score: inf
ROOT
ATOM      1  C   UNL A   1      36.020  20.690  25.012  1.00  0.00     0.275 C 
ENDROOT
BRANCH   1   2
ATOM      2  O   UNL A   1      35.654  22.057  25.260  1.00  0.00    -0.458 OA
BRANCH   2   3
ATOM      3  C   UNL A   1      34.794  22.626  24.379  1.00  0.00     0.340 C 
ATOM      4  O   UNL A   1      35.089  23.215  23.354  1.00  0.00    -0.246 OA
BRANCH   3   5
ATOM      5  C   UNL A   1      33.439  22.557  24.967  1.00  0.00     0.085 A 
ATOM      6  C   UNL A   1      31.981  23.828  26.442  1.00  0.00     0.050 A 
ATOM      7  C   UNL A   1      30.977  22.899  26.235  1.00  0.00     0.029 A 
ATOM      8  C   UNL A   1      33.224  23.613  25.879  1.00  0.00     0.044 A 
ATOM      9  C   UNL A   1      31.204  21.823  25.361  1.00  0.00     0.029 A 
ATOM     10  C   UNL A   1      32.402  21.651  24.618  1.00  0.00     0.051 A 
BRANCH   6  11
ATOM     11  N   UNL A   1      31.745  25.062  27.123  1.00  0.00    -0.280 N 
ATOM     12  H   UNL A   1      32.021  25.182  28.061  1.00  0.00     0.180 HD
BRANCH  11  13
ATOM     13  S   UNL A   1      30.972  26.332  26.266  1.00  0.00     0.262 S 
ATOM     14  O   UNL A   1      31.000  27.465  27.172  1.00  0.00    -0.201 OA
ATOM     15  O   UNL A   1      29.693  25.839  25.803  1.00  0.00    -0.201 OA
BRANCH  13  16
ATOM     16  C   UNL A   1      31.977  26.757  24.842  1.00  0.00     0.093 A 
ATOM     17  C   UNL A   1      33.924  27.835  26.185  1.00  0.00     0.046 C 
ATOM     18  C   UNL A   1      33.212  27.436  24.923  1.00  0.00    -0.030 A 
ATOM     19  C   UNL A   1      33.886  27.756  23.724  1.00  0.00     0.008 A 
ATOM     20  C   UNL A   1      33.407  27.334  22.488  1.00  0.00     0.039 A 
ATOM     21  C   UNL A   1      31.517  26.310  23.589  1.00  0.00     0.061 A 
ATOM     22  C   UNL A   1      32.242  26.587  22.436  1.00  0.00     0.124 A 
ATOM     23  F   UNL A   1      31.813  26.120  21.256  1.00  0.00    -0.207 F 
ENDBRANCH  13  16
ENDBRANCH  11  13
ENDBRANCH   6  11
BRANCH  10  24
ATOM     24  N   UNL A   1      32.456  20.651  23.642  1.00  0.00    -0.377 N 
ATOM     25  C   UNL A   1      32.559  19.234  24.024  1.00  0.00     0.143 C 
ATOM     26  C   UNL A   1      32.055  20.872  22.255  1.00  0.00     0.143 C 
ENDBRANCH  10  24
ENDBRANCH   3   5
ENDBRANCH   2   3
ENDBRANCH   1   2
BRANCH   1  27
ATOM     27  C   UNL A   1      37.542  20.584  24.907  1.00  0.00     0.275 C 
BRANCH  27  28
ATOM     28  O   UNL A   1      38.153  21.724  25.535  1.00  0.00    -0.458 OA
BRANCH  28  29
ATOM     29  C   UNL A   1      39.291  21.443  26.221  1.00  0.00     0.338 C 
ATOM     30  O   UNL A   1      39.856  20.364  26.296  1.00  0.00    -0.246 OA
BRANCH  29  31
ATOM     31  C   UNL A   1      39.865  22.704  26.728  1.00  0.00     0.060 A 
ATOM     32  C   UNL A   1      39.431  23.891  26.138  1.00  0.00     0.016 A 
ATOM     33  C   UNL A   1      40.810  22.730  27.758  1.00  0.00     0.016 A 
ATOM     34  C   UNL A   1      39.913  25.114  26.599  1.00  0.00     0.010 A 
ATOM     35  C   UNL A   1      41.320  23.960  28.195  1.00  0.00     0.010 A 
ATOM     36  C   UNL A   1      40.871  25.158  27.618  1.00  0.00    -0.014 A 
BRANCH  36  37
ATOM     37  C   UNL A   1      41.503  26.456  27.950  1.00  0.00     0.031 A 
ATOM     38  C   UNL A   1      40.674  27.492  28.651  1.00  0.00     0.074 A 
ATOM     39  C   UNL A   1      42.807  26.681  27.712  1.00  0.00     0.049 A 
ATOM     40  N   UNL A   1      40.994  28.707  29.012  1.00  0.00    -0.248 NA
ATOM     41  C   UNL A   1      39.307  27.089  29.013  1.00  0.00     0.031 C 
ATOM     42  C   UNL A   1      43.744  25.705  27.159  1.00  0.00     0.029 A 
ATOM     43  N   UNL A   1      43.574  27.800  27.923  1.00  0.00    -0.354 N 
ATOM     44  C   UNL A   1      39.872  29.211  29.660  1.00  0.00     0.074 A 
ATOM     45  C   UNL A   1      38.862  28.175  29.624  1.00  0.00     0.031 C 
ATOM     46  C   UNL A   1      44.962  26.270  27.075  1.00  0.00     0.029 A 
ATOM     47  C   UNL A   1      44.880  27.664  27.512  1.00  0.00     0.049 A 
ATOM     48  H   UNL A   1      43.222  28.625  28.330  1.00  0.00     0.167 HD
ATOM     49  C   UNL A   1      39.697  30.431  30.224  1.00  0.00     0.034 A 
ATOM     50  C   UNL A   1      45.877  28.572  27.460  1.00  0.00     0.034 A 
ATOM     51  C   UNL A   1      40.682  31.481  30.182  1.00  0.00     0.049 A 
ATOM     52  C   UNL A   1      45.595  29.989  27.912  1.00  0.00     0.074 A 
ATOM     53  C   UNL A   1      40.575  32.787  30.625  1.00  0.00     0.029 A 
ATOM     54  N   UNL A   1      41.955  31.350  29.639  1.00  0.00    -0.354 N 
ATOM     55  N   UNL A   1      44.505  30.484  28.453  1.00  0.00    -0.248 NA
ATOM     56  C   UNL A   1      46.672  30.972  27.728  1.00  0.00     0.031 C 
ATOM     57  C   UNL A   1      41.755  33.463  30.287  1.00  0.00     0.029 A 
ATOM     58  C   UNL A   1      42.629  32.559  29.707  1.00  0.00     0.049 A 
ATOM     59  H   UNL A   1      42.324  30.519  29.262  1.00  0.00     0.167 HD
ATOM     60  C   UNL A   1      44.778  31.828  28.700  1.00  0.00     0.074 A 
ATOM     61  C   UNL A   1      46.138  32.063  28.257  1.00  0.00     0.031 C 
ATOM     62  C   UNL A   1      43.983  32.780  29.251  1.00  0.00     0.034 A 
BRANCH  49  63
ATOM     63  C   UNL A   1      38.343  30.698  30.832  1.00  0.00     0.023 A 
ATOM     64  C   UNL A   1      37.322  31.331  30.101  1.00  0.00     0.031 A 
ATOM     65  C   UNL A   1      38.108  30.414  32.187  1.00  0.00     0.131 A 
ATOM     66  C   UNL A   1      36.149  31.739  30.753  1.00  0.00     0.055 A 
ATOM     67  C   UNL A   1      36.904  30.748  32.810  1.00  0.00     0.041 A 
ATOM     68  F   UNL A   1      39.059  29.839  32.941  1.00  0.00    -0.206 F 
ATOM     69  C   UNL A   1      35.924  31.433  32.097  1.00  0.00     0.022 A 
BRANCH  66  70
ATOM     70  S   UNL A   1      35.005  32.836  29.870  1.00  0.00     0.124 S 
ATOM     71  O   UNL A   1      35.923  33.810  29.282  1.00  0.00    -0.237 OA
ATOM     72  O   UNL A   1      34.354  31.927  28.935  1.00  0.00    -0.237 OA
ATOM     73  O   UNL A   1      34.149  33.363  30.930  1.00  0.00    -0.744 OA
ENDBRANCH  66  70
ENDBRANCH  49  63
BRANCH  50  74
ATOM     74  C   UNL A   1      47.212  28.216  26.893  1.00  0.00     0.023 A 
ATOM     75  C   UNL A   1      47.395  28.047  25.511  1.00  0.00     0.031 A 
ATOM     76  C   UNL A   1      48.307  27.956  27.736  1.00  0.00     0.131 A 
ATOM     77  C   UNL A   1      48.628  27.589  25.018  1.00  0.00     0.055 A 
ATOM     78  C   UNL A   1      49.548  27.554  27.237  1.00  0.00     0.041 A 
ATOM     79  F   UNL A   1      48.187  28.087  29.067  1.00  0.00    -0.206 F 
ATOM     80  C   UNL A   1      49.709  27.355  25.871  1.00  0.00     0.022 A 
BRANCH  77  81
ATOM     81  S   UNL A   1      48.778  27.218  23.248  1.00  0.00     0.124 S 
ATOM     82  O   UNL A   1      50.217  27.342  23.041  1.00  0.00    -0.237 OA
ATOM     83  O   UNL A   1      48.231  25.868  23.174  1.00  0.00    -0.237 OA
ATOM     84  O   UNL A   1      47.965  28.253  22.613  1.00  0.00    -0.744 OA
ENDBRANCH  77  81
ENDBRANCH  50  74
BRANCH  62  85
ATOM     85  C   UNL A   1      44.580  34.152  29.452  1.00  0.00     0.023 A 
ATOM     86  C   UNL A   1      44.411  35.184  28.513  1.00  0.00     0.031 A 
ATOM     87  C   UNL A   1      45.318  34.432  30.618  1.00  0.00     0.131 A 
ATOM     88  C   UNL A   1      45.007  36.436  28.737  1.00  0.00     0.055 A 
ATOM     89  C   UNL A   1      45.862  35.694  30.859  1.00  0.00     0.041 A 
ATOM     90  F   UNL A   1      45.511  33.483  31.547  1.00  0.00    -0.206 F 
ATOM     91  C   UNL A   1      45.715  36.702  29.912  1.00  0.00     0.022 A 
BRANCH  88  92
ATOM     92  S   UNL A   1      44.899  37.701  27.440  1.00  0.00     0.124 S 
ATOM     93  O   UNL A   1      43.582  37.440  26.869  1.00  0.00    -0.237 OA
ATOM     94  O   UNL A   1      45.031  38.940  28.198  1.00  0.00    -0.237 OA
ATOM     95  O   UNL A   1      46.027  37.390  26.563  1.00  0.00    -0.744 OA
ENDBRANCH  88  92
ENDBRANCH  62  85
ENDBRANCH  36  37
ENDBRANCH  29  31
ENDBRANCH  28  29
ENDBRANCH  27  28
ENDBRANCH   1  27
TORSDOF 18
ENDMDL
MODEL 3
REMARK VINA RESULT:     -12.0      5.148     10.265
REMARK SMILES Cc1ccc(F)cc1S(=O)(=O)Nc1ccc(N(C)C)c(C(=O)OCCOC(=O)c2ccc(-c3c4nc(c(-c5cc(S(=O)(=O)[O-])ccc5F)c5ccc([nH]5)c(-c5cc(S(=O)(=O)[O-])ccc5F)c5nc(c(-c6cc(S(=O)(=O)[O-])ccc6F)c6ccc3[nH]6)C=C5)C=C4)cc2)c1
REMARK SMILES IDX 24 1 23 2 21 3 22 4 20 5 13 6 14 7 92 8 15 9 16 10 12 11
REMARK SMILES IDX 9 13 10 14 11 15 8 16 1 17 2 18 3 19 4 20 7 21 5 22 6 23
REMARK SMILES IDX 17 24 18 25 19 26 25 27 26 28 27 29 28 30 29 31 30 32 91 33
REMARK SMILES IDX 31 34 90 35 32 36 33 37 34 38 84 39 35 40 89 41 83 42 85 43
REMARK SMILES IDX 36 44 88 45 82 46 81 47 37 49 69 50 49 51 68 52 50 53 53 54
REMARK SMILES IDX 67 55 86 56 51 57 52 58 66 60 87 61 54 62 38 63 39 64 47 65
REMARK SMILES IDX 40 66 46 67 48 68 45 69 41 70 42 71 43 72 44 73 70 74 71 75
REMARK SMILES IDX 79 76 72 77 78 78 80 79 77 80 73 81 74 82 75 83 76 84 55 85
REMARK SMILES IDX 56 86 64 87 57 88 63 89 65 90 62 91 58 92 59 93 60 94 61 95
REMARK H PARENT 12 12 85 48 53 59
REMARK Flexibility Score: inf
ROOT
ATOM      1  C   UNL A   1      31.759  28.658  27.197  1.00  0.00     0.275 C 
ENDROOT
BRANCH   1   2
ATOM      2  O   UNL A   1      32.172  27.599  26.320  1.00  0.00    -0.458 OA
BRANCH   2   3
ATOM      3  C   UNL A   1      31.214  26.720  25.934  1.00  0.00     0.340 C 
ATOM      4  O   UNL A   1      30.253  26.360  26.590  1.00  0.00    -0.246 OA
BRANCH   3   5
ATOM      5  C   UNL A   1      31.632  26.140  24.639  1.00  0.00     0.085 A 
ATOM      6  C   UNL A   1      31.742  23.988  23.510  1.00  0.00     0.050 A 
ATOM      7  C   UNL A   1      32.208  24.619  22.371  1.00  0.00     0.029 A 
ATOM      8  C   UNL A   1      31.537  24.732  24.657  1.00  0.00     0.044 A 
ATOM      9  C   UNL A   1      32.345  26.018  22.366  1.00  0.00     0.029 A 
ATOM     10  C   UNL A   1      31.979  26.849  23.459  1.00  0.00     0.051 A 
BRANCH   6  11
ATOM     11  N   UNL A   1      31.357  22.611  23.512  1.00  0.00    -0.280 N 
ATOM     12  H   UNL A   1      30.512  22.323  23.098  1.00  0.00     0.180 HD
BRANCH  11  13
ATOM     13  S   UNL A   1      32.406  21.474  24.254  1.00  0.00     0.262 S 
ATOM     14  O   UNL A   1      32.658  20.476  23.230  1.00  0.00    -0.201 OA
ATOM     15  O   UNL A   1      31.800  21.057  25.500  1.00  0.00    -0.201 OA
BRANCH  13  16
ATOM     16  C   UNL A   1      33.968  22.282  24.613  1.00  0.00     0.093 A 
ATOM     17  C   UNL A   1      33.531  22.617  27.154  1.00  0.00     0.046 C 
ATOM     18  C   UNL A   1      34.329  22.765  25.889  1.00  0.00    -0.030 A 
ATOM     19  C   UNL A   1      35.569  23.426  26.034  1.00  0.00     0.008 A 
ATOM     20  C   UNL A   1      36.468  23.521  24.975  1.00  0.00     0.039 A 
ATOM     21  C   UNL A   1      34.896  22.357  23.558  1.00  0.00     0.061 A 
ATOM     22  C   UNL A   1      36.135  22.957  23.756  1.00  0.00     0.124 A 
ATOM     23  F   UNL A   1      37.023  22.985  22.753  1.00  0.00    -0.207 F 
ENDBRANCH  13  16
ENDBRANCH  11  13
ENDBRANCH   6  11
BRANCH  10  24
ATOM     24  N   UNL A   1      31.984  28.236  23.284  1.00  0.00    -0.377 N 
ATOM     25  C   UNL A   1      33.245  28.961  23.062  1.00  0.00     0.143 C 
ATOM     26  C   UNL A   1      30.784  28.999  22.946  1.00  0.00     0.143 C 
ENDBRANCH  10  24
ENDBRANCH   3   5
ENDBRANCH   2   3
ENDBRANCH   1   2
BRANCH   1  27
ATOM     27  C   UNL A   1      31.757  29.980  26.429  1.00  0.00     0.275 C 
BRANCH  27  28
ATOM     28  O   UNL A   1      33.104  30.462  26.286  1.00  0.00    -0.458 OA
BRANCH  28  29
ATOM     29  C   UNL A   1      33.420  31.496  27.108  1.00  0.00     0.338 C 
ATOM     30  O   UNL A   1      32.713  32.449  27.394  1.00  0.00    -0.246 OA
BRANCH  29  31
ATOM     31  C   UNL A   1      34.706  31.205  27.769  1.00  0.00     0.060 A 
ATOM     32  C   UNL A   1      34.928  29.894  28.192  1.00  0.00     0.016 A 
ATOM     33  C   UNL A   1      35.677  32.188  27.975  1.00  0.00     0.016 A 
ATOM     34  C   UNL A   1      36.137  29.551  28.792  1.00  0.00     0.010 A 
ATOM     35  C   UNL A   1      36.878  31.849  28.611  1.00  0.00     0.010 A 
ATOM     36  C   UNL A   1      37.114  30.527  29.020  1.00  0.00    -0.014 A 
BRANCH  36  37
ATOM     37  C   UNL A   1      38.303  30.173  29.829  1.00  0.00     0.031 A 
ATOM     38  C   UNL A   1      39.320  29.245  29.233  1.00  0.00     0.074 A 
ATOM     39  C   UNL A   1      38.520  30.728  31.035  1.00  0.00     0.049 A 
ATOM     40  N   UNL A   1      40.417  28.766  29.757  1.00  0.00    -0.248 NA
ATOM     41  C   UNL A   1      39.072  28.821  27.847  1.00  0.00     0.031 C 
ATOM     42  C   UNL A   1      37.674  31.742  31.661  1.00  0.00     0.029 A 
ATOM     43  N   UNL A   1      39.532  30.529  31.942  1.00  0.00    -0.354 N 
ATOM     44  C   UNL A   1      41.002  27.995  28.760  1.00  0.00     0.074 A 
ATOM     45  C   UNL A   1      40.127  28.059  27.609  1.00  0.00     0.031 C 
ATOM     46  C   UNL A   1      38.202  32.077  32.852  1.00  0.00     0.029 A 
ATOM     47  C   UNL A   1      39.391  31.260  33.099  1.00  0.00     0.049 A 
ATOM     48  H   UNL A   1      40.287  29.919  31.779  1.00  0.00     0.167 HD
ATOM     49  C   UNL A   1      42.159  27.291  28.803  1.00  0.00     0.034 A 
ATOM     50  C   UNL A   1      40.118  31.239  34.237  1.00  0.00     0.034 A 
ATOM     51  C   UNL A   1      42.979  27.170  29.981  1.00  0.00     0.049 A 
ATOM     52  C   UNL A   1      41.292  30.290  34.333  1.00  0.00     0.074 A 
ATOM     53  C   UNL A   1      44.113  26.401  30.172  1.00  0.00     0.029 A 
ATOM     54  N   UNL A   1      42.736  27.824  31.183  1.00  0.00    -0.354 N 
ATOM     55  N   UNL A   1      41.798  29.502  33.412  1.00  0.00    -0.248 NA
ATOM     56  C   UNL A   1      41.982  30.215  35.629  1.00  0.00     0.031 C 
ATOM     57  C   UNL A   1      44.513  26.534  31.508  1.00  0.00     0.029 A 
ATOM     58  C   UNL A   1      43.679  27.450  32.129  1.00  0.00     0.049 A 
ATOM     59  H   UNL A   1      42.003  28.461  31.341  1.00  0.00     0.167 HD
ATOM     60  C   UNL A   1      42.882  28.862  34.009  1.00  0.00     0.074 A 
ATOM     61  C   UNL A   1      42.961  29.361  35.367  1.00  0.00     0.031 C 
ATOM     62  C   UNL A   1      43.739  27.951  33.483  1.00  0.00     0.034 A 
BRANCH  49  63
ATOM     63  C   UNL A   1      42.520  26.521  27.558  1.00  0.00     0.023 A 
ATOM     64  C   UNL A   1      42.092  25.196  27.363  1.00  0.00     0.031 A 
ATOM     65  C   UNL A   1      43.389  27.082  26.607  1.00  0.00     0.131 A 
ATOM     66  C   UNL A   1      42.606  24.449  26.293  1.00  0.00     0.055 A 
ATOM     67  C   UNL A   1      43.831  26.359  25.498  1.00  0.00     0.041 A 
ATOM     68  F   UNL A   1      43.854  28.332  26.759  1.00  0.00    -0.206 F 
ATOM     69  C   UNL A   1      43.455  25.027  25.347  1.00  0.00     0.022 A 
BRANCH  66  70
ATOM     70  S   UNL A   1      42.296  22.661  26.260  1.00  0.00     0.124 S 
ATOM     71  O   UNL A   1      40.860  22.603  26.524  1.00  0.00    -0.237 OA
ATOM     72  O   UNL A   1      42.714  22.293  24.913  1.00  0.00    -0.237 OA
ATOM     73  O   UNL A   1      43.139  22.147  27.339  1.00  0.00    -0.744 OA
ENDBRANCH  66  70
ENDBRANCH  49  63
BRANCH  50  74
ATOM     74  C   UNL A   1      39.728  32.074  35.412  1.00  0.00     0.023 A 
ATOM     75  C   UNL A   1      38.916  31.557  36.435  1.00  0.00     0.031 A 
ATOM     76  C   UNL A   1      40.093  33.430  35.487  1.00  0.00     0.131 A 
ATOM     77  C   UNL A   1      38.462  32.401  37.463  1.00  0.00     0.055 A 
ATOM     78  C   UNL A   1      39.685  34.251  36.540  1.00  0.00     0.041 A 
ATOM     79  F   UNL A   1      40.856  33.982  34.530  1.00  0.00    -0.206 F 
ATOM     80  C   UNL A   1      38.852  33.740  37.529  1.00  0.00     0.022 A 
BRANCH  77  81
ATOM     81  S   UNL A   1      37.278  31.745  38.672  1.00  0.00     0.124 S 
ATOM     82  O   UNL A   1      37.090  30.380  38.190  1.00  0.00    -0.237 OA
ATOM     83  O   UNL A   1      38.011  31.890  39.925  1.00  0.00    -0.237 OA
ATOM     84  O   UNL A   1      36.119  32.623  38.526  1.00  0.00    -0.744 OA
ENDBRANCH  77  81
ENDBRANCH  50  74
BRANCH  62  85
ATOM     85  C   UNL A   1      44.869  27.472  34.363  1.00  0.00     0.023 A 
ATOM     86  C   UNL A   1      44.773  26.296  35.127  1.00  0.00     0.031 A 
ATOM     87  C   UNL A   1      46.071  28.203  34.421  1.00  0.00     0.131 A 
ATOM     88  C   UNL A   1      45.845  25.906  35.947  1.00  0.00     0.055 A 
ATOM     89  C   UNL A   1      47.151  27.782  35.197  1.00  0.00     0.041 A 
ATOM     90  F   UNL A   1      46.216  29.334  33.713  1.00  0.00    -0.206 F 
ATOM     91  C   UNL A   1      47.039  26.632  35.973  1.00  0.00     0.022 A 
BRANCH  88  92
ATOM     92  S   UNL A   1      45.636  24.469  37.034  1.00  0.00     0.124 S 
ATOM     93  O   UNL A   1      44.863  23.561  36.194  1.00  0.00    -0.237 OA
ATOM     94  O   UNL A   1      47.016  24.073  37.298  1.00  0.00    -0.237 OA
ATOM     95  O   UNL A   1      44.918  25.011  38.187  1.00  0.00    -0.744 OA
ENDBRANCH  88  92
ENDBRANCH  62  85
ENDBRANCH  36  37
ENDBRANCH  29  31
ENDBRANCH  28  29
ENDBRANCH  27  28
ENDBRANCH   1  27
TORSDOF 18
ENDMDL
