MODEL 1
REMARK VINA RESULT:     -13.8      0.000      0.000
REMARK SMILES Cc1ccc(S(=O)(=O)N2c3ccc(C(=O)OCCOC(=O)c4ccc(-c5c6nc(c(-c7cc(S(=O)(=O)[O-])ccc7F)c7ccc([nH]7)c(-c7cc(S(=O)(=O)[O-])ccc7F)c7nc(c(-c8cc(S(=O)(=O)[O-])ccc8F)c8ccc5[nH]8)C=C7)C=C6)cc4)cc3C[C@H]2C)cc1
REMARK SMILES IDX 18 1 17 2 16 3 14 4 15 5 13 6 9 7 10 8 88 9 11 10 86 11
REMARK SMILES IDX 87 12 89 13 12 14 85 15 6 16 7 17 8 18 5 19 1 20 2 21 3 22
REMARK SMILES IDX 91 23 4 24 90 25 19 26 20 27 21 28 22 29 23 30 84 31 24 32
REMARK SMILES IDX 83 33 25 34 26 35 27 36 77 37 28 38 82 39 76 40 78 41 29 42
REMARK SMILES IDX 81 43 75 44 74 45 30 47 62 48 42 49 61 50 43 51 46 52 60 53
REMARK SMILES IDX 79 54 44 55 45 56 59 58 80 59 47 60 31 61 32 62 40 63 33 64
REMARK SMILES IDX 39 65 41 66 38 67 34 68 35 69 36 70 37 71 63 72 64 73 72 74
REMARK SMILES IDX 65 75 71 76 73 77 70 78 66 79 67 80 68 81 69 82 48 83 49 84
REMARK SMILES IDX 57 85 50 86 56 87 58 88 55 89 51 90 52 91 53 92 54 93
REMARK H PARENT 78 46 46 57
REMARK Flexibility Score: inf
ROOT
ATOM      1  C   UNL A   1      33.377  29.884  27.288  1.00  0.00     0.275 C 
ENDROOT
BRANCH   1   2
ATOM      2  C   UNL A   1      32.534  30.130  26.028  1.00  0.00     0.275 C 
BRANCH   2   3
ATOM      3  O   UNL A   1      32.070  28.941  25.372  1.00  0.00    -0.458 OA
BRANCH   3   4
ATOM      4  C   UNL A   1      32.917  28.565  24.377  1.00  0.00     0.338 C 
ATOM      5  O   UNL A   1      33.235  29.261  23.422  1.00  0.00    -0.246 OA
BRANCH   4   6
ATOM      6  C   UNL A   1      33.334  27.147  24.458  1.00  0.00     0.060 A 
ATOM      7  N   UNL A   1      34.351  23.085  24.863  1.00  0.00    -0.263 N 
ATOM      8  C   UNL A   1      33.953  24.472  24.860  1.00  0.00     0.055 A 
ATOM      9  C   UNL A   1      34.749  22.813  23.420  1.00  0.00     0.101 C 
ATOM     10  C   UNL A   1      33.713  25.264  25.965  1.00  0.00     0.028 A 
ATOM     11  C   UNL A   1      33.880  24.992  23.566  1.00  0.00    -0.021 A 
ATOM     12  C   UNL A   1      34.045  23.892  22.565  1.00  0.00     0.063 C 
ATOM     13  C   UNL A   1      36.276  22.959  23.319  1.00  0.00     0.032 C 
ATOM     14  C   UNL A   1      33.371  26.598  25.756  1.00  0.00     0.018 A 
ATOM     15  C   UNL A   1      33.607  26.339  23.345  1.00  0.00     0.021 A 
BRANCH   7  16
ATOM     16  S   UNL A   1      33.145  22.048  25.537  1.00  0.00     0.264 S 
ATOM     17  O   UNL A   1      31.844  22.529  25.089  1.00  0.00    -0.201 OA
ATOM     18  O   UNL A   1      33.436  21.850  26.933  1.00  0.00    -0.201 OA
BRANCH  16  19
ATOM     19  C   UNL A   1      33.352  20.434  24.795  1.00  0.00     0.088 A 
ATOM     20  C   UNL A   1      34.020  16.450  23.299  1.00  0.00     0.044 C 
ATOM     21  C   UNL A   1      33.797  17.848  23.792  1.00  0.00    -0.051 A 
ATOM     22  C   UNL A   1      34.794  18.500  24.525  1.00  0.00     0.005 A 
ATOM     23  C   UNL A   1      32.599  18.520  23.527  1.00  0.00     0.005 A 
ATOM     24  C   UNL A   1      34.573  19.785  25.026  1.00  0.00     0.022 A 
ATOM     25  C   UNL A   1      32.379  19.810  24.019  1.00  0.00     0.022 A 
ENDBRANCH  16  19
ENDBRANCH   7  16
ENDBRANCH   4   6
ENDBRANCH   3   4
ENDBRANCH   2   3
ENDBRANCH   1   2
BRANCH   1  26
ATOM     26  O   UNL A   1      34.823  29.760  27.238  1.00  0.00    -0.458 OA
BRANCH  26  27
ATOM     27  C   UNL A   1      35.658  30.667  27.807  1.00  0.00     0.338 C 
ATOM     28  O   UNL A   1      35.326  31.820  28.039  1.00  0.00    -0.246 OA
BRANCH  27  29
ATOM     29  C   UNL A   1      36.953  30.086  28.231  1.00  0.00     0.060 A 
ATOM     30  C   UNL A   1      37.001  29.331  29.414  1.00  0.00     0.016 A 
ATOM     31  C   UNL A   1      38.019  30.083  27.340  1.00  0.00     0.016 A 
ATOM     32  C   UNL A   1      38.046  28.442  29.631  1.00  0.00     0.010 A 
ATOM     33  C   UNL A   1      38.977  29.114  27.478  1.00  0.00     0.010 A 
ATOM     34  C   UNL A   1      39.007  28.316  28.634  1.00  0.00    -0.014 A 
BRANCH  34  35
ATOM     35  C   UNL A   1      40.279  27.645  28.810  1.00  0.00     0.031 A 
ATOM     36  C   UNL A   1      40.530  26.251  28.416  1.00  0.00     0.074 A 
ATOM     37  C   UNL A   1      41.233  28.510  29.221  1.00  0.00     0.049 A 
ATOM     38  N   UNL A   1      41.584  25.608  28.772  1.00  0.00    -0.248 NA
ATOM     39  C   UNL A   1      39.629  25.426  27.615  1.00  0.00     0.031 C 
ATOM     40  C   UNL A   1      42.680  28.435  29.185  1.00  0.00     0.029 A 
ATOM     41  N   UNL A   1      41.007  29.701  29.892  1.00  0.00    -0.354 N 
ATOM     42  C   UNL A   1      41.670  24.463  28.008  1.00  0.00     0.074 A 
ATOM     43  C   UNL A   1      40.379  24.336  27.383  1.00  0.00     0.031 C 
ATOM     44  C   UNL A   1      43.178  29.359  30.034  1.00  0.00     0.029 A 
ATOM     45  C   UNL A   1      42.051  29.933  30.763  1.00  0.00     0.049 A 
ATOM     46  H   UNL A   1      40.226  30.288  29.769  1.00  0.00     0.167 HD
ATOM     47  C   UNL A   1      42.893  23.871  27.895  1.00  0.00     0.034 A 
ATOM     48  C   UNL A   1      41.815  29.777  32.103  1.00  0.00     0.034 A 
ATOM     49  C   UNL A   1      43.852  24.568  28.746  1.00  0.00     0.049 A 
ATOM     50  C   UNL A   1      42.611  28.609  32.641  1.00  0.00     0.074 A 
ATOM     51  C   UNL A   1      44.773  25.569  28.489  1.00  0.00     0.029 A 
ATOM     52  N   UNL A   1      43.676  24.525  30.118  1.00  0.00    -0.354 N 
ATOM     53  N   UNL A   1      42.893  27.525  31.968  1.00  0.00    -0.248 NA
ATOM     54  C   UNL A   1      43.249  28.653  33.946  1.00  0.00     0.031 C 
ATOM     55  C   UNL A   1      45.104  26.171  29.731  1.00  0.00     0.029 A 
ATOM     56  C   UNL A   1      44.400  25.522  30.732  1.00  0.00     0.049 A 
ATOM     57  H   UNL A   1      43.112  23.870  30.591  1.00  0.00     0.167 HD
ATOM     58  C   UNL A   1      43.808  26.783  32.675  1.00  0.00     0.074 A 
ATOM     59  C   UNL A   1      43.981  27.528  33.912  1.00  0.00     0.031 C 
ATOM     60  C   UNL A   1      44.390  25.645  32.178  1.00  0.00     0.034 A 
BRANCH  47  61
ATOM     61  C   UNL A   1      43.343  22.863  26.867  1.00  0.00     0.023 A 
ATOM     62  C   UNL A   1      42.783  21.565  26.932  1.00  0.00     0.031 A 
ATOM     63  C   UNL A   1      44.282  23.064  25.843  1.00  0.00     0.131 A 
ATOM     64  C   UNL A   1      43.182  20.530  26.071  1.00  0.00     0.055 A 
ATOM     65  C   UNL A   1      44.689  22.027  24.980  1.00  0.00     0.041 A 
ATOM     66  F   UNL A   1      44.821  24.266  25.608  1.00  0.00    -0.206 F 
ATOM     67  C   UNL A   1      44.145  20.751  25.096  1.00  0.00     0.022 A 
BRANCH  64  68
ATOM     68  S   UNL A   1      42.422  18.895  26.275  1.00  0.00     0.124 S 
ATOM     69  O   UNL A   1      42.486  18.703  27.720  1.00  0.00    -0.237 OA
ATOM     70  O   UNL A   1      41.092  19.094  25.710  1.00  0.00    -0.237 OA
ATOM     71  O   UNL A   1      43.297  18.016  25.498  1.00  0.00    -0.744 OA
ENDBRANCH  64  68
ENDBRANCH  47  61
BRANCH  48  72
ATOM     72  C   UNL A   1      40.420  30.157  32.528  1.00  0.00     0.023 A 
ATOM     73  C   UNL A   1      39.970  31.459  32.202  1.00  0.00     0.031 A 
ATOM     74  C   UNL A   1      39.444  29.222  32.899  1.00  0.00     0.131 A 
ATOM     75  C   UNL A   1      38.600  31.739  32.081  1.00  0.00     0.055 A 
ATOM     76  C   UNL A   1      38.072  29.532  32.856  1.00  0.00     0.041 A 
ATOM     77  F   UNL A   1      39.782  27.963  33.213  1.00  0.00    -0.206 F 
ATOM     78  C   UNL A   1      37.643  30.782  32.410  1.00  0.00     0.022 A 
BRANCH  75  79
ATOM     79  S   UNL A   1      38.112  33.259  31.207  1.00  0.00     0.124 S 
ATOM     80  O   UNL A   1      36.733  33.437  31.646  1.00  0.00    -0.237 OA
ATOM     81  O   UNL A   1      39.078  34.230  31.718  1.00  0.00    -0.237 OA
ATOM     82  O   UNL A   1      38.285  32.916  29.799  1.00  0.00    -0.744 OA
ENDBRANCH  75  79
ENDBRANCH  48  72
BRANCH  60  83
ATOM     83  C   UNL A   1      45.104  24.579  32.986  1.00  0.00     0.023 A 
ATOM     84  C   UNL A   1      46.398  24.745  33.477  1.00  0.00     0.031 A 
ATOM     85  C   UNL A   1      44.470  23.365  33.366  1.00  0.00     0.131 A 
ATOM     86  C   UNL A   1      47.051  23.732  34.194  1.00  0.00     0.055 A 
ATOM     87  C   UNL A   1      45.084  22.397  34.166  1.00  0.00     0.041 A 
ATOM     88  F   UNL A   1      43.215  23.062  33.007  1.00  0.00    -0.206 F 
ATOM     89  C   UNL A   1      46.396  22.565  34.567  1.00  0.00     0.022 A 
BRANCH  86  90
ATOM     90  S   UNL A   1      48.809  23.966  34.536  1.00  0.00     0.124 S 
ATOM     91  O   UNL A   1      49.232  22.607  34.866  1.00  0.00    -0.237 OA
ATOM     92  O   UNL A   1      49.308  24.490  33.269  1.00  0.00    -0.237 OA
ATOM     93  O   UNL A   1      48.819  24.909  35.651  1.00  0.00    -0.744 OA
ENDBRANCH  86  90
ENDBRANCH  60  83
ENDBRANCH  34  35
ENDBRANCH  27  29
ENDBRANCH  26  27
ENDBRANCH   1  26
TORSDOF 16
ENDMDL
MODEL 2
REMARK VINA RESULT:     -13.6      1.403      1.660
REMARK SMILES Cc1ccc(S(=O)(=O)N2c3ccc(C(=O)OCCOC(=O)c4ccc(-c5c6nc(c(-c7cc(S(=O)(=O)[O-])ccc7F)c7ccc([nH]7)c(-c7cc(S(=O)(=O)[O-])ccc7F)c7nc(c(-c8cc(S(=O)(=O)[O-])ccc8F)c8ccc5[nH]8)C=C7)C=C6)cc4)cc3C[C@H]2C)cc1
REMARK SMILES IDX 18 1 17 2 16 3 14 4 15 5 13 6 9 7 10 8 88 9 11 10 86 11
REMARK SMILES IDX 87 12 89 13 12 14 85 15 6 16 7 17 8 18 5 19 1 20 2 21 3 22
REMARK SMILES IDX 91 23 4 24 90 25 19 26 20 27 21 28 22 29 23 30 84 31 24 32
REMARK SMILES IDX 83 33 25 34 26 35 27 36 77 37 28 38 82 39 76 40 78 41 29 42
REMARK SMILES IDX 81 43 75 44 74 45 30 47 62 48 42 49 61 50 43 51 46 52 60 53
REMARK SMILES IDX 79 54 44 55 45 56 59 58 80 59 47 60 31 61 32 62 40 63 33 64
REMARK SMILES IDX 39 65 41 66 38 67 34 68 35 69 36 70 37 71 63 72 64 73 72 74
REMARK SMILES IDX 65 75 71 76 73 77 70 78 66 79 67 80 68 81 69 82 48 83 49 84
REMARK SMILES IDX 57 85 50 86 56 87 58 88 55 89 51 90 52 91 53 92 54 93
REMARK H PARENT 78 46 46 57
REMARK Flexibility Score: inf
ROOT
ATOM      1  C   UNL A   1      32.900  30.462  27.073  1.00  0.00     0.275 C 
ENDROOT
BRANCH   1   2
ATOM      2  C   UNL A   1      32.365  30.007  25.705  1.00  0.00     0.275 C 
BRANCH   2   3
ATOM      3  O   UNL A   1      33.325  29.337  24.875  1.00  0.00    -0.458 OA
BRANCH   3   4
ATOM      4  C   UNL A   1      32.724  28.429  24.061  1.00  0.00     0.338 C 
ATOM      5  O   UNL A   1      31.759  28.657  23.343  1.00  0.00    -0.246 OA
BRANCH   4   6
ATOM      6  C   UNL A   1      33.249  27.054  24.216  1.00  0.00     0.060 A 
ATOM      7  N   UNL A   1      34.593  23.118  24.852  1.00  0.00    -0.263 N 
ATOM      8  C   UNL A   1      34.097  24.472  24.775  1.00  0.00     0.055 A 
ATOM      9  C   UNL A   1      34.859  22.740  23.403  1.00  0.00     0.101 C 
ATOM     10  C   UNL A   1      33.916  25.345  25.828  1.00  0.00     0.028 A 
ATOM     11  C   UNL A   1      33.854  24.865  23.457  1.00  0.00    -0.021 A 
ATOM     12  C   UNL A   1      33.995  23.689  22.541  1.00  0.00     0.063 C 
ATOM     13  C   UNL A   1      36.353  22.972  23.124  1.00  0.00     0.032 C 
ATOM     14  C   UNL A   1      33.459  26.631  25.545  1.00  0.00     0.018 A 
ATOM     15  C   UNL A   1      33.463  26.165  23.153  1.00  0.00     0.021 A 
BRANCH   7  16
ATOM     16  S   UNL A   1      33.540  22.075  25.739  1.00  0.00     0.264 S 
ATOM     17  O   UNL A   1      32.176  22.552  25.550  1.00  0.00    -0.201 OA
ATOM     18  O   UNL A   1      34.093  21.871  27.053  1.00  0.00    -0.201 OA
BRANCH  16  19
ATOM     19  C   UNL A   1      33.606  20.464  24.963  1.00  0.00     0.088 A 
ATOM     20  C   UNL A   1      33.959  16.479  23.365  1.00  0.00     0.044 C 
ATOM     21  C   UNL A   1      33.844  17.878  23.893  1.00  0.00    -0.051 A 
ATOM     22  C   UNL A   1      34.935  18.481  24.525  1.00  0.00     0.005 A 
ATOM     23  C   UNL A   1      32.652  18.599  23.761  1.00  0.00     0.005 A 
ATOM     24  C   UNL A   1      34.818  19.767  25.059  1.00  0.00     0.022 A 
ATOM     25  C   UNL A   1      32.535  19.889  24.286  1.00  0.00     0.022 A 
ENDBRANCH  16  19
ENDBRANCH   7  16
ENDBRANCH   4   6
ENDBRANCH   3   4
ENDBRANCH   2   3
ENDBRANCH   1   2
BRANCH   1  26
ATOM     26  O   UNL A   1      34.264  30.197  27.495  1.00  0.00    -0.458 OA
BRANCH  26  27
ATOM     27  C   UNL A   1      34.920  30.979  28.390  1.00  0.00     0.338 C 
ATOM     28  O   UNL A   1      34.392  31.926  28.955  1.00  0.00    -0.246 OA
BRANCH  27  29
ATOM     29  C   UNL A   1      36.284  30.495  28.702  1.00  0.00     0.060 A 
ATOM     30  C   UNL A   1      36.490  29.772  29.888  1.00  0.00     0.016 A 
ATOM     31  C   UNL A   1      37.262  30.541  27.716  1.00  0.00     0.016 A 
ATOM     32  C   UNL A   1      37.609  28.958  30.022  1.00  0.00     0.010 A 
ATOM     33  C   UNL A   1      38.292  29.640  27.781  1.00  0.00     0.010 A 
ATOM     34  C   UNL A   1      38.481  28.873  28.943  1.00  0.00    -0.014 A 
BRANCH  34  35
ATOM     35  C   UNL A   1      39.806  28.291  29.012  1.00  0.00     0.031 A 
ATOM     36  C   UNL A   1      40.107  26.896  28.657  1.00  0.00     0.074 A 
ATOM     37  C   UNL A   1      40.738  29.233  29.280  1.00  0.00     0.049 A 
ATOM     38  N   UNL A   1      41.232  26.339  28.927  1.00  0.00    -0.248 NA
ATOM     39  C   UNL A   1      39.184  25.978  27.995  1.00  0.00     0.031 C 
ATOM     40  C   UNL A   1      42.176  29.245  29.092  1.00  0.00     0.029 A 
ATOM     41  N   UNL A   1      40.505  30.442  29.916  1.00  0.00    -0.354 N 
ATOM     42  C   UNL A   1      41.315  25.163  28.211  1.00  0.00     0.074 A 
ATOM     43  C   UNL A   1      39.977  24.925  27.734  1.00  0.00     0.031 C 
ATOM     44  C   UNL A   1      42.697  30.241  29.840  1.00  0.00     0.029 A 
ATOM     45  C   UNL A   1      41.616  30.782  30.659  1.00  0.00     0.049 A 
ATOM     46  H   UNL A   1      39.678  30.972  29.851  1.00  0.00     0.167 HD
ATOM     47  C   UNL A   1      42.556  24.642  27.995  1.00  0.00     0.034 A 
ATOM     48  C   UNL A   1      41.531  30.682  32.022  1.00  0.00     0.034 A 
ATOM     49  C   UNL A   1      43.549  25.440  28.706  1.00  0.00     0.049 A 
ATOM     50  C   UNL A   1      42.454  29.594  32.525  1.00  0.00     0.074 A 
ATOM     51  C   UNL A   1      44.370  26.480  28.307  1.00  0.00     0.029 A 
ATOM     52  N   UNL A   1      43.520  25.456  30.090  1.00  0.00    -0.354 N 
ATOM     53  N   UNL A   1      42.736  28.496  31.874  1.00  0.00    -0.248 NA
ATOM     54  C   UNL A   1      43.220  29.744  33.751  1.00  0.00     0.031 C 
ATOM     55  C   UNL A   1      44.788  27.165  29.478  1.00  0.00     0.029 A 
ATOM     56  C   UNL A   1      44.236  26.527  30.577  1.00  0.00     0.049 A 
ATOM     57  H   UNL A   1      43.052  24.794  30.649  1.00  0.00     0.167 HD
ATOM     58  C   UNL A   1      43.766  27.848  32.513  1.00  0.00     0.074 A 
ATOM     59  C   UNL A   1      44.017  28.666  33.689  1.00  0.00     0.031 C 
ATOM     60  C   UNL A   1      44.368  26.724  32.009  1.00  0.00     0.034 A 
BRANCH  47  61
ATOM     61  C   UNL A   1      42.963  23.611  26.971  1.00  0.00     0.023 A 
ATOM     62  C   UNL A   1      42.366  22.331  27.056  1.00  0.00     0.031 A 
ATOM     63  C   UNL A   1      43.893  23.774  25.933  1.00  0.00     0.131 A 
ATOM     64  C   UNL A   1      42.723  21.276  26.201  1.00  0.00     0.055 A 
ATOM     65  C   UNL A   1      44.258  22.717  25.076  1.00  0.00     0.041 A 
ATOM     66  F   UNL A   1      44.464  24.958  25.679  1.00  0.00    -0.206 F 
ATOM     67  C   UNL A   1      43.679  21.459  25.212  1.00  0.00     0.022 A 
BRANCH  64  68
ATOM     68  S   UNL A   1      41.918  19.666  26.431  1.00  0.00     0.124 S 
ATOM     69  O   UNL A   1      40.510  19.994  26.235  1.00  0.00    -0.237 OA
ATOM     70  O   UNL A   1      42.541  18.852  25.393  1.00  0.00    -0.237 OA
ATOM     71  O   UNL A   1      42.280  19.300  27.801  1.00  0.00    -0.744 OA
ENDBRANCH  64  68
ENDBRANCH  47  61
BRANCH  48  72
ATOM     72  C   UNL A   1      40.165  30.997  32.576  1.00  0.00     0.023 A 
ATOM     73  C   UNL A   1      39.554  32.203  32.157  1.00  0.00     0.031 A 
ATOM     74  C   UNL A   1      39.338  30.041  33.182  1.00  0.00     0.131 A 
ATOM     75  C   UNL A   1      38.157  32.349  32.183  1.00  0.00     0.055 A 
ATOM     76  C   UNL A   1      37.947  30.228  33.281  1.00  0.00     0.041 A 
ATOM     77  F   UNL A   1      39.834  28.868  33.599  1.00  0.00    -0.206 F 
ATOM     78  C   UNL A   1      37.346  31.368  32.747  1.00  0.00     0.022 A 
BRANCH  75  79
ATOM     79  S   UNL A   1      37.421  33.695  31.203  1.00  0.00     0.124 S 
ATOM     80  O   UNL A   1      38.060  34.875  31.774  1.00  0.00    -0.237 OA
ATOM     81  O   UNL A   1      37.827  33.341  29.844  1.00  0.00    -0.237 OA
ATOM     82  O   UNL A   1      35.991  33.566  31.462  1.00  0.00    -0.744 OA
ENDBRANCH  75  79
ENDBRANCH  48  72
BRANCH  60  83
ATOM     83  C   UNL A   1      45.231  25.747  32.782  1.00  0.00     0.023 A 
ATOM     84  C   UNL A   1      44.699  24.680  33.506  1.00  0.00     0.031 A 
ATOM     85  C   UNL A   1      46.651  25.805  32.758  1.00  0.00     0.131 A 
ATOM     86  C   UNL A   1      45.515  23.808  34.242  1.00  0.00     0.055 A 
ATOM     87  C   UNL A   1      47.468  24.876  33.408  1.00  0.00     0.041 A 
ATOM     88  F   UNL A   1      47.323  26.746  32.081  1.00  0.00    -0.206 F 
ATOM     89  C   UNL A   1      46.900  23.879  34.179  1.00  0.00     0.022 A 
BRANCH  86  90
ATOM     90  S   UNL A   1      44.689  22.642  35.347  1.00  0.00     0.124 S 
ATOM     91  O   UNL A   1      43.283  22.979  35.139  1.00  0.00    -0.237 OA
ATOM     92  O   UNL A   1      45.113  21.351  34.813  1.00  0.00    -0.237 OA
ATOM     93  O   UNL A   1      45.223  22.980  36.664  1.00  0.00    -0.744 OA
ENDBRANCH  86  90
ENDBRANCH  60  83
ENDBRANCH  34  35
ENDBRANCH  27  29
ENDBRANCH  26  27
ENDBRANCH   1  26
TORSDOF 16
ENDMDL
MODEL 3
REMARK VINA RESULT:     -13.6      3.914      5.408
REMARK SMILES Cc1ccc(S(=O)(=O)N2c3ccc(C(=O)OCCOC(=O)c4ccc(-c5c6nc(c(-c7cc(S(=O)(=O)[O-])ccc7F)c7ccc([nH]7)c(-c7cc(S(=O)(=O)[O-])ccc7F)c7nc(c(-c8cc(S(=O)(=O)[O-])ccc8F)c8ccc5[nH]8)C=C7)C=C6)cc4)cc3C[C@H]2C)cc1
REMARK SMILES IDX 18 1 17 2 16 3 14 4 15 5 13 6 9 7 10 8 88 9 11 10 86 11
REMARK SMILES IDX 87 12 89 13 12 14 85 15 6 16 7 17 8 18 5 19 1 20 2 21 3 22
REMARK SMILES IDX 91 23 4 24 90 25 19 26 20 27 21 28 22 29 23 30 84 31 24 32
REMARK SMILES IDX 83 33 25 34 26 35 27 36 77 37 28 38 82 39 76 40 78 41 29 42
REMARK SMILES IDX 81 43 75 44 74 45 30 47 62 48 42 49 61 50 43 51 46 52 60 53
REMARK SMILES IDX 79 54 44 55 45 56 59 58 80 59 47 60 31 61 32 62 40 63 33 64
REMARK SMILES IDX 39 65 41 66 38 67 34 68 35 69 36 70 37 71 63 72 64 73 72 74
REMARK SMILES IDX 65 75 71 76 73 77 70 78 66 79 67 80 68 81 69 82 48 83 49 84
REMARK SMILES IDX 57 85 50 86 56 87 58 88 55 89 51 90 52 91 53 92 54 93
REMARK H PARENT 78 46 46 57
REMARK Flexibility Score: inf
ROOT
ATOM      1  C   UNL A   1      31.215  31.425  26.068  1.00  0.00     0.275 C 
ENDROOT
BRANCH   1   2
ATOM      2  C   UNL A   1      31.411  30.172  25.200  1.00  0.00     0.275 C 
BRANCH   2   3
ATOM      3  O   UNL A   1      31.532  28.944  25.933  1.00  0.00    -0.458 OA
BRANCH   3   4
ATOM      4  C   UNL A   1      32.824  28.525  25.982  1.00  0.00     0.338 C 
ATOM      5  O   UNL A   1      33.804  29.260  25.963  1.00  0.00    -0.246 OA
BRANCH   4   6
ATOM      6  C   UNL A   1      32.975  27.055  25.915  1.00  0.00     0.060 A 
ATOM      7  N   UNL A   1      33.158  22.857  25.693  1.00  0.00    -0.263 N 
ATOM      8  C   UNL A   1      32.957  24.282  25.811  1.00  0.00     0.055 A 
ATOM      9  C   UNL A   1      34.536  22.731  25.060  1.00  0.00     0.101 C 
ATOM     10  C   UNL A   1      31.959  24.918  26.520  1.00  0.00     0.028 A 
ATOM     11  C   UNL A   1      33.952  25.006  25.151  1.00  0.00    -0.021 A 
ATOM     12  C   UNL A   1      34.814  24.078  24.354  1.00  0.00     0.063 C 
ATOM     13  C   UNL A   1      35.551  22.497  26.190  1.00  0.00     0.032 C 
ATOM     14  C   UNL A   1      31.954  26.311  26.542  1.00  0.00     0.018 A 
ATOM     15  C   UNL A   1      33.999  26.395  25.221  1.00  0.00     0.021 A 
BRANCH   7  16
ATOM     16  S   UNL A   1      31.859  22.068  24.872  1.00  0.00     0.264 S 
ATOM     17  O   UNL A   1      31.697  22.710  23.574  1.00  0.00    -0.201 OA
ATOM     18  O   UNL A   1      30.756  21.926  25.787  1.00  0.00    -0.201 OA
BRANCH  16  19
ATOM     19  C   UNL A   1      32.383  20.393  24.527  1.00  0.00     0.088 A 
ATOM     20  C   UNL A   1      33.754  16.473  23.384  1.00  0.00     0.044 C 
ATOM     21  C   UNL A   1      33.250  17.825  23.791  1.00  0.00    -0.051 A 
ATOM     22  C   UNL A   1      32.630  18.654  22.852  1.00  0.00     0.005 A 
ATOM     23  C   UNL A   1      33.388  18.275  25.109  1.00  0.00     0.005 A 
ATOM     24  C   UNL A   1      32.200  19.932  23.215  1.00  0.00     0.022 A 
ATOM     25  C   UNL A   1      32.950  19.550  25.478  1.00  0.00     0.022 A 
ENDBRANCH  16  19
ENDBRANCH   7  16
ENDBRANCH   4   6
ENDBRANCH   3   4
ENDBRANCH   2   3
ENDBRANCH   1   2
BRANCH   1  26
ATOM     26  O   UNL A   1      31.932  31.620  27.315  1.00  0.00    -0.458 OA
BRANCH  26  27
ATOM     27  C   UNL A   1      32.610  32.761  27.603  1.00  0.00     0.338 C 
ATOM     28  O   UNL A   1      32.062  33.847  27.713  1.00  0.00    -0.246 OA
BRANCH  27  29
ATOM     29  C   UNL A   1      34.044  32.533  27.892  1.00  0.00     0.060 A 
ATOM     30  C   UNL A   1      34.952  33.581  27.678  1.00  0.00     0.016 A 
ATOM     31  C   UNL A   1      34.421  31.395  28.596  1.00  0.00     0.016 A 
ATOM     32  C   UNL A   1      36.192  33.569  28.308  1.00  0.00     0.010 A 
ATOM     33  C   UNL A   1      35.578  31.439  29.328  1.00  0.00     0.010 A 
ATOM     34  C   UNL A   1      36.474  32.508  29.161  1.00  0.00    -0.014 A 
BRANCH  34  35
ATOM     35  C   UNL A   1      37.794  32.210  29.680  1.00  0.00     0.031 A 
ATOM     36  C   UNL A   1      38.567  31.016  29.311  1.00  0.00     0.074 A 
ATOM     37  C   UNL A   1      38.276  33.245  30.404  1.00  0.00     0.049 A 
ATOM     38  N   UNL A   1      39.631  30.658  29.936  1.00  0.00    -0.248 NA
ATOM     39  C   UNL A   1      38.226  30.090  28.234  1.00  0.00     0.031 C 
ATOM     40  C   UNL A   1      39.626  33.592  30.804  1.00  0.00     0.029 A 
ATOM     41  N   UNL A   1      37.514  34.215  31.034  1.00  0.00    -0.354 N 
ATOM     42  C   UNL A   1      40.278  29.704  29.178  1.00  0.00     0.074 A 
ATOM     43  C   UNL A   1      39.314  29.303  28.185  1.00  0.00     0.031 C 
ATOM     44  C   UNL A   1      39.557  34.491  31.808  1.00  0.00     0.029 A 
ATOM     45  C   UNL A   1      38.153  34.610  32.190  1.00  0.00     0.049 A 
ATOM     46  H   UNL A   1      36.652  34.565  30.709  1.00  0.00     0.167 HD
ATOM     47  C   UNL A   1      41.606  29.508  29.411  1.00  0.00     0.034 A 
ATOM     48  C   UNL A   1      37.622  34.206  33.386  1.00  0.00     0.034 A 
ATOM     49  C   UNL A   1      42.027  30.323  30.546  1.00  0.00     0.049 A 
ATOM     50  C   UNL A   1      38.566  33.250  34.080  1.00  0.00     0.074 A 
ATOM     51  C   UNL A   1      42.620  31.571  30.630  1.00  0.00     0.029 A 
ATOM     52  N   UNL A   1      41.506  30.038  31.797  1.00  0.00    -0.354 N 
ATOM     53  N   UNL A   1      39.347  32.398  33.471  1.00  0.00    -0.248 NA
ATOM     54  C   UNL A   1      38.777  33.290  35.518  1.00  0.00     0.031 C 
ATOM     55  C   UNL A   1      42.393  32.062  31.944  1.00  0.00     0.029 A 
ATOM     56  C   UNL A   1      41.684  31.104  32.650  1.00  0.00     0.049 A 
ATOM     57  H   UNL A   1      41.071  29.190  32.042  1.00  0.00     0.167 HD
ATOM     58  C   UNL A   1      40.219  31.856  34.383  1.00  0.00     0.074 A 
ATOM     59  C   UNL A   1      39.805  32.438  35.650  1.00  0.00     0.031 C 
ATOM     60  C   UNL A   1      41.242  31.013  34.030  1.00  0.00     0.034 A 
BRANCH  47  61
ATOM     61  C   UNL A   1      42.613  28.826  28.518  1.00  0.00     0.023 A 
ATOM     62  C   UNL A   1      42.613  27.411  28.491  1.00  0.00     0.031 A 
ATOM     63  C   UNL A   1      43.577  29.444  27.707  1.00  0.00     0.131 A 
ATOM     64  C   UNL A   1      43.551  26.673  27.752  1.00  0.00     0.055 A 
ATOM     65  C   UNL A   1      44.524  28.708  26.968  1.00  0.00     0.041 A 
ATOM     66  F   UNL A   1      43.630  30.774  27.565  1.00  0.00    -0.206 F 
ATOM     67  C   UNL A   1      44.520  27.317  26.993  1.00  0.00     0.022 A 
BRANCH  64  68
ATOM     68  S   UNL A   1      43.479  24.862  27.826  1.00  0.00     0.124 S 
ATOM     69  O   UNL A   1      44.734  24.529  28.490  1.00  0.00    -0.237 OA
ATOM     70  O   UNL A   1      42.261  24.627  28.594  1.00  0.00    -0.237 OA
ATOM     71  O   UNL A   1      43.404  24.468  26.418  1.00  0.00    -0.744 OA
ENDBRANCH  64  68
ENDBRANCH  47  61
BRANCH  48  72
ATOM     72  C   UNL A   1      36.118  34.108  33.387  1.00  0.00     0.023 A 
ATOM     73  C   UNL A   1      35.385  35.317  33.461  1.00  0.00     0.031 A 
ATOM     74  C   UNL A   1      35.418  32.964  32.978  1.00  0.00     0.131 A 
ATOM     75  C   UNL A   1      34.072  35.395  32.971  1.00  0.00     0.055 A 
ATOM     76  C   UNL A   1      34.075  33.031  32.565  1.00  0.00     0.041 A 
ATOM     77  F   UNL A   1      36.038  31.781  32.871  1.00  0.00    -0.206 F 
ATOM     78  C   UNL A   1      33.407  34.255  32.524  1.00  0.00     0.022 A 
BRANCH  75  79
ATOM     79  S   UNL A   1      33.375  37.046  32.654  1.00  0.00     0.124 S 
ATOM     80  O   UNL A   1      34.107  37.876  33.604  1.00  0.00    -0.237 OA
ATOM     81  O   UNL A   1      33.698  37.249  31.243  1.00  0.00    -0.237 OA
ATOM     82  O   UNL A   1      31.952  36.877  32.931  1.00  0.00    -0.744 OA
ENDBRANCH  75  79
ENDBRANCH  48  72
BRANCH  60  83
ATOM     83  C   UNL A   1      42.006  30.093  34.960  1.00  0.00     0.023 A 
ATOM     84  C   UNL A   1      41.637  28.766  35.180  1.00  0.00     0.031 A 
ATOM     85  C   UNL A   1      43.202  30.497  35.614  1.00  0.00     0.131 A 
ATOM     86  C   UNL A   1      42.340  27.943  36.071  1.00  0.00     0.055 A 
ATOM     87  C   UNL A   1      43.960  29.647  36.423  1.00  0.00     0.041 A 
ATOM     88  F   UNL A   1      43.714  31.729  35.483  1.00  0.00    -0.206 F 
ATOM     89  C   UNL A   1      43.517  28.362  36.677  1.00  0.00     0.022 A 
BRANCH  86  90
ATOM     90  S   UNL A   1      41.604  26.341  36.469  1.00  0.00     0.124 S 
ATOM     91  O   UNL A   1      40.932  26.002  35.217  1.00  0.00    -0.237 OA
ATOM     92  O   UNL A   1      42.774  25.532  36.795  1.00  0.00    -0.237 OA
ATOM     93  O   UNL A   1      40.717  26.640  37.591  1.00  0.00    -0.744 OA
ENDBRANCH  86  90
ENDBRANCH  60  83
ENDBRANCH  34  35
ENDBRANCH  27  29
ENDBRANCH  26  27
ENDBRANCH   1  26
TORSDOF 16
ENDMDL
