MODEL 1
REMARK VINA RESULT:     -12.3      0.000      0.000
REMARK SMILES Cc1cccc(C(=O)OCCOC(=O)c2ccc(-c3c4nc(c(-c5cc(S(=O)(=O)[O-])ccc5F)c5ccc([nH]5)c(-c5cc(S(=O)(=O)[O-])ccc5F)c5nc(c(-c6cc(S(=O)(=O)[O-])ccc6F)c6ccc3[nH]6)C=C5)C=C4)cc2)c1OC[C@@H]1C[C@H]2CC[C@@H]1C2
REMARK SMILES IDX 10 1 9 2 7 3 8 4 6 5 1 6 2 7 3 8 78 9 4 10 5 11 79 12 80 13
REMARK SMILES IDX 81 14 82 15 86 16 83 17 85 18 87 19 84 20 11 21 12 22 13 23
REMARK SMILES IDX 14 24 15 25 16 26 77 27 17 28 76 29 18 30 19 31 20 32 70 33
REMARK SMILES IDX 21 34 75 35 69 36 71 37 22 38 74 39 68 40 67 41 23 43 55 44
REMARK SMILES IDX 35 45 54 46 36 47 39 48 53 49 72 50 37 51 38 52 52 54 73 55
REMARK SMILES IDX 40 56 24 57 25 58 33 59 26 60 32 61 34 62 31 63 27 64 28 65
REMARK SMILES IDX 29 66 30 67 56 68 57 69 65 70 58 71 64 72 66 73 63 74 59 75
REMARK SMILES IDX 60 76 61 77 62 78 41 79 42 80 50 81 43 82 49 83 51 84 48 85
REMARK SMILES IDX 44 86 45 87 46 88 47 89
REMARK H PARENT 71 42 39 53
REMARK Flexibility Score: inf
ROOT
ATOM      1  C   UNL A   1      32.276  28.778  27.190  1.00  0.00     0.275 C 
ENDROOT
BRANCH   1   2
ATOM      2  O   UNL A   1      32.615  27.468  26.706  1.00  0.00    -0.458 OA
BRANCH   2   3
ATOM      3  C   UNL A   1      31.527  26.793  26.230  1.00  0.00     0.342 C 
ATOM      4  O   UNL A   1      30.608  26.373  26.900  1.00  0.00    -0.246 OA
BRANCH   3   5
ATOM      5  C   UNL A   1      31.594  26.597  24.766  1.00  0.00     0.102 A 
ATOM      6  C   UNL A   1      33.011  24.260  22.116  1.00  0.00     0.048 C 
ATOM      7  C   UNL A   1      32.198  25.330  22.793  1.00  0.00    -0.008 A 
ATOM      8  C   UNL A   1      31.607  26.306  21.978  1.00  0.00     0.007 A 
ATOM      9  C   UNL A   1      32.099  25.423  24.200  1.00  0.00     0.136 A 
ATOM     10  C   UNL A   1      31.064  27.449  22.543  1.00  0.00     0.001 A 
ATOM     11  C   UNL A   1      31.115  27.611  23.925  1.00  0.00     0.019 A 
BRANCH   9  12
ATOM     12  O   UNL A   1      32.708  24.431  24.913  1.00  0.00    -0.492 OA
BRANCH  12  13
ATOM     13  C   UNL A   1      34.042  24.628  25.405  1.00  0.00     0.233 C 
BRANCH  13  14
ATOM     14  C   UNL A   1      34.968  23.418  25.638  1.00  0.00     0.030 C 
ATOM     15  C   UNL A   1      36.452  23.878  25.722  1.00  0.00     0.011 C 
ATOM     16  C   UNL A   1      35.049  22.371  24.504  1.00  0.00    -0.004 C 
ATOM     17  C   UNL A   1      37.172  22.970  24.709  1.00  0.00    -0.010 C 
ATOM     18  C   UNL A   1      35.711  21.097  25.063  1.00  0.00     0.004 C 
ATOM     19  C   UNL A   1      36.144  22.909  23.587  1.00  0.00     0.007 C 
ATOM     20  C   UNL A   1      37.174  21.522  25.227  1.00  0.00     0.004 C 
ENDBRANCH  13  14
ENDBRANCH  12  13
ENDBRANCH   9  12
ENDBRANCH   3   5
ENDBRANCH   2   3
ENDBRANCH   1   2
BRANCH   1  21
ATOM     21  C   UNL A   1      33.100  29.916  26.555  1.00  0.00     0.275 C 
BRANCH  21  22
ATOM     22  O   UNL A   1      34.512  30.072  26.836  1.00  0.00    -0.458 OA
BRANCH  22  23
ATOM     23  C   UNL A   1      34.901  30.823  27.895  1.00  0.00     0.338 C 
ATOM     24  O   UNL A   1      34.168  31.604  28.481  1.00  0.00    -0.246 OA
BRANCH  23  25
ATOM     25  C   UNL A   1      36.245  30.401  28.356  1.00  0.00     0.060 A 
ATOM     26  C   UNL A   1      36.347  29.666  29.543  1.00  0.00     0.016 A 
ATOM     27  C   UNL A   1      37.313  30.472  27.464  1.00  0.00     0.016 A 
ATOM     28  C   UNL A   1      37.444  28.842  29.761  1.00  0.00     0.010 A 
ATOM     29  C   UNL A   1      38.347  29.591  27.619  1.00  0.00     0.010 A 
ATOM     30  C   UNL A   1      38.422  28.798  28.776  1.00  0.00    -0.014 A 
BRANCH  30  31
ATOM     31  C   UNL A   1      39.747  28.249  28.974  1.00  0.00     0.031 A 
ATOM     32  C   UNL A   1      40.098  26.872  28.619  1.00  0.00     0.074 A 
ATOM     33  C   UNL A   1      40.619  29.242  29.254  1.00  0.00     0.049 A 
ATOM     34  N   UNL A   1      41.288  26.404  28.720  1.00  0.00    -0.248 NA
ATOM     35  C   UNL A   1      39.147  25.873  28.142  1.00  0.00     0.031 C 
ATOM     36  C   UNL A   1      42.057  29.340  29.128  1.00  0.00     0.029 A 
ATOM     37  N   UNL A   1      40.266  30.410  29.929  1.00  0.00    -0.354 N 
ATOM     38  C   UNL A   1      41.335  25.185  28.079  1.00  0.00     0.074 A 
ATOM     39  C   UNL A   1      39.961  24.859  27.820  1.00  0.00     0.031 C 
ATOM     40  C   UNL A   1      42.486  30.328  29.940  1.00  0.00     0.029 A 
ATOM     41  C   UNL A   1      41.338  30.762  30.734  1.00  0.00     0.049 A 
ATOM     42  H   UNL A   1      39.414  30.895  29.847  1.00  0.00     0.167 HD
ATOM     43  C   UNL A   1      42.564  24.696  27.756  1.00  0.00     0.034 A 
ATOM     44  C   UNL A   1      41.180  30.533  32.076  1.00  0.00     0.034 A 
ATOM     45  C   UNL A   1      43.575  25.457  28.487  1.00  0.00     0.049 A 
ATOM     46  C   UNL A   1      42.113  29.428  32.520  1.00  0.00     0.074 A 
ATOM     47  C   UNL A   1      44.352  26.549  28.146  1.00  0.00     0.029 A 
ATOM     48  N   UNL A   1      43.566  25.387  29.875  1.00  0.00    -0.354 N 
ATOM     49  N   UNL A   1      42.432  28.377  31.809  1.00  0.00    -0.248 NA
ATOM     50  C   UNL A   1      42.876  29.544  33.755  1.00  0.00     0.031 C 
ATOM     51  C   UNL A   1      44.674  27.227  29.358  1.00  0.00     0.029 A 
ATOM     52  C   UNL A   1      44.126  26.523  30.420  1.00  0.00     0.049 A 
ATOM     53  H   UNL A   1      43.208  24.632  30.396  1.00  0.00     0.167 HD
ATOM     54  C   UNL A   1      43.498  27.748  32.405  1.00  0.00     0.074 A 
ATOM     55  C   UNL A   1      43.721  28.511  33.627  1.00  0.00     0.031 C 
ATOM     56  C   UNL A   1      44.181  26.690  31.863  1.00  0.00     0.034 A 
BRANCH  43  57
ATOM     57  C   UNL A   1      42.918  23.722  26.654  1.00  0.00     0.023 A 
ATOM     58  C   UNL A   1      42.500  22.378  26.808  1.00  0.00     0.031 A 
ATOM     59  C   UNL A   1      43.736  23.965  25.534  1.00  0.00     0.131 A 
ATOM     60  C   UNL A   1      42.923  21.360  25.933  1.00  0.00     0.055 A 
ATOM     61  C   UNL A   1      44.140  22.954  24.646  1.00  0.00     0.041 A 
ATOM     62  F   UNL A   1      44.208  25.182  25.242  1.00  0.00    -0.206 F 
ATOM     63  C   UNL A   1      43.744  21.640  24.848  1.00  0.00     0.022 A 
BRANCH  60  64
ATOM     64  S   UNL A   1      42.427  19.648  26.273  1.00  0.00     0.124 S 
ATOM     65  O   UNL A   1      42.271  19.655  27.725  1.00  0.00    -0.237 OA
ATOM     66  O   UNL A   1      41.202  19.517  25.491  1.00  0.00    -0.237 OA
ATOM     67  O   UNL A   1      43.558  18.862  25.781  1.00  0.00    -0.744 OA
ENDBRANCH  60  64
ENDBRANCH  43  57
BRANCH  44  68
ATOM     68  C   UNL A   1      39.771  30.765  32.567  1.00  0.00     0.023 A 
ATOM     69  C   UNL A   1      39.215  32.051  32.353  1.00  0.00     0.031 A 
ATOM     70  C   UNL A   1      38.877  29.736  32.894  1.00  0.00     0.131 A 
ATOM     71  C   UNL A   1      37.826  32.236  32.279  1.00  0.00     0.055 A 
ATOM     72  C   UNL A   1      37.486  29.950  32.920  1.00  0.00     0.041 A 
ATOM     73  F   UNL A   1      39.312  28.484  33.091  1.00  0.00    -0.206 F 
ATOM     74  C   UNL A   1      36.951  31.193  32.575  1.00  0.00     0.022 A 
BRANCH  71  75
ATOM     75  S   UNL A   1      37.205  33.747  31.469  1.00  0.00     0.124 S 
ATOM     76  O   UNL A   1      38.337  34.655  31.607  1.00  0.00    -0.237 OA
ATOM     77  O   UNL A   1      36.922  33.280  30.111  1.00  0.00    -0.237 OA
ATOM     78  O   UNL A   1      36.021  34.090  32.250  1.00  0.00    -0.744 OA
ENDBRANCH  71  75
ENDBRANCH  44  68
BRANCH  56  79
ATOM     79  C   UNL A   1      45.067  25.762  32.662  1.00  0.00     0.023 A 
ATOM     80  C   UNL A   1      44.554  24.662  33.355  1.00  0.00     0.031 A 
ATOM     81  C   UNL A   1      46.477  25.888  32.679  1.00  0.00     0.131 A 
ATOM     82  C   UNL A   1      45.375  23.850  34.145  1.00  0.00     0.055 A 
ATOM     83  C   UNL A   1      47.310  24.995  33.357  1.00  0.00     0.041 A 
ATOM     84  F   UNL A   1      47.115  26.870  32.025  1.00  0.00    -0.206 F 
ATOM     85  C   UNL A   1      46.758  23.985  34.128  1.00  0.00     0.022 A 
BRANCH  82  86
ATOM     86  S   UNL A   1      44.557  22.715  35.288  1.00  0.00     0.124 S 
ATOM     87  O   UNL A   1      44.958  21.417  34.751  1.00  0.00    -0.237 OA
ATOM     88  O   UNL A   1      45.148  23.077  36.571  1.00  0.00    -0.237 OA
ATOM     89  O   UNL A   1      43.141  23.040  35.137  1.00  0.00    -0.744 OA
ENDBRANCH  82  86
ENDBRANCH  56  79
ENDBRANCH  30  31
ENDBRANCH  23  25
ENDBRANCH  22  23
ENDBRANCH  21  22
ENDBRANCH   1  21
TORSDOF 17
ENDMDL
MODEL 2
REMARK VINA RESULT:     -12.3      2.056      3.990
REMARK SMILES Cc1cccc(C(=O)OCCOC(=O)c2ccc(-c3c4nc(c(-c5cc(S(=O)(=O)[O-])ccc5F)c5ccc([nH]5)c(-c5cc(S(=O)(=O)[O-])ccc5F)c5nc(c(-c6cc(S(=O)(=O)[O-])ccc6F)c6ccc3[nH]6)C=C5)C=C4)cc2)c1OC[C@@H]1C[C@H]2CC[C@@H]1C2
REMARK SMILES IDX 10 1 9 2 7 3 8 4 6 5 1 6 2 7 3 8 78 9 4 10 5 11 79 12 80 13
REMARK SMILES IDX 81 14 82 15 86 16 83 17 85 18 87 19 84 20 11 21 12 22 13 23
REMARK SMILES IDX 14 24 15 25 16 26 77 27 17 28 76 29 18 30 19 31 20 32 70 33
REMARK SMILES IDX 21 34 75 35 69 36 71 37 22 38 74 39 68 40 67 41 23 43 55 44
REMARK SMILES IDX 35 45 54 46 36 47 39 48 53 49 72 50 37 51 38 52 52 54 73 55
REMARK SMILES IDX 40 56 24 57 25 58 33 59 26 60 32 61 34 62 31 63 27 64 28 65
REMARK SMILES IDX 29 66 30 67 56 68 57 69 65 70 58 71 64 72 66 73 63 74 59 75
REMARK SMILES IDX 60 76 61 77 62 78 41 79 42 80 50 81 43 82 49 83 51 84 48 85
REMARK SMILES IDX 44 86 45 87 46 88 47 89
REMARK H PARENT 71 42 39 53
REMARK Flexibility Score: inf
ROOT
ATOM      1  C   UNL A   1      33.202  29.858  26.018  1.00  0.00     0.275 C 
ENDROOT
BRANCH   1   2
ATOM      2  O   UNL A   1      34.080  29.027  25.241  1.00  0.00    -0.458 OA
BRANCH   2   3
ATOM      3  C   UNL A   1      33.416  28.344  24.261  1.00  0.00     0.342 C 
ATOM      4  O   UNL A   1      33.247  28.727  23.124  1.00  0.00    -0.246 OA
BRANCH   3   5
ATOM      5  C   UNL A   1      32.883  27.055  24.751  1.00  0.00     0.102 A 
ATOM      6  C   UNL A   1      29.654  25.373  25.863  1.00  0.00     0.048 C 
ATOM      7  C   UNL A   1      31.071  25.588  25.407  1.00  0.00    -0.008 A 
ATOM      8  C   UNL A   1      31.986  24.546  25.623  1.00  0.00     0.007 A 
ATOM      9  C   UNL A   1      31.510  26.818  24.867  1.00  0.00     0.136 A 
ATOM     10  C   UNL A   1      33.344  24.767  25.461  1.00  0.00     0.001 A 
ATOM     11  C   UNL A   1      33.784  26.033  25.085  1.00  0.00     0.019 A 
BRANCH   9  12
ATOM     12  O   UNL A   1      30.553  27.776  24.696  1.00  0.00    -0.492 OA
BRANCH  12  13
ATOM     13  C   UNL A   1      29.864  27.874  23.441  1.00  0.00     0.233 C 
BRANCH  13  14
ATOM     14  C   UNL A   1      29.701  29.243  22.753  1.00  0.00     0.030 C 
ATOM     15  C   UNL A   1      29.825  30.393  23.794  1.00  0.00     0.011 C 
ATOM     16  C   UNL A   1      28.320  29.555  22.133  1.00  0.00    -0.004 C 
ATOM     17  C   UNL A   1      28.562  31.239  23.553  1.00  0.00    -0.010 C 
ATOM     18  C   UNL A   1      28.468  30.772  21.199  1.00  0.00     0.004 C 
ATOM     19  C   UNL A   1      27.527  30.152  23.292  1.00  0.00     0.007 C 
ATOM     20  C   UNL A   1      28.660  31.931  22.183  1.00  0.00     0.004 C 
ENDBRANCH  13  14
ENDBRANCH  12  13
ENDBRANCH   9  12
ENDBRANCH   3   5
ENDBRANCH   2   3
ENDBRANCH   1   2
BRANCH   1  21
ATOM     21  C   UNL A   1      33.890  30.558  27.208  1.00  0.00     0.275 C 
BRANCH  21  22
ATOM     22  O   UNL A   1      34.939  29.906  27.962  1.00  0.00    -0.458 OA
BRANCH  22  23
ATOM     23  C   UNL A   1      36.095  30.571  28.206  1.00  0.00     0.338 C 
ATOM     24  O   UNL A   1      36.150  31.755  28.500  1.00  0.00    -0.246 OA
BRANCH  23  25
ATOM     25  C   UNL A   1      37.228  29.619  28.276  1.00  0.00     0.060 A 
ATOM     26  C   UNL A   1      38.227  29.689  27.297  1.00  0.00     0.016 A 
ATOM     27  C   UNL A   1      37.432  28.905  29.456  1.00  0.00     0.016 A 
ATOM     28  C   UNL A   1      39.502  29.208  27.564  1.00  0.00     0.010 A 
ATOM     29  C   UNL A   1      38.706  28.519  29.769  1.00  0.00     0.010 A 
ATOM     30  C   UNL A   1      39.730  28.649  28.815  1.00  0.00    -0.014 A 
BRANCH  30  31
ATOM     31  C   UNL A   1      40.884  27.838  29.141  1.00  0.00     0.031 A 
ATOM     32  C   UNL A   1      41.011  26.436  28.735  1.00  0.00     0.074 A 
ATOM     33  C   UNL A   1      41.882  28.623  29.602  1.00  0.00     0.049 A 
ATOM     34  N   UNL A   1      42.062  25.736  28.954  1.00  0.00    -0.248 NA
ATOM     35  C   UNL A   1      39.962  25.671  28.070  1.00  0.00     0.031 C 
ATOM     36  C   UNL A   1      43.316  28.437  29.668  1.00  0.00     0.029 A 
ATOM     37  N   UNL A   1      41.670  29.806  30.308  1.00  0.00    -0.354 N 
ATOM     38  C   UNL A   1      41.963  24.562  28.237  1.00  0.00     0.074 A 
ATOM     39  C   UNL A   1      40.603  24.529  27.781  1.00  0.00     0.031 C 
ATOM     40  C   UNL A   1      43.809  29.281  30.597  1.00  0.00     0.029 A 
ATOM     41  C   UNL A   1      42.666  29.899  31.268  1.00  0.00     0.049 A 
ATOM     42  H   UNL A   1      40.946  30.455  30.153  1.00  0.00     0.167 HD
ATOM     43  C   UNL A   1      43.108  23.853  28.040  1.00  0.00     0.034 A 
ATOM     44  C   UNL A   1      42.281  29.645  32.558  1.00  0.00     0.034 A 
ATOM     45  C   UNL A   1      44.134  24.362  28.948  1.00  0.00     0.049 A 
ATOM     46  C   UNL A   1      42.912  28.357  33.037  1.00  0.00     0.074 A 
ATOM     47  C   UNL A   1      45.147  25.291  28.789  1.00  0.00     0.029 A 
ATOM     48  N   UNL A   1      43.918  24.232  30.314  1.00  0.00    -0.354 N 
ATOM     49  N   UNL A   1      43.121  27.297  32.298  1.00  0.00    -0.248 NA
ATOM     50  C   UNL A   1      43.504  28.262  34.364  1.00  0.00     0.031 C 
ATOM     51  C   UNL A   1      45.420  25.835  30.078  1.00  0.00     0.029 A 
ATOM     52  C   UNL A   1      44.605  25.207  31.007  1.00  0.00     0.049 A 
ATOM     53  H   UNL A   1      43.353  23.540  30.729  1.00  0.00     0.167 HD
ATOM     54  C   UNL A   1      43.951  26.441  32.979  1.00  0.00     0.074 A 
ATOM     55  C   UNL A   1      44.144  27.087  34.272  1.00  0.00     0.031 C 
ATOM     56  C   UNL A   1      44.488  25.294  32.454  1.00  0.00     0.034 A 
BRANCH  43  57
ATOM     57  C   UNL A   1      43.420  22.879  26.925  1.00  0.00     0.023 A 
ATOM     58  C   UNL A   1      42.785  21.614  26.964  1.00  0.00     0.031 A 
ATOM     59  C   UNL A   1      44.377  23.033  25.904  1.00  0.00     0.131 A 
ATOM     60  C   UNL A   1      43.133  20.577  26.078  1.00  0.00     0.055 A 
ATOM     61  C   UNL A   1      44.709  22.005  25.004  1.00  0.00     0.041 A 
ATOM     62  F   UNL A   1      45.059  24.169  25.726  1.00  0.00    -0.206 F 
ATOM     63  C   UNL A   1      44.096  20.765  25.094  1.00  0.00     0.022 A 
BRANCH  60  64
ATOM     64  S   UNL A   1      42.346  18.954  26.274  1.00  0.00     0.124 S 
ATOM     65  O   UNL A   1      42.451  18.732  27.714  1.00  0.00    -0.237 OA
ATOM     66  O   UNL A   1      41.005  19.193  25.752  1.00  0.00    -0.237 OA
ATOM     67  O   UNL A   1      43.177  18.072  25.455  1.00  0.00    -0.744 OA
ENDBRANCH  60  64
ENDBRANCH  43  57
BRANCH  44  68
ATOM     68  C   UNL A   1      40.888  30.132  32.880  1.00  0.00     0.023 A 
ATOM     69  C   UNL A   1      40.619  31.507  32.672  1.00  0.00     0.031 A 
ATOM     70  C   UNL A   1      39.779  29.287  33.031  1.00  0.00     0.131 A 
ATOM     71  C   UNL A   1      39.313  31.962  32.434  1.00  0.00     0.055 A 
ATOM     72  C   UNL A   1      38.463  29.767  32.894  1.00  0.00     0.041 A 
ATOM     73  F   UNL A   1      39.939  27.968  33.209  1.00  0.00    -0.206 F 
ATOM     74  C   UNL A   1      38.225  31.101  32.557  1.00  0.00     0.022 A 
BRANCH  71  75
ATOM     75  S   UNL A   1      39.104  33.590  31.641  1.00  0.00     0.124 S 
ATOM     76  O   UNL A   1      38.690  33.223  30.293  1.00  0.00    -0.237 OA
ATOM     77  O   UNL A   1      38.080  34.217  32.476  1.00  0.00    -0.237 OA
ATOM     78  O   UNL A   1      40.429  34.195  31.751  1.00  0.00    -0.744 OA
ENDBRANCH  71  75
ENDBRANCH  44  68
BRANCH  56  79
ATOM     79  C   UNL A   1      45.059  24.172  33.290  1.00  0.00     0.023 A 
ATOM     80  C   UNL A   1      46.344  24.235  33.835  1.00  0.00     0.031 A 
ATOM     81  C   UNL A   1      44.297  23.036  33.657  1.00  0.00     0.131 A 
ATOM     82  C   UNL A   1      46.886  23.161  34.551  1.00  0.00     0.055 A 
ATOM     83  C   UNL A   1      44.792  22.027  34.487  1.00  0.00     0.041 A 
ATOM     84  F   UNL A   1      43.033  22.859  33.245  1.00  0.00    -0.206 F 
ATOM     85  C   UNL A   1      46.110  22.067  34.912  1.00  0.00     0.022 A 
BRANCH  82  86
ATOM     86  S   UNL A   1      48.665  23.196  34.866  1.00  0.00     0.124 S 
ATOM     87  O   UNL A   1      49.066  24.409  34.158  1.00  0.00    -0.237 OA
ATOM     88  O   UNL A   1      48.728  23.265  36.321  1.00  0.00    -0.237 OA
ATOM     89  O   UNL A   1      49.141  21.947  34.278  1.00  0.00    -0.744 OA
ENDBRANCH  82  86
ENDBRANCH  56  79
ENDBRANCH  30  31
ENDBRANCH  23  25
ENDBRANCH  22  23
ENDBRANCH  21  22
ENDBRANCH   1  21
TORSDOF 17
ENDMDL
MODEL 3
REMARK VINA RESULT:     -12.3      3.406      9.576
REMARK SMILES Cc1cccc(C(=O)OCCOC(=O)c2ccc(-c3c4nc(c(-c5cc(S(=O)(=O)[O-])ccc5F)c5ccc([nH]5)c(-c5cc(S(=O)(=O)[O-])ccc5F)c5nc(c(-c6cc(S(=O)(=O)[O-])ccc6F)c6ccc3[nH]6)C=C5)C=C4)cc2)c1OC[C@@H]1C[C@H]2CC[C@@H]1C2
REMARK SMILES IDX 10 1 9 2 7 3 8 4 6 5 1 6 2 7 3 8 78 9 4 10 5 11 79 12 80 13
REMARK SMILES IDX 81 14 82 15 86 16 83 17 85 18 87 19 84 20 11 21 12 22 13 23
REMARK SMILES IDX 14 24 15 25 16 26 77 27 17 28 76 29 18 30 19 31 20 32 70 33
REMARK SMILES IDX 21 34 75 35 69 36 71 37 22 38 74 39 68 40 67 41 23 43 55 44
REMARK SMILES IDX 35 45 54 46 36 47 39 48 53 49 72 50 37 51 38 52 52 54 73 55
REMARK SMILES IDX 40 56 24 57 25 58 33 59 26 60 32 61 34 62 31 63 27 64 28 65
REMARK SMILES IDX 29 66 30 67 56 68 57 69 65 70 58 71 64 72 66 73 63 74 59 75
REMARK SMILES IDX 60 76 61 77 62 78 41 79 42 80 50 81 43 82 49 83 51 84 48 85
REMARK SMILES IDX 44 86 45 87 46 88 47 89
REMARK H PARENT 71 42 39 53
REMARK Flexibility Score: inf
ROOT
ATOM      1  C   UNL A   1      36.742  22.437  23.989  1.00  0.00     0.275 C 
ENDROOT
BRANCH   1   2
ATOM      2  O   UNL A   1      36.120  23.727  24.104  1.00  0.00    -0.458 OA
BRANCH   2   3
ATOM      3  C   UNL A   1      34.836  23.727  23.638  1.00  0.00     0.342 C 
ATOM      4  O   UNL A   1      34.477  23.323  22.553  1.00  0.00    -0.246 OA
BRANCH   3   5
ATOM      5  C   UNL A   1      33.893  24.314  24.615  1.00  0.00     0.102 A 
ATOM      6  C   UNL A   1      30.735  23.517  26.585  1.00  0.00     0.048 C 
ATOM      7  C   UNL A   1      31.999  24.185  26.119  1.00  0.00    -0.008 A 
ATOM      8  C   UNL A   1      32.207  25.518  26.503  1.00  0.00     0.007 A 
ATOM      9  C   UNL A   1      32.911  23.546  25.249  1.00  0.00     0.136 A 
ATOM     10  C   UNL A   1      33.211  26.266  25.909  1.00  0.00     0.001 A 
ATOM     11  C   UNL A   1      34.006  25.676  24.930  1.00  0.00     0.019 A 
BRANCH   9  12
ATOM     12  O   UNL A   1      32.627  22.250  24.925  1.00  0.00    -0.492 OA
BRANCH  12  13
ATOM     13  C   UNL A   1      33.489  21.200  25.386  1.00  0.00     0.233 C 
BRANCH  13  14
ATOM     14  C   UNL A   1      33.821  20.011  24.463  1.00  0.00     0.030 C 
ATOM     15  C   UNL A   1      32.674  19.785  23.435  1.00  0.00     0.011 C 
ATOM     16  C   UNL A   1      33.903  18.615  25.122  1.00  0.00    -0.004 C 
ATOM     17  C   UNL A   1      32.342  18.289  23.584  1.00  0.00    -0.010 C 
ATOM     18  C   UNL A   1      34.590  17.650  24.136  1.00  0.00     0.004 C 
ATOM     19  C   UNL A   1      32.463  18.111  25.092  1.00  0.00     0.007 C 
ATOM     20  C   UNL A   1      33.517  17.446  23.062  1.00  0.00     0.004 C 
ENDBRANCH  13  14
ENDBRANCH  12  13
ENDBRANCH   9  12
ENDBRANCH   3   5
ENDBRANCH   2   3
ENDBRANCH   1   2
BRANCH   1  21
ATOM     21  C   UNL A   1      37.631  22.058  25.191  1.00  0.00     0.275 C 
BRANCH  21  22
ATOM     22  O   UNL A   1      38.240  23.072  26.027  1.00  0.00    -0.458 OA
BRANCH  22  23
ATOM     23  C   UNL A   1      39.553  22.970  26.347  1.00  0.00     0.338 C 
ATOM     24  O   UNL A   1      40.270  22.048  25.993  1.00  0.00    -0.246 OA
BRANCH  23  25
ATOM     25  C   UNL A   1      40.023  24.223  26.984  1.00  0.00     0.060 A 
ATOM     26  C   UNL A   1      40.523  25.246  26.169  1.00  0.00     0.016 A 
ATOM     27  C   UNL A   1      39.676  24.471  28.311  1.00  0.00     0.016 A 
ATOM     28  C   UNL A   1      40.504  26.563  26.610  1.00  0.00     0.010 A 
ATOM     29  C   UNL A   1      39.559  25.771  28.719  1.00  0.00     0.010 A 
ATOM     30  C   UNL A   1      39.995  26.809  27.879  1.00  0.00    -0.014 A 
BRANCH  30  31
ATOM     31  C   UNL A   1      40.185  28.050  28.600  1.00  0.00     0.031 A 
ATOM     32  C   UNL A   1      39.200  29.134  28.589  1.00  0.00     0.074 A 
ATOM     33  C   UNL A   1      41.220  27.928  29.459  1.00  0.00     0.049 A 
ATOM     34  N   UNL A   1      39.327  30.202  29.287  1.00  0.00    -0.248 NA
ATOM     35  C   UNL A   1      37.990  29.144  27.774  1.00  0.00     0.031 C 
ATOM     36  C   UNL A   1      41.574  28.645  30.666  1.00  0.00     0.029 A 
ATOM     37  N   UNL A   1      42.324  27.110  29.225  1.00  0.00    -0.354 N 
ATOM     38  C   UNL A   1      38.134  30.893  29.251  1.00  0.00     0.074 A 
ATOM     39  C   UNL A   1      37.370  30.243  28.225  1.00  0.00     0.031 C 
ATOM     40  C   UNL A   1      42.891  28.460  30.895  1.00  0.00     0.029 A 
ATOM     41  C   UNL A   1      43.437  27.761  29.733  1.00  0.00     0.049 A 
ATOM     42  H   UNL A   1      42.314  26.231  28.781  1.00  0.00     0.167 HD
ATOM     43  C   UNL A   1      37.937  31.848  30.202  1.00  0.00     0.034 A 
ATOM     44  C   UNL A   1      44.281  28.318  28.807  1.00  0.00     0.034 A 
ATOM     45  C   UNL A   1      39.217  32.138  30.844  1.00  0.00     0.049 A 
ATOM     46  C   UNL A   1      44.224  29.826  28.904  1.00  0.00     0.074 A 
ATOM     47  C   UNL A   1      39.812  31.666  32.000  1.00  0.00     0.029 A 
ATOM     48  N   UNL A   1      40.230  32.680  30.063  1.00  0.00    -0.354 N 
ATOM     49  N   UNL A   1      43.151  30.527  29.173  1.00  0.00    -0.248 NA
ATOM     50  C   UNL A   1      45.440  30.625  28.862  1.00  0.00     0.031 C 
ATOM     51  C   UNL A   1      41.221  31.790  31.825  1.00  0.00     0.029 A 
ATOM     52  C   UNL A   1      41.466  32.369  30.588  1.00  0.00     0.049 A 
ATOM     53  H   UNL A   1      40.085  33.213  29.247  1.00  0.00     0.167 HD
ATOM     54  C   UNL A   1      43.526  31.818  29.452  1.00  0.00     0.074 A 
ATOM     55  C   UNL A   1      44.966  31.826  29.225  1.00  0.00     0.031 C 
ATOM     56  C   UNL A   1      42.678  32.794  29.907  1.00  0.00     0.034 A 
BRANCH  43  57
ATOM     57  C   UNL A   1      36.622  32.372  30.735  1.00  0.00     0.023 A 
ATOM     58  C   UNL A   1      35.758  33.025  29.823  1.00  0.00     0.031 A 
ATOM     59  C   UNL A   1      36.200  32.401  32.078  1.00  0.00     0.131 A 
ATOM     60  C   UNL A   1      34.596  33.698  30.246  1.00  0.00     0.055 A 
ATOM     61  C   UNL A   1      35.029  33.054  32.499  1.00  0.00     0.041 A 
ATOM     62  F   UNL A   1      36.898  31.825  33.062  1.00  0.00    -0.206 F 
ATOM     63  C   UNL A   1      34.225  33.717  31.584  1.00  0.00     0.022 A 
BRANCH  60  64
ATOM     64  S   UNL A   1      33.610  34.601  29.020  1.00  0.00     0.124 S 
ATOM     65  O   UNL A   1      32.519  35.132  29.833  1.00  0.00    -0.237 OA
ATOM     66  O   UNL A   1      34.567  35.574  28.506  1.00  0.00    -0.237 OA
ATOM     67  O   UNL A   1      33.217  33.562  28.068  1.00  0.00    -0.744 OA
ENDBRANCH  60  64
ENDBRANCH  43  57
BRANCH  44  68
ATOM     68  C   UNL A   1      44.406  27.507  27.539  1.00  0.00     0.023 A 
ATOM     69  C   UNL A   1      44.992  26.222  27.649  1.00  0.00     0.031 A 
ATOM     70  C   UNL A   1      43.693  27.779  26.363  1.00  0.00     0.131 A 
ATOM     71  C   UNL A   1      44.706  25.213  26.717  1.00  0.00     0.055 A 
ATOM     72  C   UNL A   1      43.494  26.793  25.378  1.00  0.00     0.041 A 
ATOM     73  F   UNL A   1      43.086  28.960  26.184  1.00  0.00    -0.206 F 
ATOM     74  C   UNL A   1      43.967  25.492  25.569  1.00  0.00     0.022 A 
BRANCH  71  75
ATOM     75  S   UNL A   1      45.021  23.484  27.201  1.00  0.00     0.124 S 
ATOM     76  O   UNL A   1      44.740  23.510  28.631  1.00  0.00    -0.237 OA
ATOM     77  O   UNL A   1      44.066  22.747  26.374  1.00  0.00    -0.237 OA
ATOM     78  O   UNL A   1      46.421  23.279  26.837  1.00  0.00    -0.744 OA
ENDBRANCH  71  75
ENDBRANCH  44  68
BRANCH  56  79
ATOM     79  C   UNL A   1      42.982  34.273  29.837  1.00  0.00     0.023 A 
ATOM     80  C   UNL A   1      42.705  35.033  28.697  1.00  0.00     0.031 A 
ATOM     81  C   UNL A   1      43.473  35.000  30.949  1.00  0.00     0.131 A 
ATOM     82  C   UNL A   1      43.053  36.386  28.621  1.00  0.00     0.055 A 
ATOM     83  C   UNL A   1      43.692  36.379  30.916  1.00  0.00     0.041 A 
ATOM     84  F   UNL A   1      43.745  34.412  32.123  1.00  0.00    -0.206 F 
ATOM     85  C   UNL A   1      43.515  37.079  29.733  1.00  0.00     0.022 A 
BRANCH  82  86
ATOM     86  S   UNL A   1      43.006  37.157  26.988  1.00  0.00     0.124 S 
ATOM     87  O   UNL A   1      42.820  35.997  26.119  1.00  0.00    -0.237 OA
ATOM     88  O   UNL A   1      41.861  38.055  27.094  1.00  0.00    -0.237 OA
ATOM     89  O   UNL A   1      44.307  37.812  26.880  1.00  0.00    -0.744 OA
ENDBRANCH  82  86
ENDBRANCH  56  79
ENDBRANCH  30  31
ENDBRANCH  23  25
ENDBRANCH  22  23
ENDBRANCH  21  22
ENDBRANCH   1  21
TORSDOF 17
ENDMDL
