MODEL 1
REMARK VINA RESULT:     -10.7      0.000      0.000
REMARK SMILES C[NH+]1CCN(c2nc3c(cc2F)c(=O)c(C(=O)OCCOC(=O)c2ccc(-c4c5nc(c(-c6cc(S(=O)(=O)[O-])ccc6F)c6ccc([nH]6)c(-c6cc(S(=O)(=O)[O-])ccc6F)c6nc(c(-c7cc(S(=O)(=O)[O-])ccc7F)c7ccc4[nH]7)C=C6)C=C5)cc2)cn3-c2ccc(F)cc2F)CC1
REMARK SMILES IDX 20 1 19 2 18 3 16 4 17 5 15 6 6 7 7 8 11 9 8 10 10 11 12 12
REMARK SMILES IDX 9 13 88 14 13 15 87 16 14 17 5 18 1 19 2 20 3 21 98 22 4 24
REMARK SMILES IDX 97 25 89 26 90 27 95 28 91 29 94 30 96 31 92 32 93 33 21 34
REMARK SMILES IDX 22 35 23 36 24 37 25 38 86 39 26 40 85 41 27 42 28 43 29 44
REMARK SMILES IDX 79 45 30 46 84 47 78 48 80 49 31 50 83 51 77 52 76 53 32 55
REMARK SMILES IDX 64 56 44 57 63 58 45 59 48 60 62 61 81 62 46 63 47 64 61 66
REMARK SMILES IDX 82 67 49 68 33 69 34 70 42 71 35 72 41 73 43 74 40 75 36 76
REMARK SMILES IDX 37 77 38 78 39 79 65 80 66 81 74 82 67 83 73 84 75 85 72 86
REMARK SMILES IDX 68 87 69 88 70 89 71 90 50 91 51 92 59 93 52 94 58 95 60 96
REMARK SMILES IDX 57 97 53 98 54 99 55 100 56 101
REMARK H PARENT 2 23 80 54 48 65
REMARK Flexibility Score: inf
ROOT
ATOM      1  C   UNL A   1      36.726  33.139  33.305  1.00  0.00     0.275 C 
ENDROOT
BRANCH   1   2
ATOM      2  C   UNL A   1      37.453  34.237  32.534  1.00  0.00     0.275 C 
BRANCH   2   3
ATOM      3  O   UNL A   1      38.362  33.657  31.578  1.00  0.00    -0.458 OA
BRANCH   3   4
ATOM      4  C   UNL A   1      38.118  33.913  30.273  1.00  0.00     0.343 C 
ATOM      5  O   UNL A   1      38.511  34.885  29.643  1.00  0.00    -0.246 OA
BRANCH   4   6
ATOM      6  C   UNL A   1      37.362  32.813  29.653  1.00  0.00     0.124 A 
ATOM      7  C   UNL A   1      34.292  29.771  27.023  1.00  0.00     0.167 A 
ATOM      8  N   UNL A   1      35.561  29.648  27.475  1.00  0.00    -0.209 NA
ATOM      9  C   UNL A   1      33.505  30.880  27.360  1.00  0.00     0.166 A 
ATOM     10  C   UNL A   1      36.099  30.653  28.220  1.00  0.00     0.151 A 
ATOM     11  C   UNL A   1      34.010  31.874  28.171  1.00  0.00     0.059 A 
ATOM     12  F   UNL A   1      32.242  30.988  26.916  1.00  0.00    -0.203 F 
ATOM     13  C   UNL A   1      35.330  31.766  28.594  1.00  0.00     0.069 A 
ATOM     14  N   UNL A   1      37.479  30.611  28.601  1.00  0.00    -0.297 N 
ATOM     15  C   UNL A   1      35.915  32.868  29.383  1.00  0.00     0.205 A 
ATOM     16  C   UNL A   1      38.019  31.719  29.241  1.00  0.00     0.113 A 
ATOM     17  O   UNL A   1      35.214  33.818  29.717  1.00  0.00    -0.288 OA
BRANCH   7  18
ATOM     18  N   UNL A   1      33.774  28.793  26.213  1.00  0.00    -0.343 N 
ATOM     19  C   UNL A   1      33.628  25.250  23.977  1.00  0.00     0.332 C 
ATOM     20  N   UNL A   1      33.160  26.490  24.598  1.00  0.00    -0.334 N 
ATOM     21  C   UNL A   1      33.919  27.655  24.068  1.00  0.00     0.283 C 
ATOM     22  C   UNL A   1      33.316  26.401  26.070  1.00  0.00     0.283 C 
ATOM     23  H   UNL A   1      32.173  26.620  24.375  1.00  0.00     0.347 HD
ATOM     24  C   UNL A   1      33.597  28.997  24.781  1.00  0.00     0.179 C 
ATOM     25  C   UNL A   1      32.980  27.718  26.795  1.00  0.00     0.179 C 
ENDBRANCH   7  18
BRANCH  14  26
ATOM     26  C   UNL A   1      38.330  29.507  28.287  1.00  0.00     0.083 A 
ATOM     27  C   UNL A   1      39.185  29.561  27.175  1.00  0.00     0.033 A 
ATOM     28  C   UNL A   1      38.364  28.357  29.100  1.00  0.00     0.150 A 
ATOM     29  C   UNL A   1      40.047  28.498  26.895  1.00  0.00     0.041 A 
ATOM     30  C   UNL A   1      39.208  27.287  28.816  1.00  0.00     0.080 A 
ATOM     31  F   UNL A   1      37.562  28.273  30.172  1.00  0.00    -0.205 F 
ATOM     32  C   UNL A   1      40.045  27.371  27.712  1.00  0.00     0.126 A 
ATOM     33  F   UNL A   1      40.864  26.354  27.423  1.00  0.00    -0.207 F 
ENDBRANCH  14  26
ENDBRANCH   4   6
ENDBRANCH   3   4
ENDBRANCH   2   3
ENDBRANCH   1   2
BRANCH   1  34
ATOM     34  O   UNL A   1      37.629  32.056  33.586  1.00  0.00    -0.458 OA
BRANCH  34  35
ATOM     35  C   UNL A   1      37.391  30.913  32.902  1.00  0.00     0.338 C 
ATOM     36  O   UNL A   1      36.322  30.505  32.485  1.00  0.00    -0.246 OA
BRANCH  35  37
ATOM     37  C   UNL A   1      38.663  30.226  32.644  1.00  0.00     0.060 A 
ATOM     38  C   UNL A   1      38.715  28.841  32.784  1.00  0.00     0.016 A 
ATOM     39  C   UNL A   1      39.824  30.958  32.412  1.00  0.00     0.016 A 
ATOM     40  C   UNL A   1      39.941  28.189  32.814  1.00  0.00     0.010 A 
ATOM     41  C   UNL A   1      41.048  30.287  32.339  1.00  0.00     0.010 A 
ATOM     42  C   UNL A   1      41.124  28.904  32.588  1.00  0.00    -0.014 A 
BRANCH  42  43
ATOM     43  C   UNL A   1      42.443  28.219  32.644  1.00  0.00     0.031 A 
ATOM     44  C   UNL A   1      43.063  27.895  33.975  1.00  0.00     0.074 A 
ATOM     45  C   UNL A   1      43.084  27.892  31.505  1.00  0.00     0.049 A 
ATOM     46  N   UNL A   1      44.266  27.457  34.237  1.00  0.00    -0.248 NA
ATOM     47  C   UNL A   1      42.225  28.099  35.169  1.00  0.00     0.031 C 
ATOM     48  C   UNL A   1      42.566  28.109  30.155  1.00  0.00     0.029 A 
ATOM     49  N   UNL A   1      44.314  27.313  31.300  1.00  0.00    -0.354 N 
ATOM     50  C   UNL A   1      44.351  27.386  35.623  1.00  0.00     0.074 A 
ATOM     51  C   UNL A   1      43.078  27.827  36.148  1.00  0.00     0.031 C 
ATOM     52  C   UNL A   1      43.457  27.654  29.263  1.00  0.00     0.029 A 
ATOM     53  C   UNL A   1      44.647  27.190  29.971  1.00  0.00     0.049 A 
ATOM     54  H   UNL A   1      44.898  27.014  32.033  1.00  0.00     0.167 HD
ATOM     55  C   UNL A   1      45.399  26.991  36.383  1.00  0.00     0.034 A 
ATOM     56  C   UNL A   1      45.793  26.792  29.383  1.00  0.00     0.034 A 
ATOM     57  C   UNL A   1      46.643  26.506  35.844  1.00  0.00     0.049 A 
ATOM     58  C   UNL A   1      46.952  26.370  30.246  1.00  0.00     0.074 A 
ATOM     59  C   UNL A   1      47.752  26.053  36.536  1.00  0.00     0.029 A 
ATOM     60  N   UNL A   1      46.939  26.394  34.495  1.00  0.00    -0.354 N 
ATOM     61  N   UNL A   1      47.020  26.318  31.555  1.00  0.00    -0.248 NA
ATOM     62  C   UNL A   1      48.187  25.962  29.564  1.00  0.00     0.031 C 
ATOM     63  C   UNL A   1      48.733  25.705  35.606  1.00  0.00     0.029 A 
ATOM     64  C   UNL A   1      48.219  25.893  34.333  1.00  0.00     0.049 A 
ATOM     65  H   UNL A   1      46.328  26.635  33.760  1.00  0.00     0.167 HD
ATOM     66  C   UNL A   1      48.298  25.855  31.854  1.00  0.00     0.074 A 
ATOM     67  C   UNL A   1      48.964  25.627  30.587  1.00  0.00     0.031 C 
ATOM     68  C   UNL A   1      48.865  25.644  33.066  1.00  0.00     0.034 A 
BRANCH  55  69
ATOM     69  C   UNL A   1      45.271  27.063  37.882  1.00  0.00     0.023 A 
ATOM     70  C   UNL A   1      45.683  28.225  38.559  1.00  0.00     0.031 A 
ATOM     71  C   UNL A   1      44.863  25.955  38.642  1.00  0.00     0.131 A 
ATOM     72  C   UNL A   1      45.703  28.244  39.959  1.00  0.00     0.055 A 
ATOM     73  C   UNL A   1      44.853  25.989  40.037  1.00  0.00     0.041 A 
ATOM     74  F   UNL A   1      44.455  24.827  38.037  1.00  0.00    -0.206 F 
ATOM     75  C   UNL A   1      45.285  27.135  40.701  1.00  0.00     0.022 A 
BRANCH  72  76
ATOM     76  S   UNL A   1      46.305  29.693  40.868  1.00  0.00     0.124 S 
ATOM     77  O   UNL A   1      45.675  30.792  40.138  1.00  0.00    -0.237 OA
ATOM     78  O   UNL A   1      45.777  29.452  42.208  1.00  0.00    -0.237 OA
ATOM     79  O   UNL A   1      47.756  29.614  40.735  1.00  0.00    -0.744 OA
ENDBRANCH  72  76
ENDBRANCH  55  69
BRANCH  56  80
ATOM     80  C   UNL A   1      45.869  26.775  27.893  1.00  0.00     0.023 A 
ATOM     81  C   UNL A   1      45.735  25.570  27.178  1.00  0.00     0.031 A 
ATOM     82  C   UNL A   1      46.199  27.937  27.179  1.00  0.00     0.131 A 
ATOM     83  C   UNL A   1      46.009  25.543  25.805  1.00  0.00     0.055 A 
ATOM     84  C   UNL A   1      46.404  27.918  25.798  1.00  0.00     0.041 A 
ATOM     85  F   UNL A   1      46.345  29.107  27.821  1.00  0.00    -0.206 F 
ATOM     86  C   UNL A   1      46.328  26.712  25.107  1.00  0.00     0.022 A 
BRANCH  83  87
ATOM     87  S   UNL A   1      46.076  23.970  24.903  1.00  0.00     0.124 S 
ATOM     88  O   UNL A   1      46.317  23.010  25.977  1.00  0.00    -0.237 OA
ATOM     89  O   UNL A   1      44.748  23.920  24.299  1.00  0.00    -0.237 OA
ATOM     90  O   UNL A   1      47.180  24.156  23.968  1.00  0.00    -0.744 OA
ENDBRANCH  83  87
ENDBRANCH  56  80
BRANCH  68  91
ATOM     91  C   UNL A   1      50.276  25.121  33.125  1.00  0.00     0.023 A 
ATOM     92  C   UNL A   1      50.507  23.732  33.103  1.00  0.00     0.031 A 
ATOM     93  C   UNL A   1      51.360  25.978  33.376  1.00  0.00     0.131 A 
ATOM     94  C   UNL A   1      51.787  23.238  33.376  1.00  0.00     0.055 A 
ATOM     95  C   UNL A   1      52.642  25.481  33.609  1.00  0.00     0.041 A 
ATOM     96  F   UNL A   1      51.181  27.307  33.414  1.00  0.00    -0.206 F 
ATOM     97  C   UNL A   1      52.857  24.105  33.623  1.00  0.00     0.022 A 
BRANCH  94  98
ATOM     98  S   UNL A   1      52.095  21.455  33.488  1.00  0.00     0.124 S 
ATOM     99  O   UNL A   1      52.099  21.056  32.083  1.00  0.00    -0.237 OA
ATOM    100  O   UNL A   1      53.394  21.409  34.153  1.00  0.00    -0.237 OA
ATOM    101  O   UNL A   1      50.970  20.951  34.270  1.00  0.00    -0.744 OA
ENDBRANCH  94  98
ENDBRANCH  68  91
ENDBRANCH  42  43
ENDBRANCH  35  37
ENDBRANCH  34  35
ENDBRANCH   1  34
TORSDOF 16
ENDMDL
MODEL 2
REMARK VINA RESULT:     -10.6      9.268     13.993
REMARK SMILES C[NH+]1CCN(c2nc3c(cc2F)c(=O)c(C(=O)OCCOC(=O)c2ccc(-c4c5nc(c(-c6cc(S(=O)(=O)[O-])ccc6F)c6ccc([nH]6)c(-c6cc(S(=O)(=O)[O-])ccc6F)c6nc(c(-c7cc(S(=O)(=O)[O-])ccc7F)c7ccc4[nH]7)C=C6)C=C5)cc2)cn3-c2ccc(F)cc2F)CC1
REMARK SMILES IDX 20 1 19 2 18 3 16 4 17 5 15 6 6 7 7 8 11 9 8 10 10 11 12 12
REMARK SMILES IDX 9 13 88 14 13 15 87 16 14 17 5 18 1 19 2 20 3 21 98 22 4 24
REMARK SMILES IDX 97 25 89 26 90 27 95 28 91 29 94 30 96 31 92 32 93 33 21 34
REMARK SMILES IDX 22 35 23 36 24 37 25 38 86 39 26 40 85 41 27 42 28 43 29 44
REMARK SMILES IDX 79 45 30 46 84 47 78 48 80 49 31 50 83 51 77 52 76 53 32 55
REMARK SMILES IDX 64 56 44 57 63 58 45 59 48 60 62 61 81 62 46 63 47 64 61 66
REMARK SMILES IDX 82 67 49 68 33 69 34 70 42 71 35 72 41 73 43 74 40 75 36 76
REMARK SMILES IDX 37 77 38 78 39 79 65 80 66 81 74 82 67 83 73 84 75 85 72 86
REMARK SMILES IDX 68 87 69 88 70 89 71 90 50 91 51 92 59 93 52 94 58 95 60 96
REMARK SMILES IDX 57 97 53 98 54 99 55 100 56 101
REMARK H PARENT 2 23 80 54 48 65
REMARK Flexibility Score: inf
ROOT
ATOM      1  C   UNL A   1      45.795  38.855  27.808  1.00  0.00     0.275 C 
ENDROOT
BRANCH   1   2
ATOM      2  C   UNL A   1      44.972  40.137  27.902  1.00  0.00     0.275 C 
BRANCH   2   3
ATOM      3  O   UNL A   1      45.735  41.257  27.416  1.00  0.00    -0.458 OA
BRANCH   3   4
ATOM      4  C   UNL A   1      45.049  42.391  27.146  1.00  0.00     0.343 C 
ATOM      5  O   UNL A   1      44.679  43.222  27.964  1.00  0.00    -0.246 OA
BRANCH   4   6
ATOM      6  C   UNL A   1      44.855  42.557  25.697  1.00  0.00     0.124 A 
ATOM      7  C   UNL A   1      43.271  43.455  20.977  1.00  0.00     0.167 A 
ATOM      8  N   UNL A   1      44.474  43.545  21.588  1.00  0.00    -0.209 NA
ATOM      9  C   UNL A   1      42.157  42.924  21.640  1.00  0.00     0.166 A 
ATOM     10  C   UNL A   1      44.584  43.169  22.892  1.00  0.00     0.151 A 
ATOM     11  C   UNL A   1      42.267  42.474  22.939  1.00  0.00     0.059 A 
ATOM     12  F   UNL A   1      40.969  42.827  21.022  1.00  0.00    -0.203 F 
ATOM     13  C   UNL A   1      43.494  42.612  23.578  1.00  0.00     0.069 A 
ATOM     14  N   UNL A   1      45.811  43.376  23.602  1.00  0.00    -0.297 N 
ATOM     15  C   UNL A   1      43.602  42.222  24.998  1.00  0.00     0.205 A 
ATOM     16  C   UNL A   1      45.836  43.105  24.965  1.00  0.00     0.113 A 
ATOM     17  O   UNL A   1      42.641  41.716  25.567  1.00  0.00    -0.288 OA
BRANCH   7  18
ATOM     18  N   UNL A   1      43.142  43.901  19.687  1.00  0.00    -0.343 N 
ATOM     19  C   UNL A   1      41.905  46.331  16.503  1.00  0.00     0.332 C 
ATOM     20  N   UNL A   1      42.603  45.252  17.201  1.00  0.00    -0.334 N 
ATOM     21  C   UNL A   1      41.625  44.324  17.833  1.00  0.00     0.283 C 
ATOM     22  C   UNL A   1      43.507  45.823  18.228  1.00  0.00     0.283 C 
ATOM     23  H   UNL A   1      43.156  44.725  16.526  1.00  0.00     0.347 HD
ATOM     24  C   UNL A   1      42.275  43.232  18.726  1.00  0.00     0.179 C 
ATOM     25  C   UNL A   1      44.177  44.751  19.109  1.00  0.00     0.179 C 
ENDBRANCH   7  18
BRANCH  14  26
ATOM     26  C   UNL A   1      46.980  43.912  22.980  1.00  0.00     0.083 A 
ATOM     27  C   UNL A   1      47.300  45.272  23.118  1.00  0.00     0.033 A 
ATOM     28  C   UNL A   1      47.859  43.091  22.247  1.00  0.00     0.150 A 
ATOM     29  C   UNL A   1      48.465  45.785  22.543  1.00  0.00     0.041 A 
ATOM     30  C   UNL A   1      49.013  43.599  21.657  1.00  0.00     0.080 A 
ATOM     31  F   UNL A   1      47.585  41.786  22.097  1.00  0.00    -0.205 F 
ATOM     32  C   UNL A   1      49.305  44.947  21.814  1.00  0.00     0.126 A 
ATOM     33  F   UNL A   1      50.409  45.455  21.256  1.00  0.00    -0.207 F 
ENDBRANCH  14  26
ENDBRANCH   4   6
ENDBRANCH   3   4
ENDBRANCH   2   3
ENDBRANCH   1   2
BRANCH   1  34
ATOM     34  O   UNL A   1      45.065  37.759  28.387  1.00  0.00    -0.458 OA
BRANCH  34  35
ATOM     35  C   UNL A   1      45.754  37.016  29.283  1.00  0.00     0.338 C 
ATOM     36  O   UNL A   1      46.433  37.413  30.213  1.00  0.00    -0.246 OA
BRANCH  35  37
ATOM     37  C   UNL A   1      45.505  35.592  29.028  1.00  0.00     0.060 A 
ATOM     38  C   UNL A   1      44.872  35.226  27.842  1.00  0.00     0.016 A 
ATOM     39  C   UNL A   1      45.760  34.645  30.015  1.00  0.00     0.016 A 
ATOM     40  C   UNL A   1      44.381  33.935  27.683  1.00  0.00     0.010 A 
ATOM     41  C   UNL A   1      45.356  33.322  29.810  1.00  0.00     0.010 A 
ATOM     42  C   UNL A   1      44.621  32.966  28.665  1.00  0.00    -0.014 A 
BRANCH  42  43
ATOM     43  C   UNL A   1      44.076  31.590  28.516  1.00  0.00     0.031 A 
ATOM     44  C   UNL A   1      44.855  30.554  27.753  1.00  0.00     0.074 A 
ATOM     45  C   UNL A   1      42.886  31.271  29.059  1.00  0.00     0.049 A 
ATOM     46  N   UNL A   1      44.484  29.361  27.371  1.00  0.00    -0.248 NA
ATOM     47  C   UNL A   1      46.229  30.910  27.359  1.00  0.00     0.031 C 
ATOM     48  C   UNL A   1      42.058  32.171  29.861  1.00  0.00     0.029 A 
ATOM     49  N   UNL A   1      42.160  30.104  29.014  1.00  0.00    -0.354 N 
ATOM     50  C   UNL A   1      45.551  28.844  26.646  1.00  0.00     0.074 A 
ATOM     51  C   UNL A   1      46.586  29.854  26.639  1.00  0.00     0.031 C 
ATOM     52  C   UNL A   1      40.951  31.522  30.249  1.00  0.00     0.029 A 
ATOM     53  C   UNL A   1      40.946  30.189  29.655  1.00  0.00     0.049 A 
ATOM     54  H   UNL A   1      42.480  29.287  28.568  1.00  0.00     0.167 HD
ATOM     55  C   UNL A   1      45.652  27.637  26.041  1.00  0.00     0.034 A 
ATOM     56  C   UNL A   1      39.923  29.313  29.723  1.00  0.00     0.034 A 
ATOM     57  C   UNL A   1      44.633  26.623  26.100  1.00  0.00     0.049 A 
ATOM     58  C   UNL A   1      40.049  27.983  29.032  1.00  0.00     0.074 A 
ATOM     59  C   UNL A   1      44.659  25.356  25.544  1.00  0.00     0.029 A 
ATOM     60  N   UNL A   1      43.421  26.746  26.761  1.00  0.00    -0.354 N 
ATOM     61  N   UNL A   1      41.061  27.512  28.341  1.00  0.00    -0.248 NA
ATOM     62  C   UNL A   1      38.904  27.067  29.116  1.00  0.00     0.031 C 
ATOM     63  C   UNL A   1      43.446  24.729  25.835  1.00  0.00     0.029 A 
ATOM     64  C   UNL A   1      42.684  25.584  26.615  1.00  0.00     0.049 A 
ATOM     65  H   UNL A   1      43.128  27.543  27.261  1.00  0.00     0.167 HD
ATOM     66  C   UNL A   1      40.682  26.240  27.924  1.00  0.00     0.074 A 
ATOM     67  C   UNL A   1      39.353  26.008  28.453  1.00  0.00     0.031 C 
ATOM     68  C   UNL A   1      41.371  25.352  27.168  1.00  0.00     0.034 A 
BRANCH  55  69
ATOM     69  C   UNL A   1      46.897  27.328  25.252  1.00  0.00     0.023 A 
ATOM     70  C   UNL A   1      47.000  27.764  23.917  1.00  0.00     0.031 A 
ATOM     71  C   UNL A   1      47.915  26.512  25.769  1.00  0.00     0.131 A 
ATOM     72  C   UNL A   1      48.087  27.356  23.135  1.00  0.00     0.055 A 
ATOM     73  C   UNL A   1      49.014  26.134  24.995  1.00  0.00     0.041 A 
ATOM     74  F   UNL A   1      47.862  26.078  27.040  1.00  0.00    -0.206 F 
ATOM     75  C   UNL A   1      49.097  26.549  23.668  1.00  0.00     0.022 A 
BRANCH  72  76
ATOM     76  S   UNL A   1      48.213  27.828  21.389  1.00  0.00     0.124 S 
ATOM     77  O   UNL A   1      48.633  26.574  20.765  1.00  0.00    -0.237 OA
ATOM     78  O   UNL A   1      46.847  28.247  21.088  1.00  0.00    -0.237 OA
ATOM     79  O   UNL A   1      49.216  28.887  21.383  1.00  0.00    -0.744 OA
ENDBRANCH  72  76
ENDBRANCH  55  69
BRANCH  56  80
ATOM     80  C   UNL A   1      38.702  29.692  30.493  1.00  0.00     0.023 A 
ATOM     81  C   UNL A   1      37.791  30.635  29.982  1.00  0.00     0.031 A 
ATOM     82  C   UNL A   1      38.500  29.212  31.796  1.00  0.00     0.131 A 
ATOM     83  C   UNL A   1      36.767  31.126  30.800  1.00  0.00     0.055 A 
ATOM     84  C   UNL A   1      37.435  29.654  32.585  1.00  0.00     0.041 A 
ATOM     85  F   UNL A   1      39.348  28.318  32.327  1.00  0.00    -0.206 F 
ATOM     86  C   UNL A   1      36.572  30.630  32.093  1.00  0.00     0.022 A 
BRANCH  83  87
ATOM     87  S   UNL A   1      35.725  32.507  30.256  1.00  0.00     0.124 S 
ATOM     88  O   UNL A   1      35.558  32.225  28.833  1.00  0.00    -0.237 OA
ATOM     89  O   UNL A   1      34.533  32.320  31.079  1.00  0.00    -0.237 OA
ATOM     90  O   UNL A   1      36.522  33.687  30.573  1.00  0.00    -0.744 OA
ENDBRANCH  83  87
ENDBRANCH  56  80
BRANCH  68  91
ATOM     91  C   UNL A   1      40.740  24.020  26.860  1.00  0.00     0.023 A 
ATOM     92  C   UNL A   1      39.518  23.970  26.163  1.00  0.00     0.031 A 
ATOM     93  C   UNL A   1      41.252  22.829  27.402  1.00  0.00     0.131 A 
ATOM     94  C   UNL A   1      38.822  22.760  26.067  1.00  0.00     0.055 A 
ATOM     95  C   UNL A   1      40.573  21.618  27.269  1.00  0.00     0.041 A 
ATOM     96  F   UNL A   1      42.409  22.833  28.081  1.00  0.00    -0.206 F 
ATOM     97  C   UNL A   1      39.346  21.582  26.612  1.00  0.00     0.022 A 
BRANCH  94  98
ATOM     98  S   UNL A   1      37.184  22.683  25.294  1.00  0.00     0.124 S 
ATOM     99  O   UNL A   1      36.906  21.248  25.310  1.00  0.00    -0.237 OA
ATOM    100  O   UNL A   1      36.376  23.485  26.209  1.00  0.00    -0.237 OA
ATOM    101  O   UNL A   1      37.392  23.258  23.969  1.00  0.00    -0.744 OA
ENDBRANCH  94  98
ENDBRANCH  68  91
ENDBRANCH  42  43
ENDBRANCH  35  37
ENDBRANCH  34  35
ENDBRANCH   1  34
TORSDOF 16
ENDMDL
MODEL 3
REMARK VINA RESULT:     -10.4      4.004      7.434
REMARK SMILES C[NH+]1CCN(c2nc3c(cc2F)c(=O)c(C(=O)OCCOC(=O)c2ccc(-c4c5nc(c(-c6cc(S(=O)(=O)[O-])ccc6F)c6ccc([nH]6)c(-c6cc(S(=O)(=O)[O-])ccc6F)c6nc(c(-c7cc(S(=O)(=O)[O-])ccc7F)c7ccc4[nH]7)C=C6)C=C5)cc2)cn3-c2ccc(F)cc2F)CC1
REMARK SMILES IDX 20 1 19 2 18 3 16 4 17 5 15 6 6 7 7 8 11 9 8 10 10 11 12 12
REMARK SMILES IDX 9 13 88 14 13 15 87 16 14 17 5 18 1 19 2 20 3 21 98 22 4 24
REMARK SMILES IDX 97 25 89 26 90 27 95 28 91 29 94 30 96 31 92 32 93 33 21 34
REMARK SMILES IDX 22 35 23 36 24 37 25 38 86 39 26 40 85 41 27 42 28 43 29 44
REMARK SMILES IDX 79 45 30 46 84 47 78 48 80 49 31 50 83 51 77 52 76 53 32 55
REMARK SMILES IDX 64 56 44 57 63 58 45 59 48 60 62 61 81 62 46 63 47 64 61 66
REMARK SMILES IDX 82 67 49 68 33 69 34 70 42 71 35 72 41 73 43 74 40 75 36 76
REMARK SMILES IDX 37 77 38 78 39 79 65 80 66 81 74 82 67 83 73 84 75 85 72 86
REMARK SMILES IDX 68 87 69 88 70 89 71 90 50 91 51 92 59 93 52 94 58 95 60 96
REMARK SMILES IDX 57 97 53 98 54 99 55 100 56 101
REMARK H PARENT 2 23 80 54 48 65
REMARK Flexibility Score: inf
ROOT
ATOM      1  C   UNL A   1      34.064  33.997  28.350  1.00  0.00     0.275 C 
ENDROOT
BRANCH   1   2
ATOM      2  C   UNL A   1      34.322  33.796  29.842  1.00  0.00     0.275 C 
BRANCH   2   3
ATOM      3  O   UNL A   1      35.714  34.015  30.141  1.00  0.00    -0.458 OA
BRANCH   3   4
ATOM      4  C   UNL A   1      36.281  33.183  31.044  1.00  0.00     0.343 C 
ATOM      5  O   UNL A   1      35.890  32.061  31.336  1.00  0.00    -0.246 OA
BRANCH   4   6
ATOM      6  C   UNL A   1      37.509  33.769  31.603  1.00  0.00     0.124 A 
ATOM      7  C   UNL A   1      41.453  35.314  34.369  1.00  0.00     0.167 A 
ATOM      8  N   UNL A   1      41.297  35.002  33.062  1.00  0.00    -0.209 NA
ATOM      9  C   UNL A   1      40.357  35.357  35.241  1.00  0.00     0.166 A 
ATOM     10  C   UNL A   1      40.061  34.664  32.605  1.00  0.00     0.151 A 
ATOM     11  C   UNL A   1      39.087  35.085  34.780  1.00  0.00     0.059 A 
ATOM     12  F   UNL A   1      40.519  35.679  36.535  1.00  0.00    -0.203 F 
ATOM     13  C   UNL A   1      38.939  34.719  33.447  1.00  0.00     0.069 A 
ATOM     14  N   UNL A   1      39.889  34.202  31.260  1.00  0.00    -0.297 N 
ATOM     15  C   UNL A   1      37.600  34.333  32.961  1.00  0.00     0.205 A 
ATOM     16  C   UNL A   1      38.637  33.739  30.878  1.00  0.00     0.113 A 
ATOM     17  O   UNL A   1      36.632  34.412  33.711  1.00  0.00    -0.288 OA
BRANCH   7  18
ATOM     18  N   UNL A   1      42.710  35.584  34.847  1.00  0.00    -0.343 N 
ATOM     19  C   UNL A   1      46.087  35.317  37.316  1.00  0.00     0.332 C 
ATOM     20  N   UNL A   1      45.247  35.749  36.199  1.00  0.00    -0.334 N 
ATOM     21  C   UNL A   1      44.030  36.442  36.702  1.00  0.00     0.283 C 
ATOM     22  C   UNL A   1      44.868  34.575  35.376  1.00  0.00     0.283 C 
ATOM     23  H   UNL A   1      45.775  36.403  35.622  1.00  0.00     0.347 HD
ATOM     24  C   UNL A   1      43.003  36.801  35.592  1.00  0.00     0.179 C 
ATOM     25  C   UNL A   1      43.865  34.918  34.257  1.00  0.00     0.179 C 
ENDBRANCH   7  18
BRANCH  14  26
ATOM     26  C   UNL A   1      40.968  34.138  30.325  1.00  0.00     0.083 A 
ATOM     27  C   UNL A   1      41.164  35.168  29.392  1.00  0.00     0.033 A 
ATOM     28  C   UNL A   1      41.882  33.066  30.338  1.00  0.00     0.150 A 
ATOM     29  C   UNL A   1      42.244  35.123  28.507  1.00  0.00     0.041 A 
ATOM     30  C   UNL A   1      42.950  33.006  29.447  1.00  0.00     0.080 A 
ATOM     31  F   UNL A   1      41.726  32.066  31.219  1.00  0.00    -0.205 F 
ATOM     32  C   UNL A   1      43.120  34.042  28.539  1.00  0.00     0.126 A 
ATOM     33  F   UNL A   1      44.141  34.004  27.675  1.00  0.00    -0.207 F 
ENDBRANCH  14  26
ENDBRANCH   4   6
ENDBRANCH   3   4
ENDBRANCH   2   3
ENDBRANCH   1   2
BRANCH   1  34
ATOM     34  O   UNL A   1      34.904  33.116  27.585  1.00  0.00    -0.458 OA
BRANCH  34  35
ATOM     35  C   UNL A   1      34.576  31.805  27.650  1.00  0.00     0.338 C 
ATOM     36  O   UNL A   1      33.499  31.294  27.401  1.00  0.00    -0.246 OA
BRANCH  35  37
ATOM     37  C   UNL A   1      35.767  31.023  28.003  1.00  0.00     0.060 A 
ATOM     38  C   UNL A   1      35.597  29.731  28.497  1.00  0.00     0.016 A 
ATOM     39  C   UNL A   1      37.028  31.612  27.985  1.00  0.00     0.016 A 
ATOM     40  C   UNL A   1      36.663  29.065  29.089  1.00  0.00     0.010 A 
ATOM     41  C   UNL A   1      38.120  30.899  28.487  1.00  0.00     0.010 A 
ATOM     42  C   UNL A   1      37.940  29.640  29.088  1.00  0.00    -0.014 A 
BRANCH  42  43
ATOM     43  C   UNL A   1      39.081  28.946  29.742  1.00  0.00     0.031 A 
ATOM     44  C   UNL A   1      39.520  29.359  31.119  1.00  0.00     0.074 A 
ATOM     45  C   UNL A   1      39.725  27.950  29.101  1.00  0.00     0.049 A 
ATOM     46  N   UNL A   1      40.584  28.998  31.787  1.00  0.00    -0.248 NA
ATOM     47  C   UNL A   1      38.655  30.310  31.838  1.00  0.00     0.031 C 
ATOM     48  C   UNL A   1      39.365  27.427  27.784  1.00  0.00     0.029 A 
ATOM     49  N   UNL A   1      40.820  27.205  29.467  1.00  0.00    -0.354 N 
ATOM     50  C   UNL A   1      40.548  29.716  32.977  1.00  0.00     0.074 A 
ATOM     51  C   UNL A   1      39.358  30.536  32.940  1.00  0.00     0.031 C 
ATOM     52  C   UNL A   1      40.207  26.435  27.460  1.00  0.00     0.029 A 
ATOM     53  C   UNL A   1      41.219  26.308  28.504  1.00  0.00     0.049 A 
ATOM     54  H   UNL A   1      41.274  27.304  30.335  1.00  0.00     0.167 HD
ATOM     55  C   UNL A   1      41.432  29.692  34.002  1.00  0.00     0.034 A 
ATOM     56  C   UNL A   1      42.300  25.503  28.443  1.00  0.00     0.034 A 
ATOM     57  C   UNL A   1      42.586  28.832  34.046  1.00  0.00     0.049 A 
ATOM     58  C   UNL A   1      43.278  25.502  29.586  1.00  0.00     0.074 A 
ATOM     59  C   UNL A   1      43.523  28.714  35.057  1.00  0.00     0.029 A 
ATOM     60  N   UNL A   1      42.952  27.936  33.054  1.00  0.00    -0.354 N 
ATOM     61  N   UNL A   1      43.237  26.195  30.700  1.00  0.00    -0.248 NA
ATOM     62  C   UNL A   1      44.450  24.624  29.470  1.00  0.00     0.031 C 
ATOM     63  C   UNL A   1      44.477  27.778  34.658  1.00  0.00     0.029 A 
ATOM     64  C   UNL A   1      44.110  27.273  33.421  1.00  0.00     0.049 A 
ATOM     65  H   UNL A   1      42.462  27.794  32.211  1.00  0.00     0.167 HD
ATOM     66  C   UNL A   1      44.365  25.824  31.424  1.00  0.00     0.074 A 
ATOM     67  C   UNL A   1      45.062  24.834  30.629  1.00  0.00     0.031 C 
ATOM     68  C   UNL A   1      44.784  26.268  32.634  1.00  0.00     0.034 A 
BRANCH  55  69
ATOM     69  C   UNL A   1      41.210  30.618  35.168  1.00  0.00     0.023 A 
ATOM     70  C   UNL A   1      39.951  30.652  35.798  1.00  0.00     0.031 A 
ATOM     71  C   UNL A   1      42.187  31.540  35.575  1.00  0.00     0.131 A 
ATOM     72  C   UNL A   1      39.694  31.612  36.784  1.00  0.00     0.055 A 
ATOM     73  C   UNL A   1      41.936  32.474  36.582  1.00  0.00     0.041 A 
ATOM     74  F   UNL A   1      43.404  31.539  35.006  1.00  0.00    -0.206 F 
ATOM     75  C   UNL A   1      40.681  32.519  37.184  1.00  0.00     0.022 A 
BRANCH  72  76
ATOM     76  S   UNL A   1      38.060  31.742  37.560  1.00  0.00     0.124 S 
ATOM     77  O   UNL A   1      38.392  32.287  38.875  1.00  0.00    -0.237 OA
ATOM     78  O   UNL A   1      37.369  32.662  36.660  1.00  0.00    -0.237 OA
ATOM     79  O   UNL A   1      37.564  30.370  37.567  1.00  0.00    -0.744 OA
ENDBRANCH  72  76
ENDBRANCH  55  69
BRANCH  56  80
ATOM     80  C   UNL A   1      42.482  24.633  27.245  1.00  0.00     0.023 A 
ATOM     81  C   UNL A   1      42.005  23.309  27.236  1.00  0.00     0.031 A 
ATOM     82  C   UNL A   1      43.240  25.073  26.149  1.00  0.00     0.131 A 
ATOM     83  C   UNL A   1      42.360  22.450  26.189  1.00  0.00     0.055 A 
ATOM     84  C   UNL A   1      43.534  24.232  25.074  1.00  0.00     0.041 A 
ATOM     85  F   UNL A   1      43.722  26.326  26.118  1.00  0.00    -0.206 F 
ATOM     86  C   UNL A   1      43.109  22.906  25.100  1.00  0.00     0.022 A 
BRANCH  83  87
ATOM     87  S   UNL A   1      41.962  20.681  26.265  1.00  0.00     0.124 S 
ATOM     88  O   UNL A   1      42.323  20.343  27.638  1.00  0.00    -0.237 OA
ATOM     89  O   UNL A   1      40.531  20.689  25.973  1.00  0.00    -0.237 OA
ATOM     90  O   UNL A   1      42.806  20.093  25.230  1.00  0.00    -0.744 OA
ENDBRANCH  83  87
ENDBRANCH  56  80
BRANCH  68  91
ATOM     91  C   UNL A   1      46.048  25.695  33.218  1.00  0.00     0.023 A 
ATOM     92  C   UNL A   1      47.298  26.125  32.735  1.00  0.00     0.031 A 
ATOM     93  C   UNL A   1      46.010  24.614  34.114  1.00  0.00     0.131 A 
ATOM     94  C   UNL A   1      48.460  25.445  33.115  1.00  0.00     0.055 A 
ATOM     95  C   UNL A   1      47.176  23.964  34.520  1.00  0.00     0.041 A 
ATOM     96  F   UNL A   1      44.839  24.167  34.592  1.00  0.00    -0.206 F 
ATOM     97  C   UNL A   1      48.406  24.369  34.009  1.00  0.00     0.022 A 
BRANCH  94  98
ATOM     98  S   UNL A   1      50.072  25.883  32.410  1.00  0.00     0.124 S 
ATOM     99  O   UNL A   1      49.691  26.703  31.262  1.00  0.00    -0.237 OA
ATOM    100  O   UNL A   1      50.702  26.606  33.511  1.00  0.00    -0.237 OA
ATOM    101  O   UNL A   1      50.673  24.596  32.077  1.00  0.00    -0.744 OA
ENDBRANCH  94  98
ENDBRANCH  68  91
ENDBRANCH  42  43
ENDBRANCH  35  37
ENDBRANCH  34  35
ENDBRANCH   1  34
TORSDOF 16
ENDMDL
