MODEL 1
REMARK VINA RESULT:     -10.7      0.000      0.000
REMARK SMILES C[C@@H](Sc1ccccc1[N+](=O)[O-])[C@@H](C)C(=O)OCCOC(=O)c1ccc(-c2c3nc(c(-c4cc(S(=O)(=O)[O-])ccc4F)c4ccc([nH]4)c(-c4cc(S(=O)(=O)[O-])ccc4F)c4nc(c(-c5cc(S(=O)(=O)[O-])ccc5F)c5ccc2[nH]5)C=C4)C=C3)cc1
REMARK SMILES IDX 18 1 17 2 15 3 16 4 13 5 14 6 2 7 1 8 3 9 4 10 5 11 9 12
REMARK SMILES IDX 6 13 8 14 7 15 10 16 11 17 12 18 19 19 20 20 21 21 22 22
REMARK SMILES IDX 23 23 24 24 85 25 25 26 84 27 26 28 27 29 28 30 78 31 29 32
REMARK SMILES IDX 83 33 77 34 79 35 30 36 82 37 76 38 75 39 31 41 63 42 43 43
REMARK SMILES IDX 62 44 44 45 47 46 61 47 80 48 45 49 46 50 60 52 81 53 48 54
REMARK SMILES IDX 32 55 33 56 41 57 34 58 40 59 42 60 39 61 35 62 36 63 37 64
REMARK SMILES IDX 38 65 64 66 65 67 73 68 66 69 72 70 74 71 71 72 67 73 68 74
REMARK SMILES IDX 69 75 70 76 49 77 50 78 58 79 51 80 57 81 59 82 56 83 52 84
REMARK SMILES IDX 53 85 54 86 55 87
REMARK H PARENT 79 40 47 51
REMARK Flexibility Score: inf
ROOT
ATOM      1  C   UNL A   1      35.236  20.748  24.787  1.00  0.00     0.274 C 
ENDROOT
BRANCH   1   2
ATOM      2  O   UNL A   1      34.903  22.122  25.074  1.00  0.00    -0.462 OA
BRANCH   2   3
ATOM      3  C   UNL A   1      34.588  22.852  23.974  1.00  0.00     0.309 C 
ATOM      4  O   UNL A   1      35.262  22.875  22.946  1.00  0.00    -0.252 OA
BRANCH   3   5
ATOM      5  C   UNL A   1      33.397  23.776  24.142  1.00  0.00     0.109 C 
ATOM      6  C   UNL A   1      33.209  24.453  22.776  1.00  0.00     0.021 C 
BRANCH   5   7
ATOM      7  C   UNL A   1      33.400  24.790  25.320  1.00  0.00     0.063 C 
ATOM      8  C   UNL A   1      34.156  26.056  24.875  1.00  0.00     0.020 C 
BRANCH   7   9
ATOM      9  S   UNL A   1      31.668  25.270  25.767  1.00  0.00    -0.115 SA
BRANCH   9  10
ATOM     10  C   UNL A   1      31.340  26.878  25.021  1.00  0.00     0.085 A 
ATOM     11  C   UNL A   1      30.842  26.991  23.710  1.00  0.00     0.022 A 
ATOM     12  C   UNL A   1      31.520  28.093  25.718  1.00  0.00     0.282 A 
ATOM     13  C   UNL A   1      30.517  28.231  23.136  1.00  0.00     0.002 A 
ATOM     14  C   UNL A   1      31.221  29.344  25.134  1.00  0.00     0.087 A 
ATOM     15  C   UNL A   1      30.710  29.408  23.844  1.00  0.00     0.007 A 
BRANCH  12  16
ATOM     16  N   UNL A   1      32.021  28.156  27.088  1.00  0.00     0.063 N 
ATOM     17  O   UNL A   1      31.186  27.968  27.988  1.00  0.00    -0.258 OA
ATOM     18  O   UNL A   1      33.244  28.260  27.255  1.00  0.00    -0.258 OA
ENDBRANCH  12  16
ENDBRANCH   9  10
ENDBRANCH   7   9
ENDBRANCH   5   7
ENDBRANCH   3   5
ENDBRANCH   2   3
ENDBRANCH   1   2
BRANCH   1  19
ATOM     19  C   UNL A   1      36.718  20.433  24.993  1.00  0.00     0.275 C 
BRANCH  19  20
ATOM     20  O   UNL A   1      37.392  21.511  25.661  1.00  0.00    -0.458 OA
BRANCH  20  21
ATOM     21  C   UNL A   1      38.695  21.272  25.948  1.00  0.00     0.338 C 
ATOM     22  O   UNL A   1      39.280  20.213  25.807  1.00  0.00    -0.246 OA
BRANCH  21  23
ATOM     23  C   UNL A   1      39.324  22.487  26.493  1.00  0.00     0.060 A 
ATOM     24  C   UNL A   1      38.874  23.750  26.105  1.00  0.00     0.016 A 
ATOM     25  C   UNL A   1      40.439  22.363  27.321  1.00  0.00     0.016 A 
ATOM     26  C   UNL A   1      39.556  24.895  26.514  1.00  0.00     0.010 A 
ATOM     27  C   UNL A   1      41.082  23.514  27.784  1.00  0.00     0.010 A 
ATOM     28  C   UNL A   1      40.656  24.790  27.373  1.00  0.00    -0.014 A 
BRANCH  28  29
ATOM     29  C   UNL A   1      41.376  26.007  27.833  1.00  0.00     0.031 A 
ATOM     30  C   UNL A   1      40.640  27.064  28.609  1.00  0.00     0.074 A 
ATOM     31  C   UNL A   1      42.679  26.172  27.534  1.00  0.00     0.049 A 
ATOM     32  N   UNL A   1      41.028  28.270  28.938  1.00  0.00    -0.248 NA
ATOM     33  C   UNL A   1      39.287  26.719  29.067  1.00  0.00     0.031 C 
ATOM     34  C   UNL A   1      43.516  25.195  26.834  1.00  0.00     0.029 A 
ATOM     35  N   UNL A   1      43.527  27.228  27.764  1.00  0.00    -0.354 N 
ATOM     36  C   UNL A   1      39.955  28.843  29.612  1.00  0.00     0.074 A 
ATOM     37  C   UNL A   1      38.897  27.854  29.630  1.00  0.00     0.031 C 
ATOM     38  C   UNL A   1      44.752  25.697  26.692  1.00  0.00     0.029 A 
ATOM     39  C   UNL A   1      44.778  27.057  27.219  1.00  0.00     0.049 A 
ATOM     40  H   UNL A   1      43.264  28.030  28.272  1.00  0.00     0.167 HD
ATOM     41  C   UNL A   1      39.866  30.081  30.160  1.00  0.00     0.034 A 
ATOM     42  C   UNL A   1      45.811  27.915  27.106  1.00  0.00     0.034 A 
ATOM     43  C   UNL A   1      40.938  31.048  30.140  1.00  0.00     0.049 A 
ATOM     44  C   UNL A   1      45.659  29.313  27.648  1.00  0.00     0.074 A 
ATOM     45  C   UNL A   1      40.961  32.323  30.682  1.00  0.00     0.029 A 
ATOM     46  N   UNL A   1      42.176  30.853  29.541  1.00  0.00    -0.354 N 
ATOM     47  N   UNL A   1      44.629  29.857  28.253  1.00  0.00    -0.248 NA
ATOM     48  C   UNL A   1      46.806  30.216  27.482  1.00  0.00     0.031 C 
ATOM     49  C   UNL A   1      42.184  32.919  30.356  1.00  0.00     0.029 A 
ATOM     50  C   UNL A   1      42.956  31.993  29.672  1.00  0.00     0.049 A 
ATOM     51  H   UNL A   1      42.459  30.025  29.089  1.00  0.00     0.167 HD
ATOM     52  C   UNL A   1      45.012  31.160  28.558  1.00  0.00     0.074 A 
ATOM     53  C   UNL A   1      46.372  31.315  28.084  1.00  0.00     0.031 C 
ATOM     54  C   UNL A   1      44.305  32.138  29.177  1.00  0.00     0.034 A 
BRANCH  41  55
ATOM     55  C   UNL A   1      38.541  30.476  30.768  1.00  0.00     0.023 A 
ATOM     56  C   UNL A   1      37.535  31.115  30.023  1.00  0.00     0.031 A 
ATOM     57  C   UNL A   1      38.292  30.223  32.130  1.00  0.00     0.131 A 
ATOM     58  C   UNL A   1      36.354  31.534  30.656  1.00  0.00     0.055 A 
ATOM     59  C   UNL A   1      37.088  30.580  32.738  1.00  0.00     0.041 A 
ATOM     60  F   UNL A   1      39.223  29.632  32.897  1.00  0.00    -0.206 F 
ATOM     61  C   UNL A   1      36.115  31.252  32.004  1.00  0.00     0.022 A 
BRANCH  58  62
ATOM     62  S   UNL A   1      35.179  32.558  29.726  1.00  0.00     0.124 S 
ATOM     63  O   UNL A   1      36.060  33.564  29.137  1.00  0.00    -0.237 OA
ATOM     64  O   UNL A   1      34.592  31.599  28.797  1.00  0.00    -0.237 OA
ATOM     65  O   UNL A   1      34.272  33.062  30.756  1.00  0.00    -0.744 OA
ENDBRANCH  58  62
ENDBRANCH  41  55
BRANCH  42  66
ATOM     66  C   UNL A   1      47.053  27.509  26.387  1.00  0.00     0.023 A 
ATOM     67  C   UNL A   1      47.228  27.788  25.023  1.00  0.00     0.031 A 
ATOM     68  C   UNL A   1      48.069  26.798  27.052  1.00  0.00     0.131 A 
ATOM     69  C   UNL A   1      48.374  27.325  24.358  1.00  0.00     0.055 A 
ATOM     70  C   UNL A   1      49.231  26.387  26.397  1.00  0.00     0.041 A 
ATOM     71  F   UNL A   1      47.951  26.503  28.356  1.00  0.00    -0.206 F 
ATOM     72  C   UNL A   1      49.384  26.639  25.039  1.00  0.00     0.022 A 
BRANCH  69  73
ATOM     73  S   UNL A   1      48.494  27.565  22.563  1.00  0.00     0.124 S 
ATOM     74  O   UNL A   1      47.254  28.278  22.275  1.00  0.00    -0.237 OA
ATOM     75  O   UNL A   1      49.723  28.341  22.441  1.00  0.00    -0.237 OA
ATOM     76  O   UNL A   1      48.565  26.202  22.042  1.00  0.00    -0.744 OA
ENDBRANCH  69  73
ENDBRANCH  42  66
BRANCH  54  77
ATOM     77  C   UNL A   1      45.017  33.448  29.412  1.00  0.00     0.023 A 
ATOM     78  C   UNL A   1      45.010  34.476  28.454  1.00  0.00     0.031 A 
ATOM     79  C   UNL A   1      45.725  33.660  30.609  1.00  0.00     0.131 A 
ATOM     80  C   UNL A   1      45.738  35.653  28.688  1.00  0.00     0.055 A 
ATOM     81  C   UNL A   1      46.404  34.853  30.858  1.00  0.00     0.041 A 
ATOM     82  F   UNL A   1      45.767  32.709  31.555  1.00  0.00    -0.206 F 
ATOM     83  C   UNL A   1      46.422  35.853  29.890  1.00  0.00     0.022 A 
BRANCH  80  84
ATOM     84  S   UNL A   1      45.844  36.892  27.367  1.00  0.00     0.124 S 
ATOM     85  O   UNL A   1      47.004  37.677  27.779  1.00  0.00    -0.237 OA
ATOM     86  O   UNL A   1      46.021  36.068  26.176  1.00  0.00    -0.237 OA
ATOM     87  O   UNL A   1      44.563  37.592  27.449  1.00  0.00    -0.744 OA
ENDBRANCH  80  84
ENDBRANCH  54  77
ENDBRANCH  28  29
ENDBRANCH  21  23
ENDBRANCH  20  21
ENDBRANCH  19  20
ENDBRANCH   1  19
TORSDOF 18
ENDMDL
MODEL 2
REMARK VINA RESULT:     -10.6      1.336      1.830
REMARK SMILES C[C@@H](Sc1ccccc1[N+](=O)[O-])[C@@H](C)C(=O)OCCOC(=O)c1ccc(-c2c3nc(c(-c4cc(S(=O)(=O)[O-])ccc4F)c4ccc([nH]4)c(-c4cc(S(=O)(=O)[O-])ccc4F)c4nc(c(-c5cc(S(=O)(=O)[O-])ccc5F)c5ccc2[nH]5)C=C4)C=C3)cc1
REMARK SMILES IDX 18 1 17 2 15 3 16 4 13 5 14 6 2 7 1 8 3 9 4 10 5 11 9 12
REMARK SMILES IDX 6 13 8 14 7 15 10 16 11 17 12 18 19 19 20 20 21 21 22 22
REMARK SMILES IDX 23 23 24 24 85 25 25 26 84 27 26 28 27 29 28 30 78 31 29 32
REMARK SMILES IDX 83 33 77 34 79 35 30 36 82 37 76 38 75 39 31 41 63 42 43 43
REMARK SMILES IDX 62 44 44 45 47 46 61 47 80 48 45 49 46 50 60 52 81 53 48 54
REMARK SMILES IDX 32 55 33 56 41 57 34 58 40 59 42 60 39 61 35 62 36 63 37 64
REMARK SMILES IDX 38 65 64 66 65 67 73 68 66 69 72 70 74 71 71 72 67 73 68 74
REMARK SMILES IDX 69 75 70 76 49 77 50 78 58 79 51 80 57 81 59 82 56 83 52 84
REMARK SMILES IDX 53 85 54 86 55 87
REMARK H PARENT 79 40 47 51
REMARK Flexibility Score: inf
ROOT
ATOM      1  C   UNL A   1      34.902  20.758  24.619  1.00  0.00     0.274 C 
ENDROOT
BRANCH   1   2
ATOM      2  O   UNL A   1      33.945  21.377  25.504  1.00  0.00    -0.462 OA
BRANCH   2   3
ATOM      3  C   UNL A   1      32.651  21.138  25.168  1.00  0.00     0.309 C 
ATOM      4  O   UNL A   1      32.132  20.025  25.178  1.00  0.00    -0.252 OA
BRANCH   3   5
ATOM      5  C   UNL A   1      31.901  22.340  24.627  1.00  0.00     0.109 C 
ATOM      6  C   UNL A   1      32.176  22.346  23.116  1.00  0.00     0.021 C 
BRANCH   5   7
ATOM      7  C   UNL A   1      32.141  23.727  25.287  1.00  0.00     0.063 C 
ATOM      8  C   UNL A   1      32.277  23.530  26.808  1.00  0.00     0.020 C 
BRANCH   7   9
ATOM      9  S   UNL A   1      33.708  24.484  24.653  1.00  0.00    -0.115 SA
BRANCH   9  10
ATOM     10  C   UNL A   1      33.488  26.273  24.661  1.00  0.00     0.085 A 
ATOM     11  C   UNL A   1      33.730  27.038  25.816  1.00  0.00     0.022 A 
ATOM     12  C   UNL A   1      33.112  27.001  23.510  1.00  0.00     0.282 A 
ATOM     13  C   UNL A   1      33.628  28.438  25.824  1.00  0.00     0.002 A 
ATOM     14  C   UNL A   1      32.982  28.406  23.520  1.00  0.00     0.087 A 
ATOM     15  C   UNL A   1      33.251  29.124  24.678  1.00  0.00     0.007 A 
BRANCH  12  16
ATOM     16  N   UNL A   1      32.831  26.365  22.225  1.00  0.00     0.063 N 
ATOM     17  O   UNL A   1      33.754  26.377  21.393  1.00  0.00    -0.258 OA
ATOM     18  O   UNL A   1      31.762  25.753  22.100  1.00  0.00    -0.258 OA
ENDBRANCH  12  16
ENDBRANCH   9  10
ENDBRANCH   7   9
ENDBRANCH   5   7
ENDBRANCH   3   5
ENDBRANCH   2   3
ENDBRANCH   1   2
BRANCH   1  19
ATOM     19  C   UNL A   1      36.194  20.346  25.325  1.00  0.00     0.275 C 
BRANCH  19  20
ATOM     20  O   UNL A   1      37.004  21.490  25.639  1.00  0.00    -0.458 OA
BRANCH  20  21
ATOM     21  C   UNL A   1      38.326  21.225  25.779  1.00  0.00     0.338 C 
ATOM     22  O   UNL A   1      38.880  20.172  25.523  1.00  0.00    -0.246 OA
BRANCH  21  23
ATOM     23  C   UNL A   1      39.022  22.403  26.324  1.00  0.00     0.060 A 
ATOM     24  C   UNL A   1      38.537  23.689  26.074  1.00  0.00     0.016 A 
ATOM     25  C   UNL A   1      40.227  22.228  27.003  1.00  0.00     0.016 A 
ATOM     26  C   UNL A   1      39.269  24.806  26.474  1.00  0.00     0.010 A 
ATOM     27  C   UNL A   1      40.927  23.348  27.461  1.00  0.00     0.010 A 
ATOM     28  C   UNL A   1      40.463  24.647  27.187  1.00  0.00    -0.014 A 
BRANCH  28  29
ATOM     29  C   UNL A   1      41.240  25.832  27.636  1.00  0.00     0.031 A 
ATOM     30  C   UNL A   1      40.573  26.893  28.469  1.00  0.00     0.074 A 
ATOM     31  C   UNL A   1      42.531  25.967  27.277  1.00  0.00     0.049 A 
ATOM     32  N   UNL A   1      41.012  28.079  28.803  1.00  0.00    -0.248 NA
ATOM     33  C   UNL A   1      39.234  26.576  28.984  1.00  0.00     0.031 C 
ATOM     34  C   UNL A   1      43.304  24.982  26.518  1.00  0.00     0.029 A 
ATOM     35  N   UNL A   1      43.419  26.994  27.488  1.00  0.00    -0.354 N 
ATOM     36  C   UNL A   1      39.990  28.668  29.540  1.00  0.00     0.074 A 
ATOM     37  C   UNL A   1      38.905  27.709  29.590  1.00  0.00     0.031 C 
ATOM     38  C   UNL A   1      44.547  25.452  26.326  1.00  0.00     0.029 A 
ATOM     39  C   UNL A   1      44.637  26.799  26.879  1.00  0.00     0.049 A 
ATOM     40  H   UNL A   1      43.205  27.791  28.024  1.00  0.00     0.167 HD
ATOM     41  C   UNL A   1      39.963  29.895  30.117  1.00  0.00     0.034 A 
ATOM     42  C   UNL A   1      45.688  27.630  26.734  1.00  0.00     0.034 A 
ATOM     43  C   UNL A   1      41.061  30.832  30.065  1.00  0.00     0.049 A 
ATOM     44  C   UNL A   1      45.604  29.020  27.311  1.00  0.00     0.074 A 
ATOM     45  C   UNL A   1      41.147  32.094  30.631  1.00  0.00     0.029 A 
ATOM     46  N   UNL A   1      42.262  30.616  29.402  1.00  0.00    -0.354 N 
ATOM     47  N   UNL A   1      44.621  29.579  27.976  1.00  0.00    -0.248 NA
ATOM     48  C   UNL A   1      46.768  29.893  27.109  1.00  0.00     0.031 C 
ATOM     49  C   UNL A   1      42.371  32.661  30.258  1.00  0.00     0.029 A 
ATOM     50  C   UNL A   1      43.081  31.730  29.519  1.00  0.00     0.049 A 
ATOM     51  H   UNL A   1      42.499  29.790  28.921  1.00  0.00     0.167 HD
ATOM     52  C   UNL A   1      45.055  30.863  28.289  1.00  0.00     0.074 A 
ATOM     53  C   UNL A   1      46.396  30.990  27.753  1.00  0.00     0.031 C 
ATOM     54  C   UNL A   1      44.408  31.847  28.962  1.00  0.00     0.034 A 
BRANCH  41  55
ATOM     55  C   UNL A   1      38.681  30.314  30.797  1.00  0.00     0.023 A 
ATOM     56  C   UNL A   1      37.654  30.985  30.112  1.00  0.00     0.031 A 
ATOM     57  C   UNL A   1      38.496  30.051  32.168  1.00  0.00     0.131 A 
ATOM     58  C   UNL A   1      36.517  31.425  30.810  1.00  0.00     0.055 A 
ATOM     59  C   UNL A   1      37.334  30.429  32.840  1.00  0.00     0.041 A 
ATOM     60  F   UNL A   1      39.451  29.430  32.879  1.00  0.00    -0.206 F 
ATOM     61  C   UNL A   1      36.341  31.132  32.165  1.00  0.00     0.022 A 
BRANCH  58  62
ATOM     62  S   UNL A   1      35.321  32.487  29.952  1.00  0.00     0.124 S 
ATOM     63  O   UNL A   1      34.330  32.726  30.998  1.00  0.00    -0.237 OA
ATOM     64  O   UNL A   1      36.136  33.635  29.570  1.00  0.00    -0.237 OA
ATOM     65  O   UNL A   1      34.857  31.656  28.843  1.00  0.00    -0.744 OA
ENDBRANCH  58  62
ENDBRANCH  41  55
BRANCH  42  66
ATOM     66  C   UNL A   1      46.882  27.205  25.947  1.00  0.00     0.023 A 
ATOM     67  C   UNL A   1      47.100  27.678  24.645  1.00  0.00     0.031 A 
ATOM     68  C   UNL A   1      47.803  26.284  26.479  1.00  0.00     0.131 A 
ATOM     69  C   UNL A   1      48.192  27.199  23.903  1.00  0.00     0.055 A 
ATOM     70  C   UNL A   1      48.916  25.852  25.756  1.00  0.00     0.041 A 
ATOM     71  F   UNL A   1      47.640  25.798  27.719  1.00  0.00    -0.206 F 
ATOM     72  C   UNL A   1      49.109  26.301  24.454  1.00  0.00     0.022 A 
BRANCH  69  73
ATOM     73  S   UNL A   1      48.355  27.710  22.169  1.00  0.00     0.124 S 
ATOM     74  O   UNL A   1      47.133  28.481  21.969  1.00  0.00    -0.237 OA
ATOM     75  O   UNL A   1      49.599  28.473  22.192  1.00  0.00    -0.237 OA
ATOM     76  O   UNL A   1      48.418  26.442  21.445  1.00  0.00    -0.744 OA
ENDBRANCH  69  73
ENDBRANCH  42  66
BRANCH  54  77
ATOM     77  C   UNL A   1      45.168  33.131  29.189  1.00  0.00     0.023 A 
ATOM     78  C   UNL A   1      45.097  34.203  28.283  1.00  0.00     0.031 A 
ATOM     79  C   UNL A   1      45.988  33.273  30.323  1.00  0.00     0.131 A 
ATOM     80  C   UNL A   1      45.871  35.354  28.502  1.00  0.00     0.055 A 
ATOM     81  C   UNL A   1      46.714  34.440  30.562  1.00  0.00     0.041 A 
ATOM     82  F   UNL A   1      46.095  32.278  31.218  1.00  0.00    -0.206 F 
ATOM     83  C   UNL A   1      46.666  35.484  29.643  1.00  0.00     0.022 A 
BRANCH  80  84
ATOM     84  S   UNL A   1      45.884  36.651  27.234  1.00  0.00     0.124 S 
ATOM     85  O   UNL A   1      46.502  35.966  26.104  1.00  0.00    -0.237 OA
ATOM     86  O   UNL A   1      44.467  36.967  27.092  1.00  0.00    -0.237 OA
ATOM     87  O   UNL A   1      46.696  37.710  27.835  1.00  0.00    -0.744 OA
ENDBRANCH  80  84
ENDBRANCH  54  77
ENDBRANCH  28  29
ENDBRANCH  21  23
ENDBRANCH  20  21
ENDBRANCH  19  20
ENDBRANCH   1  19
TORSDOF 18
ENDMDL
MODEL 3
REMARK VINA RESULT:     -10.5      1.809      2.266
REMARK SMILES C[C@@H](Sc1ccccc1[N+](=O)[O-])[C@@H](C)C(=O)OCCOC(=O)c1ccc(-c2c3nc(c(-c4cc(S(=O)(=O)[O-])ccc4F)c4ccc([nH]4)c(-c4cc(S(=O)(=O)[O-])ccc4F)c4nc(c(-c5cc(S(=O)(=O)[O-])ccc5F)c5ccc2[nH]5)C=C4)C=C3)cc1
REMARK SMILES IDX 18 1 17 2 15 3 16 4 13 5 14 6 2 7 1 8 3 9 4 10 5 11 9 12
REMARK SMILES IDX 6 13 8 14 7 15 10 16 11 17 12 18 19 19 20 20 21 21 22 22
REMARK SMILES IDX 23 23 24 24 85 25 25 26 84 27 26 28 27 29 28 30 78 31 29 32
REMARK SMILES IDX 83 33 77 34 79 35 30 36 82 37 76 38 75 39 31 41 63 42 43 43
REMARK SMILES IDX 62 44 44 45 47 46 61 47 80 48 45 49 46 50 60 52 81 53 48 54
REMARK SMILES IDX 32 55 33 56 41 57 34 58 40 59 42 60 39 61 35 62 36 63 37 64
REMARK SMILES IDX 38 65 64 66 65 67 73 68 66 69 72 70 74 71 71 72 67 73 68 74
REMARK SMILES IDX 69 75 70 76 49 77 50 78 58 79 51 80 57 81 59 82 56 83 52 84
REMARK SMILES IDX 53 85 54 86 55 87
REMARK H PARENT 79 40 47 51
REMARK Flexibility Score: inf
ROOT
ATOM      1  C   UNL A   1      35.167  20.319  25.176  1.00  0.00     0.274 C 
ENDROOT
BRANCH   1   2
ATOM      2  O   UNL A   1      34.307  21.477  25.142  1.00  0.00    -0.462 OA
BRANCH   2   3
ATOM      3  C   UNL A   1      33.789  21.813  26.351  1.00  0.00     0.309 C 
ATOM      4  O   UNL A   1      34.307  21.523  27.427  1.00  0.00    -0.252 OA
BRANCH   3   5
ATOM      5  C   UNL A   1      32.420  22.465  26.299  1.00  0.00     0.109 C 
ATOM      6  C   UNL A   1      31.619  21.647  25.274  1.00  0.00     0.021 C 
BRANCH   5   7
ATOM      7  C   UNL A   1      32.332  23.996  26.048  1.00  0.00     0.063 C 
ATOM      8  C   UNL A   1      33.754  24.585  26.099  1.00  0.00     0.020 C 
BRANCH   7   9
ATOM      9  S   UNL A   1      31.618  24.338  24.373  1.00  0.00    -0.115 SA
BRANCH   9  10
ATOM     10  C   UNL A   1      31.832  26.097  24.041  1.00  0.00     0.085 A 
ATOM     11  C   UNL A   1      31.201  27.075  24.830  1.00  0.00     0.022 A 
ATOM     12  C   UNL A   1      32.669  26.582  23.012  1.00  0.00     0.282 A 
ATOM     13  C   UNL A   1      31.408  28.449  24.628  1.00  0.00     0.002 A 
ATOM     14  C   UNL A   1      32.858  27.963  22.787  1.00  0.00     0.087 A 
ATOM     15  C   UNL A   1      32.232  28.895  23.605  1.00  0.00     0.007 A 
BRANCH  12  16
ATOM     16  N   UNL A   1      33.404  25.704  22.105  1.00  0.00     0.063 N 
ATOM     17  O   UNL A   1      33.255  25.919  20.891  1.00  0.00    -0.258 OA
ATOM     18  O   UNL A   1      34.212  24.905  22.597  1.00  0.00    -0.258 OA
ENDBRANCH  12  16
ENDBRANCH   9  10
ENDBRANCH   7   9
ENDBRANCH   5   7
ENDBRANCH   3   5
ENDBRANCH   2   3
ENDBRANCH   1   2
BRANCH   1  19
ATOM     19  C   UNL A   1      36.606  20.628  24.763  1.00  0.00     0.275 C 
BRANCH  19  20
ATOM     20  O   UNL A   1      37.255  21.473  25.726  1.00  0.00    -0.458 OA
BRANCH  20  21
ATOM     21  C   UNL A   1      38.577  21.224  25.897  1.00  0.00     0.338 C 
ATOM     22  O   UNL A   1      39.149  20.176  25.654  1.00  0.00    -0.246 OA
BRANCH  21  23
ATOM     23  C   UNL A   1      39.247  22.410  26.456  1.00  0.00     0.060 A 
ATOM     24  C   UNL A   1      38.818  23.693  26.109  1.00  0.00     0.016 A 
ATOM     25  C   UNL A   1      40.377  22.241  27.254  1.00  0.00     0.016 A 
ATOM     26  C   UNL A   1      39.536  24.811  26.529  1.00  0.00     0.010 A 
ATOM     27  C   UNL A   1      41.058  23.365  27.729  1.00  0.00     0.010 A 
ATOM     28  C   UNL A   1      40.653  24.660  27.359  1.00  0.00    -0.014 A 
BRANCH  28  29
ATOM     29  C   UNL A   1      41.412  25.848  27.830  1.00  0.00     0.031 A 
ATOM     30  C   UNL A   1      40.715  26.912  28.633  1.00  0.00     0.074 A 
ATOM     31  C   UNL A   1      42.716  25.982  27.517  1.00  0.00     0.049 A 
ATOM     32  N   UNL A   1      41.141  28.100  28.978  1.00  0.00    -0.248 NA
ATOM     33  C   UNL A   1      39.358  26.596  29.102  1.00  0.00     0.031 C 
ATOM     34  C   UNL A   1      43.516  24.995  26.791  1.00  0.00     0.029 A 
ATOM     35  N   UNL A   1      43.595  27.011  27.756  1.00  0.00    -0.354 N 
ATOM     36  C   UNL A   1      40.092  28.691  29.675  1.00  0.00     0.074 A 
ATOM     37  C   UNL A   1      39.007  27.731  29.690  1.00  0.00     0.031 C 
ATOM     38  C   UNL A   1      44.764  25.465  26.642  1.00  0.00     0.029 A 
ATOM     39  C   UNL A   1      44.834  26.815  27.192  1.00  0.00     0.049 A 
ATOM     40  H   UNL A   1      43.361  27.811  28.280  1.00  0.00     0.167 HD
ATOM     41  C   UNL A   1      40.043  29.921  30.245  1.00  0.00     0.034 A 
ATOM     42  C   UNL A   1      45.889  27.646  27.081  1.00  0.00     0.034 A 
ATOM     43  C   UNL A   1      41.142  30.859  30.228  1.00  0.00     0.049 A 
ATOM     44  C   UNL A   1      45.783  29.038  27.648  1.00  0.00     0.074 A 
ATOM     45  C   UNL A   1      41.207  32.123  30.792  1.00  0.00     0.029 A 
ATOM     46  N   UNL A   1      42.366  30.640  29.610  1.00  0.00    -0.354 N 
ATOM     47  N   UNL A   1      44.776  29.599  28.275  1.00  0.00    -0.248 NA
ATOM     48  C   UNL A   1      46.953  29.911  27.484  1.00  0.00     0.031 C 
ATOM     49  C   UNL A   1      42.443  32.690  30.460  1.00  0.00     0.029 A 
ATOM     50  C   UNL A   1      43.180  31.756  29.751  1.00  0.00     0.049 A 
ATOM     51  H   UNL A   1      42.621  29.813  29.141  1.00  0.00     0.167 HD
ATOM     52  C   UNL A   1      45.198  30.885  28.597  1.00  0.00     0.074 A 
ATOM     53  C   UNL A   1      46.557  31.011  28.109  1.00  0.00     0.031 C 
ATOM     54  C   UNL A   1      44.527  31.872  29.242  1.00  0.00     0.034 A 
BRANCH  41  55
ATOM     55  C   UNL A   1      38.738  30.342  30.877  1.00  0.00     0.023 A 
ATOM     56  C   UNL A   1      37.738  31.013  30.153  1.00  0.00     0.031 A 
ATOM     57  C   UNL A   1      38.502  30.080  32.239  1.00  0.00     0.131 A 
ATOM     58  C   UNL A   1      36.577  31.455  30.808  1.00  0.00     0.055 A 
ATOM     59  C   UNL A   1      37.315  30.460  32.868  1.00  0.00     0.041 A 
ATOM     60  F   UNL A   1      39.428  29.458  32.986  1.00  0.00    -0.206 F 
ATOM     61  C   UNL A   1      36.350  31.163  32.155  1.00  0.00     0.022 A 
BRANCH  58  62
ATOM     62  S   UNL A   1      35.414  32.518  29.906  1.00  0.00     0.124 S 
ATOM     63  O   UNL A   1      36.214  33.720  29.689  1.00  0.00    -0.237 OA
ATOM     64  O   UNL A   1      35.119  31.725  28.717  1.00  0.00    -0.237 OA
ATOM     65  O   UNL A   1      34.301  32.679  30.839  1.00  0.00    -0.744 OA
ENDBRANCH  58  62
ENDBRANCH  41  55
BRANCH  42  66
ATOM     66  C   UNL A   1      47.111  27.218  26.340  1.00  0.00     0.023 A 
ATOM     67  C   UNL A   1      48.124  26.482  26.972  1.00  0.00     0.031 A 
ATOM     68  C   UNL A   1      47.297  27.576  24.992  1.00  0.00     0.131 A 
ATOM     69  C   UNL A   1      49.296  26.160  26.268  1.00  0.00     0.055 A 
ATOM     70  C   UNL A   1      48.441  27.208  24.282  1.00  0.00     0.041 A 
ATOM     71  F   UNL A   1      46.360  28.283  24.340  1.00  0.00    -0.206 F 
ATOM     72  C   UNL A   1      49.455  26.505  24.924  1.00  0.00     0.022 A 
BRANCH  69  73
ATOM     73  S   UNL A   1      50.650  25.347  27.161  1.00  0.00     0.124 S 
ATOM     74  O   UNL A   1      51.519  24.926  26.068  1.00  0.00    -0.237 OA
ATOM     75  O   UNL A   1      51.152  26.428  28.001  1.00  0.00    -0.237 OA
ATOM     76  O   UNL A   1      49.981  24.262  27.879  1.00  0.00    -0.744 OA
ENDBRANCH  69  73
ENDBRANCH  42  66
BRANCH  54  77
ATOM     77  C   UNL A   1      45.277  33.157  29.491  1.00  0.00     0.023 A 
ATOM     78  C   UNL A   1      45.311  34.190  28.538  1.00  0.00     0.031 A 
ATOM     79  C   UNL A   1      45.981  33.341  30.694  1.00  0.00     0.131 A 
ATOM     80  C   UNL A   1      46.074  35.342  28.785  1.00  0.00     0.055 A 
ATOM     81  C   UNL A   1      46.695  34.510  30.956  1.00  0.00     0.041 A 
ATOM     82  F   UNL A   1      45.984  32.383  31.636  1.00  0.00    -0.206 F 
ATOM     83  C   UNL A   1      46.753  35.514  29.994  1.00  0.00     0.022 A 
BRANCH  80  84
ATOM     84  S   UNL A   1      46.231  36.584  27.472  1.00  0.00     0.124 S 
ATOM     85  O   UNL A   1      45.184  37.536  27.827  1.00  0.00    -0.237 OA
ATOM     86  O   UNL A   1      47.602  37.051  27.643  1.00  0.00    -0.237 OA
ATOM     87  O   UNL A   1      45.986  35.822  26.248  1.00  0.00    -0.744 OA
ENDBRANCH  80  84
ENDBRANCH  54  77
ENDBRANCH  28  29
ENDBRANCH  21  23
ENDBRANCH  20  21
ENDBRANCH  19  20
ENDBRANCH   1  19
TORSDOF 18
ENDMDL
