MODEL 1
REMARK VINA RESULT:     -10.7      0.000      0.000
REMARK SMILES CC(C)[C@@H](NC(=O)[C@H]1CCCO1)C(=O)OCCOC(=O)c1ccc(-c2c3nc(c(-c4cc(S(=O)(=O)[O-])ccc4F)c4ccc([nH]4)c(-c4cc(S(=O)(=O)[O-])ccc4F)c4nc(c(-c5cc(S(=O)(=O)[O-])ccc5F)c5ccc2[nH]5)C=C4)C=C3)cc1
REMARK SMILES IDX 17 1 16 2 15 3 13 4 14 5 4 6 2 7 1 8 3 9 5 10 6 11 7 13 8 14
REMARK SMILES IDX 9 15 12 16 10 17 11 18 18 19 19 20 20 21 21 22 22 23 83 24
REMARK SMILES IDX 23 25 82 26 24 27 25 28 26 29 76 30 27 31 81 32 75 33 77 34
REMARK SMILES IDX 28 35 80 36 74 37 73 38 29 40 61 41 41 42 60 43 42 44 45 45
REMARK SMILES IDX 59 46 78 47 43 48 44 49 58 51 79 52 46 53 30 54 31 55 39 56
REMARK SMILES IDX 32 57 38 58 40 59 37 60 33 61 34 62 35 63 36 64 62 65 63 66
REMARK SMILES IDX 71 67 64 68 70 69 72 70 69 71 65 72 66 73 67 74 68 75 47 76
REMARK SMILES IDX 48 77 56 78 49 79 55 80 57 81 54 82 50 83 51 84 52 85 53 86
REMARK H PARENT 5 12 77 39 45 50
REMARK Flexibility Score: inf
ROOT
ATOM      1  C   UNL A   1      37.573  20.170  24.585  1.00  0.00     0.275 C 
ENDROOT
BRANCH   1   2
ATOM      2  C   UNL A   1      36.169  19.709  24.998  1.00  0.00     0.274 C 
BRANCH   2   3
ATOM      3  O   UNL A   1      35.291  20.775  25.420  1.00  0.00    -0.461 OA
BRANCH   3   4
ATOM      4  C   UNL A   1      34.038  20.718  24.900  1.00  0.00     0.329 C 
ATOM      5  O   UNL A   1      33.600  19.748  24.289  1.00  0.00    -0.250 OA
BRANCH   4   6
ATOM      6  C   UNL A   1      33.262  22.038  24.941  1.00  0.00     0.194 C 
BRANCH   6   7
ATOM      7  C   UNL A   1      32.299  22.197  26.156  1.00  0.00     0.017 C 
ATOM      8  C   UNL A   1      33.017  22.879  27.336  1.00  0.00     0.010 C 
ATOM      9  C   UNL A   1      31.036  23.013  25.864  1.00  0.00     0.010 C 
ENDBRANCH   6   7
BRANCH   6  10
ATOM     10  N   UNL A   1      34.120  23.244  24.808  1.00  0.00    -0.340 N 
ATOM     11  C   UNL A   1      33.896  24.433  24.162  1.00  0.00     0.249 C 
ATOM     12  H   UNL A   1      34.993  23.178  25.258  1.00  0.00     0.164 HD
ATOM     13  O   UNL A   1      34.315  25.456  24.713  1.00  0.00    -0.272 OA
BRANCH  11  14
ATOM     14  C   UNL A   1      33.306  24.451  22.740  1.00  0.00     0.207 C 
ATOM     15  C   UNL A   1      31.802  24.688  22.720  1.00  0.00     0.044 C 
ATOM     16  O   UNL A   1      33.905  25.490  21.936  1.00  0.00    -0.368 OA
ATOM     17  C   UNL A   1      31.661  26.104  22.226  1.00  0.00     0.032 C 
ATOM     18  C   UNL A   1      32.856  26.239  21.318  1.00  0.00     0.161 C 
ENDBRANCH  11  14
ENDBRANCH   6  10
ENDBRANCH   4   6
ENDBRANCH   3   4
ENDBRANCH   2   3
ENDBRANCH   1   2
BRANCH   1  19
ATOM     19  O   UNL A   1      38.039  21.280  25.375  1.00  0.00    -0.458 OA
BRANCH  19  20
ATOM     20  C   UNL A   1      39.180  21.052  26.065  1.00  0.00     0.338 C 
ATOM     21  O   UNL A   1      39.810  20.009  26.106  1.00  0.00    -0.246 OA
BRANCH  20  22
ATOM     22  C   UNL A   1      39.666  22.291  26.692  1.00  0.00     0.060 A 
ATOM     23  C   UNL A   1      39.160  23.508  26.223  1.00  0.00     0.016 A 
ATOM     24  C   UNL A   1      40.716  22.271  27.610  1.00  0.00     0.016 A 
ATOM     25  C   UNL A   1      39.717  24.710  26.641  1.00  0.00     0.010 A 
ATOM     26  C   UNL A   1      41.278  23.482  28.031  1.00  0.00     0.010 A 
ATOM     27  C   UNL A   1      40.799  24.704  27.525  1.00  0.00    -0.014 A 
BRANCH  27  28
ATOM     28  C   UNL A   1      41.503  25.976  27.812  1.00  0.00     0.031 A 
ATOM     29  C   UNL A   1      40.793  27.042  28.599  1.00  0.00     0.074 A 
ATOM     30  C   UNL A   1      42.778  26.150  27.423  1.00  0.00     0.049 A 
ATOM     31  N   UNL A   1      41.184  28.253  28.900  1.00  0.00    -0.248 NA
ATOM     32  C   UNL A   1      39.461  26.691  29.115  1.00  0.00     0.031 C 
ATOM     33  C   UNL A   1      43.588  25.153  26.723  1.00  0.00     0.029 A 
ATOM     34  N   UNL A   1      43.615  27.227  27.564  1.00  0.00    -0.354 N 
ATOM     35  C   UNL A   1      40.142  28.817  29.629  1.00  0.00     0.074 A 
ATOM     36  C   UNL A   1      39.094  27.819  29.703  1.00  0.00     0.031 C 
ATOM     37  C   UNL A   1      44.805  25.671  26.487  1.00  0.00     0.029 A 
ATOM     38  C   UNL A   1      44.845  27.047  26.976  1.00  0.00     0.049 A 
ATOM     39  H   UNL A   1      43.360  28.050  28.041  1.00  0.00     0.167 HD
ATOM     40  C   UNL A   1      40.068  30.054  30.183  1.00  0.00     0.034 A 
ATOM     41  C   UNL A   1      45.870  27.906  26.824  1.00  0.00     0.034 A 
ATOM     42  C   UNL A   1      41.119  31.038  30.085  1.00  0.00     0.049 A 
ATOM     43  C   UNL A   1      45.737  29.301  27.379  1.00  0.00     0.074 A 
ATOM     44  C   UNL A   1      41.144  32.331  30.576  1.00  0.00     0.029 A 
ATOM     45  N   UNL A   1      42.337  30.837  29.445  1.00  0.00    -0.354 N 
ATOM     46  N   UNL A   1      44.727  29.843  28.023  1.00  0.00    -0.248 NA
ATOM     47  C   UNL A   1      46.882  30.199  27.190  1.00  0.00     0.031 C 
ATOM     48  C   UNL A   1      42.351  32.928  30.188  1.00  0.00     0.029 A 
ATOM     49  C   UNL A   1      43.109  31.987  29.511  1.00  0.00     0.049 A 
ATOM     50  H   UNL A   1      42.611  29.998  29.008  1.00  0.00     0.167 HD
ATOM     51  C   UNL A   1      45.126  31.141  28.329  1.00  0.00     0.074 A 
ATOM     52  C   UNL A   1      46.474  31.291  27.819  1.00  0.00     0.031 C 
ATOM     53  C   UNL A   1      44.444  32.121  28.976  1.00  0.00     0.034 A 
BRANCH  40  54
ATOM     54  C   UNL A   1      38.777  30.418  30.873  1.00  0.00     0.023 A 
ATOM     55  C   UNL A   1      37.718  31.043  30.188  1.00  0.00     0.031 A 
ATOM     56  C   UNL A   1      38.626  30.192  32.253  1.00  0.00     0.131 A 
ATOM     57  C   UNL A   1      36.590  31.485  30.897  1.00  0.00     0.055 A 
ATOM     58  C   UNL A   1      37.468  30.567  32.938  1.00  0.00     0.041 A 
ATOM     59  F   UNL A   1      39.611  29.623  32.963  1.00  0.00    -0.206 F 
ATOM     60  C   UNL A   1      36.449  31.232  32.263  1.00  0.00     0.022 A 
BRANCH  57  61
ATOM     61  S   UNL A   1      35.378  32.526  30.038  1.00  0.00     0.124 S 
ATOM     62  O   UNL A   1      36.133  33.762  29.845  1.00  0.00    -0.237 OA
ATOM     63  O   UNL A   1      35.096  31.754  28.833  1.00  0.00    -0.237 OA
ATOM     64  O   UNL A   1      34.273  32.623  30.990  1.00  0.00    -0.744 OA
ENDBRANCH  57  61
ENDBRANCH  40  54
BRANCH  41  65
ATOM     65  C   UNL A   1      47.087  27.500  26.066  1.00  0.00     0.023 A 
ATOM     66  C   UNL A   1      47.245  27.831  24.711  1.00  0.00     0.031 A 
ATOM     67  C   UNL A   1      48.090  26.732  26.680  1.00  0.00     0.131 A 
ATOM     68  C   UNL A   1      48.364  27.363  24.005  1.00  0.00     0.055 A 
ATOM     69  C   UNL A   1      49.225  26.308  25.986  1.00  0.00     0.041 A 
ATOM     70  F   UNL A   1      47.987  26.389  27.975  1.00  0.00    -0.206 F 
ATOM     71  C   UNL A   1      49.360  26.614  24.636  1.00  0.00     0.022 A 
BRANCH  68  72
ATOM     72  S   UNL A   1      48.466  27.688  22.224  1.00  0.00     0.124 S 
ATOM     73  O   UNL A   1      48.593  26.340  21.681  1.00  0.00    -0.237 OA
ATOM     74  O   UNL A   1      47.201  28.367  21.967  1.00  0.00    -0.237 OA
ATOM     75  O   UNL A   1      49.657  28.526  22.098  1.00  0.00    -0.744 OA
ENDBRANCH  68  72
ENDBRANCH  41  65
BRANCH  53  76
ATOM     76  C   UNL A   1      45.174  33.425  29.187  1.00  0.00     0.023 A 
ATOM     77  C   UNL A   1      45.130  34.457  28.234  1.00  0.00     0.031 A 
ATOM     78  C   UNL A   1      45.955  33.618  30.340  1.00  0.00     0.131 A 
ATOM     79  C   UNL A   1      45.905  35.612  28.420  1.00  0.00     0.055 A 
ATOM     80  C   UNL A   1      46.679  34.792  30.546  1.00  0.00     0.041 A 
ATOM     81  F   UNL A   1      46.032  32.663  31.280  1.00  0.00    -0.206 F 
ATOM     82  C   UNL A   1      46.670  35.791  29.577  1.00  0.00     0.022 A 
BRANCH  79  83
ATOM     83  S   UNL A   1      45.986  36.832  27.080  1.00  0.00     0.124 S 
ATOM     84  O   UNL A   1      46.428  36.020  25.953  1.00  0.00    -0.237 OA
ATOM     85  O   UNL A   1      44.609  37.315  27.017  1.00  0.00    -0.237 OA
ATOM     86  O   UNL A   1      46.961  37.808  27.563  1.00  0.00    -0.744 OA
ENDBRANCH  79  83
ENDBRANCH  53  76
ENDBRANCH  27  28
ENDBRANCH  20  22
ENDBRANCH  19  20
ENDBRANCH   1  19
TORSDOF 17
ENDMDL
MODEL 2
REMARK VINA RESULT:     -10.6      1.135      2.667
REMARK SMILES CC(C)[C@@H](NC(=O)[C@H]1CCCO1)C(=O)OCCOC(=O)c1ccc(-c2c3nc(c(-c4cc(S(=O)(=O)[O-])ccc4F)c4ccc([nH]4)c(-c4cc(S(=O)(=O)[O-])ccc4F)c4nc(c(-c5cc(S(=O)(=O)[O-])ccc5F)c5ccc2[nH]5)C=C4)C=C3)cc1
REMARK SMILES IDX 17 1 16 2 15 3 13 4 14 5 4 6 2 7 1 8 3 9 5 10 6 11 7 13 8 14
REMARK SMILES IDX 9 15 12 16 10 17 11 18 18 19 19 20 20 21 21 22 22 23 83 24
REMARK SMILES IDX 23 25 82 26 24 27 25 28 26 29 76 30 27 31 81 32 75 33 77 34
REMARK SMILES IDX 28 35 80 36 74 37 73 38 29 40 61 41 41 42 60 43 42 44 45 45
REMARK SMILES IDX 59 46 78 47 43 48 44 49 58 51 79 52 46 53 30 54 31 55 39 56
REMARK SMILES IDX 32 57 38 58 40 59 37 60 33 61 34 62 35 63 36 64 62 65 63 66
REMARK SMILES IDX 71 67 64 68 70 69 72 70 69 71 65 72 66 73 67 74 68 75 47 76
REMARK SMILES IDX 48 77 56 78 49 79 55 80 57 81 54 82 50 83 51 84 52 85 53 86
REMARK H PARENT 5 12 77 39 45 50
REMARK Flexibility Score: inf
ROOT
ATOM      1  C   UNL A   1      37.250  20.369  24.780  1.00  0.00     0.275 C 
ENDROOT
BRANCH   1   2
ATOM      2  C   UNL A   1      35.861  20.606  25.385  1.00  0.00     0.274 C 
BRANCH   2   3
ATOM      3  O   UNL A   1      35.027  21.512  24.629  1.00  0.00    -0.461 OA
BRANCH   3   4
ATOM      4  C   UNL A   1      33.945  21.981  25.301  1.00  0.00     0.329 C 
ATOM      5  O   UNL A   1      34.021  22.674  26.311  1.00  0.00    -0.250 OA
BRANCH   4   6
ATOM      6  C   UNL A   1      32.600  21.413  24.835  1.00  0.00     0.194 C 
BRANCH   6   7
ATOM      7  C   UNL A   1      31.523  22.481  24.477  1.00  0.00     0.017 C 
ATOM      8  C   UNL A   1      30.748  22.918  25.733  1.00  0.00     0.010 C 
ATOM      9  C   UNL A   1      32.080  23.750  23.825  1.00  0.00     0.010 C 
ENDBRANCH   6   7
BRANCH   6  10
ATOM     10  N   UNL A   1      32.716  20.416  23.740  1.00  0.00    -0.340 N 
ATOM     11  C   UNL A   1      32.665  19.046  23.768  1.00  0.00     0.249 C 
ATOM     12  H   UNL A   1      32.851  20.804  22.845  1.00  0.00     0.164 HD
ATOM     13  O   UNL A   1      32.090  18.488  22.829  1.00  0.00    -0.272 OA
BRANCH  11  14
ATOM     14  C   UNL A   1      33.444  18.257  24.837  1.00  0.00     0.207 C 
ATOM     15  C   UNL A   1      32.584  17.238  25.573  1.00  0.00     0.044 C 
ATOM     16  O   UNL A   1      34.547  17.532  24.254  1.00  0.00    -0.368 OA
ATOM     17  C   UNL A   1      33.037  15.911  25.022  1.00  0.00     0.032 C 
ATOM     18  C   UNL A   1      34.487  16.180  24.713  1.00  0.00     0.161 C 
ENDBRANCH  11  14
ENDBRANCH   6  10
ENDBRANCH   4   6
ENDBRANCH   3   4
ENDBRANCH   2   3
ENDBRANCH   1   2
BRANCH   1  19
ATOM     19  O   UNL A   1      38.159  21.450  25.056  1.00  0.00    -0.458 OA
BRANCH  19  20
ATOM     20  C   UNL A   1      39.128  21.166  25.957  1.00  0.00     0.338 C 
ATOM     21  O   UNL A   1      39.633  20.076  26.165  1.00  0.00    -0.246 OA
BRANCH  20  22
ATOM     22  C   UNL A   1      39.616  22.395  26.602  1.00  0.00     0.060 A 
ATOM     23  C   UNL A   1      39.112  23.620  26.151  1.00  0.00     0.016 A 
ATOM     24  C   UNL A   1      40.664  22.360  27.522  1.00  0.00     0.016 A 
ATOM     25  C   UNL A   1      39.671  24.815  26.587  1.00  0.00     0.010 A 
ATOM     26  C   UNL A   1      41.227  23.564  27.962  1.00  0.00     0.010 A 
ATOM     27  C   UNL A   1      40.752  24.794  27.473  1.00  0.00    -0.014 A 
BRANCH  27  28
ATOM     28  C   UNL A   1      41.457  26.061  27.779  1.00  0.00     0.031 A 
ATOM     29  C   UNL A   1      40.739  27.125  28.561  1.00  0.00     0.074 A 
ATOM     30  C   UNL A   1      42.739  26.230  27.412  1.00  0.00     0.049 A 
ATOM     31  N   UNL A   1      41.132  28.332  28.875  1.00  0.00    -0.248 NA
ATOM     32  C   UNL A   1      39.397  26.778  29.052  1.00  0.00     0.031 C 
ATOM     33  C   UNL A   1      43.556  25.234  26.720  1.00  0.00     0.029 A 
ATOM     34  N   UNL A   1      43.579  27.302  27.574  1.00  0.00    -0.354 N 
ATOM     35  C   UNL A   1      40.080  28.897  29.590  1.00  0.00     0.074 A 
ATOM     36  C   UNL A   1      39.026  27.905  29.641  1.00  0.00     0.031 C 
ATOM     37  C   UNL A   1      44.779  25.746  26.507  1.00  0.00     0.029 A 
ATOM     38  C   UNL A   1      44.818  27.118  27.006  1.00  0.00     0.049 A 
ATOM     39  H   UNL A   1      43.321  28.123  28.051  1.00  0.00     0.167 HD
ATOM     40  C   UNL A   1      40.003  30.131  30.151  1.00  0.00     0.034 A 
ATOM     41  C   UNL A   1      45.849  27.974  26.876  1.00  0.00     0.034 A 
ATOM     42  C   UNL A   1      41.062  31.110  30.076  1.00  0.00     0.049 A 
ATOM     43  C   UNL A   1      45.714  29.366  27.437  1.00  0.00     0.074 A 
ATOM     44  C   UNL A   1      41.085  32.400  30.576  1.00  0.00     0.029 A 
ATOM     45  N   UNL A   1      42.289  30.907  29.455  1.00  0.00    -0.354 N 
ATOM     46  N   UNL A   1      44.697  29.909  28.068  1.00  0.00    -0.248 NA
ATOM     47  C   UNL A   1      46.868  30.259  27.272  1.00  0.00     0.031 C 
ATOM     48  C   UNL A   1      42.301  32.993  30.212  1.00  0.00     0.029 A 
ATOM     49  C   UNL A   1      43.066  32.052  29.542  1.00  0.00     0.049 A 
ATOM     50  H   UNL A   1      42.566  30.069  29.018  1.00  0.00     0.167 HD
ATOM     51  C   UNL A   1      45.097  31.203  28.389  1.00  0.00     0.074 A 
ATOM     52  C   UNL A   1      46.455  31.349  27.902  1.00  0.00     0.031 C 
ATOM     53  C   UNL A   1      44.409  32.183  29.030  1.00  0.00     0.034 A 
BRANCH  40  54
ATOM     54  C   UNL A   1      38.703  30.498  30.822  1.00  0.00     0.023 A 
ATOM     55  C   UNL A   1      37.696  31.215  30.150  1.00  0.00     0.031 A 
ATOM     56  C   UNL A   1      38.492  30.179  32.175  1.00  0.00     0.131 A 
ATOM     57  C   UNL A   1      36.561  31.651  30.850  1.00  0.00     0.055 A 
ATOM     58  C   UNL A   1      37.325  30.551  32.846  1.00  0.00     0.041 A 
ATOM     59  F   UNL A   1      39.427  29.518  32.875  1.00  0.00    -0.206 F 
ATOM     60  C   UNL A   1      36.359  31.305  32.189  1.00  0.00     0.022 A 
BRANCH  57  61
ATOM     61  S   UNL A   1      35.423  32.802  30.030  1.00  0.00     0.124 S 
ATOM     62  O   UNL A   1      34.729  33.396  31.171  1.00  0.00    -0.237 OA
ATOM     63  O   UNL A   1      36.332  33.682  29.305  1.00  0.00    -0.237 OA
ATOM     64  O   UNL A   1      34.598  31.931  29.194  1.00  0.00    -0.744 OA
ENDBRANCH  57  61
ENDBRANCH  40  54
BRANCH  41  65
ATOM     65  C   UNL A   1      47.077  27.566  26.135  1.00  0.00     0.023 A 
ATOM     66  C   UNL A   1      47.221  27.830  24.765  1.00  0.00     0.031 A 
ATOM     67  C   UNL A   1      48.105  26.863  26.786  1.00  0.00     0.131 A 
ATOM     68  C   UNL A   1      48.353  27.359  24.080  1.00  0.00     0.055 A 
ATOM     69  C   UNL A   1      49.250  26.438  26.111  1.00  0.00     0.041 A 
ATOM     70  F   UNL A   1      48.015  26.586  28.097  1.00  0.00    -0.206 F 
ATOM     71  C   UNL A   1      49.373  26.676  24.746  1.00  0.00     0.022 A 
BRANCH  68  72
ATOM     72  S   UNL A   1      48.441  27.593  22.284  1.00  0.00     0.124 S 
ATOM     73  O   UNL A   1      47.138  28.182  21.995  1.00  0.00    -0.237 OA
ATOM     74  O   UNL A   1      49.591  28.481  22.150  1.00  0.00    -0.237 OA
ATOM     75  O   UNL A   1      48.640  26.238  21.773  1.00  0.00    -0.744 OA
ENDBRANCH  68  72
ENDBRANCH  41  65
BRANCH  53  76
ATOM     76  C   UNL A   1      45.143  33.481  29.261  1.00  0.00     0.023 A 
ATOM     77  C   UNL A   1      45.090  34.534  28.331  1.00  0.00     0.031 A 
ATOM     78  C   UNL A   1      45.935  33.649  30.410  1.00  0.00     0.131 A 
ATOM     79  C   UNL A   1      45.868  35.683  28.533  1.00  0.00     0.055 A 
ATOM     80  C   UNL A   1      46.663  34.819  30.634  1.00  0.00     0.041 A 
ATOM     81  F   UNL A   1      46.021  32.675  31.329  1.00  0.00    -0.206 F 
ATOM     82  C   UNL A   1      46.645  35.838  29.686  1.00  0.00     0.022 A 
BRANCH  79  83
ATOM     83  S   UNL A   1      45.936  36.932  27.219  1.00  0.00     0.124 S 
ATOM     84  O   UNL A   1      46.812  37.942  27.803  1.00  0.00    -0.237 OA
ATOM     85  O   UNL A   1      46.492  36.176  26.101  1.00  0.00    -0.237 OA
ATOM     86  O   UNL A   1      44.541  37.338  27.059  1.00  0.00    -0.744 OA
ENDBRANCH  79  83
ENDBRANCH  53  76
ENDBRANCH  27  28
ENDBRANCH  20  22
ENDBRANCH  19  20
ENDBRANCH   1  19
TORSDOF 17
ENDMDL
MODEL 3
REMARK VINA RESULT:     -10.6      5.536     10.489
REMARK SMILES CC(C)[C@@H](NC(=O)[C@H]1CCCO1)C(=O)OCCOC(=O)c1ccc(-c2c3nc(c(-c4cc(S(=O)(=O)[O-])ccc4F)c4ccc([nH]4)c(-c4cc(S(=O)(=O)[O-])ccc4F)c4nc(c(-c5cc(S(=O)(=O)[O-])ccc5F)c5ccc2[nH]5)C=C4)C=C3)cc1
REMARK SMILES IDX 17 1 16 2 15 3 13 4 14 5 4 6 2 7 1 8 3 9 5 10 6 11 7 13 8 14
REMARK SMILES IDX 9 15 12 16 10 17 11 18 18 19 19 20 20 21 21 22 22 23 83 24
REMARK SMILES IDX 23 25 82 26 24 27 25 28 26 29 76 30 27 31 81 32 75 33 77 34
REMARK SMILES IDX 28 35 80 36 74 37 73 38 29 40 61 41 41 42 60 43 42 44 45 45
REMARK SMILES IDX 59 46 78 47 43 48 44 49 58 51 79 52 46 53 30 54 31 55 39 56
REMARK SMILES IDX 32 57 38 58 40 59 37 60 33 61 34 62 35 63 36 64 62 65 63 66
REMARK SMILES IDX 71 67 64 68 70 69 72 70 69 71 65 72 66 73 67 74 68 75 47 76
REMARK SMILES IDX 48 77 56 78 49 79 55 80 57 81 54 82 50 83 51 84 52 85 53 86
REMARK H PARENT 5 12 77 39 45 50
REMARK Flexibility Score: inf
ROOT
ATOM      1  C   UNL A   1      31.792  30.448  25.869  1.00  0.00     0.275 C 
ENDROOT
BRANCH   1   2
ATOM      2  C   UNL A   1      32.509  29.404  25.004  1.00  0.00     0.274 C 
BRANCH   2   3
ATOM      3  O   UNL A   1      32.496  28.066  25.548  1.00  0.00    -0.461 OA
BRANCH   3   4
ATOM      4  C   UNL A   1      31.403  27.331  25.221  1.00  0.00     0.329 C 
ATOM      5  O   UNL A   1      30.958  26.426  25.920  1.00  0.00    -0.250 OA
BRANCH   4   6
ATOM      6  C   UNL A   1      30.870  27.565  23.803  1.00  0.00     0.194 C 
BRANCH   6   7
ATOM      7  C   UNL A   1      31.114  26.390  22.808  1.00  0.00     0.017 C 
ATOM      8  C   UNL A   1      32.615  26.229  22.510  1.00  0.00     0.010 C 
ATOM      9  C   UNL A   1      30.601  25.031  23.292  1.00  0.00     0.010 C 
ENDBRANCH   6   7
BRANCH   6  10
ATOM     10  N   UNL A   1      29.447  27.986  23.758  1.00  0.00    -0.340 N 
ATOM     11  C   UNL A   1      28.800  28.865  22.926  1.00  0.00     0.249 C 
ATOM     12  H   UNL A   1      28.872  27.564  24.436  1.00  0.00     0.164 HD
ATOM     13  O   UNL A   1      27.656  28.564  22.574  1.00  0.00    -0.272 OA
BRANCH  11  14
ATOM     14  C   UNL A   1      29.423  30.236  22.602  1.00  0.00     0.207 C 
ATOM     15  C   UNL A   1      28.853  30.867  21.339  1.00  0.00     0.044 C 
ATOM     16  O   UNL A   1      29.209  31.176  23.675  1.00  0.00    -0.368 OA
ATOM     17  C   UNL A   1      27.975  31.980  21.851  1.00  0.00     0.032 C 
ATOM     18  C   UNL A   1      28.688  32.384  23.116  1.00  0.00     0.161 C 
ENDBRANCH  11  14
ENDBRANCH   6  10
ENDBRANCH   4   6
ENDBRANCH   3   4
ENDBRANCH   2   3
ENDBRANCH   1   2
BRANCH   1  19
ATOM     19  O   UNL A   1      32.395  30.590  27.169  1.00  0.00    -0.458 OA
BRANCH  19  20
ATOM     20  C   UNL A   1      33.133  31.711  27.336  1.00  0.00     0.338 C 
ATOM     21  O   UNL A   1      32.737  32.862  27.269  1.00  0.00    -0.246 OA
BRANCH  20  22
ATOM     22  C   UNL A   1      34.505  31.374  27.749  1.00  0.00     0.060 A 
ATOM     23  C   UNL A   1      34.793  30.038  28.047  1.00  0.00     0.016 A 
ATOM     24  C   UNL A   1      35.450  32.371  27.993  1.00  0.00     0.016 A 
ATOM     25  C   UNL A   1      36.010  29.691  28.620  1.00  0.00     0.010 A 
ATOM     26  C   UNL A   1      36.677  32.021  28.571  1.00  0.00     0.010 A 
ATOM     27  C   UNL A   1      36.949  30.684  28.914  1.00  0.00    -0.014 A 
BRANCH  27  28
ATOM     28  C   UNL A   1      38.156  30.327  29.695  1.00  0.00     0.031 A 
ATOM     29  C   UNL A   1      39.163  29.388  29.094  1.00  0.00     0.074 A 
ATOM     30  C   UNL A   1      38.373  30.882  30.900  1.00  0.00     0.049 A 
ATOM     31  N   UNL A   1      40.246  28.882  29.623  1.00  0.00    -0.248 NA
ATOM     32  C   UNL A   1      38.911  28.964  27.709  1.00  0.00     0.031 C 
ATOM     33  C   UNL A   1      37.502  31.865  31.544  1.00  0.00     0.029 A 
ATOM     34  N   UNL A   1      39.396  30.699  31.795  1.00  0.00    -0.354 N 
ATOM     35  C   UNL A   1      40.801  28.066  28.641  1.00  0.00     0.074 A 
ATOM     36  C   UNL A   1      39.918  28.131  27.495  1.00  0.00     0.031 C 
ATOM     37  C   UNL A   1      38.024  32.192  32.739  1.00  0.00     0.029 A 
ATOM     38  C   UNL A   1      39.238  31.410  32.962  1.00  0.00     0.049 A 
ATOM     39  H   UNL A   1      40.169  30.116  31.619  1.00  0.00     0.167 HD
ATOM     40  C   UNL A   1      41.941  27.331  28.695  1.00  0.00     0.034 A 
ATOM     41  C   UNL A   1      39.972  31.402  34.091  1.00  0.00     0.034 A 
ATOM     42  C   UNL A   1      42.799  27.270  29.855  1.00  0.00     0.049 A 
ATOM     43  C   UNL A   1      41.192  30.519  34.158  1.00  0.00     0.074 A 
ATOM     44  C   UNL A   1      43.958  26.537  30.036  1.00  0.00     0.029 A 
ATOM     45  N   UNL A   1      42.586  27.970  31.037  1.00  0.00    -0.354 N 
ATOM     46  N   UNL A   1      41.680  29.712  33.243  1.00  0.00    -0.248 NA
ATOM     47  C   UNL A   1      41.959  30.548  35.409  1.00  0.00     0.031 C 
ATOM     48  C   UNL A   1      44.416  26.752  31.343  1.00  0.00     0.029 A 
ATOM     49  C   UNL A   1      43.580  27.671  31.957  1.00  0.00     0.049 A 
ATOM     50  H   UNL A   1      41.838  28.590  31.196  1.00  0.00     0.167 HD
ATOM     51  C   UNL A   1      42.824  29.151  33.805  1.00  0.00     0.074 A 
ATOM     52  C   UNL A   1      42.962  29.729  35.127  1.00  0.00     0.031 C 
ATOM     53  C   UNL A   1      43.685  28.242  33.278  1.00  0.00     0.034 A 
BRANCH  40  54
ATOM     54  C   UNL A   1      42.268  26.486  27.489  1.00  0.00     0.023 A 
ATOM     55  C   UNL A   1      41.866  25.141  27.393  1.00  0.00     0.031 A 
ATOM     56  C   UNL A   1      43.046  27.017  26.445  1.00  0.00     0.131 A 
ATOM     57  C   UNL A   1      42.306  24.355  26.316  1.00  0.00     0.055 A 
ATOM     58  C   UNL A   1      43.417  26.250  25.339  1.00  0.00     0.041 A 
ATOM     59  F   UNL A   1      43.479  28.286  26.494  1.00  0.00    -0.206 F 
ATOM     60  C   UNL A   1      43.061  24.906  25.278  1.00  0.00     0.022 A 
BRANCH  57  61
ATOM     61  S   UNL A   1      42.003  22.567  26.365  1.00  0.00     0.124 S 
ATOM     62  O   UNL A   1      42.685  22.185  27.600  1.00  0.00    -0.237 OA
ATOM     63  O   UNL A   1      40.547  22.494  26.390  1.00  0.00    -0.237 OA
ATOM     64  O   UNL A   1      42.632  22.078  25.139  1.00  0.00    -0.744 OA
ENDBRANCH  57  61
ENDBRANCH  40  54
BRANCH  41  65
ATOM     65  C   UNL A   1      39.547  32.206  35.271  1.00  0.00     0.023 A 
ATOM     66  C   UNL A   1      38.795  31.636  36.309  1.00  0.00     0.031 A 
ATOM     67  C   UNL A   1      39.852  33.576  35.351  1.00  0.00     0.131 A 
ATOM     68  C   UNL A   1      38.341  32.441  37.365  1.00  0.00     0.055 A 
ATOM     69  C   UNL A   1      39.439  34.363  36.426  1.00  0.00     0.041 A 
ATOM     70  F   UNL A   1      40.570  34.170  34.383  1.00  0.00    -0.206 F 
ATOM     71  C   UNL A   1      38.668  33.798  37.437  1.00  0.00     0.022 A 
BRANCH  68  72
ATOM     72  S   UNL A   1      37.253  31.704  38.614  1.00  0.00     0.124 S 
ATOM     73  O   UNL A   1      38.053  31.843  39.826  1.00  0.00    -0.237 OA
ATOM     74  O   UNL A   1      36.070  32.554  38.526  1.00  0.00    -0.237 OA
ATOM     75  O   UNL A   1      37.070  30.333  38.141  1.00  0.00    -0.744 OA
ENDBRANCH  68  72
ENDBRANCH  41  65
BRANCH  53  76
ATOM     76  C   UNL A   1      44.865  27.856  34.136  1.00  0.00     0.023 A 
ATOM     77  C   UNL A   1      44.825  26.734  34.983  1.00  0.00     0.031 A 
ATOM     78  C   UNL A   1      46.029  28.644  34.133  1.00  0.00     0.131 A 
ATOM     79  C   UNL A   1      45.903  26.468  35.840  1.00  0.00     0.055 A 
ATOM     80  C   UNL A   1      47.121  28.342  34.947  1.00  0.00     0.041 A 
ATOM     81  F   UNL A   1      46.118  29.726  33.343  1.00  0.00    -0.206 F 
ATOM     82  C   UNL A   1      47.057  27.258  35.818  1.00  0.00     0.022 A 
BRANCH  79  83
ATOM     83  S   UNL A   1      45.738  25.138  37.062  1.00  0.00     0.124 S 
ATOM     84  O   UNL A   1      46.024  25.834  38.312  1.00  0.00    -0.237 OA
ATOM     85  O   UNL A   1      44.354  24.712  36.872  1.00  0.00    -0.237 OA
ATOM     86  O   UNL A   1      46.746  24.165  36.649  1.00  0.00    -0.744 OA
ENDBRANCH  79  83
ENDBRANCH  53  76
ENDBRANCH  27  28
ENDBRANCH  20  22
ENDBRANCH  19  20
ENDBRANCH   1  19
TORSDOF 17
ENDMDL
