MODEL 1
REMARK VINA RESULT:     -11.7      0.000      0.000
REMARK SMILES CN(C(=O)N[C@@](C)(C(=O)OCCOC(=O)c1ccc(-c2c3nc(c(-c4cc(S(=O)(=O)[O-])ccc4F)c4ccc([nH]4)c(-c4cc(S(=O)(=O)[O-])ccc4F)c4nc(c(-c5cc(S(=O)(=O)[O-])ccc5F)c5ccc2[nH]5)C=C4)C=C3)cc1)C(F)(F)F)c1ccc(F)cc1
REMARK SMILES IDX 11 1 10 2 8 3 9 4 6 5 7 6 5 7 3 8 4 9 2 11 1 12 83 13 84 14
REMARK SMILES IDX 89 15 85 16 88 17 86 18 87 19 79 20 80 21 81 22 82 23 12 24
REMARK SMILES IDX 13 25 14 26 15 27 16 28 17 29 78 30 18 31 77 32 19 33 20 34
REMARK SMILES IDX 21 35 71 36 22 37 76 38 70 39 72 40 23 41 75 42 69 43 68 44
REMARK SMILES IDX 24 46 56 47 36 48 55 49 37 50 40 51 54 52 73 53 38 54 39 55
REMARK SMILES IDX 53 57 74 58 41 59 25 60 26 61 34 62 27 63 33 64 35 65 32 66
REMARK SMILES IDX 28 67 29 68 30 69 31 70 57 71 58 72 66 73 59 74 65 75 67 76
REMARK SMILES IDX 64 77 60 78 61 79 62 80 63 81 42 82 43 83 51 84 44 85 50 86
REMARK SMILES IDX 52 87 49 88 45 89 46 90 47 91 48 92
REMARK H PARENT 5 10 72 45 40 56
REMARK Flexibility Score: inf
ROOT
ATOM      1  C   UNL A   1      36.187  20.029  24.978  1.00  0.00     0.274 C 
ENDROOT
BRANCH   1   2
ATOM      2  O   UNL A   1      35.756  21.389  24.748  1.00  0.00    -0.460 OA
BRANCH   2   3
ATOM      3  C   UNL A   1      34.402  21.598  24.818  1.00  0.00     0.341 C 
ATOM      4  O   UNL A   1      33.581  20.700  24.684  1.00  0.00    -0.249 OA
BRANCH   3   5
ATOM      5  C   UNL A   1      34.063  23.097  24.821  1.00  0.00     0.232 C 
ATOM      6  C   UNL A   1      35.391  23.805  25.206  1.00  0.00     0.058 C 
BRANCH   5   7
ATOM      7  N   UNL A   1      33.113  23.442  25.949  1.00  0.00    -0.314 N 
ATOM      8  C   UNL A   1      32.073  24.171  26.372  1.00  0.00     0.322 C 
ATOM      9  O   UNL A   1      31.590  23.681  27.404  1.00  0.00    -0.248 OA
ATOM     10  H   UNL A   1      33.380  22.880  26.712  1.00  0.00     0.166 HD
BRANCH   8  11
ATOM     11  N   UNL A   1      31.573  25.296  25.783  1.00  0.00    -0.298 N 
ATOM     12  C   UNL A   1      30.680  25.364  24.641  1.00  0.00     0.155 C 
BRANCH  11  13
ATOM     13  C   UNL A   1      32.099  26.593  26.141  1.00  0.00     0.045 A 
ATOM     14  C   UNL A   1      31.359  27.470  26.949  1.00  0.00     0.029 A 
ATOM     15  C   UNL A   1      33.425  26.929  25.814  1.00  0.00     0.029 A 
ATOM     16  C   UNL A   1      31.951  28.630  27.458  1.00  0.00     0.041 A 
ATOM     17  C   UNL A   1      34.006  28.101  26.306  1.00  0.00     0.041 A 
ATOM     18  C   UNL A   1      33.270  28.928  27.141  1.00  0.00     0.123 A 
ATOM     19  F   UNL A   1      33.843  30.007  27.684  1.00  0.00    -0.207 F 
ENDBRANCH  11  13
ENDBRANCH   8  11
ENDBRANCH   5   7
BRANCH   5  20
ATOM     20  C   UNL A   1      33.794  23.480  23.363  1.00  0.00     0.422 C 
ATOM     21  F   UNL A   1      34.716  22.999  22.508  1.00  0.00    -0.168 F 
ATOM     22  F   UNL A   1      32.574  23.043  22.964  1.00  0.00    -0.168 F 
ATOM     23  F   UNL A   1      33.759  24.826  23.187  1.00  0.00    -0.168 F 
ENDBRANCH   5  20
ENDBRANCH   3   5
ENDBRANCH   2   3
ENDBRANCH   1   2
BRANCH   1  24
ATOM     24  C   UNL A   1      37.704  19.899  24.934  1.00  0.00     0.275 C 
BRANCH  24  25
ATOM     25  O   UNL A   1      38.306  21.151  25.291  1.00  0.00    -0.458 OA
BRANCH  25  26
ATOM     26  C   UNL A   1      39.437  21.039  26.028  1.00  0.00     0.338 C 
ATOM     27  O   UNL A   1      40.137  20.053  26.161  1.00  0.00    -0.246 OA
BRANCH  26  28
ATOM     28  C   UNL A   1      39.730  22.320  26.684  1.00  0.00     0.060 A 
ATOM     29  C   UNL A   1      39.000  23.457  26.344  1.00  0.00     0.016 A 
ATOM     30  C   UNL A   1      40.848  22.417  27.513  1.00  0.00     0.016 A 
ATOM     31  C   UNL A   1      39.449  24.713  26.752  1.00  0.00     0.010 A 
ATOM     32  C   UNL A   1      41.256  23.672  27.972  1.00  0.00     0.010 A 
ATOM     33  C   UNL A   1      40.602  24.840  27.541  1.00  0.00    -0.014 A 
BRANCH  33  34
ATOM     34  C   UNL A   1      41.204  26.182  27.789  1.00  0.00     0.031 A 
ATOM     35  C   UNL A   1      42.536  26.521  27.159  1.00  0.00     0.074 A 
ATOM     36  C   UNL A   1      40.562  27.114  28.521  1.00  0.00     0.049 A 
ATOM     37  N   UNL A   1      43.310  27.558  27.358  1.00  0.00    -0.248 NA
ATOM     38  C   UNL A   1      43.070  25.559  26.181  1.00  0.00     0.031 C 
ATOM     39  C   UNL A   1      39.241  26.952  29.130  1.00  0.00     0.029 A 
ATOM     40  N   UNL A   1      40.932  28.390  28.869  1.00  0.00    -0.354 N 
ATOM     41  C   UNL A   1      44.448  27.341  26.585  1.00  0.00     0.074 A 
ATOM     42  C   UNL A   1      44.259  26.075  25.909  1.00  0.00     0.031 C 
ATOM     43  C   UNL A   1      38.898  28.097  29.745  1.00  0.00     0.029 A 
ATOM     44  C   UNL A   1      40.005  29.043  29.649  1.00  0.00     0.049 A 
ATOM     45  H   UNL A   1      41.781  28.800  28.586  1.00  0.00     0.167 HD
ATOM     46  C   UNL A   1      45.551  28.118  26.458  1.00  0.00     0.034 A 
ATOM     47  C   UNL A   1      40.056  30.247  30.254  1.00  0.00     0.034 A 
ATOM     48  C   UNL A   1      45.711  29.401  27.097  1.00  0.00     0.049 A 
ATOM     49  C   UNL A   1      41.303  31.084  30.119  1.00  0.00     0.074 A 
ATOM     50  C   UNL A   1      46.789  30.267  27.034  1.00  0.00     0.029 A 
ATOM     51  N   UNL A   1      44.761  30.010  27.905  1.00  0.00    -0.354 N 
ATOM     52  N   UNL A   1      42.403  30.824  29.450  1.00  0.00    -0.248 NA
ATOM     53  C   UNL A   1      41.321  32.366  30.833  1.00  0.00     0.031 C 
ATOM     54  C   UNL A   1      46.510  31.377  27.841  1.00  0.00     0.029 A 
ATOM     55  C   UNL A   1      45.234  31.230  28.358  1.00  0.00     0.049 A 
ATOM     56  H   UNL A   1      43.880  29.628  28.124  1.00  0.00     0.167 HD
ATOM     57  C   UNL A   1      43.235  31.922  29.654  1.00  0.00     0.074 A 
ATOM     58  C   UNL A   1      42.503  32.852  30.489  1.00  0.00     0.031 C 
ATOM     59  C   UNL A   1      44.494  32.141  29.196  1.00  0.00     0.034 A 
BRANCH  46  60
ATOM     60  C   UNL A   1      46.702  27.562  25.657  1.00  0.00     0.023 A 
ATOM     61  C   UNL A   1      46.974  27.978  24.343  1.00  0.00     0.031 A 
ATOM     62  C   UNL A   1      47.528  26.573  26.223  1.00  0.00     0.131 A 
ATOM     63  C   UNL A   1      48.011  27.365  23.620  1.00  0.00     0.055 A 
ATOM     64  C   UNL A   1      48.598  26.016  25.521  1.00  0.00     0.041 A 
ATOM     65  F   UNL A   1      47.298  26.123  27.467  1.00  0.00    -0.206 F 
ATOM     66  C   UNL A   1      48.837  26.402  24.207  1.00  0.00     0.022 A 
BRANCH  63  67
ATOM     67  S   UNL A   1      48.186  27.747  21.856  1.00  0.00     0.124 S 
ATOM     68  O   UNL A   1      46.904  28.388  21.571  1.00  0.00    -0.237 OA
ATOM     69  O   UNL A   1      49.360  28.612  21.840  1.00  0.00    -0.237 OA
ATOM     70  O   UNL A   1      48.369  26.435  21.238  1.00  0.00    -0.744 OA
ENDBRANCH  63  67
ENDBRANCH  46  60
BRANCH  47  71
ATOM     71  C   UNL A   1      38.924  30.716  31.105  1.00  0.00     0.023 A 
ATOM     72  C   UNL A   1      37.898  31.514  30.575  1.00  0.00     0.031 A 
ATOM     73  C   UNL A   1      38.885  30.422  32.481  1.00  0.00     0.131 A 
ATOM     74  C   UNL A   1      36.900  32.023  31.420  1.00  0.00     0.055 A 
ATOM     75  C   UNL A   1      37.861  30.886  33.306  1.00  0.00     0.041 A 
ATOM     76  F   UNL A   1      39.844  29.668  33.041  1.00  0.00    -0.206 F 
ATOM     77  C   UNL A   1      36.868  31.703  32.779  1.00  0.00     0.022 A 
BRANCH  74  78
ATOM     78  S   UNL A   1      35.690  33.189  30.734  1.00  0.00     0.124 S 
ATOM     79  O   UNL A   1      36.147  33.316  29.355  1.00  0.00    -0.237 OA
ATOM     80  O   UNL A   1      34.435  32.472  30.932  1.00  0.00    -0.237 OA
ATOM     81  O   UNL A   1      35.860  34.381  31.562  1.00  0.00    -0.744 OA
ENDBRANCH  74  78
ENDBRANCH  47  71
BRANCH  59  82
ATOM     82  C   UNL A   1      45.128  33.460  29.557  1.00  0.00     0.023 A 
ATOM     83  C   UNL A   1      44.944  34.607  28.767  1.00  0.00     0.031 A 
ATOM     84  C   UNL A   1      45.946  33.559  30.696  1.00  0.00     0.131 A 
ATOM     85  C   UNL A   1      45.616  35.794  29.096  1.00  0.00     0.055 A 
ATOM     86  C   UNL A   1      46.574  34.755  31.045  1.00  0.00     0.041 A 
ATOM     87  F   UNL A   1      46.153  32.491  31.482  1.00  0.00    -0.206 F 
ATOM     88  C   UNL A   1      46.420  35.879  30.235  1.00  0.00     0.022 A 
BRANCH  85  89
ATOM     89  S   UNL A   1      45.495  37.207  27.964  1.00  0.00     0.124 S 
ATOM     90  O   UNL A   1      44.513  36.737  26.992  1.00  0.00    -0.237 OA
ATOM     91  O   UNL A   1      45.052  38.279  28.850  1.00  0.00    -0.237 OA
ATOM     92  O   UNL A   1      46.856  37.351  27.449  1.00  0.00    -0.744 OA
ENDBRANCH  85  89
ENDBRANCH  59  82
ENDBRANCH  33  34
ENDBRANCH  26  28
ENDBRANCH  25  26
ENDBRANCH  24  25
ENDBRANCH   1  24
TORSDOF 18
ENDMDL
MODEL 2
REMARK VINA RESULT:     -11.7      1.713      8.165
REMARK SMILES CN(C(=O)N[C@@](C)(C(=O)OCCOC(=O)c1ccc(-c2c3nc(c(-c4cc(S(=O)(=O)[O-])ccc4F)c4ccc([nH]4)c(-c4cc(S(=O)(=O)[O-])ccc4F)c4nc(c(-c5cc(S(=O)(=O)[O-])ccc5F)c5ccc2[nH]5)C=C4)C=C3)cc1)C(F)(F)F)c1ccc(F)cc1
REMARK SMILES IDX 11 1 10 2 8 3 9 4 6 5 7 6 5 7 3 8 4 9 2 11 1 12 83 13 84 14
REMARK SMILES IDX 89 15 85 16 88 17 86 18 87 19 79 20 80 21 81 22 82 23 12 24
REMARK SMILES IDX 13 25 14 26 15 27 16 28 17 29 78 30 18 31 77 32 19 33 20 34
REMARK SMILES IDX 21 35 71 36 22 37 76 38 70 39 72 40 23 41 75 42 69 43 68 44
REMARK SMILES IDX 24 46 56 47 36 48 55 49 37 50 40 51 54 52 73 53 38 54 39 55
REMARK SMILES IDX 53 57 74 58 41 59 25 60 26 61 34 62 27 63 33 64 35 65 32 66
REMARK SMILES IDX 28 67 29 68 30 69 31 70 57 71 58 72 66 73 59 74 65 75 67 76
REMARK SMILES IDX 64 77 60 78 61 79 62 80 63 81 42 82 43 83 51 84 44 85 50 86
REMARK SMILES IDX 52 87 49 88 45 89 46 90 47 91 48 92
REMARK H PARENT 5 10 72 45 40 56
REMARK Flexibility Score: inf
ROOT
ATOM      1  C   UNL A   1      36.192  20.121  25.005  1.00  0.00     0.274 C 
ENDROOT
BRANCH   1   2
ATOM      2  O   UNL A   1      35.775  21.338  25.662  1.00  0.00    -0.460 OA
BRANCH   2   3
ATOM      3  C   UNL A   1      35.119  22.242  24.865  1.00  0.00     0.341 C 
ATOM      4  O   UNL A   1      35.445  22.469  23.707  1.00  0.00    -0.249 OA
BRANCH   3   5
ATOM      5  C   UNL A   1      34.129  23.092  25.676  1.00  0.00     0.232 C 
ATOM      6  C   UNL A   1      34.476  22.802  27.161  1.00  0.00     0.058 C 
BRANCH   5   7
ATOM      7  N   UNL A   1      32.711  22.584  25.515  1.00  0.00    -0.314 N 
ATOM      8  C   UNL A   1      31.883  21.691  24.958  1.00  0.00     0.322 C 
ATOM      9  O   UNL A   1      30.794  21.680  25.553  1.00  0.00    -0.248 OA
ATOM     10  H   UNL A   1      32.146  23.175  26.063  1.00  0.00     0.166 HD
BRANCH   8  11
ATOM     11  N   UNL A   1      32.152  20.882  23.893  1.00  0.00    -0.298 N 
ATOM     12  C   UNL A   1      31.872  21.152  22.495  1.00  0.00     0.155 C 
BRANCH  11  13
ATOM     13  C   UNL A   1      32.569  19.516  24.111  1.00  0.00     0.045 A 
ATOM     14  C   UNL A   1      32.700  19.003  25.410  1.00  0.00     0.029 A 
ATOM     15  C   UNL A   1      32.695  18.637  23.020  1.00  0.00     0.029 A 
ATOM     16  C   UNL A   1      32.902  17.635  25.613  1.00  0.00     0.041 A 
ATOM     17  C   UNL A   1      32.921  17.273  23.225  1.00  0.00     0.041 A 
ATOM     18  C   UNL A   1      33.000  16.783  24.520  1.00  0.00     0.123 A 
ATOM     19  F   UNL A   1      33.131  15.468  24.728  1.00  0.00    -0.207 F 
ENDBRANCH  11  13
ENDBRANCH   8  11
ENDBRANCH   5   7
BRANCH   5  20
ATOM     20  C   UNL A   1      34.518  24.553  25.435  1.00  0.00     0.422 C 
ATOM     21  F   UNL A   1      34.292  24.963  24.172  1.00  0.00    -0.168 F 
ATOM     22  F   UNL A   1      33.847  25.379  26.276  1.00  0.00    -0.168 F 
ATOM     23  F   UNL A   1      35.831  24.782  25.693  1.00  0.00    -0.168 F 
ENDBRANCH   5  20
ENDBRANCH   3   5
ENDBRANCH   2   3
ENDBRANCH   1   2
BRANCH   1  24
ATOM     24  C   UNL A   1      37.710  20.001  24.943  1.00  0.00     0.275 C 
BRANCH  24  25
ATOM     25  O   UNL A   1      38.309  21.227  25.387  1.00  0.00    -0.458 OA
BRANCH  25  26
ATOM     26  C   UNL A   1      39.455  21.067  26.092  1.00  0.00     0.338 C 
ATOM     27  O   UNL A   1      40.132  20.061  26.181  1.00  0.00    -0.246 OA
BRANCH  26  28
ATOM     28  C   UNL A   1      39.796  22.322  26.775  1.00  0.00     0.060 A 
ATOM     29  C   UNL A   1      39.194  23.515  26.376  1.00  0.00     0.016 A 
ATOM     30  C   UNL A   1      40.841  22.330  27.697  1.00  0.00     0.016 A 
ATOM     31  C   UNL A   1      39.709  24.730  26.826  1.00  0.00     0.010 A 
ATOM     32  C   UNL A   1      41.312  23.549  28.194  1.00  0.00     0.010 A 
ATOM     33  C   UNL A   1      40.796  24.765  27.711  1.00  0.00    -0.014 A 
BRANCH  33  34
ATOM     34  C   UNL A   1      41.484  26.053  28.014  1.00  0.00     0.031 A 
ATOM     35  C   UNL A   1      40.752  27.112  28.807  1.00  0.00     0.074 A 
ATOM     36  C   UNL A   1      42.760  26.272  27.637  1.00  0.00     0.049 A 
ATOM     37  N   UNL A   1      41.094  28.351  29.053  1.00  0.00    -0.248 NA
ATOM     38  C   UNL A   1      39.459  26.725  29.392  1.00  0.00     0.031 C 
ATOM     39  C   UNL A   1      43.611  25.315  26.930  1.00  0.00     0.029 A 
ATOM     40  N   UNL A   1      43.568  27.370  27.808  1.00  0.00    -0.354 N 
ATOM     41  C   UNL A   1      40.033  28.909  29.760  1.00  0.00     0.074 A 
ATOM     42  C   UNL A   1      39.037  27.869  29.910  1.00  0.00     0.031 C 
ATOM     43  C   UNL A   1      44.831  25.854  26.760  1.00  0.00     0.029 A 
ATOM     44  C   UNL A   1      44.824  27.223  27.266  1.00  0.00     0.049 A 
ATOM     45  H   UNL A   1      43.275  28.186  28.275  1.00  0.00     0.167 HD
ATOM     46  C   UNL A   1      39.895  30.171  30.234  1.00  0.00     0.034 A 
ATOM     47  C   UNL A   1      45.841  28.101  27.152  1.00  0.00     0.034 A 
ATOM     48  C   UNL A   1      40.911  31.189  30.124  1.00  0.00     0.049 A 
ATOM     49  C   UNL A   1      45.657  29.508  27.664  1.00  0.00     0.074 A 
ATOM     50  C   UNL A   1      40.872  32.499  30.570  1.00  0.00     0.029 A 
ATOM     51  N   UNL A   1      42.157  31.007  29.539  1.00  0.00    -0.354 N 
ATOM     52  N   UNL A   1      44.614  30.040  28.258  1.00  0.00    -0.248 NA
ATOM     53  C   UNL A   1      46.780  30.434  27.475  1.00  0.00     0.031 C 
ATOM     54  C   UNL A   1      42.074  33.122  30.212  1.00  0.00     0.029 A 
ATOM     55  C   UNL A   1      42.886  32.183  29.598  1.00  0.00     0.049 A 
ATOM     56  H   UNL A   1      42.474  30.164  29.140  1.00  0.00     0.167 HD
ATOM     57  C   UNL A   1      44.966  31.360  28.525  1.00  0.00     0.074 A 
ATOM     58  C   UNL A   1      46.322  31.535  28.048  1.00  0.00     0.031 C 
ATOM     59  C   UNL A   1      44.234  32.342  29.110  1.00  0.00     0.034 A 
BRANCH  46  60
ATOM     60  C   UNL A   1      38.567  30.542  30.845  1.00  0.00     0.023 A 
ATOM     61  C   UNL A   1      37.542  31.153  30.103  1.00  0.00     0.031 A 
ATOM     62  C   UNL A   1      38.339  30.297  32.212  1.00  0.00     0.131 A 
ATOM     63  C   UNL A   1      36.358  31.549  30.747  1.00  0.00     0.055 A 
ATOM     64  C   UNL A   1      37.133  30.634  32.830  1.00  0.00     0.041 A 
ATOM     65  F   UNL A   1      39.293  29.737  32.973  1.00  0.00    -0.206 F 
ATOM     66  C   UNL A   1      36.139  31.274  32.100  1.00  0.00     0.022 A 
BRANCH  63  67
ATOM     67  S   UNL A   1      35.156  32.546  29.824  1.00  0.00     0.124 S 
ATOM     68  O   UNL A   1      34.198  32.887  30.872  1.00  0.00    -0.237 OA
ATOM     69  O   UNL A   1      35.980  33.638  29.319  1.00  0.00    -0.237 OA
ATOM     70  O   UNL A   1      34.656  31.622  28.807  1.00  0.00    -0.744 OA
ENDBRANCH  63  67
ENDBRANCH  46  60
BRANCH  47  71
ATOM     71  C   UNL A   1      47.106  27.711  26.464  1.00  0.00     0.023 A 
ATOM     72  C   UNL A   1      47.275  27.912  25.085  1.00  0.00     0.031 A 
ATOM     73  C   UNL A   1      48.144  27.074  27.169  1.00  0.00     0.131 A 
ATOM     74  C   UNL A   1      48.435  27.445  24.447  1.00  0.00     0.055 A 
ATOM     75  C   UNL A   1      49.318  26.660  26.539  1.00  0.00     0.041 A 
ATOM     76  F   UNL A   1      48.032  26.852  28.488  1.00  0.00    -0.206 F 
ATOM     77  C   UNL A   1      49.462  26.833  25.168  1.00  0.00     0.022 A 
BRANCH  74  78
ATOM     78  S   UNL A   1      48.543  27.567  22.640  1.00  0.00     0.124 S 
ATOM     79  O   UNL A   1      49.775  28.328  22.466  1.00  0.00    -0.237 OA
ATOM     80  O   UNL A   1      48.593  26.164  22.245  1.00  0.00    -0.237 OA
ATOM     81  O   UNL A   1      47.317  28.272  22.273  1.00  0.00    -0.744 OA
ENDBRANCH  74  78
ENDBRANCH  47  71
BRANCH  59  82
ATOM     82  C   UNL A   1      44.913  33.674  29.300  1.00  0.00     0.023 A 
ATOM     83  C   UNL A   1      44.735  34.729  28.389  1.00  0.00     0.031 A 
ATOM     84  C   UNL A   1      45.769  33.878  30.397  1.00  0.00     0.131 A 
ATOM     85  C   UNL A   1      45.448  35.925  28.561  1.00  0.00     0.055 A 
ATOM     86  C   UNL A   1      46.438  35.087  30.589  1.00  0.00     0.041 A 
ATOM     87  F   UNL A   1      45.972  32.901  31.295  1.00  0.00    -0.206 F 
ATOM     88  C   UNL A   1      46.289  36.115  29.660  1.00  0.00     0.022 A 
BRANCH  85  89
ATOM     89  S   UNL A   1      45.329  37.202  27.277  1.00  0.00     0.124 S 
ATOM     90  O   UNL A   1      45.727  38.403  28.004  1.00  0.00    -0.237 OA
ATOM     91  O   UNL A   1      46.275  36.723  26.273  1.00  0.00    -0.237 OA
ATOM     92  O   UNL A   1      43.924  37.157  26.876  1.00  0.00    -0.744 OA
ENDBRANCH  85  89
ENDBRANCH  59  82
ENDBRANCH  33  34
ENDBRANCH  26  28
ENDBRANCH  25  26
ENDBRANCH  24  25
ENDBRANCH   1  24
TORSDOF 18
ENDMDL
MODEL 3
REMARK VINA RESULT:     -11.4      1.868      2.152
REMARK SMILES CN(C(=O)N[C@@](C)(C(=O)OCCOC(=O)c1ccc(-c2c3nc(c(-c4cc(S(=O)(=O)[O-])ccc4F)c4ccc([nH]4)c(-c4cc(S(=O)(=O)[O-])ccc4F)c4nc(c(-c5cc(S(=O)(=O)[O-])ccc5F)c5ccc2[nH]5)C=C4)C=C3)cc1)C(F)(F)F)c1ccc(F)cc1
REMARK SMILES IDX 11 1 10 2 8 3 9 4 6 5 7 6 5 7 3 8 4 9 2 11 1 12 83 13 84 14
REMARK SMILES IDX 89 15 85 16 88 17 86 18 87 19 79 20 80 21 81 22 82 23 12 24
REMARK SMILES IDX 13 25 14 26 15 27 16 28 17 29 78 30 18 31 77 32 19 33 20 34
REMARK SMILES IDX 21 35 71 36 22 37 76 38 70 39 72 40 23 41 75 42 69 43 68 44
REMARK SMILES IDX 24 46 56 47 36 48 55 49 37 50 40 51 54 52 73 53 38 54 39 55
REMARK SMILES IDX 53 57 74 58 41 59 25 60 26 61 34 62 27 63 33 64 35 65 32 66
REMARK SMILES IDX 28 67 29 68 30 69 31 70 57 71 58 72 66 73 59 74 65 75 67 76
REMARK SMILES IDX 64 77 60 78 61 79 62 80 63 81 42 82 43 83 51 84 44 85 50 86
REMARK SMILES IDX 52 87 49 88 45 89 46 90 47 91 48 92
REMARK H PARENT 5 10 72 45 40 56
REMARK Flexibility Score: inf
ROOT
ATOM      1  C   UNL A   1      36.271  20.069  25.035  1.00  0.00     0.274 C 
ENDROOT
BRANCH   1   2
ATOM      2  O   UNL A   1      35.598  21.111  25.774  1.00  0.00    -0.460 OA
BRANCH   2   3
ATOM      3  C   UNL A   1      34.292  21.336  25.420  1.00  0.00     0.341 C 
ATOM      4  O   UNL A   1      33.538  20.444  25.054  1.00  0.00    -0.249 OA
BRANCH   3   5
ATOM      5  C   UNL A   1      33.994  22.838  25.295  1.00  0.00     0.232 C 
ATOM      6  C   UNL A   1      35.257  23.544  25.856  1.00  0.00     0.058 C 
BRANCH   5   7
ATOM      7  N   UNL A   1      32.881  23.256  26.234  1.00  0.00    -0.314 N 
ATOM      8  C   UNL A   1      31.813  24.034  26.451  1.00  0.00     0.322 C 
ATOM      9  O   UNL A   1      31.146  23.599  27.402  1.00  0.00    -0.248 OA
ATOM     10  H   UNL A   1      32.995  22.716  27.049  1.00  0.00     0.166 HD
BRANCH   8  11
ATOM     11  N   UNL A   1      31.462  25.151  25.750  1.00  0.00    -0.298 N 
ATOM     12  C   UNL A   1      30.733  25.205  24.496  1.00  0.00     0.155 C 
BRANCH  11  13
ATOM     13  C   UNL A   1      32.011  26.436  26.116  1.00  0.00     0.045 A 
ATOM     14  C   UNL A   1      31.261  27.349  26.872  1.00  0.00     0.029 A 
ATOM     15  C   UNL A   1      33.363  26.723  25.855  1.00  0.00     0.029 A 
ATOM     16  C   UNL A   1      31.863  28.497  27.395  1.00  0.00     0.041 A 
ATOM     17  C   UNL A   1      33.956  27.884  26.359  1.00  0.00     0.041 A 
ATOM     18  C   UNL A   1      33.206  28.747  27.143  1.00  0.00     0.123 A 
ATOM     19  F   UNL A   1      33.785  29.816  27.700  1.00  0.00    -0.207 F 
ENDBRANCH  11  13
ENDBRANCH   8  11
ENDBRANCH   5   7
BRANCH   5  20
ATOM     20  C   UNL A   1      33.974  23.149  23.796  1.00  0.00     0.422 C 
ATOM     21  F   UNL A   1      32.913  22.620  23.156  1.00  0.00    -0.168 F 
ATOM     22  F   UNL A   1      33.977  24.487  23.578  1.00  0.00    -0.168 F 
ATOM     23  F   UNL A   1      35.083  22.688  23.163  1.00  0.00    -0.168 F 
ENDBRANCH   5  20
ENDBRANCH   3   5
ENDBRANCH   2   3
ENDBRANCH   1   2
BRANCH   1  24
ATOM     24  C   UNL A   1      37.756  20.362  24.862  1.00  0.00     0.275 C 
BRANCH  24  25
ATOM     25  O   UNL A   1      38.116  21.508  25.647  1.00  0.00    -0.458 OA
BRANCH  25  26
ATOM     26  C   UNL A   1      39.347  21.441  26.206  1.00  0.00     0.338 C 
ATOM     27  O   UNL A   1      40.093  20.480  26.236  1.00  0.00    -0.246 OA
BRANCH  26  28
ATOM     28  C   UNL A   1      39.691  22.736  26.807  1.00  0.00     0.060 A 
ATOM     29  C   UNL A   1      39.034  23.892  26.387  1.00  0.00     0.016 A 
ATOM     30  C   UNL A   1      40.787  22.816  27.664  1.00  0.00     0.016 A 
ATOM     31  C   UNL A   1      39.539  25.141  26.747  1.00  0.00     0.010 A 
ATOM     32  C   UNL A   1      41.250  24.070  28.074  1.00  0.00     0.010 A 
ATOM     33  C   UNL A   1      40.674  25.247  27.565  1.00  0.00    -0.014 A 
BRANCH  33  34
ATOM     34  C   UNL A   1      41.341  26.566  27.764  1.00  0.00     0.031 A 
ATOM     35  C   UNL A   1      42.675  26.827  27.101  1.00  0.00     0.074 A 
ATOM     36  C   UNL A   1      40.757  27.546  28.482  1.00  0.00     0.049 A 
ATOM     37  N   UNL A   1      43.499  27.831  27.257  1.00  0.00    -0.248 NA
ATOM     38  C   UNL A   1      43.146  25.815  26.141  1.00  0.00     0.031 C 
ATOM     39  C   UNL A   1      39.442  27.461  29.119  1.00  0.00     0.029 A 
ATOM     40  N   UNL A   1      41.191  28.813  28.788  1.00  0.00    -0.354 N 
ATOM     41  C   UNL A   1      44.610  27.542  26.471  1.00  0.00     0.074 A 
ATOM     42  C   UNL A   1      44.352  26.269  25.833  1.00  0.00     0.031 C 
ATOM     43  C   UNL A   1      39.162  28.636  29.708  1.00  0.00     0.029 A 
ATOM     44  C   UNL A   1      40.310  29.527  29.567  1.00  0.00     0.049 A 
ATOM     45  H   UNL A   1      42.053  29.175  28.479  1.00  0.00     0.167 HD
ATOM     46  C   UNL A   1      45.745  28.263  26.302  1.00  0.00     0.034 A 
ATOM     47  C   UNL A   1      40.427  30.744  30.137  1.00  0.00     0.034 A 
ATOM     48  C   UNL A   1      45.976  29.555  26.903  1.00  0.00     0.049 A 
ATOM     49  C   UNL A   1      41.708  31.518  29.956  1.00  0.00     0.074 A 
ATOM     50  C   UNL A   1      47.091  30.368  26.796  1.00  0.00     0.029 A 
ATOM     51  N   UNL A   1      45.071  30.228  27.710  1.00  0.00    -0.354 N 
ATOM     52  N   UNL A   1      42.782  31.191  29.275  1.00  0.00    -0.248 NA
ATOM     53  C   UNL A   1      41.798  32.817  30.635  1.00  0.00     0.031 C 
ATOM     54  C   UNL A   1      46.878  31.511  27.577  1.00  0.00     0.029 A 
ATOM     55  C   UNL A   1      45.607  31.437  28.121  1.00  0.00     0.049 A 
ATOM     56  H   UNL A   1      44.177  29.893  27.956  1.00  0.00     0.167 HD
ATOM     57  C   UNL A   1      43.667  32.254  29.434  1.00  0.00     0.074 A 
ATOM     58  C   UNL A   1      42.994  33.238  30.255  1.00  0.00     0.031 C 
ATOM     59  C   UNL A   1      44.925  32.403  28.947  1.00  0.00     0.034 A 
BRANCH  46  60
ATOM     60  C   UNL A   1      46.854  27.635  25.496  1.00  0.00     0.023 A 
ATOM     61  C   UNL A   1      47.136  28.020  24.176  1.00  0.00     0.031 A 
ATOM     62  C   UNL A   1      47.628  26.605  26.065  1.00  0.00     0.131 A 
ATOM     63  C   UNL A   1      48.128  27.341  23.449  1.00  0.00     0.055 A 
ATOM     64  C   UNL A   1      48.657  25.980  25.359  1.00  0.00     0.041 A 
ATOM     65  F   UNL A   1      47.385  26.181  27.316  1.00  0.00    -0.206 F 
ATOM     66  C   UNL A   1      48.904  26.338  24.039  1.00  0.00     0.022 A 
BRANCH  63  67
ATOM     67  S   UNL A   1      48.307  27.695  21.679  1.00  0.00     0.124 S 
ATOM     68  O   UNL A   1      47.001  28.271  21.366  1.00  0.00    -0.237 OA
ATOM     69  O   UNL A   1      49.441  28.611  21.658  1.00  0.00    -0.237 OA
ATOM     70  O   UNL A   1      48.557  26.380  21.091  1.00  0.00    -0.744 OA
ENDBRANCH  63  67
ENDBRANCH  46  60
BRANCH  47  71
ATOM     71  C   UNL A   1      39.335  31.287  30.995  1.00  0.00     0.023 A 
ATOM     72  C   UNL A   1      39.425  31.252  32.396  1.00  0.00     0.031 A 
ATOM     73  C   UNL A   1      38.153  31.796  30.424  1.00  0.00     0.131 A 
ATOM     74  C   UNL A   1      38.341  31.678  33.178  1.00  0.00     0.055 A 
ATOM     75  C   UNL A   1      37.100  32.270  31.207  1.00  0.00     0.041 A 
ATOM     76  F   UNL A   1      38.012  31.848  29.091  1.00  0.00    -0.206 F 
ATOM     77  C   UNL A   1      37.185  32.199  32.593  1.00  0.00     0.022 A 
BRANCH  74  78
ATOM     78  S   UNL A   1      38.425  31.458  34.977  1.00  0.00     0.124 S 
ATOM     79  O   UNL A   1      37.241  32.185  35.423  1.00  0.00    -0.237 OA
ATOM     80  O   UNL A   1      38.374  30.006  35.106  1.00  0.00    -0.237 OA
ATOM     81  O   UNL A   1      39.704  32.069  35.335  1.00  0.00    -0.744 OA
ENDBRANCH  74  78
ENDBRANCH  47  71
BRANCH  59  82
ATOM     82  C   UNL A   1      45.625  33.700  29.260  1.00  0.00     0.023 A 
ATOM     83  C   UNL A   1      46.432  33.845  30.402  1.00  0.00     0.031 A 
ATOM     84  C   UNL A   1      45.461  34.811  28.415  1.00  0.00     0.131 A 
ATOM     85  C   UNL A   1      47.001  35.092  30.698  1.00  0.00     0.055 A 
ATOM     86  C   UNL A   1      46.070  36.037  28.689  1.00  0.00     0.041 A 
ATOM     87  F   UNL A   1      44.701  34.724  27.313  1.00  0.00    -0.206 F 
ATOM     88  C   UNL A   1      46.835  36.186  29.844  1.00  0.00     0.022 A 
BRANCH  85  89
ATOM     89  S   UNL A   1      47.894  35.293  32.265  1.00  0.00     0.124 S 
ATOM     90  O   UNL A   1      47.531  34.076  32.983  1.00  0.00    -0.237 OA
ATOM     91  O   UNL A   1      49.283  35.382  31.823  1.00  0.00    -0.237 OA
ATOM     92  O   UNL A   1      47.341  36.528  32.819  1.00  0.00    -0.744 OA
ENDBRANCH  85  89
ENDBRANCH  59  82
ENDBRANCH  33  34
ENDBRANCH  26  28
ENDBRANCH  25  26
ENDBRANCH  24  25
ENDBRANCH   1  24
TORSDOF 18
ENDMDL
