MODEL 1
REMARK VINA RESULT:     -10.9      0.000      0.000
REMARK SMILES C[C@@](NC(=O)CCOC1CC[NH2+]CC1)(C(=O)OCCOC(=O)c1ccc(-c2c3nc(c(-c4cc(S(=O)(=O)[O-])ccc4F)c4ccc([nH]4)c(-c4cc(S(=O)(=O)[O-])ccc4F)c4nc(c(-c5cc(S(=O)(=O)[O-])ccc5F)c5ccc2[nH]5)C=C4)C=C3)cc1)C(F)(F)F
REMARK SMILES IDX 18 1 17 2 15 3 16 4 2 5 1 6 3 7 4 8 5 10 6 11 7 12 8 13 9 14
REMARK SMILES IDX 10 15 14 16 11 17 13 18 12 19 86 22 87 23 88 24 89 25 19 26
REMARK SMILES IDX 20 27 21 28 22 29 23 30 24 31 85 32 25 33 84 34 26 35 27 36
REMARK SMILES IDX 28 37 78 38 29 39 83 40 77 41 79 42 30 43 82 44 76 45 75 46
REMARK SMILES IDX 31 48 63 49 43 50 62 51 44 52 47 53 61 54 80 55 45 56 46 57
REMARK SMILES IDX 60 59 81 60 48 61 32 62 33 63 41 64 34 65 40 66 42 67 39 68
REMARK SMILES IDX 35 69 36 70 37 71 38 72 64 73 65 74 73 75 66 76 72 77 74 78
REMARK SMILES IDX 71 79 67 80 68 81 69 82 70 83 49 84 50 85 58 86 51 87 57 88
REMARK SMILES IDX 59 89 56 90 52 91 53 92 54 93 55 94
REMARK H PARENT 3 9 12 20 12 21 79 47 47 58
REMARK Flexibility Score: inf
ROOT
ATOM      1  C   UNL A   1      31.251  29.085  24.453  1.00  0.00     0.274 C 
ENDROOT
BRANCH   1   2
ATOM      2  O   UNL A   1      31.529  27.753  23.985  1.00  0.00    -0.460 OA
BRANCH   2   3
ATOM      3  C   UNL A   1      30.722  26.684  24.286  1.00  0.00     0.341 C 
ATOM      4  O   UNL A   1      29.520  26.750  24.380  1.00  0.00    -0.249 OA
BRANCH   3   5
ATOM      5  C   UNL A   1      31.619  25.466  24.593  1.00  0.00     0.231 C 
ATOM      6  C   UNL A   1      30.712  24.359  25.168  1.00  0.00     0.058 C 
BRANCH   5   7
ATOM      7  N   UNL A   1      32.452  25.137  23.381  1.00  0.00    -0.333 N 
ATOM      8  C   UNL A   1      32.892  24.019  22.766  1.00  0.00     0.223 C 
ATOM      9  H   UNL A   1      32.755  25.950  22.916  1.00  0.00     0.164 HD
ATOM     10  O   UNL A   1      33.623  24.145  21.783  1.00  0.00    -0.275 OA
BRANCH   8  11
ATOM     11  C   UNL A   1      32.535  22.660  23.283  1.00  0.00     0.128 C 
BRANCH  11  12
ATOM     12  C   UNL A   1      33.769  22.002  23.884  1.00  0.00     0.170 C 
BRANCH  12  13
ATOM     13  O   UNL A   1      34.469  22.954  24.678  1.00  0.00    -0.377 OA
BRANCH  13  14
ATOM     14  C   UNL A   1      35.241  22.450  25.765  1.00  0.00     0.129 C 
ATOM     15  C   UNL A   1      36.227  23.529  26.180  1.00  0.00     0.093 C 
ATOM     16  C   UNL A   1      35.945  21.142  25.352  1.00  0.00     0.093 C 
ATOM     17  C   UNL A   1      37.367  23.645  25.174  1.00  0.00     0.263 C 
ATOM     18  C   UNL A   1      37.334  21.265  24.705  1.00  0.00     0.263 C 
ATOM     19  N   UNL A   1      38.131  22.402  25.154  1.00  0.00    -0.346 N 
ATOM     20  H   UNL A   1      38.471  22.212  26.095  1.00  0.00     0.346 HD
ATOM     21  H   UNL A   1      38.899  22.522  24.495  1.00  0.00     0.346 HD
ENDBRANCH  13  14
ENDBRANCH  12  13
ENDBRANCH  11  12
ENDBRANCH   8  11
ENDBRANCH   5   7
BRANCH   5  22
ATOM     22  C   UNL A   1      32.634  25.769  25.724  1.00  0.00     0.422 C 
ATOM     23  F   UNL A   1      32.199  26.704  26.593  1.00  0.00    -0.168 F 
ATOM     24  F   UNL A   1      32.808  24.644  26.480  1.00  0.00    -0.168 F 
ATOM     25  F   UNL A   1      33.854  26.120  25.286  1.00  0.00    -0.168 F 
ENDBRANCH   5  22
ENDBRANCH   3   5
ENDBRANCH   2   3
ENDBRANCH   1   2
BRANCH   1  26
ATOM     26  C   UNL A   1      32.589  29.677  24.908  1.00  0.00     0.275 C 
BRANCH  26  27
ATOM     27  O   UNL A   1      32.503  29.842  26.334  1.00  0.00    -0.458 OA
BRANCH  27  28
ATOM     28  C   UNL A   1      32.908  31.019  26.869  1.00  0.00     0.338 C 
ATOM     29  O   UNL A   1      32.306  32.080  26.850  1.00  0.00    -0.246 OA
BRANCH  28  30
ATOM     30  C   UNL A   1      34.169  30.762  27.601  1.00  0.00     0.060 A 
ATOM     31  C   UNL A   1      34.980  31.852  27.887  1.00  0.00     0.016 A 
ATOM     32  C   UNL A   1      34.624  29.489  27.927  1.00  0.00     0.016 A 
ATOM     33  C   UNL A   1      36.257  31.679  28.398  1.00  0.00     0.010 A 
ATOM     34  C   UNL A   1      35.854  29.341  28.604  1.00  0.00     0.010 A 
ATOM     35  C   UNL A   1      36.699  30.442  28.849  1.00  0.00    -0.014 A 
BRANCH  35  36
ATOM     36  C   UNL A   1      38.020  30.347  29.552  1.00  0.00     0.031 A 
ATOM     37  C   UNL A   1      39.144  29.564  28.926  1.00  0.00     0.074 A 
ATOM     38  C   UNL A   1      38.246  30.967  30.737  1.00  0.00     0.049 A 
ATOM     39  N   UNL A   1      40.190  29.025  29.492  1.00  0.00    -0.248 NA
ATOM     40  C   UNL A   1      39.067  29.342  27.473  1.00  0.00     0.031 C 
ATOM     41  C   UNL A   1      37.323  31.875  31.433  1.00  0.00     0.029 A 
ATOM     42  N   UNL A   1      39.338  30.936  31.580  1.00  0.00    -0.354 N 
ATOM     43  C   UNL A   1      40.839  28.310  28.491  1.00  0.00     0.074 A 
ATOM     44  C   UNL A   1      40.084  28.514  27.272  1.00  0.00     0.031 C 
ATOM     45  C   UNL A   1      37.904  32.356  32.538  1.00  0.00     0.029 A 
ATOM     46  C   UNL A   1      39.146  31.639  32.751  1.00  0.00     0.049 A 
ATOM     47  H   UNL A   1      40.171  30.459  31.365  1.00  0.00     0.167 HD
ATOM     48  C   UNL A   1      41.946  27.536  28.603  1.00  0.00     0.034 A 
ATOM     49  C   UNL A   1      39.810  31.622  33.926  1.00  0.00     0.034 A 
ATOM     50  C   UNL A   1      42.718  27.426  29.819  1.00  0.00     0.049 A 
ATOM     51  C   UNL A   1      40.978  30.686  34.060  1.00  0.00     0.074 A 
ATOM     52  C   UNL A   1      43.861  26.681  30.052  1.00  0.00     0.029 A 
ATOM     53  N   UNL A   1      42.436  28.097  31.002  1.00  0.00    -0.354 N 
ATOM     54  N   UNL A   1      41.505  29.892  33.157  1.00  0.00    -0.248 NA
ATOM     55  C   UNL A   1      41.618  30.615  35.379  1.00  0.00     0.031 C 
ATOM     56  C   UNL A   1      44.228  26.847  31.391  1.00  0.00     0.029 A 
ATOM     57  C   UNL A   1      43.361  27.756  31.975  1.00  0.00     0.049 A 
ATOM     58  H   UNL A   1      41.687  28.722  31.131  1.00  0.00     0.167 HD
ATOM     59  C   UNL A   1      42.544  29.231  33.800  1.00  0.00     0.074 A 
ATOM     60  C   UNL A   1      42.591  29.745  35.154  1.00  0.00     0.031 C 
ATOM     61  C   UNL A   1      43.379  28.274  33.322  1.00  0.00     0.034 A 
BRANCH  48  62
ATOM     62  C   UNL A   1      42.334  26.674  27.425  1.00  0.00     0.023 A 
ATOM     63  C   UNL A   1      42.031  25.305  27.345  1.00  0.00     0.031 A 
ATOM     64  C   UNL A   1      43.028  27.258  26.348  1.00  0.00     0.131 A 
ATOM     65  C   UNL A   1      42.459  24.560  26.233  1.00  0.00     0.055 A 
ATOM     66  C   UNL A   1      43.387  26.529  25.214  1.00  0.00     0.041 A 
ATOM     67  F   UNL A   1      43.370  28.556  26.380  1.00  0.00    -0.206 F 
ATOM     68  C   UNL A   1      43.110  25.167  25.156  1.00  0.00     0.022 A 
BRANCH  65  69
ATOM     69  S   UNL A   1      42.247  22.758  26.255  1.00  0.00     0.124 S 
ATOM     70  O   UNL A   1      43.120  22.374  27.363  1.00  0.00    -0.237 OA
ATOM     71  O   UNL A   1      40.817  22.610  26.490  1.00  0.00    -0.237 OA
ATOM     72  O   UNL A   1      42.710  22.342  24.933  1.00  0.00    -0.744 OA
ENDBRANCH  65  69
ENDBRANCH  48  62
BRANCH  49  73
ATOM     73  C   UNL A   1      39.295  32.382  35.109  1.00  0.00     0.023 A 
ATOM     74  C   UNL A   1      39.736  33.685  35.388  1.00  0.00     0.031 A 
ATOM     75  C   UNL A   1      38.397  31.789  36.021  1.00  0.00     0.131 A 
ATOM     76  C   UNL A   1      39.315  34.332  36.562  1.00  0.00     0.055 A 
ATOM     77  C   UNL A   1      37.917  32.468  37.142  1.00  0.00     0.041 A 
ATOM     78  F   UNL A   1      37.955  30.536  35.827  1.00  0.00    -0.206 F 
ATOM     79  C   UNL A   1      38.390  33.743  37.427  1.00  0.00     0.022 A 
BRANCH  76  80
ATOM     80  S   UNL A   1      40.090  35.909  37.010  1.00  0.00     0.124 S 
ATOM     81  O   UNL A   1      39.381  36.248  38.239  1.00  0.00    -0.237 OA
ATOM     82  O   UNL A   1      41.489  35.526  37.162  1.00  0.00    -0.237 OA
ATOM     83  O   UNL A   1      39.800  36.770  35.866  1.00  0.00    -0.744 OA
ENDBRANCH  76  80
ENDBRANCH  49  73
BRANCH  61  84
ATOM     84  C   UNL A   1      44.431  27.767  34.272  1.00  0.00     0.023 A 
ATOM     85  C   UNL A   1      44.199  26.648  35.091  1.00  0.00     0.031 A 
ATOM     86  C   UNL A   1      45.663  28.432  34.385  1.00  0.00     0.131 A 
ATOM     87  C   UNL A   1      45.163  26.265  36.034  1.00  0.00     0.055 A 
ATOM     88  C   UNL A   1      46.645  28.006  35.279  1.00  0.00     0.041 A 
ATOM     89  F   UNL A   1      45.929  29.509  33.630  1.00  0.00    -0.206 F 
ATOM     90  C   UNL A   1      46.392  26.926  36.120  1.00  0.00     0.022 A 
BRANCH  87  91
ATOM     91  S   UNL A   1      44.748  24.955  37.216  1.00  0.00     0.124 S 
ATOM     92  O   UNL A   1      45.873  25.015  38.143  1.00  0.00    -0.237 OA
ATOM     93  O   UNL A   1      43.464  25.404  37.743  1.00  0.00    -0.237 OA
ATOM     94  O   UNL A   1      44.689  23.752  36.387  1.00  0.00    -0.744 OA
ENDBRANCH  87  91
ENDBRANCH  61  84
ENDBRANCH  35  36
ENDBRANCH  28  30
ENDBRANCH  27  28
ENDBRANCH  26  27
ENDBRANCH   1  26
TORSDOF 20
ENDMDL
MODEL 2
REMARK VINA RESULT:     -10.7      1.457      3.457
REMARK SMILES C[C@@](NC(=O)CCOC1CC[NH2+]CC1)(C(=O)OCCOC(=O)c1ccc(-c2c3nc(c(-c4cc(S(=O)(=O)[O-])ccc4F)c4ccc([nH]4)c(-c4cc(S(=O)(=O)[O-])ccc4F)c4nc(c(-c5cc(S(=O)(=O)[O-])ccc5F)c5ccc2[nH]5)C=C4)C=C3)cc1)C(F)(F)F
REMARK SMILES IDX 18 1 17 2 15 3 16 4 2 5 1 6 3 7 4 8 5 10 6 11 7 12 8 13 9 14
REMARK SMILES IDX 10 15 14 16 11 17 13 18 12 19 86 22 87 23 88 24 89 25 19 26
REMARK SMILES IDX 20 27 21 28 22 29 23 30 24 31 85 32 25 33 84 34 26 35 27 36
REMARK SMILES IDX 28 37 78 38 29 39 83 40 77 41 79 42 30 43 82 44 76 45 75 46
REMARK SMILES IDX 31 48 63 49 43 50 62 51 44 52 47 53 61 54 80 55 45 56 46 57
REMARK SMILES IDX 60 59 81 60 48 61 32 62 33 63 41 64 34 65 40 66 42 67 39 68
REMARK SMILES IDX 35 69 36 70 37 71 38 72 64 73 65 74 73 75 66 76 72 77 74 78
REMARK SMILES IDX 71 79 67 80 68 81 69 82 70 83 49 84 50 85 58 86 51 87 57 88
REMARK SMILES IDX 59 89 56 90 52 91 53 92 54 93 55 94
REMARK H PARENT 3 9 12 20 12 21 79 47 47 58
REMARK Flexibility Score: inf
ROOT
ATOM      1  C   UNL A   1      31.886  27.563  26.886  1.00  0.00     0.274 C 
ENDROOT
BRANCH   1   2
ATOM      2  O   UNL A   1      32.358  26.339  26.296  1.00  0.00    -0.460 OA
BRANCH   2   3
ATOM      3  C   UNL A   1      31.577  25.213  26.212  1.00  0.00     0.341 C 
ATOM      4  O   UNL A   1      30.539  25.066  26.811  1.00  0.00    -0.249 OA
BRANCH   3   5
ATOM      5  C   UNL A   1      32.314  24.170  25.346  1.00  0.00     0.231 C 
ATOM      6  C   UNL A   1      31.263  23.153  24.856  1.00  0.00     0.058 C 
BRANCH   5   7
ATOM      7  N   UNL A   1      33.150  24.877  24.310  1.00  0.00    -0.333 N 
ATOM      8  C   UNL A   1      32.924  25.578  23.179  1.00  0.00     0.223 C 
ATOM      9  H   UNL A   1      34.111  24.811  24.511  1.00  0.00     0.164 HD
ATOM     10  O   UNL A   1      33.898  25.981  22.540  1.00  0.00    -0.275 OA
BRANCH   8  11
ATOM     11  C   UNL A   1      31.533  25.829  22.688  1.00  0.00     0.128 C 
BRANCH  11  12
ATOM     12  C   UNL A   1      31.468  27.187  22.005  1.00  0.00     0.170 C 
BRANCH  12  13
ATOM     13  O   UNL A   1      30.143  27.700  22.103  1.00  0.00    -0.377 OA
BRANCH  13  14
ATOM     14  C   UNL A   1      29.981  28.959  22.750  1.00  0.00     0.129 C 
ATOM     15  C   UNL A   1      28.771  28.864  23.665  1.00  0.00     0.093 C 
ATOM     16  C   UNL A   1      29.833  30.078  21.700  1.00  0.00     0.093 C 
ATOM     17  C   UNL A   1      27.475  28.893  22.863  1.00  0.00     0.263 C 
ATOM     18  C   UNL A   1      28.413  30.393  21.203  1.00  0.00     0.263 C 
ATOM     19  N   UNL A   1      27.350  30.176  22.179  1.00  0.00    -0.346 N 
ATOM     20  H   UNL A   1      27.385  30.921  22.874  1.00  0.00     0.346 HD
ATOM     21  H   UNL A   1      26.463  30.174  21.677  1.00  0.00     0.346 HD
ENDBRANCH  13  14
ENDBRANCH  12  13
ENDBRANCH  11  12
ENDBRANCH   8  11
ENDBRANCH   5   7
BRANCH   5  22
ATOM     22  C   UNL A   1      33.313  23.330  26.182  1.00  0.00     0.422 C 
ATOM     23  F   UNL A   1      33.700  22.195  25.567  1.00  0.00    -0.168 F 
ATOM     24  F   UNL A   1      34.465  24.047  26.351  1.00  0.00    -0.168 F 
ATOM     25  F   UNL A   1      32.875  23.025  27.415  1.00  0.00    -0.168 F 
ENDBRANCH   5  22
ENDBRANCH   3   5
ENDBRANCH   2   3
ENDBRANCH   1   2
BRANCH   1  26
ATOM     26  C   UNL A   1      31.817  28.597  25.757  1.00  0.00     0.275 C 
BRANCH  26  27
ATOM     27  O   UNL A   1      33.013  29.390  25.851  1.00  0.00    -0.458 OA
BRANCH  27  28
ATOM     28  C   UNL A   1      32.996  30.481  26.654  1.00  0.00     0.338 C 
ATOM     29  O   UNL A   1      32.049  31.218  26.874  1.00  0.00    -0.246 OA
BRANCH  28  30
ATOM     30  C   UNL A   1      34.313  30.555  27.329  1.00  0.00     0.060 A 
ATOM     31  C   UNL A   1      34.914  29.359  27.696  1.00  0.00     0.016 A 
ATOM     32  C   UNL A   1      34.925  31.749  27.694  1.00  0.00     0.016 A 
ATOM     33  C   UNL A   1      36.048  29.344  28.494  1.00  0.00     0.010 A 
ATOM     34  C   UNL A   1      36.170  31.718  28.359  1.00  0.00     0.010 A 
ATOM     35  C   UNL A   1      36.755  30.505  28.775  1.00  0.00    -0.014 A 
BRANCH  35  36
ATOM     36  C   UNL A   1      38.068  30.409  29.494  1.00  0.00     0.031 A 
ATOM     37  C   UNL A   1      39.193  29.609  28.892  1.00  0.00     0.074 A 
ATOM     38  C   UNL A   1      38.285  31.044  30.673  1.00  0.00     0.049 A 
ATOM     39  N   UNL A   1      40.229  29.070  29.477  1.00  0.00    -0.248 NA
ATOM     40  C   UNL A   1      39.130  29.367  27.441  1.00  0.00     0.031 C 
ATOM     41  C   UNL A   1      37.362  31.968  31.345  1.00  0.00     0.029 A 
ATOM     42  N   UNL A   1      39.367  31.016  31.528  1.00  0.00    -0.354 N 
ATOM     43  C   UNL A   1      40.883  28.336  28.493  1.00  0.00     0.074 A 
ATOM     44  C   UNL A   1      40.143  28.529  27.263  1.00  0.00     0.031 C 
ATOM     45  C   UNL A   1      37.934  32.460  32.450  1.00  0.00     0.029 A 
ATOM     46  C   UNL A   1      39.168  31.736  32.688  1.00  0.00     0.049 A 
ATOM     47  H   UNL A   1      40.199  30.530  31.330  1.00  0.00     0.167 HD
ATOM     48  C   UNL A   1      41.983  27.556  28.628  1.00  0.00     0.034 A 
ATOM     49  C   UNL A   1      39.818  31.731  33.870  1.00  0.00     0.034 A 
ATOM     50  C   UNL A   1      42.740  27.457  29.854  1.00  0.00     0.049 A 
ATOM     51  C   UNL A   1      40.978  30.789  34.030  1.00  0.00     0.074 A 
ATOM     52  C   UNL A   1      43.875  26.706  30.110  1.00  0.00     0.029 A 
ATOM     53  N   UNL A   1      42.450  28.146  31.025  1.00  0.00    -0.354 N 
ATOM     54  N   UNL A   1      41.509  29.978  33.144  1.00  0.00    -0.248 NA
ATOM     55  C   UNL A   1      41.602  30.731  35.357  1.00  0.00     0.031 C 
ATOM     56  C   UNL A   1      44.227  26.888  31.451  1.00  0.00     0.029 A 
ATOM     57  C   UNL A   1      43.361  27.812  32.013  1.00  0.00     0.049 A 
ATOM     58  H   UNL A   1      41.704  28.779  31.137  1.00  0.00     0.167 HD
ATOM     59  C   UNL A   1      42.535  29.318  33.808  1.00  0.00     0.074 A 
ATOM     60  C   UNL A   1      42.570  29.850  35.155  1.00  0.00     0.031 C 
ATOM     61  C   UNL A   1      43.368  28.348  33.353  1.00  0.00     0.034 A 
BRANCH  48  62
ATOM     62  C   UNL A   1      42.377  26.675  27.467  1.00  0.00     0.023 A 
ATOM     63  C   UNL A   1      41.993  25.327  27.363  1.00  0.00     0.031 A 
ATOM     64  C   UNL A   1      43.162  27.218  26.431  1.00  0.00     0.131 A 
ATOM     65  C   UNL A   1      42.432  24.560  26.270  1.00  0.00     0.055 A 
ATOM     66  C   UNL A   1      43.534  26.470  25.313  1.00  0.00     0.041 A 
ATOM     67  F   UNL A   1      43.582  28.491  26.489  1.00  0.00    -0.206 F 
ATOM     68  C   UNL A   1      43.175  25.129  25.232  1.00  0.00     0.022 A 
BRANCH  65  69
ATOM     69  S   UNL A   1      42.108  22.776  26.270  1.00  0.00     0.124 S 
ATOM     70  O   UNL A   1      40.648  22.742  26.330  1.00  0.00    -0.237 OA
ATOM     71  O   UNL A   1      42.704  22.346  25.011  1.00  0.00    -0.237 OA
ATOM     72  O   UNL A   1      42.785  22.303  27.475  1.00  0.00    -0.744 OA
ENDBRANCH  65  69
ENDBRANCH  48  62
BRANCH  49  73
ATOM     73  C   UNL A   1      39.296  32.512  35.037  1.00  0.00     0.023 A 
ATOM     74  C   UNL A   1      39.746  33.813  35.304  1.00  0.00     0.031 A 
ATOM     75  C   UNL A   1      38.380  31.939  35.945  1.00  0.00     0.131 A 
ATOM     76  C   UNL A   1      39.316  34.480  36.464  1.00  0.00     0.055 A 
ATOM     77  C   UNL A   1      37.893  32.637  37.050  1.00  0.00     0.041 A 
ATOM     78  F   UNL A   1      37.928  30.688  35.761  1.00  0.00    -0.206 F 
ATOM     79  C   UNL A   1      38.375  33.910  37.325  1.00  0.00     0.022 A 
BRANCH  76  80
ATOM     80  S   UNL A   1      40.101  36.054  36.903  1.00  0.00     0.124 S 
ATOM     81  O   UNL A   1      41.483  35.644  37.128  1.00  0.00    -0.237 OA
ATOM     82  O   UNL A   1      39.858  36.857  35.709  1.00  0.00    -0.237 OA
ATOM     83  O   UNL A   1      39.373  36.477  38.097  1.00  0.00    -0.744 OA
ENDBRANCH  76  80
ENDBRANCH  49  73
BRANCH  61  84
ATOM     84  C   UNL A   1      44.405  27.846  34.322  1.00  0.00     0.023 A 
ATOM     85  C   UNL A   1      44.177  26.708  35.113  1.00  0.00     0.031 A 
ATOM     86  C   UNL A   1      45.618  28.536  34.480  1.00  0.00     0.131 A 
ATOM     87  C   UNL A   1      45.124  26.329  36.074  1.00  0.00     0.055 A 
ATOM     88  C   UNL A   1      46.585  28.115  35.393  1.00  0.00     0.041 A 
ATOM     89  F   UNL A   1      45.881  29.634  33.752  1.00  0.00    -0.206 F 
ATOM     90  C   UNL A   1      46.334  27.014  36.206  1.00  0.00     0.022 A 
BRANCH  87  91
ATOM     91  S   UNL A   1      44.707  24.988  37.221  1.00  0.00     0.124 S 
ATOM     92  O   UNL A   1      44.719  23.823  36.343  1.00  0.00    -0.237 OA
ATOM     93  O   UNL A   1      45.788  25.062  38.198  1.00  0.00    -0.237 OA
ATOM     94  O   UNL A   1      43.389  25.369  37.729  1.00  0.00    -0.744 OA
ENDBRANCH  87  91
ENDBRANCH  61  84
ENDBRANCH  35  36
ENDBRANCH  28  30
ENDBRANCH  27  28
ENDBRANCH  26  27
ENDBRANCH   1  26
TORSDOF 20
ENDMDL
MODEL 3
REMARK VINA RESULT:     -10.6      1.817      2.377
REMARK SMILES C[C@@](NC(=O)CCOC1CC[NH2+]CC1)(C(=O)OCCOC(=O)c1ccc(-c2c3nc(c(-c4cc(S(=O)(=O)[O-])ccc4F)c4ccc([nH]4)c(-c4cc(S(=O)(=O)[O-])ccc4F)c4nc(c(-c5cc(S(=O)(=O)[O-])ccc5F)c5ccc2[nH]5)C=C4)C=C3)cc1)C(F)(F)F
REMARK SMILES IDX 18 1 17 2 15 3 16 4 2 5 1 6 3 7 4 8 5 10 6 11 7 12 8 13 9 14
REMARK SMILES IDX 10 15 14 16 11 17 13 18 12 19 86 22 87 23 88 24 89 25 19 26
REMARK SMILES IDX 20 27 21 28 22 29 23 30 24 31 85 32 25 33 84 34 26 35 27 36
REMARK SMILES IDX 28 37 78 38 29 39 83 40 77 41 79 42 30 43 82 44 76 45 75 46
REMARK SMILES IDX 31 48 63 49 43 50 62 51 44 52 47 53 61 54 80 55 45 56 46 57
REMARK SMILES IDX 60 59 81 60 48 61 32 62 33 63 41 64 34 65 40 66 42 67 39 68
REMARK SMILES IDX 35 69 36 70 37 71 38 72 64 73 65 74 73 75 66 76 72 77 74 78
REMARK SMILES IDX 71 79 67 80 68 81 69 82 70 83 49 84 50 85 58 86 51 87 57 88
REMARK SMILES IDX 59 89 56 90 52 91 53 92 54 93 55 94
REMARK H PARENT 3 9 12 20 12 21 79 47 47 58
REMARK Flexibility Score: inf
ROOT
ATOM      1  C   UNL A   1      31.394  29.379  25.354  1.00  0.00     0.274 C 
ENDROOT
BRANCH   1   2
ATOM      2  O   UNL A   1      31.136  28.047  24.878  1.00  0.00    -0.460 OA
BRANCH   2   3
ATOM      3  C   UNL A   1      31.184  27.718  23.546  1.00  0.00     0.341 C 
ATOM      4  O   UNL A   1      30.845  28.459  22.655  1.00  0.00    -0.249 OA
BRANCH   3   5
ATOM      5  C   UNL A   1      31.613  26.241  23.422  1.00  0.00     0.231 C 
ATOM      6  C   UNL A   1      31.875  25.961  21.928  1.00  0.00     0.058 C 
BRANCH   5   7
ATOM      7  N   UNL A   1      32.725  25.957  24.399  1.00  0.00    -0.333 N 
ATOM      8  C   UNL A   1      33.776  25.114  24.472  1.00  0.00     0.223 C 
ATOM      9  H   UNL A   1      32.670  26.539  25.191  1.00  0.00     0.164 HD
ATOM     10  O   UNL A   1      34.470  25.135  25.490  1.00  0.00    -0.275 OA
BRANCH   8  11
ATOM     11  C   UNL A   1      34.073  24.149  23.367  1.00  0.00     0.128 C 
BRANCH  11  12
ATOM     12  C   UNL A   1      35.211  23.228  23.782  1.00  0.00     0.170 C 
BRANCH  12  13
ATOM     13  O   UNL A   1      34.731  21.890  23.852  1.00  0.00    -0.377 OA
BRANCH  13  14
ATOM     14  C   UNL A   1      35.308  21.045  24.844  1.00  0.00     0.129 C 
ATOM     15  C   UNL A   1      34.538  19.734  24.849  1.00  0.00     0.093 C 
ATOM     16  C   UNL A   1      35.277  21.745  26.218  1.00  0.00     0.093 C 
ATOM     17  C   UNL A   1      33.175  19.903  25.509  1.00  0.00     0.263 C 
ATOM     18  C   UNL A   1      34.022  21.543  27.082  1.00  0.00     0.263 C 
ATOM     19  N   UNL A   1      33.351  20.259  26.913  1.00  0.00    -0.346 N 
ATOM     20  H   UNL A   1      33.907  19.536  27.367  1.00  0.00     0.346 HD
ATOM     21  H   UNL A   1      32.424  20.336  27.331  1.00  0.00     0.346 HD
ENDBRANCH  13  14
ENDBRANCH  12  13
ENDBRANCH  11  12
ENDBRANCH   8  11
ENDBRANCH   5   7
BRANCH   5  22
ATOM     22  C   UNL A   1      30.465  25.274  23.807  1.00  0.00     0.422 C 
ATOM     23  F   UNL A   1      30.449  24.146  23.068  1.00  0.00    -0.168 F 
ATOM     24  F   UNL A   1      30.653  24.848  25.092  1.00  0.00    -0.168 F 
ATOM     25  F   UNL A   1      29.243  25.832  23.770  1.00  0.00    -0.168 F 
ENDBRANCH   5  22
ENDBRANCH   3   5
ENDBRANCH   2   3
ENDBRANCH   1   2
BRANCH   1  26
ATOM     26  C   UNL A   1      32.914  29.505  25.501  1.00  0.00     0.275 C 
BRANCH  26  27
ATOM     27  O   UNL A   1      33.176  29.727  26.898  1.00  0.00    -0.458 OA
BRANCH  27  28
ATOM     28  C   UNL A   1      33.536  30.972  27.293  1.00  0.00     0.338 C 
ATOM     29  O   UNL A   1      32.842  31.975  27.287  1.00  0.00    -0.246 OA
BRANCH  28  30
ATOM     30  C   UNL A   1      34.901  30.878  27.859  1.00  0.00     0.060 A 
ATOM     31  C   UNL A   1      35.304  29.651  28.368  1.00  0.00     0.016 A 
ATOM     32  C   UNL A   1      35.755  31.968  27.994  1.00  0.00     0.016 A 
ATOM     33  C   UNL A   1      36.485  29.525  29.082  1.00  0.00     0.010 A 
ATOM     34  C   UNL A   1      37.031  31.786  28.572  1.00  0.00     0.010 A 
ATOM     35  C   UNL A   1      37.418  30.552  29.132  1.00  0.00    -0.014 A 
BRANCH  35  36
ATOM     36  C   UNL A   1      38.752  30.301  29.770  1.00  0.00     0.031 A 
ATOM     37  C   UNL A   1      39.745  29.395  29.092  1.00  0.00     0.074 A 
ATOM     38  C   UNL A   1      39.107  30.888  30.940  1.00  0.00     0.049 A 
ATOM     39  N   UNL A   1      40.748  28.736  29.608  1.00  0.00    -0.248 NA
ATOM     40  C   UNL A   1      39.571  29.186  27.645  1.00  0.00     0.031 C 
ATOM     41  C   UNL A   1      38.331  31.895  31.677  1.00  0.00     0.029 A 
ATOM     42  N   UNL A   1      40.227  30.727  31.728  1.00  0.00    -0.354 N 
ATOM     43  C   UNL A   1      41.259  27.953  28.578  1.00  0.00     0.074 A 
ATOM     44  C   UNL A   1      40.474  28.246  27.397  1.00  0.00     0.031 C 
ATOM     45  C   UNL A   1      39.018  32.303  32.751  1.00  0.00     0.029 A 
ATOM     46  C   UNL A   1      40.177  31.445  32.906  1.00  0.00     0.049 A 
ATOM     47  H   UNL A   1      40.988  30.157  31.475  1.00  0.00     0.167 HD
ATOM     48  C   UNL A   1      42.273  27.055  28.638  1.00  0.00     0.034 A 
ATOM     49  C   UNL A   1      40.891  31.348  34.046  1.00  0.00     0.034 A 
ATOM     50  C   UNL A   1      43.085  26.853  29.815  1.00  0.00     0.049 A 
ATOM     51  C   UNL A   1      41.948  30.282  34.126  1.00  0.00     0.074 A 
ATOM     52  C   UNL A   1      44.144  25.978  29.993  1.00  0.00     0.029 A 
ATOM     53  N   UNL A   1      42.942  27.549  31.008  1.00  0.00    -0.354 N 
ATOM     54  N   UNL A   1      42.333  29.435  33.201  1.00  0.00    -0.248 NA
ATOM     55  C   UNL A   1      42.638  30.133  35.412  1.00  0.00     0.031 C 
ATOM     56  C   UNL A   1      44.593  26.098  31.312  1.00  0.00     0.029 A 
ATOM     57  C   UNL A   1      43.868  27.100  31.936  1.00  0.00     0.049 A 
ATOM     58  H   UNL A   1      42.278  28.257  31.172  1.00  0.00     0.167 HD
ATOM     59  C   UNL A   1      43.319  28.655  33.794  1.00  0.00     0.074 A 
ATOM     60  C   UNL A   1      43.491  29.157  35.143  1.00  0.00     0.031 C 
ATOM     61  C   UNL A   1      44.012  27.609  33.279  1.00  0.00     0.034 A 
BRANCH  48  62
ATOM     62  C   UNL A   1      42.500  26.157  27.445  1.00  0.00     0.023 A 
ATOM     63  C   UNL A   1      42.024  24.836  27.379  1.00  0.00     0.031 A 
ATOM     64  C   UNL A   1      43.215  26.655  26.339  1.00  0.00     0.131 A 
ATOM     65  C   UNL A   1      42.308  24.049  26.250  1.00  0.00     0.055 A 
ATOM     66  C   UNL A   1      43.431  25.891  25.191  1.00  0.00     0.041 A 
ATOM     67  F   UNL A   1      43.717  27.900  26.355  1.00  0.00    -0.206 F 
ATOM     68  C   UNL A   1      42.983  24.575  25.146  1.00  0.00     0.022 A 
BRANCH  65  69
ATOM     69  S   UNL A   1      41.874  22.288  26.283  1.00  0.00     0.124 S 
ATOM     70  O   UNL A   1      42.622  21.780  25.134  1.00  0.00    -0.237 OA
ATOM     71  O   UNL A   1      42.355  21.868  27.593  1.00  0.00    -0.237 OA
ATOM     72  O   UNL A   1      40.422  22.288  26.121  1.00  0.00    -0.744 OA
ENDBRANCH  65  69
ENDBRANCH  48  62
BRANCH  49  73
ATOM     73  C   UNL A   1      40.527  32.160  35.251  1.00  0.00     0.023 A 
ATOM     74  C   UNL A   1      39.529  31.735  36.142  1.00  0.00     0.031 A 
ATOM     75  C   UNL A   1      41.129  33.412  35.496  1.00  0.00     0.131 A 
ATOM     76  C   UNL A   1      39.138  32.567  37.205  1.00  0.00     0.055 A 
ATOM     77  C   UNL A   1      40.795  34.197  36.600  1.00  0.00     0.041 A 
ATOM     78  F   UNL A   1      42.073  33.888  34.668  1.00  0.00    -0.206 F 
ATOM     79  C   UNL A   1      39.780  33.783  37.453  1.00  0.00     0.022 A 
BRANCH  76  80
ATOM     80  S   UNL A   1      37.687  32.098  38.186  1.00  0.00     0.124 S 
ATOM     81  O   UNL A   1      36.698  33.072  37.737  1.00  0.00    -0.237 OA
ATOM     82  O   UNL A   1      37.468  30.719  37.763  1.00  0.00    -0.237 OA
ATOM     83  O   UNL A   1      38.141  32.261  39.566  1.00  0.00    -0.744 OA
ENDBRANCH  76  80
ENDBRANCH  49  73
BRANCH  61  84
ATOM     84  C   UNL A   1      45.043  26.980  34.178  1.00  0.00     0.023 A 
ATOM     85  C   UNL A   1      44.736  25.863  34.974  1.00  0.00     0.031 A 
ATOM     86  C   UNL A   1      46.333  27.527  34.265  1.00  0.00     0.131 A 
ATOM     87  C   UNL A   1      45.691  25.366  35.871  1.00  0.00     0.055 A 
ATOM     88  C   UNL A   1      47.301  26.987  35.113  1.00  0.00     0.041 A 
ATOM     89  F   UNL A   1      46.673  28.598  33.530  1.00  0.00    -0.206 F 
ATOM     90  C   UNL A   1      46.977  25.910  35.933  1.00  0.00     0.022 A 
BRANCH  87  91
ATOM     91  S   UNL A   1      45.196  24.065  37.033  1.00  0.00     0.124 S 
ATOM     92  O   UNL A   1      44.555  23.097  36.148  1.00  0.00    -0.237 OA
ATOM     93  O   UNL A   1      46.472  23.656  37.608  1.00  0.00    -0.237 OA
ATOM     94  O   UNL A   1      44.295  24.754  37.956  1.00  0.00    -0.744 OA
ENDBRANCH  87  91
ENDBRANCH  61  84
ENDBRANCH  35  36
ENDBRANCH  28  30
ENDBRANCH  27  28
ENDBRANCH  26  27
ENDBRANCH   1  26
TORSDOF 20
ENDMDL
