MODEL 1
REMARK VINA RESULT:     -12.5      0.000      0.000
REMARK SMILES CS(=O)(=O)c1ccc(-n2nc(C(F)(F)F)cc2-c2ccc(CC(=O)OCCOC(=O)c3ccc(-c4c5nc(c(-c6cc(S(=O)(=O)[O-])ccc6F)c6ccc([nH]6)c(-c6cc(S(=O)(=O)[O-])ccc6F)c6nc(c(-c7cc(S(=O)(=O)[O-])ccc7F)c7ccc4[nH]7)C=C6)C=C5)cc3)cc2)cc1
REMARK SMILES IDX 26 1 25 2 23 3 24 4 22 5 21 6 18 7 19 8 95 9 20 10 94 11
REMARK SMILES IDX 17 12 9 13 10 14 11 15 16 16 8 17 5 18 6 19 97 20 7 21 96 22
REMARK SMILES IDX 2 23 1 24 3 25 4 26 12 27 13 28 14 29 15 30 27 31 28 32
REMARK SMILES IDX 29 33 30 34 31 35 32 36 93 37 33 38 92 39 34 40 35 41 36 42
REMARK SMILES IDX 86 43 37 44 91 45 85 46 87 47 38 48 90 49 84 50 83 51 39 53
REMARK SMILES IDX 71 54 51 55 70 56 52 57 55 58 69 59 88 60 53 61 54 62 68 64
REMARK SMILES IDX 89 65 56 66 40 67 41 68 49 69 42 70 48 71 50 72 47 73 43 74
REMARK SMILES IDX 44 75 45 76 46 77 72 78 73 79 81 80 74 81 80 82 82 83 79 84
REMARK SMILES IDX 75 85 76 86 77 87 78 88 57 89 58 90 66 91 59 92 65 93 67 94
REMARK SMILES IDX 64 95 60 96 61 97 62 98 63 99
REMARK H PARENT 87 52 55 63
REMARK Flexibility Score: inf
ROOT
ATOM      1  C   UNL A   1      36.721  32.766  28.048  1.00  0.00     0.274 C 
ENDROOT
BRANCH   1   2
ATOM      2  O   UNL A   1      35.743  31.760  27.707  1.00  0.00    -0.462 OA
BRANCH   2   3
ATOM      3  C   UNL A   1      36.151  30.468  27.838  1.00  0.00     0.310 C 
ATOM      4  O   UNL A   1      37.318  30.102  27.715  1.00  0.00    -0.252 OA
BRANCH   3   5
ATOM      5  C   UNL A   1      35.022  29.471  28.004  1.00  0.00     0.158 C 
BRANCH   5   6
ATOM      6  C   UNL A   1      33.901  29.468  26.992  1.00  0.00    -0.037 A 
ATOM      7  C   UNL A   1      31.838  29.439  25.060  1.00  0.00     0.000 A 
ATOM      8  C   UNL A   1      32.997  28.684  24.868  1.00  0.00     0.010 A 
ATOM      9  C   UNL A   1      31.729  30.236  26.206  1.00  0.00     0.010 A 
ATOM     10  C   UNL A   1      34.024  28.728  25.811  1.00  0.00     0.005 A 
ATOM     11  C   UNL A   1      32.743  30.233  27.174  1.00  0.00     0.005 A 
BRANCH   7  12
ATOM     12  C   UNL A   1      30.789  29.416  24.045  1.00  0.00     0.075 A 
ATOM     13  N   UNL A   1      30.643  28.451  23.051  1.00  0.00    -0.233 N 
ATOM     14  N   UNL A   1      29.750  28.840  22.101  1.00  0.00    -0.163 NA
ATOM     15  C   UNL A   1      29.276  30.027  22.519  1.00  0.00     0.167 A 
ATOM     16  C   UNL A   1      29.899  30.421  23.726  1.00  0.00     0.064 A 
BRANCH  13  17
ATOM     17  C   UNL A   1      31.232  27.159  22.980  1.00  0.00     0.065 A 
ATOM     18  C   UNL A   1      32.439  24.646  22.898  1.00  0.00     0.067 A 
ATOM     19  C   UNL A   1      31.281  24.834  23.657  1.00  0.00     0.022 A 
ATOM     20  C   UNL A   1      32.997  25.703  22.172  1.00  0.00     0.022 A 
ATOM     21  C   UNL A   1      30.683  26.092  23.704  1.00  0.00     0.030 A 
ATOM     22  C   UNL A   1      32.372  26.956  22.188  1.00  0.00     0.030 A 
BRANCH  18  23
ATOM     23  S   UNL A   1      33.214  23.048  22.910  1.00  0.00     0.175 S 
ATOM     24  C   UNL A   1      33.431  22.718  24.638  1.00  0.00     0.163 C 
ATOM     25  O   UNL A   1      34.537  23.196  22.328  1.00  0.00    -0.224 OA
ATOM     26  O   UNL A   1      32.278  22.076  22.383  1.00  0.00    -0.224 OA
ENDBRANCH  18  23
ENDBRANCH  13  17
BRANCH  15  27
ATOM     27  C   UNL A   1      28.223  30.803  21.776  1.00  0.00     0.435 C 
ATOM     28  F   UNL A   1      27.680  30.132  20.730  1.00  0.00    -0.164 F 
ATOM     29  F   UNL A   1      27.196  31.173  22.591  1.00  0.00    -0.164 F 
ATOM     30  F   UNL A   1      28.725  31.967  21.268  1.00  0.00    -0.164 F 
ENDBRANCH  15  27
ENDBRANCH   7  12
ENDBRANCH   5   6
ENDBRANCH   3   5
ENDBRANCH   2   3
ENDBRANCH   1   2
BRANCH   1  31
ATOM     31  C   UNL A   1      36.322  33.653  29.228  1.00  0.00     0.275 C 
BRANCH  31  32
ATOM     32  O   UNL A   1      36.996  33.325  30.447  1.00  0.00    -0.458 OA
BRANCH  32  33
ATOM     33  C   UNL A   1      36.498  32.206  31.017  1.00  0.00     0.338 C 
ATOM     34  O   UNL A   1      35.366  32.050  31.437  1.00  0.00    -0.246 OA
BRANCH  33  35
ATOM     35  C   UNL A   1      37.537  31.210  31.265  1.00  0.00     0.060 A 
ATOM     36  C   UNL A   1      38.864  31.580  31.023  1.00  0.00     0.016 A 
ATOM     37  C   UNL A   1      37.161  29.873  31.418  1.00  0.00     0.016 A 
ATOM     38  C   UNL A   1      39.806  30.599  30.805  1.00  0.00     0.010 A 
ATOM     39  C   UNL A   1      38.103  28.891  31.197  1.00  0.00     0.010 A 
ATOM     40  C   UNL A   1      39.404  29.261  30.839  1.00  0.00    -0.014 A 
BRANCH  40  41
ATOM     41  C   UNL A   1      40.423  28.243  30.650  1.00  0.00     0.031 A 
ATOM     42  C   UNL A   1      41.222  27.977  31.871  1.00  0.00     0.074 A 
ATOM     43  C   UNL A   1      40.512  27.497  29.534  1.00  0.00     0.049 A 
ATOM     44  N   UNL A   1      42.499  28.076  32.031  1.00  0.00    -0.248 NA
ATOM     45  C   UNL A   1      40.483  27.711  33.117  1.00  0.00     0.031 C 
ATOM     46  C   UNL A   1      39.601  27.509  28.388  1.00  0.00     0.029 A 
ATOM     47  N   UNL A   1      41.363  26.470  29.248  1.00  0.00    -0.354 N 
ATOM     48  C   UNL A   1      42.745  27.655  33.334  1.00  0.00     0.074 A 
ATOM     49  C   UNL A   1      41.474  27.650  34.003  1.00  0.00     0.031 C 
ATOM     50  C   UNL A   1      39.804  26.395  27.652  1.00  0.00     0.029 A 
ATOM     51  C   UNL A   1      40.925  25.653  28.209  1.00  0.00     0.049 A 
ATOM     52  H   UNL A   1      42.207  26.321  29.731  1.00  0.00     0.167 HD
ATOM     53  C   UNL A   1      43.932  27.090  33.680  1.00  0.00     0.034 A 
ATOM     54  C   UNL A   1      41.392  24.420  27.882  1.00  0.00     0.034 A 
ATOM     55  C   UNL A   1      44.971  27.443  32.739  1.00  0.00     0.049 A 
ATOM     56  C   UNL A   1      42.745  24.285  28.470  1.00  0.00     0.074 A 
ATOM     57  C   UNL A   1      45.505  28.638  32.294  1.00  0.00     0.029 A 
ATOM     58  N   UNL A   1      45.378  26.495  31.829  1.00  0.00    -0.354 N 
ATOM     59  N   UNL A   1      43.774  24.981  28.075  1.00  0.00    -0.248 NA
ATOM     60  C   UNL A   1      42.876  23.692  29.792  1.00  0.00     0.031 C 
ATOM     61  C   UNL A   1      45.785  28.430  30.913  1.00  0.00     0.029 A 
ATOM     62  C   UNL A   1      45.471  27.106  30.602  1.00  0.00     0.049 A 
ATOM     63  H   UNL A   1      45.570  25.549  32.022  1.00  0.00     0.167 HD
ATOM     64  C   UNL A   1      44.464  25.288  29.236  1.00  0.00     0.074 A 
ATOM     65  C   UNL A   1      43.944  24.360  30.237  1.00  0.00     0.031 C 
ATOM     66  C   UNL A   1      45.176  26.449  29.342  1.00  0.00     0.034 A 
BRANCH  53  67
ATOM     67  C   UNL A   1      44.058  25.920  34.637  1.00  0.00     0.023 A 
ATOM     68  C   UNL A   1      44.633  26.183  35.894  1.00  0.00     0.031 A 
ATOM     69  C   UNL A   1      43.930  24.551  34.298  1.00  0.00     0.131 A 
ATOM     70  C   UNL A   1      45.151  25.141  36.684  1.00  0.00     0.055 A 
ATOM     71  C   UNL A   1      44.380  23.516  35.122  1.00  0.00     0.041 A 
ATOM     72  F   UNL A   1      43.454  24.129  33.122  1.00  0.00    -0.206 F 
ATOM     73  C   UNL A   1      45.030  23.808  36.306  1.00  0.00     0.022 A 
BRANCH  70  74
ATOM     74  S   UNL A   1      46.164  25.582  38.117  1.00  0.00     0.124 S 
ATOM     75  O   UNL A   1      45.185  26.242  38.973  1.00  0.00    -0.237 OA
ATOM     76  O   UNL A   1      46.635  24.274  38.562  1.00  0.00    -0.237 OA
ATOM     77  O   UNL A   1      47.189  26.455  37.550  1.00  0.00    -0.744 OA
ENDBRANCH  70  74
ENDBRANCH  53  67
BRANCH  54  78
ATOM     78  C   UNL A   1      40.623  23.272  27.329  1.00  0.00     0.023 A 
ATOM     79  C   UNL A   1      39.295  23.400  26.870  1.00  0.00     0.031 A 
ATOM     80  C   UNL A   1      41.285  22.061  27.027  1.00  0.00     0.131 A 
ATOM     81  C   UNL A   1      38.688  22.347  26.148  1.00  0.00     0.055 A 
ATOM     82  C   UNL A   1      40.676  21.019  26.327  1.00  0.00     0.041 A 
ATOM     83  F   UNL A   1      42.581  21.882  27.322  1.00  0.00    -0.206 F 
ATOM     84  C   UNL A   1      39.374  21.162  25.875  1.00  0.00     0.022 A 
BRANCH  81  85
ATOM     85  S   UNL A   1      37.017  22.551  25.450  1.00  0.00     0.124 S 
ATOM     86  O   UNL A   1      37.264  22.467  24.015  1.00  0.00    -0.237 OA
ATOM     87  O   UNL A   1      36.286  21.441  26.051  1.00  0.00    -0.237 OA
ATOM     88  O   UNL A   1      36.610  23.875  25.925  1.00  0.00    -0.744 OA
ENDBRANCH  81  85
ENDBRANCH  54  78
BRANCH  66  89
ATOM     89  C   UNL A   1      45.481  27.216  28.068  1.00  0.00     0.023 A 
ATOM     90  C   UNL A   1      46.521  26.900  27.164  1.00  0.00     0.031 A 
ATOM     91  C   UNL A   1      44.612  28.264  27.716  1.00  0.00     0.131 A 
ATOM     92  C   UNL A   1      46.677  27.642  25.977  1.00  0.00     0.055 A 
ATOM     93  C   UNL A   1      44.754  28.981  26.529  1.00  0.00     0.041 A 
ATOM     94  F   UNL A   1      43.584  28.595  28.517  1.00  0.00    -0.206 F 
ATOM     95  C   UNL A   1      45.795  28.679  25.659  1.00  0.00     0.022 A 
BRANCH  92  96
ATOM     96  S   UNL A   1      48.053  27.292  24.835  1.00  0.00     0.124 S 
ATOM     97  O   UNL A   1      49.021  28.342  25.130  1.00  0.00    -0.237 OA
ATOM     98  O   UNL A   1      48.444  25.937  25.217  1.00  0.00    -0.237 OA
ATOM     99  O   UNL A   1      47.432  27.393  23.514  1.00  0.00    -0.744 OA
ENDBRANCH  92  96
ENDBRANCH  66  89
ENDBRANCH  40  41
ENDBRANCH  33  35
ENDBRANCH  32  33
ENDBRANCH  31  32
ENDBRANCH   1  31
TORSDOF 19
ENDMDL
MODEL 2
REMARK VINA RESULT:     -12.3      4.307      6.492
REMARK SMILES CS(=O)(=O)c1ccc(-n2nc(C(F)(F)F)cc2-c2ccc(CC(=O)OCCOC(=O)c3ccc(-c4c5nc(c(-c6cc(S(=O)(=O)[O-])ccc6F)c6ccc([nH]6)c(-c6cc(S(=O)(=O)[O-])ccc6F)c6nc(c(-c7cc(S(=O)(=O)[O-])ccc7F)c7ccc4[nH]7)C=C6)C=C5)cc3)cc2)cc1
REMARK SMILES IDX 26 1 25 2 23 3 24 4 22 5 21 6 18 7 19 8 95 9 20 10 94 11
REMARK SMILES IDX 17 12 9 13 10 14 11 15 16 16 8 17 5 18 6 19 97 20 7 21 96 22
REMARK SMILES IDX 2 23 1 24 3 25 4 26 12 27 13 28 14 29 15 30 27 31 28 32
REMARK SMILES IDX 29 33 30 34 31 35 32 36 93 37 33 38 92 39 34 40 35 41 36 42
REMARK SMILES IDX 86 43 37 44 91 45 85 46 87 47 38 48 90 49 84 50 83 51 39 53
REMARK SMILES IDX 71 54 51 55 70 56 52 57 55 58 69 59 88 60 53 61 54 62 68 64
REMARK SMILES IDX 89 65 56 66 40 67 41 68 49 69 42 70 48 71 50 72 47 73 43 74
REMARK SMILES IDX 44 75 45 76 46 77 72 78 73 79 81 80 74 81 80 82 82 83 79 84
REMARK SMILES IDX 75 85 76 86 77 87 78 88 57 89 58 90 66 91 59 92 65 93 67 94
REMARK SMILES IDX 64 95 60 96 61 97 62 98 63 99
REMARK H PARENT 87 52 55 63
REMARK Flexibility Score: inf
ROOT
ATOM      1  C   UNL A   1      32.263  28.827  25.306  1.00  0.00     0.274 C 
ENDROOT
BRANCH   1   2
ATOM      2  O   UNL A   1      31.405  27.993  26.114  1.00  0.00    -0.462 OA
BRANCH   2   3
ATOM      3  C   UNL A   1      31.005  26.824  25.543  1.00  0.00     0.310 C 
ATOM      4  O   UNL A   1      30.134  26.095  26.013  1.00  0.00    -0.252 OA
BRANCH   3   5
ATOM      5  C   UNL A   1      31.826  26.404  24.342  1.00  0.00     0.158 C 
BRANCH   5   6
ATOM      6  C   UNL A   1      33.088  25.605  24.568  1.00  0.00    -0.037 A 
ATOM      7  C   UNL A   1      35.452  24.131  25.045  1.00  0.00     0.000 A 
ATOM      8  C   UNL A   1      34.749  24.702  26.107  1.00  0.00     0.010 A 
ATOM      9  C   UNL A   1      34.988  24.329  23.739  1.00  0.00     0.010 A 
ATOM     10  C   UNL A   1      33.601  25.454  25.861  1.00  0.00     0.005 A 
ATOM     11  C   UNL A   1      33.803  25.041  23.505  1.00  0.00     0.005 A 
BRANCH   7  12
ATOM     12  C   UNL A   1      36.677  23.381  25.313  1.00  0.00     0.075 A 
ATOM     13  N   UNL A   1      36.758  22.004  25.505  1.00  0.00    -0.233 N 
ATOM     14  N   UNL A   1      37.971  21.637  25.999  1.00  0.00    -0.163 NA
ATOM     15  C   UNL A   1      38.690  22.773  26.065  1.00  0.00     0.167 A 
ATOM     16  C   UNL A   1      37.918  23.882  25.646  1.00  0.00     0.064 A 
BRANCH  13  17
ATOM     17  C   UNL A   1      35.796  21.008  25.182  1.00  0.00     0.065 A 
ATOM     18  C   UNL A   1      33.913  19.077  24.475  1.00  0.00     0.067 A 
ATOM     19  C   UNL A   1      35.260  18.725  24.577  1.00  0.00     0.022 A 
ATOM     20  C   UNL A   1      33.495  20.387  24.731  1.00  0.00     0.022 A 
ATOM     21  C   UNL A   1      36.202  19.692  24.922  1.00  0.00     0.030 A 
ATOM     22  C   UNL A   1      34.437  21.348  25.117  1.00  0.00     0.030 A 
BRANCH  18  23
ATOM     23  S   UNL A   1      32.745  17.837  23.970  1.00  0.00     0.175 S 
ATOM     24  C   UNL A   1      33.770  16.431  23.635  1.00  0.00     0.163 C 
ATOM     25  O   UNL A   1      32.168  18.264  22.707  1.00  0.00    -0.224 OA
ATOM     26  O   UNL A   1      31.897  17.513  25.099  1.00  0.00    -0.224 OA
ENDBRANCH  18  23
ENDBRANCH  13  17
BRANCH  15  27
ATOM     27  C   UNL A   1      40.121  22.818  26.525  1.00  0.00     0.435 C 
ATOM     28  F   UNL A   1      40.940  21.963  25.863  1.00  0.00    -0.164 F 
ATOM     29  F   UNL A   1      40.657  24.064  26.399  1.00  0.00    -0.164 F 
ATOM     30  F   UNL A   1      40.230  22.505  27.850  1.00  0.00    -0.164 F 
ENDBRANCH  15  27
ENDBRANCH   7  12
ENDBRANCH   5   6
ENDBRANCH   3   5
ENDBRANCH   2   3
ENDBRANCH   1   2
BRANCH   1  31
ATOM     31  C   UNL A   1      32.774  30.079  26.021  1.00  0.00     0.275 C 
BRANCH  31  32
ATOM     32  O   UNL A   1      34.112  29.953  26.514  1.00  0.00    -0.458 OA
BRANCH  32  33
ATOM     33  C   UNL A   1      34.413  30.915  27.413  1.00  0.00     0.338 C 
ATOM     34  O   UNL A   1      33.884  32.009  27.508  1.00  0.00    -0.246 OA
BRANCH  33  35
ATOM     35  C   UNL A   1      35.611  30.590  28.182  1.00  0.00     0.060 A 
ATOM     36  C   UNL A   1      36.453  31.644  28.552  1.00  0.00     0.016 A 
ATOM     37  C   UNL A   1      36.029  29.258  28.241  1.00  0.00     0.016 A 
ATOM     38  C   UNL A   1      37.769  31.376  28.863  1.00  0.00     0.010 A 
ATOM     39  C   UNL A   1      37.346  28.990  28.550  1.00  0.00     0.010 A 
ATOM     40  C   UNL A   1      38.217  30.054  28.805  1.00  0.00    -0.014 A 
BRANCH  40  41
ATOM     41  C   UNL A   1      39.596  29.790  29.180  1.00  0.00     0.031 A 
ATOM     42  C   UNL A   1      39.886  30.090  30.603  1.00  0.00     0.074 A 
ATOM     43  C   UNL A   1      40.470  29.173  28.364  1.00  0.00     0.049 A 
ATOM     44  N   UNL A   1      40.759  30.907  31.090  1.00  0.00    -0.248 NA
ATOM     45  C   UNL A   1      38.980  29.513  31.612  1.00  0.00     0.031 C 
ATOM     46  C   UNL A   1      40.195  28.606  27.042  1.00  0.00     0.029 A 
ATOM     47  N   UNL A   1      41.759  28.801  28.604  1.00  0.00    -0.354 N 
ATOM     48  C   UNL A   1      40.671  30.767  32.471  1.00  0.00     0.074 A 
ATOM     49  C   UNL A   1      39.440  30.073  32.728  1.00  0.00     0.031 C 
ATOM     50  C   UNL A   1      41.202  27.770  26.704  1.00  0.00     0.029 A 
ATOM     51  C   UNL A   1      42.234  27.829  27.727  1.00  0.00     0.049 A 
ATOM     52  H   UNL A   1      42.304  29.184  29.329  1.00  0.00     0.167 HD
ATOM     53  C   UNL A   1      41.744  30.998  33.273  1.00  0.00     0.034 A 
ATOM     54  C   UNL A   1      43.350  27.067  27.872  1.00  0.00     0.034 A 
ATOM     55  C   UNL A   1      42.720  31.833  32.609  1.00  0.00     0.049 A 
ATOM     56  C   UNL A   1      44.239  27.758  28.834  1.00  0.00     0.074 A 
ATOM     57  C   UNL A   1      42.688  33.094  32.045  1.00  0.00     0.029 A 
ATOM     58  N   UNL A   1      43.864  31.241  32.125  1.00  0.00    -0.354 N 
ATOM     59  N   UNL A   1      44.825  28.895  28.586  1.00  0.00    -0.248 NA
ATOM     60  C   UNL A   1      44.144  27.413  30.245  1.00  0.00     0.031 C 
ATOM     61  C   UNL A   1      43.534  33.013  30.901  1.00  0.00     0.029 A 
ATOM     62  C   UNL A   1      44.087  31.732  30.862  1.00  0.00     0.049 A 
ATOM     63  H   UNL A   1      44.423  30.584  32.599  1.00  0.00     0.167 HD
ATOM     64  C   UNL A   1      44.760  29.599  29.776  1.00  0.00     0.074 A 
ATOM     65  C   UNL A   1      44.456  28.593  30.790  1.00  0.00     0.031 C 
ATOM     66  C   UNL A   1      44.674  30.962  29.781  1.00  0.00     0.034 A 
BRANCH  53  67
ATOM     67  C   UNL A   1      42.078  30.159  34.491  1.00  0.00     0.023 A 
ATOM     68  C   UNL A   1      42.336  30.849  35.690  1.00  0.00     0.031 A 
ATOM     69  C   UNL A   1      42.440  28.790  34.484  1.00  0.00     0.131 A 
ATOM     70  C   UNL A   1      43.023  30.228  36.747  1.00  0.00     0.055 A 
ATOM     71  C   UNL A   1      43.057  28.159  35.568  1.00  0.00     0.041 A 
ATOM     72  F   UNL A   1      42.311  28.004  33.410  1.00  0.00    -0.206 F 
ATOM     73  C   UNL A   1      43.387  28.886  36.694  1.00  0.00     0.022 A 
BRANCH  70  74
ATOM     74  S   UNL A   1      43.609  31.266  38.109  1.00  0.00     0.124 S 
ATOM     75  O   UNL A   1      42.364  31.553  38.812  1.00  0.00    -0.237 OA
ATOM     76  O   UNL A   1      44.542  30.371  38.785  1.00  0.00    -0.237 OA
ATOM     77  O   UNL A   1      44.220  32.405  37.427  1.00  0.00    -0.744 OA
ENDBRANCH  70  74
ENDBRANCH  53  67
BRANCH  54  78
ATOM     78  C   UNL A   1      43.554  25.660  27.435  1.00  0.00     0.023 A 
ATOM     79  C   UNL A   1      44.359  25.319  26.327  1.00  0.00     0.031 A 
ATOM     80  C   UNL A   1      43.136  24.597  28.265  1.00  0.00     0.131 A 
ATOM     81  C   UNL A   1      44.708  23.969  26.090  1.00  0.00     0.055 A 
ATOM     82  C   UNL A   1      43.470  23.264  28.018  1.00  0.00     0.041 A 
ATOM     83  F   UNL A   1      42.460  24.824  29.402  1.00  0.00    -0.206 F 
ATOM     84  C   UNL A   1      44.268  22.946  26.932  1.00  0.00     0.022 A 
BRANCH  81  85
ATOM     85  S   UNL A   1      45.843  23.536  24.732  1.00  0.00     0.124 S 
ATOM     86  O   UNL A   1      44.924  23.153  23.666  1.00  0.00    -0.237 OA
ATOM     87  O   UNL A   1      46.587  24.775  24.535  1.00  0.00    -0.237 OA
ATOM     88  O   UNL A   1      46.632  22.434  25.286  1.00  0.00    -0.744 OA
ENDBRANCH  81  85
ENDBRANCH  54  78
BRANCH  66  89
ATOM     89  C   UNL A   1      44.999  31.700  28.495  1.00  0.00     0.023 A 
ATOM     90  C   UNL A   1      46.268  32.227  28.164  1.00  0.00     0.031 A 
ATOM     91  C   UNL A   1      43.985  31.792  27.524  1.00  0.00     0.131 A 
ATOM     92  C   UNL A   1      46.475  32.841  26.913  1.00  0.00     0.055 A 
ATOM     93  C   UNL A   1      44.200  32.378  26.278  1.00  0.00     0.041 A 
ATOM     94  F   UNL A   1      42.764  31.284  27.764  1.00  0.00    -0.206 F 
ATOM     95  C   UNL A   1      45.445  32.915  25.972  1.00  0.00     0.022 A 
BRANCH  92  96
ATOM     96  S   UNL A   1      48.086  33.585  26.498  1.00  0.00     0.124 S 
ATOM     97  O   UNL A   1      47.791  34.425  25.343  1.00  0.00    -0.237 OA
ATOM     98  O   UNL A   1      48.435  34.290  27.729  1.00  0.00    -0.237 OA
ATOM     99  O   UNL A   1      48.930  32.425  26.206  1.00  0.00    -0.744 OA
ENDBRANCH  92  96
ENDBRANCH  66  89
ENDBRANCH  40  41
ENDBRANCH  33  35
ENDBRANCH  32  33
ENDBRANCH  31  32
ENDBRANCH   1  31
TORSDOF 19
ENDMDL
MODEL 3
REMARK VINA RESULT:     -12.3      2.146      2.641
REMARK SMILES CS(=O)(=O)c1ccc(-n2nc(C(F)(F)F)cc2-c2ccc(CC(=O)OCCOC(=O)c3ccc(-c4c5nc(c(-c6cc(S(=O)(=O)[O-])ccc6F)c6ccc([nH]6)c(-c6cc(S(=O)(=O)[O-])ccc6F)c6nc(c(-c7cc(S(=O)(=O)[O-])ccc7F)c7ccc4[nH]7)C=C6)C=C5)cc3)cc2)cc1
REMARK SMILES IDX 26 1 25 2 23 3 24 4 22 5 21 6 18 7 19 8 95 9 20 10 94 11
REMARK SMILES IDX 17 12 9 13 10 14 11 15 16 16 8 17 5 18 6 19 97 20 7 21 96 22
REMARK SMILES IDX 2 23 1 24 3 25 4 26 12 27 13 28 14 29 15 30 27 31 28 32
REMARK SMILES IDX 29 33 30 34 31 35 32 36 93 37 33 38 92 39 34 40 35 41 36 42
REMARK SMILES IDX 86 43 37 44 91 45 85 46 87 47 38 48 90 49 84 50 83 51 39 53
REMARK SMILES IDX 71 54 51 55 70 56 52 57 55 58 69 59 88 60 53 61 54 62 68 64
REMARK SMILES IDX 89 65 56 66 40 67 41 68 49 69 42 70 48 71 50 72 47 73 43 74
REMARK SMILES IDX 44 75 45 76 46 77 72 78 73 79 81 80 74 81 80 82 82 83 79 84
REMARK SMILES IDX 75 85 76 86 77 87 78 88 57 89 58 90 66 91 59 92 65 93 67 94
REMARK SMILES IDX 64 95 60 96 61 97 62 98 63 99
REMARK H PARENT 87 52 55 63
REMARK Flexibility Score: inf
ROOT
ATOM      1  C   UNL A   1      36.509  32.722  28.121  1.00  0.00     0.274 C 
ENDROOT
BRANCH   1   2
ATOM      2  O   UNL A   1      35.682  31.643  27.634  1.00  0.00    -0.462 OA
BRANCH   2   3
ATOM      3  C   UNL A   1      36.191  30.390  27.788  1.00  0.00     0.310 C 
ATOM      4  O   UNL A   1      37.389  30.125  27.725  1.00  0.00    -0.252 OA
BRANCH   3   5
ATOM      5  C   UNL A   1      35.144  29.301  27.900  1.00  0.00     0.158 C 
BRANCH   5   6
ATOM      6  C   UNL A   1      33.971  29.320  26.949  1.00  0.00    -0.037 A 
ATOM      7  C   UNL A   1      31.811  29.334  25.127  1.00  0.00     0.000 A 
ATOM      8  C   UNL A   1      32.980  28.633  24.830  1.00  0.00     0.010 A 
ATOM      9  C   UNL A   1      31.738  30.057  26.323  1.00  0.00     0.010 A 
ATOM     10  C   UNL A   1      34.054  28.656  25.720  1.00  0.00     0.005 A 
ATOM     11  C   UNL A   1      32.801  30.032  27.237  1.00  0.00     0.005 A 
BRANCH   7  12
ATOM     12  C   UNL A   1      30.710  29.336  24.167  1.00  0.00     0.075 A 
ATOM     13  N   UNL A   1      30.374  28.285  23.317  1.00  0.00    -0.233 N 
ATOM     14  N   UNL A   1      29.489  28.676  22.361  1.00  0.00    -0.163 NA
ATOM     15  C   UNL A   1      29.209  29.963  22.636  1.00  0.00     0.167 A 
ATOM     16  C   UNL A   1      29.951  30.411  23.754  1.00  0.00     0.064 A 
BRANCH  13  17
ATOM     17  C   UNL A   1      30.774  26.923  23.394  1.00  0.00     0.065 A 
ATOM     18  C   UNL A   1      31.624  24.274  23.585  1.00  0.00     0.067 A 
ATOM     19  C   UNL A   1      30.729  24.783  24.528  1.00  0.00     0.022 A 
ATOM     20  C   UNL A   1      32.095  25.076  22.540  1.00  0.00     0.022 A 
ATOM     21  C   UNL A   1      30.311  26.110  24.437  1.00  0.00     0.030 A 
ATOM     22  C   UNL A   1      31.643  26.396  22.427  1.00  0.00     0.030 A 
BRANCH  18  23
ATOM     23  S   UNL A   1      32.189  22.599  23.765  1.00  0.00     0.175 S 
ATOM     24  C   UNL A   1      33.948  22.780  23.899  1.00  0.00     0.163 C 
ATOM     25  O   UNL A   1      31.919  21.907  22.517  1.00  0.00    -0.224 OA
ATOM     26  O   UNL A   1      31.697  22.077  25.023  1.00  0.00    -0.224 OA
ENDBRANCH  18  23
ENDBRANCH  13  17
BRANCH  15  27
ATOM     27  C   UNL A   1      28.230  30.783  21.841  1.00  0.00     0.435 C 
ATOM     28  F   UNL A   1      28.775  31.881  21.260  1.00  0.00    -0.164 F 
ATOM     29  F   UNL A   1      27.644  30.054  20.850  1.00  0.00    -0.164 F 
ATOM     30  F   UNL A   1      27.203  31.231  22.622  1.00  0.00    -0.164 F 
ENDBRANCH  15  27
ENDBRANCH   7  12
ENDBRANCH   5   6
ENDBRANCH   3   5
ENDBRANCH   2   3
ENDBRANCH   1   2
BRANCH   1  31
ATOM     31  C   UNL A   1      35.984  33.388  29.394  1.00  0.00     0.275 C 
BRANCH  31  32
ATOM     32  O   UNL A   1      36.710  33.026  30.573  1.00  0.00    -0.458 OA
BRANCH  32  33
ATOM     33  C   UNL A   1      36.282  31.854  31.092  1.00  0.00     0.338 C 
ATOM     34  O   UNL A   1      35.140  31.579  31.413  1.00  0.00    -0.246 OA
BRANCH  33  35
ATOM     35  C   UNL A   1      37.391  30.964  31.421  1.00  0.00     0.060 A 
ATOM     36  C   UNL A   1      38.649  31.541  31.626  1.00  0.00     0.016 A 
ATOM     37  C   UNL A   1      37.236  29.592  31.210  1.00  0.00     0.016 A 
ATOM     38  C   UNL A   1      39.777  30.760  31.493  1.00  0.00     0.010 A 
ATOM     39  C   UNL A   1      38.365  28.811  31.074  1.00  0.00     0.010 A 
ATOM     40  C   UNL A   1      39.625  29.412  31.163  1.00  0.00    -0.014 A 
BRANCH  40  41
ATOM     41  C   UNL A   1      40.826  28.598  31.071  1.00  0.00     0.031 A 
ATOM     42  C   UNL A   1      41.432  28.294  32.389  1.00  0.00     0.074 A 
ATOM     43  C   UNL A   1      41.241  28.035  29.921  1.00  0.00     0.049 A 
ATOM     44  N   UNL A   1      42.623  28.566  32.807  1.00  0.00    -0.248 NA
ATOM     45  C   UNL A   1      40.544  27.749  33.431  1.00  0.00     0.031 C 
ATOM     46  C   UNL A   1      40.557  28.064  28.626  1.00  0.00     0.029 A 
ATOM     47  N   UNL A   1      42.296  27.200  29.701  1.00  0.00    -0.354 N 
ATOM     48  C   UNL A   1      42.707  28.013  34.080  1.00  0.00     0.074 A 
ATOM     49  C   UNL A   1      41.360  27.721  34.482  1.00  0.00     0.031 C 
ATOM     50  C   UNL A   1      41.081  27.105  27.831  1.00  0.00     0.029 A 
ATOM     51  C   UNL A   1      42.199  26.476  28.516  1.00  0.00     0.049 A 
ATOM     52  H   UNL A   1      43.055  27.118  30.322  1.00  0.00     0.167 HD
ATOM     53  C   UNL A   1      43.896  27.596  34.591  1.00  0.00     0.034 A 
ATOM     54  C   UNL A   1      42.927  25.386  28.158  1.00  0.00     0.034 A 
ATOM     55  C   UNL A   1      45.004  28.231  33.915  1.00  0.00     0.049 A 
ATOM     56  C   UNL A   1      44.159  25.383  28.982  1.00  0.00     0.074 A 
ATOM     57  C   UNL A   1      45.388  29.544  33.712  1.00  0.00     0.029 A 
ATOM     58  N   UNL A   1      45.726  27.490  33.007  1.00  0.00    -0.354 N 
ATOM     59  N   UNL A   1      45.100  26.276  28.873  1.00  0.00    -0.248 NA
ATOM     60  C   UNL A   1      44.158  24.641  30.235  1.00  0.00     0.031 C 
ATOM     61  C   UNL A   1      45.939  29.572  32.398  1.00  0.00     0.029 A 
ATOM     62  C   UNL A   1      45.923  28.270  31.894  1.00  0.00     0.049 A 
ATOM     63  H   UNL A   1      46.046  26.568  33.133  1.00  0.00     0.167 HD
ATOM     64  C   UNL A   1      45.511  26.524  30.172  1.00  0.00     0.074 A 
ATOM     65  C   UNL A   1      44.996  25.399  30.949  1.00  0.00     0.031 C 
ATOM     66  C   UNL A   1      45.976  27.755  30.538  1.00  0.00     0.034 A 
BRANCH  53  67
ATOM     67  C   UNL A   1      44.057  26.340  35.425  1.00  0.00     0.023 A 
ATOM     68  C   UNL A   1      44.674  26.482  36.681  1.00  0.00     0.031 A 
ATOM     69  C   UNL A   1      43.920  25.009  34.959  1.00  0.00     0.131 A 
ATOM     70  C   UNL A   1      45.221  25.372  37.348  1.00  0.00     0.055 A 
ATOM     71  C   UNL A   1      44.400  23.902  35.663  1.00  0.00     0.041 A 
ATOM     72  F   UNL A   1      43.404  24.700  33.765  1.00  0.00    -0.206 F 
ATOM     73  C   UNL A   1      45.089  24.081  36.847  1.00  0.00     0.022 A 
BRANCH  70  74
ATOM     74  S   UNL A   1      46.282  25.677  38.782  1.00  0.00     0.124 S 
ATOM     75  O   UNL A   1      46.807  24.342  39.044  1.00  0.00    -0.237 OA
ATOM     76  O   UNL A   1      47.229  26.651  38.250  1.00  0.00    -0.237 OA
ATOM     77  O   UNL A   1      45.354  26.192  39.785  1.00  0.00    -0.744 OA
ENDBRANCH  70  74
ENDBRANCH  53  67
BRANCH  54  78
ATOM     78  C   UNL A   1      42.483  24.221  27.347  1.00  0.00     0.023 A 
ATOM     79  C   UNL A   1      43.362  23.499  26.512  1.00  0.00     0.031 A 
ATOM     80  C   UNL A   1      41.211  23.650  27.572  1.00  0.00     0.131 A 
ATOM     81  C   UNL A   1      42.954  22.270  25.943  1.00  0.00     0.055 A 
ATOM     82  C   UNL A   1      40.808  22.444  26.996  1.00  0.00     0.041 A 
ATOM     83  F   UNL A   1      40.342  24.200  28.435  1.00  0.00    -0.206 F 
ATOM     84  C   UNL A   1      41.684  21.743  26.185  1.00  0.00     0.022 A 
BRANCH  81  85
ATOM     85  S   UNL A   1      44.123  21.276  24.961  1.00  0.00     0.124 S 
ATOM     86  O   UNL A   1      43.489  19.963  24.953  1.00  0.00    -0.237 OA
ATOM     87  O   UNL A   1      44.155  21.991  23.690  1.00  0.00    -0.237 OA
ATOM     88  O   UNL A   1      45.365  21.352  25.732  1.00  0.00    -0.744 OA
ENDBRANCH  81  85
ENDBRANCH  54  78
BRANCH  66  89
ATOM     89  C   UNL A   1      46.359  28.727  29.437  1.00  0.00     0.023 A 
ATOM     90  C   UNL A   1      45.453  29.570  28.752  1.00  0.00     0.031 A 
ATOM     91  C   UNL A   1      47.726  28.861  29.134  1.00  0.00     0.131 A 
ATOM     92  C   UNL A   1      45.926  30.481  27.787  1.00  0.00     0.055 A 
ATOM     93  C   UNL A   1      48.192  29.781  28.196  1.00  0.00     0.041 A 
ATOM     94  F   UNL A   1      48.641  28.110  29.770  1.00  0.00    -0.206 F 
ATOM     95  C   UNL A   1      47.292  30.587  27.511  1.00  0.00     0.022 A 
BRANCH  92  96
ATOM     96  S   UNL A   1      44.766  31.526  26.848  1.00  0.00     0.124 S 
ATOM     97  O   UNL A   1      44.329  32.519  27.823  1.00  0.00    -0.237 OA
ATOM     98  O   UNL A   1      45.600  32.025  25.758  1.00  0.00    -0.237 OA
ATOM     99  O   UNL A   1      43.724  30.585  26.431  1.00  0.00    -0.744 OA
ENDBRANCH  92  96
ENDBRANCH  66  89
ENDBRANCH  40  41
ENDBRANCH  33  35
ENDBRANCH  32  33
ENDBRANCH  31  32
ENDBRANCH   1  31
TORSDOF 19
ENDMDL
