MODEL 1
REMARK VINA RESULT:      -8.8      0.000      0.000
REMARK SMILES O=C(OCCOC(=O)[C@@H](CCOCCO)c1cccc(F)c1)c1ccc(-c2c3nc(c(-c4cc(S(=O)(=O)[O-])ccc4F)c4ccc([nH]4)c(-c4cc(S(=O)(=O)[O-])ccc4F)c4nc(c(-c5cc(S(=O)(=O)[O-])ccc5F)c5ccc2[nH]5)C=C4)C=C3)cc1
REMARK SMILES IDX 6 1 5 2 4 3 3 4 2 5 1 6 23 7 24 8 85 9 25 10 84 11 26 12
REMARK SMILES IDX 27 13 28 14 78 15 29 16 83 17 77 18 79 19 30 20 82 21 76 22
REMARK SMILES IDX 75 23 31 25 63 26 43 27 62 28 44 29 47 30 61 31 80 32 45 33
REMARK SMILES IDX 46 34 60 36 81 37 48 38 32 39 33 40 41 41 34 42 40 43 42 44
REMARK SMILES IDX 39 45 35 46 36 47 37 48 38 49 64 50 65 51 73 52 66 53 72 54
REMARK SMILES IDX 74 55 71 56 67 57 68 58 69 59 70 60 49 61 50 62 58 63 51 64
REMARK SMILES IDX 57 65 59 66 56 67 52 68 53 69 54 70 55 71 7 72 8 73 9 74
REMARK SMILES IDX 10 75 11 76 12 77 13 78 14 79 15 80 16 82 17 83 22 84 18 85
REMARK SMILES IDX 20 86 19 87 21 88
REMARK H PARENT 79 24 47 35 15 81
REMARK Flexibility Score: inf
ROOT
ATOM      1  O   UNL A   1      34.108  33.547  28.826  1.00  0.00    -0.462 OA
ENDROOT
BRANCH   1   2
ATOM      2  C   UNL A   1      34.018  34.933  28.375  1.00  0.00     0.274 C 
BRANCH   2   3
ATOM      3  C   UNL A   1      33.247  35.905  29.289  1.00  0.00     0.275 C 
BRANCH   3   4
ATOM      4  O   UNL A   1      32.627  35.212  30.365  1.00  0.00    -0.458 OA
BRANCH   4   5
ATOM      5  C   UNL A   1      33.029  35.329  31.640  1.00  0.00     0.338 C 
ATOM      6  O   UNL A   1      32.511  36.160  32.382  1.00  0.00    -0.246 OA
BRANCH   5   7
ATOM      7  C   UNL A   1      34.158  34.536  32.196  1.00  0.00     0.060 A 
ATOM      8  C   UNL A   1      34.240  32.750  32.569  1.00  0.00     0.016 A 
ATOM      9  C   UNL A   1      35.681  35.465  32.169  1.00  0.00     0.016 A 
ATOM     10  C   UNL A   1      35.867  31.941  32.740  1.00  0.00     0.010 A 
ATOM     11  C   UNL A   1      37.250  34.671  32.387  1.00  0.00     0.010 A 
ATOM     12  C   UNL A   1      37.371  32.952  32.765  1.00  0.00    -0.014 A 
BRANCH  12  13
ATOM     13  C   UNL A   1      38.597  32.420  33.449  1.00  0.00     0.031 A 
ATOM     14  C   UNL A   1      39.754  31.791  32.701  1.00  0.00     0.074 A 
ATOM     15  C   UNL A   1      38.770  32.787  34.727  1.00  0.00     0.049 A 
ATOM     16  N   UNL A   1      40.918  31.418  33.181  1.00  0.00    -0.248 NA
ATOM     17  C   UNL A   1      39.631  31.550  31.258  1.00  0.00     0.031 C 
ATOM     18  C   UNL A   1      37.745  33.462  35.496  1.00  0.00     0.029 A 
ATOM     19  N   UNL A   1      39.842  32.756  35.572  1.00  0.00    -0.354 N 
ATOM     20  C   UNL A   1      41.643  30.910  32.106  1.00  0.00     0.074 A 
ATOM     21  C   UNL A   1      40.804  31.023  30.943  1.00  0.00     0.031 C 
ATOM     22  C   UNL A   1      38.284  33.982  36.597  1.00  0.00     0.029 A 
ATOM     23  C   UNL A   1      39.613  33.433  36.747  1.00  0.00     0.049 A 
ATOM     24  H   UNL A   1      40.688  32.297  35.362  1.00  0.00     0.167 HD
ATOM     25  C   UNL A   1      42.882  30.362  32.101  1.00  0.00     0.034 A 
ATOM     26  C   UNL A   1      40.326  33.525  37.881  1.00  0.00     0.034 A 
ATOM     27  C   UNL A   1      43.657  30.192  33.305  1.00  0.00     0.049 A 
ATOM     28  C   UNL A   1      41.584  32.736  37.928  1.00  0.00     0.074 A 
ATOM     29  C   UNL A   1      44.849  29.515  33.482  1.00  0.00     0.029 A 
ATOM     30  N   UNL A   1      43.293  30.694  34.551  1.00  0.00    -0.354 N 
ATOM     31  N   UNL A   1      42.165  32.087  36.947  1.00  0.00    -0.248 NA
ATOM     32  C   UNL A   1      42.247  32.627  39.225  1.00  0.00     0.031 C 
ATOM     33  C   UNL A   1      45.158  29.536  34.847  1.00  0.00     0.029 A 
ATOM     34  C   UNL A   1      44.221  30.318  35.506  1.00  0.00     0.049 A 
ATOM     35  H   UNL A   1      42.491  31.238  34.727  1.00  0.00     0.167 HD
ATOM     36  C   UNL A   1      43.275  31.485  37.504  1.00  0.00     0.074 A 
ATOM     37  C   UNL A   1      43.283  31.861  38.909  1.00  0.00     0.031 C 
ATOM     38  C   UNL A   1      44.200  30.698  36.900  1.00  0.00     0.034 A 
BRANCH  25  39
ATOM     39  C   UNL A   1      43.379  29.777  30.796  1.00  0.00     0.023 A 
ATOM     40  C   UNL A   1      43.009  28.495  30.350  1.00  0.00     0.031 A 
ATOM     41  C   UNL A   1      44.306  30.497  30.020  1.00  0.00     0.131 A 
ATOM     42  C   UNL A   1      43.610  27.952  29.199  1.00  0.00     0.055 A 
ATOM     43  C   UNL A   1      44.845  29.981  28.839  1.00  0.00     0.041 A 
ATOM     44  F   UNL A   1      44.728  31.710  30.412  1.00  0.00    -0.206 F 
ATOM     45  C   UNL A   1      44.507  28.697  28.429  1.00  0.00     0.022 A 
BRANCH  42  46
ATOM     46  S   UNL A   1      43.306  26.210  28.785  1.00  0.00     0.124 S 
ATOM     47  O   UNL A   1      41.854  26.125  28.921  1.00  0.00    -0.237 OA
ATOM     48  O   UNL A   1      43.829  26.110  27.428  1.00  0.00    -0.237 OA
ATOM     49  O   UNL A   1      44.063  25.479  29.799  1.00  0.00    -0.744 OA
ENDBRANCH  42  46
ENDBRANCH  25  39
BRANCH  26  50
ATOM     50  C   UNL A   1      39.754  34.252  39.048  1.00  0.00     0.023 A 
ATOM     51  C   UNL A   1      39.893  35.638  39.181  1.00  0.00     0.031 A 
ATOM     52  C   UNL A   1      38.930  33.577  39.975  1.00  0.00     0.131 A 
ATOM     53  C   UNL A   1      39.182  36.312  40.190  1.00  0.00     0.055 A 
ATOM     54  C   UNL A   1      38.183  34.257  40.935  1.00  0.00     0.041 A 
ATOM     55  F   UNL A   1      38.759  32.248  39.885  1.00  0.00    -0.206 F 
ATOM     56  C   UNL A   1      38.307  35.636  41.046  1.00  0.00     0.022 A 
BRANCH  53  57
ATOM     57  S   UNL A   1      39.401  38.103  40.360  1.00  0.00     0.124 S 
ATOM     58  O   UNL A   1      38.260  38.615  39.609  1.00  0.00    -0.237 OA
ATOM     59  O   UNL A   1      39.349  38.279  41.808  1.00  0.00    -0.237 OA
ATOM     60  O   UNL A   1      40.709  38.345  39.753  1.00  0.00    -0.744 OA
ENDBRANCH  53  57
ENDBRANCH  26  50
BRANCH  38  61
ATOM     61  C   UNL A   1      45.350  30.267  37.755  1.00  0.00     0.023 A 
ATOM     62  C   UNL A   1      45.223  29.236  38.697  1.00  0.00     0.031 A 
ATOM     63  C   UNL A   1      46.584  30.926  37.632  1.00  0.00     0.131 A 
ATOM     64  C   UNL A   1      46.304  28.935  39.531  1.00  0.00     0.055 A 
ATOM     65  C   UNL A   1      47.677  30.570  38.413  1.00  0.00     0.041 A 
ATOM     66  F   UNL A   1      46.740  31.925  36.749  1.00  0.00    -0.206 F 
ATOM     67  C   UNL A   1      47.537  29.578  39.380  1.00  0.00     0.022 A 
BRANCH  64  68
ATOM     68  S   UNL A   1      46.046  27.759  40.884  1.00  0.00     0.124 S 
ATOM     69  O   UNL A   1      44.590  27.649  40.907  1.00  0.00    -0.237 OA
ATOM     70  O   UNL A   1      46.766  26.579  40.417  1.00  0.00    -0.237 OA
ATOM     71  O   UNL A   1      46.637  28.433  42.037  1.00  0.00    -0.744 OA
ENDBRANCH  64  68
ENDBRANCH  38  61
ENDBRANCH  12  13
ENDBRANCH   5   7
ENDBRANCH   4   5
ENDBRANCH   3   4
ENDBRANCH   2   3
ENDBRANCH   1   2
BRANCH   1  72
ATOM     72  C   UNL A   1      35.277  32.842  28.889  1.00  0.00     0.313 C 
ATOM     73  O   UNL A   1      36.339  33.353  29.219  1.00  0.00    -0.252 OA
BRANCH  72  74
ATOM     74  C   UNL A   1      35.085  31.277  28.602  1.00  0.00     0.131 C 
BRANCH  74  75
ATOM     75  C   UNL A   1      33.947  30.678  27.245  1.00  0.00     0.048 C 
BRANCH  75  76
ATOM     76  C   UNL A   1      33.812  28.744  26.222  1.00  0.00     0.161 C 
BRANCH  76  77
ATOM     77  O   UNL A   1      33.250  28.282  24.794  1.00  0.00    -0.379 OA
BRANCH  77  78
ATOM     78  C   UNL A   1      32.806  28.986  23.603  1.00  0.00     0.188 C 
BRANCH  78  79
ATOM     79  C   UNL A   1      31.507  28.605  22.863  1.00  0.00     0.184 C 
BRANCH  79  80
ATOM     80  O   UNL A   1      31.739  27.649  21.835  1.00  0.00    -0.394 OA
ATOM     81  H   UNL A   1      32.140  28.089  21.069  1.00  0.00     0.210 HD
ENDBRANCH  79  80
ENDBRANCH  78  79
ENDBRANCH  77  78
ENDBRANCH  76  77
ENDBRANCH  75  76
ENDBRANCH  74  75
BRANCH  74  82
ATOM     82  C   UNL A   1      36.354  30.432  28.853  1.00  0.00    -0.031 A 
ATOM     83  C   UNL A   1      37.329  30.194  27.865  1.00  0.00     0.005 A 
ATOM     84  C   UNL A   1      36.512  29.777  30.088  1.00  0.00     0.043 A 
ATOM     85  C   UNL A   1      38.371  29.281  28.065  1.00  0.00     0.003 A 
ATOM     86  C   UNL A   1      37.565  28.879  30.285  1.00  0.00     0.123 A 
ATOM     87  C   UNL A   1      38.486  28.615  29.279  1.00  0.00     0.039 A 
ATOM     88  F   UNL A   1      37.630  28.184  31.428  1.00  0.00    -0.207 F 
ENDBRANCH  74  82
ENDBRANCH  72  74
ENDBRANCH   1  72
TORSDOF 21
ENDMDL
MODEL 2
REMARK VINA RESULT:      -8.5      1.891      2.168
REMARK SMILES O=C(OCCOC(=O)[C@@H](CCOCCO)c1cccc(F)c1)c1ccc(-c2c3nc(c(-c4cc(S(=O)(=O)[O-])ccc4F)c4ccc([nH]4)c(-c4cc(S(=O)(=O)[O-])ccc4F)c4nc(c(-c5cc(S(=O)(=O)[O-])ccc5F)c5ccc2[nH]5)C=C4)C=C3)cc1
REMARK SMILES IDX 6 1 5 2 4 3 3 4 2 5 1 6 23 7 24 8 85 9 25 10 84 11 26 12
REMARK SMILES IDX 27 13 28 14 78 15 29 16 83 17 77 18 79 19 30 20 82 21 76 22
REMARK SMILES IDX 75 23 31 25 63 26 43 27 62 28 44 29 47 30 61 31 80 32 45 33
REMARK SMILES IDX 46 34 60 36 81 37 48 38 32 39 33 40 41 41 34 42 40 43 42 44
REMARK SMILES IDX 39 45 35 46 36 47 37 48 38 49 64 50 65 51 73 52 66 53 72 54
REMARK SMILES IDX 74 55 71 56 67 57 68 58 69 59 70 60 49 61 50 62 58 63 51 64
REMARK SMILES IDX 57 65 59 66 56 67 52 68 53 69 54 70 55 71 7 72 8 73 9 74
REMARK SMILES IDX 10 75 11 76 12 77 13 78 14 79 15 80 16 82 17 83 22 84 18 85
REMARK SMILES IDX 20 86 19 87 21 88
REMARK H PARENT 79 24 47 35 15 81
REMARK Flexibility Score: inf
ROOT
ATOM      1  O   UNL A   1      34.113  33.528  28.743  1.00  0.00    -0.462 OA
ENDROOT
BRANCH   1   2
ATOM      2  C   UNL A   1      33.992  34.908  28.282  1.00  0.00     0.274 C 
BRANCH   2   3
ATOM      3  C   UNL A   1      33.241  35.881  29.213  1.00  0.00     0.275 C 
BRANCH   3   4
ATOM      4  O   UNL A   1      32.635  35.186  30.295  1.00  0.00    -0.458 OA
BRANCH   4   5
ATOM      5  C   UNL A   1      33.050  35.305  31.566  1.00  0.00     0.338 C 
ATOM      6  O   UNL A   1      32.538  36.135  32.313  1.00  0.00    -0.246 OA
BRANCH   5   7
ATOM      7  C   UNL A   1      34.186  34.515  32.110  1.00  0.00     0.060 A 
ATOM      8  C   UNL A   1      34.277  32.729  32.481  1.00  0.00     0.016 A 
ATOM      9  C   UNL A   1      35.707  35.448  32.069  1.00  0.00     0.016 A 
ATOM     10  C   UNL A   1      35.909  31.924  32.636  1.00  0.00     0.010 A 
ATOM     11  C   UNL A   1      37.280  34.658  32.271  1.00  0.00     0.010 A 
ATOM     12  C   UNL A   1      37.410  32.939  32.647  1.00  0.00    -0.014 A 
BRANCH  12  13
ATOM     13  C   UNL A   1      38.643  32.410  33.318  1.00  0.00     0.031 A 
ATOM     14  C   UNL A   1      39.803  31.802  32.557  1.00  0.00     0.074 A 
ATOM     15  C   UNL A   1      38.820  32.762  34.600  1.00  0.00     0.049 A 
ATOM     16  N   UNL A   1      40.972  31.434  33.027  1.00  0.00    -0.248 NA
ATOM     17  C   UNL A   1      39.676  31.578  31.111  1.00  0.00     0.031 C 
ATOM     18  C   UNL A   1      37.791  33.419  35.382  1.00  0.00     0.029 A 
ATOM     19  N   UNL A   1      39.896  32.731  35.439  1.00  0.00    -0.354 N 
ATOM     20  C   UNL A   1      41.697  30.946  31.942  1.00  0.00     0.074 A 
ATOM     21  C   UNL A   1      40.851  31.065  30.784  1.00  0.00     0.031 C 
ATOM     22  C   UNL A   1      38.331  33.930  36.487  1.00  0.00     0.029 A 
ATOM     23  C   UNL A   1      39.666  33.391  36.623  1.00  0.00     0.049 A 
ATOM     24  H   UNL A   1      40.744  32.283  35.220  1.00  0.00     0.167 HD
ATOM     25  C   UNL A   1      42.941  30.409  31.925  1.00  0.00     0.034 A 
ATOM     26  C   UNL A   1      40.383  33.476  37.756  1.00  0.00     0.034 A 
ATOM     27  C   UNL A   1      43.723  30.231  33.122  1.00  0.00     0.049 A 
ATOM     28  C   UNL A   1      41.649  32.698  37.787  1.00  0.00     0.074 A 
ATOM     29  C   UNL A   1      44.922  29.564  33.286  1.00  0.00     0.029 A 
ATOM     30  N   UNL A   1      43.361  30.714  34.376  1.00  0.00    -0.354 N 
ATOM     31  N   UNL A   1      42.231  32.067  36.795  1.00  0.00    -0.248 NA
ATOM     32  C   UNL A   1      42.319  32.579  39.079  1.00  0.00     0.031 C 
ATOM     33  C   UNL A   1      45.238  29.571  34.650  1.00  0.00     0.029 A 
ATOM     34  C   UNL A   1      44.296  30.336  35.323  1.00  0.00     0.049 A 
ATOM     35  H   UNL A   1      42.554  31.249  34.563  1.00  0.00     0.167 HD
ATOM     36  C   UNL A   1      43.350  31.468  37.339  1.00  0.00     0.074 A 
ATOM     37  C   UNL A   1      43.361  31.826  38.749  1.00  0.00     0.031 C 
ATOM     38  C   UNL A   1      44.278  30.697  36.721  1.00  0.00     0.034 A 
BRANCH  25  39
ATOM     39  C   UNL A   1      43.437  29.845  30.610  1.00  0.00     0.023 A 
ATOM     40  C   UNL A   1      44.114  30.629  29.657  1.00  0.00     0.031 A 
ATOM     41  C   UNL A   1      43.155  28.508  30.276  1.00  0.00     0.131 A 
ATOM     42  C   UNL A   1      44.429  30.084  28.398  1.00  0.00     0.055 A 
ATOM     43  C   UNL A   1      43.534  27.953  29.052  1.00  0.00     0.041 A 
ATOM     44  F   UNL A   1      42.478  27.720  31.127  1.00  0.00    -0.206 F 
ATOM     45  C   UNL A   1      44.164  28.745  28.100  1.00  0.00     0.022 A 
BRANCH  42  46
ATOM     46  S   UNL A   1      45.075  31.180  27.101  1.00  0.00     0.124 S 
ATOM     47  O   UNL A   1      46.072  31.952  27.839  1.00  0.00    -0.237 OA
ATOM     48  O   UNL A   1      45.594  30.238  26.118  1.00  0.00    -0.237 OA
ATOM     49  O   UNL A   1      43.900  31.939  26.677  1.00  0.00    -0.744 OA
ENDBRANCH  42  46
ENDBRANCH  25  39
BRANCH  26  50
ATOM     50  C   UNL A   1      39.811  34.183  38.934  1.00  0.00     0.023 A 
ATOM     51  C   UNL A   1      39.995  35.558  39.118  1.00  0.00     0.031 A 
ATOM     52  C   UNL A   1      38.942  33.507  39.819  1.00  0.00     0.131 A 
ATOM     53  C   UNL A   1      39.285  36.223  40.134  1.00  0.00     0.055 A 
ATOM     54  C   UNL A   1      38.197  34.180  40.785  1.00  0.00     0.041 A 
ATOM     55  F   UNL A   1      38.726  32.189  39.679  1.00  0.00    -0.206 F 
ATOM     56  C   UNL A   1      38.367  35.549  40.946  1.00  0.00     0.022 A 
BRANCH  53  57
ATOM     57  S   UNL A   1      39.563  37.998  40.372  1.00  0.00     0.124 S 
ATOM     58  O   UNL A   1      38.459  38.576  39.613  1.00  0.00    -0.237 OA
ATOM     59  O   UNL A   1      39.484  38.125  41.823  1.00  0.00    -0.237 OA
ATOM     60  O   UNL A   1      40.892  38.213  39.803  1.00  0.00    -0.744 OA
ENDBRANCH  53  57
ENDBRANCH  26  50
BRANCH  38  61
ATOM     61  C   UNL A   1      45.436  30.267  37.566  1.00  0.00     0.023 A 
ATOM     62  C   UNL A   1      46.533  31.109  37.800  1.00  0.00     0.031 A 
ATOM     63  C   UNL A   1      45.440  28.976  38.122  1.00  0.00     0.131 A 
ATOM     64  C   UNL A   1      47.626  30.622  38.523  1.00  0.00     0.055 A 
ATOM     65  C   UNL A   1      46.499  28.526  38.902  1.00  0.00     0.041 A 
ATOM     66  F   UNL A   1      44.413  28.139  37.910  1.00  0.00    -0.206 F 
ATOM     67  C   UNL A   1      47.607  29.346  39.096  1.00  0.00     0.022 A 
BRANCH  64  68
ATOM     68  S   UNL A   1      49.117  31.645  38.619  1.00  0.00     0.124 S 
ATOM     69  O   UNL A   1      48.848  32.658  37.602  1.00  0.00    -0.237 OA
ATOM     70  O   UNL A   1      49.091  32.110  40.002  1.00  0.00    -0.237 OA
ATOM     71  O   UNL A   1      50.192  30.711  38.297  1.00  0.00    -0.744 OA
ENDBRANCH  64  68
ENDBRANCH  38  61
ENDBRANCH  12  13
ENDBRANCH   5   7
ENDBRANCH   4   5
ENDBRANCH   3   4
ENDBRANCH   2   3
ENDBRANCH   1   2
BRANCH   1  72
ATOM     72  C   UNL A   1      35.290  32.834  28.763  1.00  0.00     0.313 C 
ATOM     73  O   UNL A   1      36.361  33.356  29.042  1.00  0.00    -0.252 OA
BRANCH  72  74
ATOM     74  C   UNL A   1      35.099  31.265  28.501  1.00  0.00     0.131 C 
BRANCH  74  75
ATOM     75  C   UNL A   1      33.947  30.643  27.167  1.00  0.00     0.048 C 
BRANCH  75  76
ATOM     76  C   UNL A   1      33.735  28.664  26.248  1.00  0.00     0.161 C 
BRANCH  76  77
ATOM     77  O   UNL A   1      33.215  28.154  24.819  1.00  0.00    -0.379 OA
BRANCH  77  78
ATOM     78  C   UNL A   1      32.873  28.814  23.571  1.00  0.00     0.188 C 
BRANCH  78  79
ATOM     79  C   UNL A   1      31.626  28.422  22.752  1.00  0.00     0.184 C 
BRANCH  79  80
ATOM     80  O   UNL A   1      31.915  27.417  21.786  1.00  0.00    -0.394 OA
ATOM     81  H   UNL A   1      32.380  27.816  21.035  1.00  0.00     0.210 HD
ENDBRANCH  79  80
ENDBRANCH  78  79
ENDBRANCH  77  78
ENDBRANCH  76  77
ENDBRANCH  75  76
ENDBRANCH  74  75
BRANCH  74  82
ATOM     82  C   UNL A   1      36.375  30.426  28.748  1.00  0.00    -0.031 A 
ATOM     83  C   UNL A   1      37.346  30.192  27.754  1.00  0.00     0.005 A 
ATOM     84  C   UNL A   1      36.543  29.775  29.983  1.00  0.00     0.043 A 
ATOM     85  C   UNL A   1      38.393  29.284  27.952  1.00  0.00     0.003 A 
ATOM     86  C   UNL A   1      37.601  28.884  30.177  1.00  0.00     0.123 A 
ATOM     87  C   UNL A   1      38.518  28.623  29.167  1.00  0.00     0.039 A 
ATOM     88  F   UNL A   1      37.675  28.193  31.322  1.00  0.00    -0.207 F 
ENDBRANCH  74  82
ENDBRANCH  72  74
ENDBRANCH   1  72
TORSDOF 21
ENDMDL
MODEL 3
REMARK VINA RESULT:      -8.4      2.131      2.486
REMARK SMILES O=C(OCCOC(=O)[C@@H](CCOCCO)c1cccc(F)c1)c1ccc(-c2c3nc(c(-c4cc(S(=O)(=O)[O-])ccc4F)c4ccc([nH]4)c(-c4cc(S(=O)(=O)[O-])ccc4F)c4nc(c(-c5cc(S(=O)(=O)[O-])ccc5F)c5ccc2[nH]5)C=C4)C=C3)cc1
REMARK SMILES IDX 6 1 5 2 4 3 3 4 2 5 1 6 23 7 24 8 85 9 25 10 84 11 26 12
REMARK SMILES IDX 27 13 28 14 78 15 29 16 83 17 77 18 79 19 30 20 82 21 76 22
REMARK SMILES IDX 75 23 31 25 63 26 43 27 62 28 44 29 47 30 61 31 80 32 45 33
REMARK SMILES IDX 46 34 60 36 81 37 48 38 32 39 33 40 41 41 34 42 40 43 42 44
REMARK SMILES IDX 39 45 35 46 36 47 37 48 38 49 64 50 65 51 73 52 66 53 72 54
REMARK SMILES IDX 74 55 71 56 67 57 68 58 69 59 70 60 49 61 50 62 58 63 51 64
REMARK SMILES IDX 57 65 59 66 56 67 52 68 53 69 54 70 55 71 7 72 8 73 9 74
REMARK SMILES IDX 10 75 11 76 12 77 13 78 14 79 15 80 16 82 17 83 22 84 18 85
REMARK SMILES IDX 20 86 19 87 21 88
REMARK H PARENT 79 24 47 35 15 81
REMARK Flexibility Score: inf
ROOT
ATOM      1  O   UNL A   1      34.254  33.753  28.215  1.00  0.00    -0.462 OA
ENDROOT
BRANCH   1   2
ATOM      2  C   UNL A   1      34.350  35.209  28.279  1.00  0.00     0.274 C 
BRANCH   2   3
ATOM      3  C   UNL A   1      33.260  35.935  29.090  1.00  0.00     0.275 C 
BRANCH   3   4
ATOM      4  O   UNL A   1      32.725  35.088  30.100  1.00  0.00    -0.458 OA
BRANCH   4   5
ATOM      5  C   UNL A   1      33.050  35.200  31.397  1.00  0.00     0.338 C 
ATOM      6  O   UNL A   1      32.461  36.002  32.119  1.00  0.00    -0.246 OA
BRANCH   5   7
ATOM      7  C   UNL A   1      34.171  34.438  32.007  1.00  0.00     0.060 A 
ATOM      8  C   UNL A   1      34.263  32.665  32.437  1.00  0.00     0.016 A 
ATOM      9  C   UNL A   1      35.685  35.382  31.991  1.00  0.00     0.016 A 
ATOM     10  C   UNL A   1      35.894  31.880  32.676  1.00  0.00     0.010 A 
ATOM     11  C   UNL A   1      37.256  34.613  32.274  1.00  0.00     0.010 A 
ATOM     12  C   UNL A   1      37.386  32.909  32.709  1.00  0.00    -0.014 A 
BRANCH  12  13
ATOM     13  C   UNL A   1      38.598  32.412  33.440  1.00  0.00     0.031 A 
ATOM     14  C   UNL A   1      39.803  31.820  32.739  1.00  0.00     0.074 A 
ATOM     15  C   UNL A   1      38.710  32.782  34.724  1.00  0.00     0.049 A 
ATOM     16  N   UNL A   1      40.957  31.481  33.264  1.00  0.00    -0.248 NA
ATOM     17  C   UNL A   1      39.745  31.578  31.291  1.00  0.00     0.031 C 
ATOM     18  C   UNL A   1      37.635  33.425  35.453  1.00  0.00     0.029 A 
ATOM     19  N   UNL A   1      39.747  32.781  35.611  1.00  0.00    -0.354 N 
ATOM     20  C   UNL A   1      41.739  30.996  32.219  1.00  0.00     0.074 A 
ATOM     21  C   UNL A   1      40.944  31.086  31.023  1.00  0.00     0.031 C 
ATOM     22  C   UNL A   1      38.114  33.959  36.574  1.00  0.00     0.029 A 
ATOM     23  C   UNL A   1      39.452  33.449  36.777  1.00  0.00     0.049 A 
ATOM     24  H   UNL A   1      40.614  32.348  35.436  1.00  0.00     0.167 HD
ATOM     25  C   UNL A   1      42.993  30.485  32.263  1.00  0.00     0.034 A 
ATOM     26  C   UNL A   1      40.116  33.560  37.939  1.00  0.00     0.034 A 
ATOM     27  C   UNL A   1      43.724  30.336  33.496  1.00  0.00     0.049 A 
ATOM     28  C   UNL A   1      41.394  32.809  38.035  1.00  0.00     0.074 A 
ATOM     29  C   UNL A   1      44.928  29.695  33.721  1.00  0.00     0.029 A 
ATOM     30  N   UNL A   1      43.296  30.825  34.727  1.00  0.00    -0.354 N 
ATOM     31  N   UNL A   1      42.032  32.179  37.077  1.00  0.00    -0.248 NA
ATOM     32  C   UNL A   1      42.008  32.717  39.357  1.00  0.00     0.031 C 
ATOM     33  C   UNL A   1      45.182  29.723  35.097  1.00  0.00     0.029 A 
ATOM     34  C   UNL A   1      44.196  30.475  35.719  1.00  0.00     0.049 A 
ATOM     35  H   UNL A   1      42.472  31.344  34.872  1.00  0.00     0.167 HD
ATOM     36  C   UNL A   1      43.138  31.609  37.678  1.00  0.00     0.074 A 
ATOM     37  C   UNL A   1      43.078  31.982  39.083  1.00  0.00     0.031 C 
ATOM     38  C   UNL A   1      44.108  30.851  37.111  1.00  0.00     0.034 A 
BRANCH  25  39
ATOM     39  C   UNL A   1      43.559  29.918  30.978  1.00  0.00     0.023 A 
ATOM     40  C   UNL A   1      44.230  30.713  30.030  1.00  0.00     0.031 A 
ATOM     41  C   UNL A   1      43.350  28.562  30.665  1.00  0.00     0.131 A 
ATOM     42  C   UNL A   1      44.613  30.157  28.795  1.00  0.00     0.055 A 
ATOM     43  C   UNL A   1      43.796  28.000  29.467  1.00  0.00     0.041 A 
ATOM     44  F   UNL A   1      42.682  27.762  31.511  1.00  0.00    -0.206 F 
ATOM     45  C   UNL A   1      44.420  28.801  28.518  1.00  0.00     0.022 A 
BRANCH  42  46
ATOM     46  S   UNL A   1      45.251  31.255  27.496  1.00  0.00     0.124 S 
ATOM     47  O   UNL A   1      44.203  32.271  27.429  1.00  0.00    -0.237 OA
ATOM     48  O   UNL A   1      46.529  31.690  28.046  1.00  0.00    -0.237 OA
ATOM     49  O   UNL A   1      45.341  30.385  26.325  1.00  0.00    -0.744 OA
ENDBRANCH  42  46
ENDBRANCH  25  39
BRANCH  26  50
ATOM     50  C   UNL A   1      39.477  34.268  39.083  1.00  0.00     0.023 A 
ATOM     51  C   UNL A   1      38.574  33.614  39.929  1.00  0.00     0.031 A 
ATOM     52  C   UNL A   1      39.881  35.576  39.427  1.00  0.00     0.131 A 
ATOM     53  C   UNL A   1      38.140  34.253  41.104  1.00  0.00     0.055 A 
ATOM     54  C   UNL A   1      39.493  36.180  40.621  1.00  0.00     0.041 A 
ATOM     55  F   UNL A   1      40.752  36.242  38.651  1.00  0.00    -0.206 F 
ATOM     56  C   UNL A   1      38.616  35.517  41.469  1.00  0.00     0.022 A 
BRANCH  53  57
ATOM     57  S   UNL A   1      36.948  33.399  42.169  1.00  0.00     0.124 S 
ATOM     58  O   UNL A   1      37.817  32.516  42.939  1.00  0.00    -0.237 OA
ATOM     59  O   UNL A   1      36.347  34.509  42.902  1.00  0.00    -0.237 OA
ATOM     60  O   UNL A   1      36.060  32.731  41.219  1.00  0.00    -0.744 OA
ENDBRANCH  53  57
ENDBRANCH  26  50
BRANCH  38  61
ATOM     61  C   UNL A   1      45.235  30.453  38.011  1.00  0.00     0.023 A 
ATOM     62  C   UNL A   1      45.220  29.245  38.722  1.00  0.00     0.031 A 
ATOM     63  C   UNL A   1      46.329  31.321  38.170  1.00  0.00     0.131 A 
ATOM     64  C   UNL A   1      46.258  28.965  39.616  1.00  0.00     0.055 A 
ATOM     65  C   UNL A   1      47.393  31.001  39.005  1.00  0.00     0.041 A 
ATOM     66  F   UNL A   1      46.373  32.491  37.514  1.00  0.00    -0.206 F 
ATOM     67  C   UNL A   1      47.355  29.822  39.745  1.00  0.00     0.022 A 
BRANCH  64  68
ATOM     68  S   UNL A   1      46.104  27.511  40.684  1.00  0.00     0.124 S 
ATOM     69  O   UNL A   1      46.634  28.013  41.949  1.00  0.00    -0.237 OA
ATOM     70  O   UNL A   1      44.669  27.250  40.655  1.00  0.00    -0.237 OA
ATOM     71  O   UNL A   1      46.932  26.510  40.017  1.00  0.00    -0.744 OA
ENDBRANCH  64  68
ENDBRANCH  38  61
ENDBRANCH  12  13
ENDBRANCH   5   7
ENDBRANCH   4   5
ENDBRANCH   3   4
ENDBRANCH   2   3
ENDBRANCH   1   2
BRANCH   1  72
ATOM     72  C   UNL A   1      35.254  32.908  28.606  1.00  0.00     0.313 C 
ATOM     73  O   UNL A   1      36.310  33.308  29.078  1.00  0.00    -0.252 OA
BRANCH  72  74
ATOM     74  C   UNL A   1      34.852  31.361  28.490  1.00  0.00     0.131 C 
BRANCH  74  75
ATOM     75  C   UNL A   1      33.523  30.797  27.303  1.00  0.00     0.048 C 
BRANCH  75  76
ATOM     76  C   UNL A   1      32.897  28.790  26.683  1.00  0.00     0.161 C 
BRANCH  76  77
ATOM     77  O   UNL A   1      31.632  27.866  27.028  1.00  0.00    -0.379 OA
BRANCH  77  78
ATOM     78  C   UNL A   1      31.112  26.620  26.492  1.00  0.00     0.188 C 
BRANCH  78  79
ATOM     79  C   UNL A   1      30.590  26.505  25.045  1.00  0.00     0.184 C 
BRANCH  79  80
ATOM     80  O   UNL A   1      30.044  25.219  24.775  1.00  0.00    -0.394 OA
ATOM     81  H   UNL A   1      30.265  24.615  25.501  1.00  0.00     0.210 HD
ENDBRANCH  79  80
ENDBRANCH  78  79
ENDBRANCH  77  78
ENDBRANCH  76  77
ENDBRANCH  75  76
ENDBRANCH  74  75
BRANCH  74  82
ATOM     82  C   UNL A   1      36.031  30.387  28.710  1.00  0.00    -0.031 A 
ATOM     83  C   UNL A   1      36.258  29.714  29.927  1.00  0.00     0.005 A 
ATOM     84  C   UNL A   1      36.991  30.227  27.694  1.00  0.00     0.043 A 
ATOM     85  C   UNL A   1      37.430  28.983  30.154  1.00  0.00     0.003 A 
ATOM     86  C   UNL A   1      38.150  29.481  27.924  1.00  0.00     0.123 A 
ATOM     87  C   UNL A   1      38.383  28.870  29.150  1.00  0.00     0.039 A 
ATOM     88  F   UNL A   1      39.100  29.437  26.981  1.00  0.00    -0.207 F 
ENDBRANCH  74  82
ENDBRANCH  72  74
ENDBRANCH   1  72
TORSDOF 21
ENDMDL
