MODEL 1
REMARK VINA RESULT:     -11.5      0.000      0.000
REMARK SMILES C[NH2+][C@@]1(C(=O)OCCOC(=O)c2ccc(-c3c4nc(c(-c5cc(S(=O)(=O)[O-])ccc5F)c5ccc([nH]5)c(-c5cc(S(=O)(=O)[O-])ccc5F)c5nc(c(-c6cc(S(=O)(=O)[O-])ccc6F)c6ccc3[nH]6)C=C5)C=C4)cc2)CC[C@H]([NH+]2CC[NH+](C)CC2)C1
REMARK SMILES IDX 8 1 7 2 6 3 4 4 5 5 3 6 75 7 85 8 76 9 77 10 2 11 1 12 78 15
REMARK SMILES IDX 79 16 84 17 80 19 83 20 81 21 82 22 9 24 10 25 11 26 12 27
REMARK SMILES IDX 13 28 74 29 14 30 73 31 15 32 16 33 17 34 67 35 18 36 72 37
REMARK SMILES IDX 66 38 68 39 19 40 71 41 65 42 64 43 20 45 52 46 32 47 51 48
REMARK SMILES IDX 33 49 36 50 50 51 69 52 34 53 35 54 49 56 70 57 37 58 21 59
REMARK SMILES IDX 22 60 30 61 23 62 29 63 31 64 28 65 24 66 25 67 26 68 27 69
REMARK SMILES IDX 53 70 54 71 62 72 55 73 61 74 63 75 60 76 56 77 57 78 58 79
REMARK SMILES IDX 59 80 38 81 39 82 47 83 40 84 46 85 48 86 45 87 41 88 42 89
REMARK SMILES IDX 43 90 44 91
REMARK H PARENT 2 13 2 14 78 18 81 23 68 44 36 55
REMARK Flexibility Score: inf
ROOT
ATOM      1  C   UNL A   1      31.623  29.519  26.008  1.00  0.00     0.275 C 
ENDROOT
BRANCH   1   2
ATOM      2  C   UNL A   1      31.157  29.396  24.559  1.00  0.00     0.274 C 
BRANCH   2   3
ATOM      3  O   UNL A   1      31.163  28.005  24.179  1.00  0.00    -0.457 OA
BRANCH   3   4
ATOM      4  C   UNL A   1      31.249  27.754  22.841  1.00  0.00     0.368 C 
ATOM      5  O   UNL A   1      30.432  28.176  22.030  1.00  0.00    -0.245 OA
BRANCH   4   6
ATOM      6  C   UNL A   1      32.517  26.893  22.482  1.00  0.00     0.200 C 
ATOM      7  C   UNL A   1      32.046  25.704  21.627  1.00  0.00     0.087 C 
ATOM      8  C   UNL A   1      33.095  26.193  23.731  1.00  0.00     0.146 C 
ATOM      9  C   UNL A   1      31.374  24.800  22.655  1.00  0.00     0.072 C 
ATOM     10  C   UNL A   1      32.294  24.877  23.887  1.00  0.00     0.191 C 
BRANCH   6  11
ATOM     11  N   UNL A   1      33.485  27.808  21.845  1.00  0.00    -0.334 N 
ATOM     12  C   UNL A   1      34.196  28.734  22.714  1.00  0.00     0.331 C 
ATOM     13  H   UNL A   1      34.182  27.235  21.371  1.00  0.00     0.347 HD
ATOM     14  H   UNL A   1      32.923  28.400  21.233  1.00  0.00     0.347 HD
ENDBRANCH   6  11
BRANCH  10  15
ATOM     15  N   UNL A   1      31.758  24.589  25.222  1.00  0.00    -0.323 N 
ATOM     16  C   UNL A   1      32.766  24.592  26.294  1.00  0.00     0.324 C 
ATOM     17  C   UNL A   1      30.897  23.411  25.391  1.00  0.00     0.324 C 
ATOM     18  H   UNL A   1      31.139  25.394  25.311  1.00  0.00     0.348 HD
ATOM     19  C   UNL A   1      33.531  23.259  26.500  1.00  0.00     0.324 C 
ATOM     20  C   UNL A   1      31.640  22.069  25.511  1.00  0.00     0.324 C 
ATOM     21  N   UNL A   1      32.678  22.056  26.557  1.00  0.00    -0.328 N 
ATOM     22  C   UNL A   1      33.494  20.848  26.429  1.00  0.00     0.333 C 
ATOM     23  H   UNL A   1      32.210  22.059  27.463  1.00  0.00     0.348 HD
ENDBRANCH  10  15
ENDBRANCH   4   6
ENDBRANCH   3   4
ENDBRANCH   2   3
ENDBRANCH   1   2
BRANCH   1  24
ATOM     24  O   UNL A   1      32.954  30.058  26.000  1.00  0.00    -0.458 OA
BRANCH  24  25
ATOM     25  C   UNL A   1      33.162  31.047  26.899  1.00  0.00     0.338 C 
ATOM     26  O   UNL A   1      32.351  31.831  27.355  1.00  0.00    -0.246 OA
BRANCH  25  27
ATOM     27  C   UNL A   1      34.519  30.883  27.424  1.00  0.00     0.060 A 
ATOM     28  C   UNL A   1      34.961  29.584  27.677  1.00  0.00     0.016 A 
ATOM     29  C   UNL A   1      35.302  31.980  27.761  1.00  0.00     0.016 A 
ATOM     30  C   UNL A   1      36.137  29.374  28.384  1.00  0.00     0.010 A 
ATOM     31  C   UNL A   1      36.540  31.759  28.370  1.00  0.00     0.010 A 
ATOM     32  C   UNL A   1      36.952  30.458  28.724  1.00  0.00    -0.014 A 
BRANCH  32  33
ATOM     33  C   UNL A   1      38.208  30.252  29.496  1.00  0.00     0.031 A 
ATOM     34  C   UNL A   1      39.297  29.395  28.910  1.00  0.00     0.074 A 
ATOM     35  C   UNL A   1      38.373  30.817  30.708  1.00  0.00     0.049 A 
ATOM     36  N   UNL A   1      40.326  28.843  29.497  1.00  0.00    -0.248 NA
ATOM     37  C   UNL A   1      39.190  29.098  27.474  1.00  0.00     0.031 C 
ATOM     38  C   UNL A   1      37.429  31.732  31.357  1.00  0.00     0.029 A 
ATOM     39  N   UNL A   1      39.394  30.701  31.617  1.00  0.00    -0.354 N 
ATOM     40  C   UNL A   1      40.948  28.070  28.521  1.00  0.00     0.074 A 
ATOM     41  C   UNL A   1      40.177  28.229  27.305  1.00  0.00     0.031 C 
ATOM     42  C   UNL A   1      37.926  32.109  32.544  1.00  0.00     0.029 A 
ATOM     43  C   UNL A   1      39.166  31.385  32.789  1.00  0.00     0.049 A 
ATOM     44  H   UNL A   1      40.211  30.178  31.447  1.00  0.00     0.167 HD
ATOM     45  C   UNL A   1      42.052  27.291  28.642  1.00  0.00     0.034 A 
ATOM     46  C   UNL A   1      39.842  31.380  33.954  1.00  0.00     0.034 A 
ATOM     47  C   UNL A   1      42.826  27.196  29.857  1.00  0.00     0.049 A 
ATOM     48  C   UNL A   1      41.051  30.493  34.076  1.00  0.00     0.074 A 
ATOM     49  C   UNL A   1      43.959  26.441  30.107  1.00  0.00     0.029 A 
ATOM     50  N   UNL A   1      42.552  27.898  31.026  1.00  0.00    -0.354 N 
ATOM     51  N   UNL A   1      41.572  29.680  33.185  1.00  0.00    -0.248 NA
ATOM     52  C   UNL A   1      41.752  30.506  35.366  1.00  0.00     0.031 C 
ATOM     53  C   UNL A   1      44.342  26.652  31.439  1.00  0.00     0.029 A 
ATOM     54  C   UNL A   1      43.486  27.586  32.001  1.00  0.00     0.049 A 
ATOM     55  H   UNL A   1      41.804  28.526  31.143  1.00  0.00     0.167 HD
ATOM     56  C   UNL A   1      42.666  29.089  33.806  1.00  0.00     0.074 A 
ATOM     57  C   UNL A   1      42.744  29.659  35.138  1.00  0.00     0.031 C 
ATOM     58  C   UNL A   1      43.529  28.156  33.326  1.00  0.00     0.034 A 
BRANCH  45  59
ATOM     59  C   UNL A   1      42.429  26.431  27.458  1.00  0.00     0.023 A 
ATOM     60  C   UNL A   1      41.987  25.104  27.320  1.00  0.00     0.031 A 
ATOM     61  C   UNL A   1      43.295  26.939  26.472  1.00  0.00     0.131 A 
ATOM     62  C   UNL A   1      42.471  24.310  26.268  1.00  0.00     0.055 A 
ATOM     63  C   UNL A   1      43.710  26.169  25.383  1.00  0.00     0.041 A 
ATOM     64  F   UNL A   1      43.771  28.192  26.561  1.00  0.00    -0.206 F 
ATOM     65  C   UNL A   1      43.311  24.841  25.285  1.00  0.00     0.022 A 
BRANCH  62  66
ATOM     66  S   UNL A   1      42.106  22.533  26.282  1.00  0.00     0.124 S 
ATOM     67  O   UNL A   1      40.649  22.529  26.170  1.00  0.00    -0.237 OA
ATOM     68  O   UNL A   1      42.838  22.051  25.116  1.00  0.00    -0.237 OA
ATOM     69  O   UNL A   1      42.625  22.086  27.574  1.00  0.00    -0.744 OA
ENDBRANCH  62  66
ENDBRANCH  45  59
BRANCH  46  70
ATOM     70  C   UNL A   1      39.344  32.171  35.115  1.00  0.00     0.023 A 
ATOM     71  C   UNL A   1      39.806  33.473  35.359  1.00  0.00     0.031 A 
ATOM     72  C   UNL A   1      38.403  31.627  36.009  1.00  0.00     0.131 A 
ATOM     73  C   UNL A   1      39.345  34.179  36.482  1.00  0.00     0.055 A 
ATOM     74  C   UNL A   1      37.908  32.353  37.094  1.00  0.00     0.041 A 
ATOM     75  F   UNL A   1      37.928  30.385  35.823  1.00  0.00    -0.206 F 
ATOM     76  C   UNL A   1      38.388  33.635  37.341  1.00  0.00     0.022 A 
BRANCH  73  77
ATOM     77  S   UNL A   1      40.064  35.805  36.842  1.00  0.00     0.124 S 
ATOM     78  O   UNL A   1      41.485  35.488  36.943  1.00  0.00    -0.237 OA
ATOM     79  O   UNL A   1      39.661  36.581  35.675  1.00  0.00    -0.237 OA
ATOM     80  O   UNL A   1      39.421  36.192  38.096  1.00  0.00    -0.744 OA
ENDBRANCH  73  77
ENDBRANCH  46  70
BRANCH  58  81
ATOM     81  C   UNL A   1      44.642  27.736  34.249  1.00  0.00     0.023 A 
ATOM     82  C   UNL A   1      44.481  26.677  35.157  1.00  0.00     0.031 A 
ATOM     83  C   UNL A   1      45.865  28.427  34.239  1.00  0.00     0.131 A 
ATOM     84  C   UNL A   1      45.511  26.373  36.060  1.00  0.00     0.055 A 
ATOM     85  C   UNL A   1      46.905  28.087  35.103  1.00  0.00     0.041 A 
ATOM     86  F   UNL A   1      46.066  29.448  33.390  1.00  0.00    -0.206 F 
ATOM     87  C   UNL A   1      46.726  27.063  36.030  1.00  0.00     0.022 A 
BRANCH  84  88
ATOM     88  S   UNL A   1      45.209  25.119  37.336  1.00  0.00     0.124 S 
ATOM     89  O   UNL A   1      46.054  25.589  38.429  1.00  0.00    -0.237 OA
ATOM     90  O   UNL A   1      43.770  25.230  37.549  1.00  0.00    -0.237 OA
ATOM     91  O   UNL A   1      45.647  23.876  36.704  1.00  0.00    -0.744 OA
ENDBRANCH  84  88
ENDBRANCH  58  81
ENDBRANCH  32  33
ENDBRANCH  25  27
ENDBRANCH  24  25
ENDBRANCH   1  24
TORSDOF 16
ENDMDL
MODEL 2
REMARK VINA RESULT:     -11.4      4.701      9.864
REMARK SMILES C[NH2+][C@@]1(C(=O)OCCOC(=O)c2ccc(-c3c4nc(c(-c5cc(S(=O)(=O)[O-])ccc5F)c5ccc([nH]5)c(-c5cc(S(=O)(=O)[O-])ccc5F)c5nc(c(-c6cc(S(=O)(=O)[O-])ccc6F)c6ccc3[nH]6)C=C5)C=C4)cc2)CC[C@H]([NH+]2CC[NH+](C)CC2)C1
REMARK SMILES IDX 8 1 7 2 6 3 4 4 5 5 3 6 75 7 85 8 76 9 77 10 2 11 1 12 78 15
REMARK SMILES IDX 79 16 84 17 80 19 83 20 81 21 82 22 9 24 10 25 11 26 12 27
REMARK SMILES IDX 13 28 74 29 14 30 73 31 15 32 16 33 17 34 67 35 18 36 72 37
REMARK SMILES IDX 66 38 68 39 19 40 71 41 65 42 64 43 20 45 52 46 32 47 51 48
REMARK SMILES IDX 33 49 36 50 50 51 69 52 34 53 35 54 49 56 70 57 37 58 21 59
REMARK SMILES IDX 22 60 30 61 23 62 29 63 31 64 28 65 24 66 25 67 26 68 27 69
REMARK SMILES IDX 53 70 54 71 62 72 55 73 61 74 63 75 60 76 56 77 57 78 58 79
REMARK SMILES IDX 59 80 38 81 39 82 47 83 40 84 46 85 48 86 45 87 41 88 42 89
REMARK SMILES IDX 43 90 44 91
REMARK H PARENT 2 13 2 14 78 18 81 23 68 44 36 55
REMARK Flexibility Score: inf
ROOT
ATOM      1  C   UNL A   1      35.936  20.949  24.948  1.00  0.00     0.275 C 
ENDROOT
BRANCH   1   2
ATOM      2  C   UNL A   1      34.581  21.354  25.527  1.00  0.00     0.274 C 
BRANCH   2   3
ATOM      3  O   UNL A   1      34.097  22.516  24.823  1.00  0.00    -0.457 OA
BRANCH   3   4
ATOM      4  C   UNL A   1      32.911  22.363  24.168  1.00  0.00     0.368 C 
ATOM      5  O   UNL A   1      32.785  21.657  23.173  1.00  0.00    -0.245 OA
BRANCH   4   6
ATOM      6  C   UNL A   1      31.748  23.172  24.853  1.00  0.00     0.200 C 
ATOM      7  C   UNL A   1      30.856  23.743  23.738  1.00  0.00     0.087 C 
ATOM      8  C   UNL A   1      32.278  24.450  25.539  1.00  0.00     0.146 C 
ATOM      9  C   UNL A   1      31.705  24.883  23.185  1.00  0.00     0.072 C 
ATOM     10  C   UNL A   1      32.327  25.533  24.433  1.00  0.00     0.191 C 
BRANCH   6  11
ATOM     11  N   UNL A   1      31.091  22.250  25.802  1.00  0.00    -0.334 N 
ATOM     12  C   UNL A   1      30.262  22.843  26.841  1.00  0.00     0.331 C 
ATOM     13  H   UNL A   1      30.499  21.622  25.258  1.00  0.00     0.347 HD
ATOM     14  H   UNL A   1      31.857  21.798  26.302  1.00  0.00     0.347 HD
ENDBRANCH   6  11
BRANCH  10  15
ATOM     15  N   UNL A   1      33.574  26.298  24.318  1.00  0.00    -0.323 N 
ATOM     16  C   UNL A   1      34.197  26.641  25.606  1.00  0.00     0.324 C 
ATOM     17  C   UNL A   1      33.588  27.488  23.458  1.00  0.00     0.324 C 
ATOM     18  H   UNL A   1      34.132  25.600  23.826  1.00  0.00     0.348 HD
ATOM     19  C   UNL A   1      33.669  27.931  26.284  1.00  0.00     0.324 C 
ATOM     20  C   UNL A   1      32.988  28.758  24.088  1.00  0.00     0.324 C 
ATOM     21  N   UNL A   1      33.572  29.105  25.395  1.00  0.00    -0.328 N 
ATOM     22  C   UNL A   1      32.776  30.158  26.028  1.00  0.00     0.333 C 
ATOM     23  H   UNL A   1      34.521  29.443  25.235  1.00  0.00     0.348 HD
ENDBRANCH  10  15
ENDBRANCH   4   6
ENDBRANCH   3   4
ENDBRANCH   2   3
ENDBRANCH   1   2
BRANCH   1  24
ATOM     24  O   UNL A   1      36.888  21.966  25.297  1.00  0.00    -0.458 OA
BRANCH  24  25
ATOM     25  C   UNL A   1      38.120  21.497  25.600  1.00  0.00     0.338 C 
ATOM     26  O   UNL A   1      38.647  20.468  25.219  1.00  0.00    -0.246 OA
BRANCH  25  27
ATOM     27  C   UNL A   1      38.833  22.564  26.305  1.00  0.00     0.060 A 
ATOM     28  C   UNL A   1      38.365  23.868  26.146  1.00  0.00     0.016 A 
ATOM     29  C   UNL A   1      39.997  22.306  27.019  1.00  0.00     0.016 A 
ATOM     30  C   UNL A   1      39.124  24.939  26.596  1.00  0.00     0.010 A 
ATOM     31  C   UNL A   1      40.698  23.382  27.570  1.00  0.00     0.010 A 
ATOM     32  C   UNL A   1      40.292  24.711  27.330  1.00  0.00    -0.014 A 
BRANCH  32  33
ATOM     33  C   UNL A   1      41.127  25.847  27.805  1.00  0.00     0.031 A 
ATOM     34  C   UNL A   1      40.499  26.910  28.665  1.00  0.00     0.074 A 
ATOM     35  C   UNL A   1      42.429  25.936  27.468  1.00  0.00     0.049 A 
ATOM     36  N   UNL A   1      40.927  28.112  28.948  1.00  0.00    -0.248 NA
ATOM     37  C   UNL A   1      39.195  26.580  29.260  1.00  0.00     0.031 C 
ATOM     38  C   UNL A   1      43.180  24.935  26.705  1.00  0.00     0.029 A 
ATOM     39  N   UNL A   1      43.353  26.919  27.719  1.00  0.00    -0.354 N 
ATOM     40  C   UNL A   1      39.913  28.710  29.689  1.00  0.00     0.074 A 
ATOM     41  C   UNL A   1      38.850  27.735  29.812  1.00  0.00     0.031 C 
ATOM     42  C   UNL A   1      44.450  25.345  26.572  1.00  0.00     0.029 A 
ATOM     43  C   UNL A   1      44.579  26.680  27.143  1.00  0.00     0.049 A 
ATOM     44  H   UNL A   1      43.157  27.719  28.259  1.00  0.00     0.167 HD
ATOM     45  C   UNL A   1      39.876  29.965  30.204  1.00  0.00     0.034 A 
ATOM     46  C   UNL A   1      45.664  27.469  27.028  1.00  0.00     0.034 A 
ATOM     47  C   UNL A   1      40.976  30.895  30.108  1.00  0.00     0.049 A 
ATOM     48  C   UNL A   1      45.596  28.865  27.587  1.00  0.00     0.074 A 
ATOM     49  C   UNL A   1      41.061  32.192  30.584  1.00  0.00     0.029 A 
ATOM     50  N   UNL A   1      42.197  30.615  29.504  1.00  0.00    -0.354 N 
ATOM     51  N   UNL A   1      44.596  29.464  28.191  1.00  0.00    -0.248 NA
ATOM     52  C   UNL A   1      46.795  29.697  27.430  1.00  0.00     0.031 C 
ATOM     53  C   UNL A   1      42.313  32.710  30.228  1.00  0.00     0.029 A 
ATOM     54  C   UNL A   1      43.035  31.716  29.586  1.00  0.00     0.049 A 
ATOM     55  H   UNL A   1      42.433  29.758  29.081  1.00  0.00     0.167 HD
ATOM     56  C   UNL A   1      45.047  30.743  28.493  1.00  0.00     0.074 A 
ATOM     57  C   UNL A   1      46.419  30.819  28.025  1.00  0.00     0.031 C 
ATOM     58  C   UNL A   1      44.392  31.768  29.095  1.00  0.00     0.034 A 
BRANCH  45  59
ATOM     59  C   UNL A   1      38.583  30.417  30.842  1.00  0.00     0.023 A 
ATOM     60  C   UNL A   1      37.533  30.981  30.096  1.00  0.00     0.031 A 
ATOM     61  C   UNL A   1      38.421  30.326  32.237  1.00  0.00     0.131 A 
ATOM     62  C   UNL A   1      36.407  31.501  30.754  1.00  0.00     0.055 A 
ATOM     63  C   UNL A   1      37.263  30.773  32.878  1.00  0.00     0.041 A 
ATOM     64  F   UNL A   1      39.398  29.819  33.006  1.00  0.00    -0.206 F 
ATOM     65  C   UNL A   1      36.254  31.379  32.139  1.00  0.00     0.022 A 
BRANCH  62  66
ATOM     66  S   UNL A   1      35.212  32.472  29.795  1.00  0.00     0.124 S 
ATOM     67  O   UNL A   1      34.234  32.832  30.820  1.00  0.00    -0.237 OA
ATOM     68  O   UNL A   1      36.031  33.564  29.283  1.00  0.00    -0.237 OA
ATOM     69  O   UNL A   1      34.730  31.528  28.789  1.00  0.00    -0.744 OA
ENDBRANCH  62  66
ENDBRANCH  45  59
BRANCH  46  70
ATOM     70  C   UNL A   1      46.866  26.991  26.287  1.00  0.00     0.023 A 
ATOM     71  C   UNL A   1      47.940  26.384  26.958  1.00  0.00     0.031 A 
ATOM     72  C   UNL A   1      46.964  27.147  24.892  1.00  0.00     0.131 A 
ATOM     73  C   UNL A   1      49.073  25.978  26.236  1.00  0.00     0.055 A 
ATOM     74  C   UNL A   1      48.071  26.694  24.173  1.00  0.00     0.041 A 
ATOM     75  F   UNL A   1      45.966  27.722  24.201  1.00  0.00    -0.206 F 
ATOM     76  C   UNL A   1      49.140  26.113  24.848  1.00  0.00     0.022 A 
BRANCH  73  77
ATOM     77  S   UNL A   1      50.497  25.322  27.150  1.00  0.00     0.124 S 
ATOM     78  O   UNL A   1      50.902  26.479  27.942  1.00  0.00    -0.237 OA
ATOM     79  O   UNL A   1      49.899  24.216  27.890  1.00  0.00    -0.237 OA
ATOM     80  O   UNL A   1      51.428  24.931  26.095  1.00  0.00    -0.744 OA
ENDBRANCH  73  77
ENDBRANCH  46  70
BRANCH  58  81
ATOM     81  C   UNL A   1      45.178  33.035  29.305  1.00  0.00     0.023 A 
ATOM     82  C   UNL A   1      45.141  34.085  28.373  1.00  0.00     0.031 A 
ATOM     83  C   UNL A   1      45.999  33.175  30.437  1.00  0.00     0.131 A 
ATOM     84  C   UNL A   1      45.955  35.211  28.562  1.00  0.00     0.055 A 
ATOM     85  C   UNL A   1      46.767  34.321  30.646  1.00  0.00     0.041 A 
ATOM     86  F   UNL A   1      46.069  32.198  31.356  1.00  0.00    -0.206 F 
ATOM     87  C   UNL A   1      46.758  35.341  29.698  1.00  0.00     0.022 A 
BRANCH  84  88
ATOM     88  S   UNL A   1      46.018  36.469  27.256  1.00  0.00     0.124 S 
ATOM     89  O   UNL A   1      44.614  36.578  26.873  1.00  0.00    -0.237 OA
ATOM     90  O   UNL A   1      46.580  37.619  27.956  1.00  0.00    -0.237 OA
ATOM     91  O   UNL A   1      46.891  35.871  26.247  1.00  0.00    -0.744 OA
ENDBRANCH  84  88
ENDBRANCH  58  81
ENDBRANCH  32  33
ENDBRANCH  25  27
ENDBRANCH  24  25
ENDBRANCH   1  24
TORSDOF 16
ENDMDL
MODEL 3
REMARK VINA RESULT:     -11.3      5.118     10.011
REMARK SMILES C[NH2+][C@@]1(C(=O)OCCOC(=O)c2ccc(-c3c4nc(c(-c5cc(S(=O)(=O)[O-])ccc5F)c5ccc([nH]5)c(-c5cc(S(=O)(=O)[O-])ccc5F)c5nc(c(-c6cc(S(=O)(=O)[O-])ccc6F)c6ccc3[nH]6)C=C5)C=C4)cc2)CC[C@H]([NH+]2CC[NH+](C)CC2)C1
REMARK SMILES IDX 8 1 7 2 6 3 4 4 5 5 3 6 75 7 85 8 76 9 77 10 2 11 1 12 78 15
REMARK SMILES IDX 79 16 84 17 80 19 83 20 81 21 82 22 9 24 10 25 11 26 12 27
REMARK SMILES IDX 13 28 74 29 14 30 73 31 15 32 16 33 17 34 67 35 18 36 72 37
REMARK SMILES IDX 66 38 68 39 19 40 71 41 65 42 64 43 20 45 52 46 32 47 51 48
REMARK SMILES IDX 33 49 36 50 50 51 69 52 34 53 35 54 49 56 70 57 37 58 21 59
REMARK SMILES IDX 22 60 30 61 23 62 29 63 31 64 28 65 24 66 25 67 26 68 27 69
REMARK SMILES IDX 53 70 54 71 62 72 55 73 61 74 63 75 60 76 56 77 57 78 58 79
REMARK SMILES IDX 59 80 38 81 39 82 47 83 40 84 46 85 48 86 45 87 41 88 42 89
REMARK SMILES IDX 43 90 44 91
REMARK H PARENT 2 13 2 14 78 18 81 23 68 44 36 55
REMARK Flexibility Score: inf
ROOT
ATOM      1  C   UNL A   1      36.239  20.822  24.934  1.00  0.00     0.275 C 
ENDROOT
BRANCH   1   2
ATOM      2  C   UNL A   1      34.805  21.083  25.392  1.00  0.00     0.274 C 
BRANCH   2   3
ATOM      3  O   UNL A   1      34.184  22.018  24.486  1.00  0.00    -0.457 OA
BRANCH   3   4
ATOM      4  C   UNL A   1      33.674  23.148  25.054  1.00  0.00     0.368 C 
ATOM      5  O   UNL A   1      34.333  23.885  25.781  1.00  0.00    -0.245 OA
BRANCH   4   6
ATOM      6  C   UNL A   1      32.174  23.389  24.645  1.00  0.00     0.200 C 
ATOM      7  C   UNL A   1      32.081  23.257  23.115  1.00  0.00     0.087 C 
ATOM      8  C   UNL A   1      31.756  24.858  24.875  1.00  0.00     0.146 C 
ATOM      9  C   UNL A   1      32.717  24.555  22.630  1.00  0.00     0.072 C 
ATOM     10  C   UNL A   1      32.186  25.625  23.600  1.00  0.00     0.191 C 
BRANCH   6  11
ATOM     11  N   UNL A   1      31.361  22.438  25.430  1.00  0.00    -0.334 N 
ATOM     12  C   UNL A   1      30.933  22.864  26.754  1.00  0.00     0.331 C 
ATOM     13  H   UNL A   1      30.522  22.232  24.888  1.00  0.00     0.347 HD
ATOM     14  H   UNL A   1      31.976  21.642  25.595  1.00  0.00     0.347 HD
ENDBRANCH   6  11
BRANCH  10  15
ATOM     15  N   UNL A   1      32.938  26.868  23.804  1.00  0.00    -0.323 N 
ATOM     16  C   UNL A   1      32.634  27.561  25.066  1.00  0.00     0.324 C 
ATOM     17  C   UNL A   1      32.961  27.857  22.719  1.00  0.00     0.324 C 
ATOM     18  H   UNL A   1      33.877  26.472  23.831  1.00  0.00     0.348 HD
ATOM     19  C   UNL A   1      31.407  28.508  25.033  1.00  0.00     0.324 C 
ATOM     20  C   UNL A   1      31.710  28.749  22.620  1.00  0.00     0.324 C 
ATOM     21  N   UNL A   1      31.365  29.429  23.881  1.00  0.00    -0.328 N 
ATOM     22  C   UNL A   1      30.039  30.040  23.766  1.00  0.00     0.333 C 
ATOM     23  H   UNL A   1      32.063  30.155  24.047  1.00  0.00     0.348 HD
ENDBRANCH  10  15
ENDBRANCH   4   6
ENDBRANCH   3   4
ENDBRANCH   2   3
ENDBRANCH   1   2
BRANCH   1  24
ATOM     24  O   UNL A   1      37.075  21.847  25.493  1.00  0.00    -0.458 OA
BRANCH  24  25
ATOM     25  C   UNL A   1      38.341  21.453  25.758  1.00  0.00     0.338 C 
ATOM     26  O   UNL A   1      38.914  20.453  25.368  1.00  0.00    -0.246 OA
BRANCH  25  27
ATOM     27  C   UNL A   1      39.014  22.567  26.431  1.00  0.00     0.060 A 
ATOM     28  C   UNL A   1      38.570  23.857  26.144  1.00  0.00     0.016 A 
ATOM     29  C   UNL A   1      40.123  22.357  27.241  1.00  0.00     0.016 A 
ATOM     30  C   UNL A   1      39.307  24.956  26.565  1.00  0.00     0.010 A 
ATOM     31  C   UNL A   1      40.795  23.468  27.758  1.00  0.00     0.010 A 
ATOM     32  C   UNL A   1      40.419  24.777  27.394  1.00  0.00    -0.014 A 
BRANCH  32  33
ATOM     33  C   UNL A   1      41.230  25.942  27.841  1.00  0.00     0.031 A 
ATOM     34  C   UNL A   1      40.589  26.995  28.703  1.00  0.00     0.074 A 
ATOM     35  C   UNL A   1      42.522  26.064  27.476  1.00  0.00     0.049 A 
ATOM     36  N   UNL A   1      40.988  28.211  28.965  1.00  0.00    -0.248 NA
ATOM     37  C   UNL A   1      39.307  26.633  29.327  1.00  0.00     0.031 C 
ATOM     38  C   UNL A   1      43.287  25.078  26.708  1.00  0.00     0.029 A 
ATOM     39  N   UNL A   1      43.422  27.076  27.699  1.00  0.00    -0.354 N 
ATOM     40  C   UNL A   1      39.972  28.788  29.722  1.00  0.00     0.074 A 
ATOM     41  C   UNL A   1      38.941  27.783  29.875  1.00  0.00     0.031 C 
ATOM     42  C   UNL A   1      44.542  25.523  26.546  1.00  0.00     0.029 A 
ATOM     43  C   UNL A   1      44.643  26.866  27.101  1.00  0.00     0.049 A 
ATOM     44  H   UNL A   1      43.214  27.875  28.235  1.00  0.00     0.167 HD
ATOM     45  C   UNL A   1      39.909  30.046  30.225  1.00  0.00     0.034 A 
ATOM     46  C   UNL A   1      45.702  27.685  26.956  1.00  0.00     0.034 A 
ATOM     47  C   UNL A   1      40.980  31.006  30.097  1.00  0.00     0.049 A 
ATOM     48  C   UNL A   1      45.605  29.084  27.502  1.00  0.00     0.074 A 
ATOM     49  C   UNL A   1      41.036  32.310  30.559  1.00  0.00     0.029 A 
ATOM     50  N   UNL A   1      42.196  30.755  29.471  1.00  0.00    -0.354 N 
ATOM     51  N   UNL A   1      44.600  29.660  28.122  1.00  0.00    -0.248 NA
ATOM     52  C   UNL A   1      46.776  29.949  27.313  1.00  0.00     0.031 C 
ATOM     53  C   UNL A   1      42.266  32.860  30.172  1.00  0.00     0.029 A 
ATOM     54  C   UNL A   1      43.003  31.881  29.525  1.00  0.00     0.049 A 
ATOM     55  H   UNL A   1      42.448  29.902  29.052  1.00  0.00     0.167 HD
ATOM     56  C   UNL A   1      45.020  30.955  28.401  1.00  0.00     0.074 A 
ATOM     57  C   UNL A   1      46.379  31.066  27.905  1.00  0.00     0.031 C 
ATOM     58  C   UNL A   1      44.347  31.967  29.007  1.00  0.00     0.034 A 
BRANCH  45  59
ATOM     59  C   UNL A   1      38.616  30.467  30.884  1.00  0.00     0.023 A 
ATOM     60  C   UNL A   1      37.570  31.074  30.169  1.00  0.00     0.031 A 
ATOM     61  C   UNL A   1      38.452  30.302  32.273  1.00  0.00     0.131 A 
ATOM     62  C   UNL A   1      36.444  31.561  30.852  1.00  0.00     0.055 A 
ATOM     63  C   UNL A   1      37.295  30.717  32.935  1.00  0.00     0.041 A 
ATOM     64  F   UNL A   1      39.426  29.751  33.014  1.00  0.00    -0.206 F 
ATOM     65  C   UNL A   1      36.289  31.366  32.228  1.00  0.00     0.022 A 
BRANCH  62  66
ATOM     66  S   UNL A   1      35.253  32.586  29.945  1.00  0.00     0.124 S 
ATOM     67  O   UNL A   1      34.786  31.657  28.918  1.00  0.00    -0.237 OA
ATOM     68  O   UNL A   1      34.285  32.935  30.978  1.00  0.00    -0.237 OA
ATOM     69  O   UNL A   1      36.063  33.697  29.448  1.00  0.00    -0.744 OA
ENDBRANCH  62  66
ENDBRANCH  45  59
BRANCH  46  70
ATOM     70  C   UNL A   1      46.902  27.234  26.196  1.00  0.00     0.023 A 
ATOM     71  C   UNL A   1      47.113  27.633  24.866  1.00  0.00     0.031 A 
ATOM     72  C   UNL A   1      47.854  26.382  26.787  1.00  0.00     0.131 A 
ATOM     73  C   UNL A   1      48.234  27.162  24.165  1.00  0.00     0.055 A 
ATOM     74  C   UNL A   1      48.994  25.959  26.102  1.00  0.00     0.041 A 
ATOM     75  F   UNL A   1      47.701  25.970  28.055  1.00  0.00    -0.206 F 
ATOM     76  C   UNL A   1      49.184  26.342  24.778  1.00  0.00     0.022 A 
BRANCH  73  77
ATOM     77  S   UNL A   1      48.405  27.588  22.410  1.00  0.00     0.124 S 
ATOM     78  O   UNL A   1      49.623  28.391  22.415  1.00  0.00    -0.237 OA
ATOM     79  O   UNL A   1      48.506  26.273  21.787  1.00  0.00    -0.237 OA
ATOM     80  O   UNL A   1      47.175  28.321  22.116  1.00  0.00    -0.744 OA
ENDBRANCH  73  77
ENDBRANCH  46  70
BRANCH  58  81
ATOM     81  C   UNL A   1      45.101  33.258  29.189  1.00  0.00     0.023 A 
ATOM     82  C   UNL A   1      45.055  34.276  28.223  1.00  0.00     0.031 A 
ATOM     83  C   UNL A   1      45.899  33.454  30.329  1.00  0.00     0.131 A 
ATOM     84  C   UNL A   1      45.840  35.427  28.388  1.00  0.00     0.055 A 
ATOM     85  C   UNL A   1      46.637  34.623  30.513  1.00  0.00     0.041 A 
ATOM     86  F   UNL A   1      45.976  32.508  31.279  1.00  0.00    -0.206 F 
ATOM     87  C   UNL A   1      46.621  35.612  29.533  1.00  0.00     0.022 A 
BRANCH  84  88
ATOM     88  S   UNL A   1      45.897  36.643  27.043  1.00  0.00     0.124 S 
ATOM     89  O   UNL A   1      44.508  37.090  26.981  1.00  0.00    -0.237 OA
ATOM     90  O   UNL A   1      46.858  37.620  27.545  1.00  0.00    -0.237 OA
ATOM     91  O   UNL A   1      46.349  35.862  25.894  1.00  0.00    -0.744 OA
ENDBRANCH  84  88
ENDBRANCH  58  81
ENDBRANCH  32  33
ENDBRANCH  25  27
ENDBRANCH  24  25
ENDBRANCH   1  24
TORSDOF 16
ENDMDL
