MODEL 1
REMARK VINA RESULT:     -12.6      0.000      0.000
REMARK SMILES C[C@@H](C(=O)OCCOC(=O)c1ccc(-c2c3nc(c(-c4cc(S(=O)(=O)[O-])ccc4F)c4ccc([nH]4)c(-c4cc(S(=O)(=O)[O-])ccc4F)c4nc(c(-c5cc(S(=O)(=O)[O-])ccc5F)c5ccc2[nH]5)C=C4)C=C3)cc1)[N@@H+](C)Cc1ccc(-c2ccccc2)cc1
REMARK SMILES IDX 6 1 5 2 3 3 4 4 2 5 1 6 74 7 75 8 76 10 77 11 78 12 88 13
REMARK SMILES IDX 79 14 87 15 80 16 81 17 82 18 86 19 83 20 85 21 84 22 7 23
REMARK SMILES IDX 8 24 9 25 10 26 11 27 12 28 73 29 13 30 72 31 14 32 15 33
REMARK SMILES IDX 16 34 66 35 17 36 71 37 65 38 67 39 18 40 70 41 64 42 63 43
REMARK SMILES IDX 19 45 51 46 31 47 50 48 32 49 35 50 49 51 68 52 33 53 34 54
REMARK SMILES IDX 48 56 69 57 36 58 20 59 21 60 29 61 22 62 28 63 30 64 27 65
REMARK SMILES IDX 23 66 24 67 25 68 26 69 52 70 53 71 61 72 54 73 60 74 62 75
REMARK SMILES IDX 59 76 55 77 56 78 57 79 58 80 37 81 38 82 46 83 39 84 45 85
REMARK SMILES IDX 47 86 44 87 40 88 41 89 42 90 43 91
REMARK H PARENT 74 9 67 44 35 55
REMARK Flexibility Score: inf
ROOT
ATOM      1  C   UNL A   1      34.747  20.696  25.192  1.00  0.00     0.274 C 
ENDROOT
BRANCH   1   2
ATOM      2  O   UNL A   1      34.034  21.449  26.192  1.00  0.00    -0.458 OA
BRANCH   2   3
ATOM      3  C   UNL A   1      32.798  21.917  25.863  1.00  0.00     0.364 C 
ATOM      4  O   UNL A   1      31.939  21.257  25.283  1.00  0.00    -0.245 OA
BRANCH   3   5
ATOM      5  C   UNL A   1      32.591  23.382  26.289  1.00  0.00     0.292 C 
ATOM      6  C   UNL A   1      31.154  23.686  26.719  1.00  0.00     0.088 C 
BRANCH   5   7
ATOM      7  N   UNL A   1      33.084  24.376  25.319  1.00  0.00    -0.322 N 
ATOM      8  C   UNL A   1      34.499  24.701  25.385  1.00  0.00     0.333 C 
ATOM      9  H   UNL A   1      32.662  25.214  25.721  1.00  0.00     0.348 HD
BRANCH   7  10
ATOM     10  C   UNL A   1      32.453  24.435  24.006  1.00  0.00     0.299 C 
BRANCH  10  11
ATOM     11  C   UNL A   1      31.697  25.694  23.631  1.00  0.00     0.006 A 
ATOM     12  C   UNL A   1      32.563  27.268  23.244  1.00  0.00     0.010 A 
ATOM     13  C   UNL A   1      29.887  25.716  23.919  1.00  0.00     0.010 A 
ATOM     14  C   UNL A   1      31.651  28.833  23.198  1.00  0.00     0.009 A 
ATOM     15  C   UNL A   1      28.947  27.253  23.584  1.00  0.00     0.009 A 
ATOM     16  C   UNL A   1      29.835  28.817  23.235  1.00  0.00    -0.018 A 
BRANCH  16  17
ATOM     17  C   UNL A   1      29.174  30.067  22.812  1.00  0.00    -0.018 A 
ATOM     18  C   UNL A   1      28.826  30.221  21.455  1.00  0.00     0.009 A 
ATOM     19  C   UNL A   1      28.957  31.152  23.664  1.00  0.00     0.009 A 
ATOM     20  C   UNL A   1      28.309  31.415  20.954  1.00  0.00     0.001 A 
ATOM     21  C   UNL A   1      28.450  32.360  23.162  1.00  0.00     0.001 A 
ATOM     22  C   UNL A   1      28.131  32.493  21.809  1.00  0.00     0.000 A 
ENDBRANCH  16  17
ENDBRANCH  10  11
ENDBRANCH   7  10
ENDBRANCH   5   7
ENDBRANCH   3   5
ENDBRANCH   2   3
ENDBRANCH   1   2
BRANCH   1  23
ATOM     23  C   UNL A   1      36.060  21.389  24.839  1.00  0.00     0.275 C 
BRANCH  23  24
ATOM     24  O   UNL A   1      37.074  20.376  24.625  1.00  0.00    -0.458 OA
BRANCH  24  25
ATOM     25  C   UNL A   1      38.373  20.429  25.361  1.00  0.00     0.338 C 
ATOM     26  O   UNL A   1      38.789  19.248  25.158  1.00  0.00    -0.246 OA
BRANCH  25  27
ATOM     27  C   UNL A   1      39.207  22.102  26.418  1.00  0.00     0.060 A 
ATOM     28  C   UNL A   1      38.907  23.584  26.247  1.00  0.00     0.016 A 
ATOM     29  C   UNL A   1      40.375  22.210  27.392  1.00  0.00     0.016 A 
ATOM     30  C   UNL A   1      39.685  24.710  26.531  1.00  0.00     0.010 A 
ATOM     31  C   UNL A   1      41.103  23.362  27.825  1.00  0.00     0.010 A 
ATOM     32  C   UNL A   1      40.782  24.611  27.345  1.00  0.00    -0.014 A 
BRANCH  32  33
ATOM     33  C   UNL A   1      41.445  25.859  27.749  1.00  0.00     0.031 A 
ATOM     34  C   UNL A   1      40.741  26.839  28.628  1.00  0.00     0.074 A 
ATOM     35  C   UNL A   1      42.736  26.003  27.392  1.00  0.00     0.049 A 
ATOM     36  N   UNL A   1      41.120  28.034  28.987  1.00  0.00    -0.248 NA
ATOM     37  C   UNL A   1      39.440  26.427  29.175  1.00  0.00     0.031 C 
ATOM     38  C   UNL A   1      43.508  25.012  26.625  1.00  0.00     0.029 A 
ATOM     39  N   UNL A   1      43.642  26.991  27.647  1.00  0.00    -0.354 N 
ATOM     40  C   UNL A   1      40.086  28.545  29.763  1.00  0.00     0.074 A 
ATOM     41  C   UNL A   1      39.067  27.518  29.832  1.00  0.00     0.031 C 
ATOM     42  C   UNL A   1      44.778  25.416  26.528  1.00  0.00     0.029 A 
ATOM     43  C   UNL A   1      44.871  26.756  27.077  1.00  0.00     0.049 A 
ATOM     44  H   UNL A   1      43.436  27.791  28.183  1.00  0.00     0.167 HD
ATOM     45  C   UNL A   1      40.012  29.774  30.331  1.00  0.00     0.034 A 
ATOM     46  C   UNL A   1      45.928  27.572  26.935  1.00  0.00     0.034 A 
ATOM     47  C   UNL A   1      41.075  30.747  30.204  1.00  0.00     0.049 A 
ATOM     48  C   UNL A   1      45.785  28.957  27.493  1.00  0.00     0.074 A 
ATOM     49  C   UNL A   1      41.124  32.050  30.663  1.00  0.00     0.029 A 
ATOM     50  N   UNL A   1      42.290  30.509  29.560  1.00  0.00    -0.354 N 
ATOM     51  N   UNL A   1      44.762  29.481  28.133  1.00  0.00    -0.248 NA
ATOM     52  C   UNL A   1      46.916  29.863  27.300  1.00  0.00     0.031 C 
ATOM     53  C   UNL A   1      42.333  32.616  30.239  1.00  0.00     0.029 A 
ATOM     54  C   UNL A   1      43.082  31.645  29.589  1.00  0.00     0.049 A 
ATOM     55  H   UNL A   1      42.547  29.654  29.145  1.00  0.00     0.167 HD
ATOM     56  C   UNL A   1      45.129  30.784  28.429  1.00  0.00     0.074 A 
ATOM     57  C   UNL A   1      46.482  30.949  27.922  1.00  0.00     0.031 C 
ATOM     58  C   UNL A   1      44.421  31.761  29.053  1.00  0.00     0.034 A 
BRANCH  45  59
ATOM     59  C   UNL A   1      38.718  30.149  31.019  1.00  0.00     0.023 A 
ATOM     60  C   UNL A   1      37.711  30.893  30.377  1.00  0.00     0.031 A 
ATOM     61  C   UNL A   1      38.517  29.810  32.370  1.00  0.00     0.131 A 
ATOM     62  C   UNL A   1      36.593  31.337  31.106  1.00  0.00     0.055 A 
ATOM     63  C   UNL A   1      37.364  30.185  33.066  1.00  0.00     0.041 A 
ATOM     64  F   UNL A   1      39.450  29.126  33.050  1.00  0.00    -0.206 F 
ATOM     65  C   UNL A   1      36.401  30.968  32.438  1.00  0.00     0.022 A 
BRANCH  62  66
ATOM     66  S   UNL A   1      35.471  32.537  30.334  1.00  0.00     0.124 S 
ATOM     67  O   UNL A   1      34.325  32.493  31.238  1.00  0.00    -0.237 OA
ATOM     68  O   UNL A   1      36.256  33.765  30.357  1.00  0.00    -0.237 OA
ATOM     69  O   UNL A   1      35.229  31.977  29.006  1.00  0.00    -0.744 OA
ENDBRANCH  62  66
ENDBRANCH  45  59
BRANCH  46  70
ATOM     70  C   UNL A   1      47.121  27.130  26.157  1.00  0.00     0.023 A 
ATOM     71  C   UNL A   1      47.318  27.537  24.831  1.00  0.00     0.031 A 
ATOM     72  C   UNL A   1      48.097  26.296  26.739  1.00  0.00     0.131 A 
ATOM     73  C   UNL A   1      48.447  27.093  24.124  1.00  0.00     0.055 A 
ATOM     74  C   UNL A   1      49.251  25.912  26.055  1.00  0.00     0.041 A 
ATOM     75  F   UNL A   1      47.963  25.871  28.007  1.00  0.00    -0.206 F 
ATOM     76  C   UNL A   1      49.425  26.301  24.733  1.00  0.00     0.022 A 
BRANCH  73  77
ATOM     77  S   UNL A   1      48.581  27.497  22.363  1.00  0.00     0.124 S 
ATOM     78  O   UNL A   1      47.368  28.276  22.143  1.00  0.00    -0.237 OA
ATOM     79  O   UNL A   1      49.837  28.239  22.318  1.00  0.00    -0.237 OA
ATOM     80  O   UNL A   1      48.608  26.188  21.714  1.00  0.00    -0.744 OA
ENDBRANCH  73  77
ENDBRANCH  46  70
BRANCH  58  81
ATOM     81  C   UNL A   1      45.141  33.068  29.244  1.00  0.00     0.023 A 
ATOM     82  C   UNL A   1      45.035  34.107  28.305  1.00  0.00     0.031 A 
ATOM     83  C   UNL A   1      45.976  33.254  30.358  1.00  0.00     0.131 A 
ATOM     84  C   UNL A   1      45.811  35.261  28.459  1.00  0.00     0.055 A 
ATOM     85  C   UNL A   1      46.690  34.435  30.545  1.00  0.00     0.041 A 
ATOM     86  F   UNL A   1      46.115  32.286  31.278  1.00  0.00    -0.206 F 
ATOM     87  C   UNL A   1      46.622  35.441  29.584  1.00  0.00     0.022 A 
BRANCH  84  88
ATOM     88  S   UNL A   1      45.840  36.470  27.110  1.00  0.00     0.124 S 
ATOM     89  O   UNL A   1      47.246  36.855  27.081  1.00  0.00    -0.237 OA
ATOM     90  O   UNL A   1      45.370  35.682  25.974  1.00  0.00    -0.237 OA
ATOM     91  O   UNL A   1      44.920  37.510  27.565  1.00  0.00    -0.744 OA
ENDBRANCH  84  88
ENDBRANCH  58  81
ENDBRANCH  32  33
ENDBRANCH  25  27
ENDBRANCH  24  25
ENDBRANCH  23  24
ENDBRANCH   1  23
TORSDOF 18
ENDMDL
MODEL 2
REMARK VINA RESULT:     -12.5      1.140      7.736
REMARK SMILES C[C@@H](C(=O)OCCOC(=O)c1ccc(-c2c3nc(c(-c4cc(S(=O)(=O)[O-])ccc4F)c4ccc([nH]4)c(-c4cc(S(=O)(=O)[O-])ccc4F)c4nc(c(-c5cc(S(=O)(=O)[O-])ccc5F)c5ccc2[nH]5)C=C4)C=C3)cc1)[N@@H+](C)Cc1ccc(-c2ccccc2)cc1
REMARK SMILES IDX 6 1 5 2 3 3 4 4 2 5 1 6 74 7 75 8 76 10 77 11 78 12 88 13
REMARK SMILES IDX 79 14 87 15 80 16 81 17 82 18 86 19 83 20 85 21 84 22 7 23
REMARK SMILES IDX 8 24 9 25 10 26 11 27 12 28 73 29 13 30 72 31 14 32 15 33
REMARK SMILES IDX 16 34 66 35 17 36 71 37 65 38 67 39 18 40 70 41 64 42 63 43
REMARK SMILES IDX 19 45 51 46 31 47 50 48 32 49 35 50 49 51 68 52 33 53 34 54
REMARK SMILES IDX 48 56 69 57 36 58 20 59 21 60 29 61 22 62 28 63 30 64 27 65
REMARK SMILES IDX 23 66 24 67 25 68 26 69 52 70 53 71 61 72 54 73 60 74 62 75
REMARK SMILES IDX 59 76 55 77 56 78 57 79 58 80 37 81 38 82 46 83 39 84 45 85
REMARK SMILES IDX 47 86 44 87 40 88 41 89 42 90 43 91
REMARK H PARENT 74 9 67 44 35 55
REMARK Flexibility Score: inf
ROOT
ATOM      1  C   UNL A   1      35.650  20.779  25.355  1.00  0.00     0.274 C 
ENDROOT
BRANCH   1   2
ATOM      2  O   UNL A   1      34.945  19.616  24.879  1.00  0.00    -0.458 OA
BRANCH   2   3
ATOM      3  C   UNL A   1      33.621  19.758  24.591  1.00  0.00     0.364 C 
ATOM      4  O   UNL A   1      32.880  18.833  24.267  1.00  0.00    -0.245 OA
BRANCH   3   5
ATOM      5  C   UNL A   1      33.148  21.218  24.706  1.00  0.00     0.292 C 
ATOM      6  C   UNL A   1      31.811  21.361  25.438  1.00  0.00     0.088 C 
BRANCH   5   7
ATOM      7  N   UNL A   1      33.146  21.963  23.434  1.00  0.00    -0.322 N 
ATOM      8  C   UNL A   1      32.093  21.630  22.490  1.00  0.00     0.333 C 
ATOM      9  H   UNL A   1      33.960  21.530  22.996  1.00  0.00     0.348 HD
BRANCH   7  10
ATOM     10  C   UNL A   1      33.619  23.342  23.437  1.00  0.00     0.299 C 
BRANCH  10  11
ATOM     11  C   UNL A   1      32.587  24.452  23.380  1.00  0.00     0.006 A 
ATOM     12  C   UNL A   1      32.340  25.470  21.871  1.00  0.00     0.010 A 
ATOM     13  C   UNL A   1      31.838  24.998  24.960  1.00  0.00     0.010 A 
ATOM     14  C   UNL A   1      31.411  27.023  21.951  1.00  0.00     0.009 A 
ATOM     15  C   UNL A   1      30.669  26.408  24.956  1.00  0.00     0.009 A 
ATOM     16  C   UNL A   1      30.466  27.429  23.448  1.00  0.00    -0.018 A 
BRANCH  16  17
ATOM     17  C   UNL A   1      29.451  28.490  23.297  1.00  0.00    -0.018 A 
ATOM     18  C   UNL A   1      29.848  29.832  23.462  1.00  0.00     0.009 A 
ATOM     19  C   UNL A   1      28.093  28.236  23.093  1.00  0.00     0.009 A 
ATOM     20  C   UNL A   1      28.930  30.882  23.454  1.00  0.00     0.001 A 
ATOM     21  C   UNL A   1      27.164  29.288  23.098  1.00  0.00     0.001 A 
ATOM     22  C   UNL A   1      27.581  30.607  23.282  1.00  0.00     0.000 A 
ENDBRANCH  16  17
ENDBRANCH  10  11
ENDBRANCH   7  10
ENDBRANCH   5   7
ENDBRANCH   3   5
ENDBRANCH   2   3
ENDBRANCH   1   2
BRANCH   1  23
ATOM     23  C   UNL A   1      36.969  20.945  24.606  1.00  0.00     0.275 C 
BRANCH  23  24
ATOM     24  O   UNL A   1      37.842  19.843  24.957  1.00  0.00    -0.458 OA
BRANCH  24  25
ATOM     25  C   UNL A   1      39.115  20.085  25.703  1.00  0.00     0.338 C 
ATOM     26  O   UNL A   1      39.626  18.925  25.646  1.00  0.00    -0.246 OA
BRANCH  25  27
ATOM     27  C   UNL A   1      39.788  21.930  26.570  1.00  0.00     0.060 A 
ATOM     28  C   UNL A   1      39.386  23.354  26.215  1.00  0.00     0.016 A 
ATOM     29  C   UNL A   1      40.914  22.242  27.550  1.00  0.00     0.016 A 
ATOM     30  C   UNL A   1      40.069  24.562  26.379  1.00  0.00     0.010 A 
ATOM     31  C   UNL A   1      41.541  23.489  27.857  1.00  0.00     0.010 A 
ATOM     32  C   UNL A   1      41.145  24.644  27.223  1.00  0.00    -0.014 A 
BRANCH  32  33
ATOM     33  C   UNL A   1      41.701  25.979  27.489  1.00  0.00     0.031 A 
ATOM     34  C   UNL A   1      43.009  26.385  26.894  1.00  0.00     0.074 A 
ATOM     35  C   UNL A   1      40.922  26.834  28.179  1.00  0.00     0.049 A 
ATOM     36  N   UNL A   1      43.705  27.467  27.112  1.00  0.00    -0.248 NA
ATOM     37  C   UNL A   1      43.619  25.456  25.932  1.00  0.00     0.031 C 
ATOM     38  C   UNL A   1      39.577  26.518  28.687  1.00  0.00     0.029 A 
ATOM     39  N   UNL A   1      41.107  28.136  28.542  1.00  0.00    -0.354 N 
ATOM     40  C   UNL A   1      44.862  27.334  26.353  1.00  0.00     0.074 A 
ATOM     41  C   UNL A   1      44.766  26.067  25.658  1.00  0.00     0.031 C 
ATOM     42  C   UNL A   1      39.041  27.612  29.235  1.00  0.00     0.029 A 
ATOM     43  C   UNL A   1      40.056  28.649  29.266  1.00  0.00     0.049 A 
ATOM     44  H   UNL A   1      41.911  28.656  28.309  1.00  0.00     0.167 HD
ATOM     45  C   UNL A   1      45.905  28.197  26.284  1.00  0.00     0.034 A 
ATOM     46  C   UNL A   1      39.961  29.797  29.957  1.00  0.00     0.034 A 
ATOM     47  C   UNL A   1      45.925  29.442  27.021  1.00  0.00     0.049 A 
ATOM     48  C   UNL A   1      41.164  30.691  29.938  1.00  0.00     0.074 A 
ATOM     49  C   UNL A   1      46.929  30.388  27.108  1.00  0.00     0.029 A 
ATOM     50  N   UNL A   1      44.872  29.910  27.807  1.00  0.00    -0.354 N 
ATOM     51  N   UNL A   1      42.306  30.516  29.309  1.00  0.00    -0.248 NA
ATOM     52  C   UNL A   1      41.081  31.920  30.726  1.00  0.00     0.031 C 
ATOM     53  C   UNL A   1      46.510  31.388  27.995  1.00  0.00     0.029 A 
ATOM     54  C   UNL A   1      45.211  31.116  28.399  1.00  0.00     0.049 A 
ATOM     55  H   UNL A   1      44.010  29.450  27.924  1.00  0.00     0.167 HD
ATOM     56  C   UNL A   1      43.082  31.622  29.620  1.00  0.00     0.074 A 
ATOM     57  C   UNL A   1      42.259  32.469  30.467  1.00  0.00     0.031 C 
ATOM     58  C   UNL A   1      44.356  31.914  29.251  1.00  0.00     0.034 A 
BRANCH  45  59
ATOM     59  C   UNL A   1      47.118  27.766  25.491  1.00  0.00     0.023 A 
ATOM     60  C   UNL A   1      47.285  28.089  24.132  1.00  0.00     0.031 A 
ATOM     61  C   UNL A   1      48.100  26.956  26.093  1.00  0.00     0.131 A 
ATOM     62  C   UNL A   1      48.358  27.542  23.405  1.00  0.00     0.055 A 
ATOM     63  C   UNL A   1      49.209  26.484  25.385  1.00  0.00     0.041 A 
ATOM     64  F   UNL A   1      47.989  26.587  27.378  1.00  0.00    -0.206 F 
ATOM     65  C   UNL A   1      49.334  26.762  24.028  1.00  0.00     0.022 A 
BRANCH  62  66
ATOM     66  S   UNL A   1      48.375  27.734  21.600  1.00  0.00     0.124 S 
ATOM     67  O   UNL A   1      48.644  26.366  21.162  1.00  0.00    -0.237 OA
ATOM     68  O   UNL A   1      47.037  28.242  21.323  1.00  0.00    -0.237 OA
ATOM     69  O   UNL A   1      49.463  28.681  21.365  1.00  0.00    -0.744 OA
ENDBRANCH  62  66
ENDBRANCH  45  59
BRANCH  46  70
ATOM     70  C   UNL A   1      38.751  30.080  30.781  1.00  0.00     0.023 A 
ATOM     71  C   UNL A   1      37.723  30.904  30.306  1.00  0.00     0.031 A 
ATOM     72  C   UNL A   1      38.599  29.515  32.064  1.00  0.00     0.131 A 
ATOM     73  C   UNL A   1      36.602  31.159  31.113  1.00  0.00     0.055 A 
ATOM     74  C   UNL A   1      37.453  29.716  32.834  1.00  0.00     0.041 A 
ATOM     75  F   UNL A   1      39.552  28.718  32.576  1.00  0.00    -0.206 F 
ATOM     76  C   UNL A   1      36.450  30.555  32.363  1.00  0.00     0.022 A 
BRANCH  73  77
ATOM     77  S   UNL A   1      35.376  32.363  30.537  1.00  0.00     0.124 S 
ATOM     78  O   UNL A   1      36.164  33.589  30.485  1.00  0.00    -0.237 OA
ATOM     79  O   UNL A   1      34.980  31.799  29.250  1.00  0.00    -0.237 OA
ATOM     80  O   UNL A   1      34.348  32.325  31.575  1.00  0.00    -0.744 OA
ENDBRANCH  73  77
ENDBRANCH  46  70
BRANCH  58  81
ATOM     81  C   UNL A   1      44.891  33.231  29.744  1.00  0.00     0.023 A 
ATOM     82  C   UNL A   1      44.667  34.424  29.036  1.00  0.00     0.031 A 
ATOM     83  C   UNL A   1      45.669  33.280  30.912  1.00  0.00     0.131 A 
ATOM     84  C   UNL A   1      45.279  35.607  29.465  1.00  0.00     0.055 A 
ATOM     85  C   UNL A   1      46.214  34.476  31.375  1.00  0.00     0.041 A 
ATOM     86  F   UNL A   1      45.916  32.165  31.617  1.00  0.00    -0.206 F 
ATOM     87  C   UNL A   1      46.034  35.645  30.641  1.00  0.00     0.022 A 
BRANCH  84  88
ATOM     88  S   UNL A   1      45.175  37.069  28.399  1.00  0.00     0.124 S 
ATOM     89  O   UNL A   1      46.374  37.807  28.782  1.00  0.00    -0.237 OA
ATOM     90  O   UNL A   1      45.189  36.482  27.061  1.00  0.00    -0.237 OA
ATOM     91  O   UNL A   1      43.912  37.689  28.791  1.00  0.00    -0.744 OA
ENDBRANCH  84  88
ENDBRANCH  58  81
ENDBRANCH  32  33
ENDBRANCH  25  27
ENDBRANCH  24  25
ENDBRANCH  23  24
ENDBRANCH   1  23
TORSDOF 18
ENDMDL
MODEL 3
REMARK VINA RESULT:     -12.4      1.757      4.643
REMARK SMILES C[C@@H](C(=O)OCCOC(=O)c1ccc(-c2c3nc(c(-c4cc(S(=O)(=O)[O-])ccc4F)c4ccc([nH]4)c(-c4cc(S(=O)(=O)[O-])ccc4F)c4nc(c(-c5cc(S(=O)(=O)[O-])ccc5F)c5ccc2[nH]5)C=C4)C=C3)cc1)[N@@H+](C)Cc1ccc(-c2ccccc2)cc1
REMARK SMILES IDX 6 1 5 2 3 3 4 4 2 5 1 6 74 7 75 8 76 10 77 11 78 12 88 13
REMARK SMILES IDX 79 14 87 15 80 16 81 17 82 18 86 19 83 20 85 21 84 22 7 23
REMARK SMILES IDX 8 24 9 25 10 26 11 27 12 28 73 29 13 30 72 31 14 32 15 33
REMARK SMILES IDX 16 34 66 35 17 36 71 37 65 38 67 39 18 40 70 41 64 42 63 43
REMARK SMILES IDX 19 45 51 46 31 47 50 48 32 49 35 50 49 51 68 52 33 53 34 54
REMARK SMILES IDX 48 56 69 57 36 58 20 59 21 60 29 61 22 62 28 63 30 64 27 65
REMARK SMILES IDX 23 66 24 67 25 68 26 69 52 70 53 71 61 72 54 73 60 74 62 75
REMARK SMILES IDX 59 76 55 77 56 78 57 79 58 80 37 81 38 82 46 83 39 84 45 85
REMARK SMILES IDX 47 86 44 87 40 88 41 89 42 90 43 91
REMARK H PARENT 74 9 67 44 35 55
REMARK Flexibility Score: inf
ROOT
ATOM      1  C   UNL A   1      35.409  23.020  23.533  1.00  0.00     0.274 C 
ENDROOT
BRANCH   1   2
ATOM      2  O   UNL A   1      35.445  24.364  24.052  1.00  0.00    -0.458 OA
BRANCH   2   3
ATOM      3  C   UNL A   1      34.294  24.863  24.582  1.00  0.00     0.364 C 
ATOM      4  O   UNL A   1      34.117  25.072  25.780  1.00  0.00    -0.245 OA
BRANCH   3   5
ATOM      5  C   UNL A   1      33.222  25.132  23.510  1.00  0.00     0.292 C 
ATOM      6  C   UNL A   1      33.675  26.132  22.444  1.00  0.00     0.088 C 
BRANCH   5   7
ATOM      7  N   UNL A   1      31.895  25.484  24.048  1.00  0.00    -0.322 N 
ATOM      8  C   UNL A   1      31.449  26.850  23.831  1.00  0.00     0.333 C 
ATOM      9  H   UNL A   1      32.125  25.499  25.042  1.00  0.00     0.348 HD
BRANCH   7  10
ATOM     10  C   UNL A   1      30.866  24.452  24.086  1.00  0.00     0.299 C 
BRANCH  10  11
ATOM     11  C   UNL A   1      31.304  23.012  24.272  1.00  0.00     0.006 A 
ATOM     12  C   UNL A   1      31.799  22.353  25.914  1.00  0.00     0.010 A 
ATOM     13  C   UNL A   1      31.675  22.035  22.767  1.00  0.00     0.010 A 
ATOM     14  C   UNL A   1      32.690  20.780  26.044  1.00  0.00     0.009 A 
ATOM     15  C   UNL A   1      32.311  20.326  22.944  1.00  0.00     0.009 A 
ATOM     16  C   UNL A   1      32.831  19.704  24.587  1.00  0.00    -0.018 A 
BRANCH  16  17
ATOM     17  C   UNL A   1      33.219  18.306  24.859  1.00  0.00    -0.018 A 
ATOM     18  C   UNL A   1      34.518  17.887  24.508  1.00  0.00     0.009 A 
ATOM     19  C   UNL A   1      32.339  17.343  25.358  1.00  0.00     0.009 A 
ATOM     20  C   UNL A   1      34.922  16.556  24.620  1.00  0.00     0.001 A 
ATOM     21  C   UNL A   1      32.737  16.002  25.460  1.00  0.00     0.001 A 
ATOM     22  C   UNL A   1      34.023  15.608  25.088  1.00  0.00     0.000 A 
ENDBRANCH  16  17
ENDBRANCH  10  11
ENDBRANCH   7  10
ENDBRANCH   5   7
ENDBRANCH   3   5
ENDBRANCH   2   3
ENDBRANCH   1   2
BRANCH   1  23
ATOM     23  C   UNL A   1      35.529  22.007  24.668  1.00  0.00     0.275 C 
BRANCH  23  24
ATOM     24  O   UNL A   1      36.575  21.061  24.335  1.00  0.00    -0.458 OA
BRANCH  24  25
ATOM     25  C   UNL A   1      37.815  20.971  25.164  1.00  0.00     0.338 C 
ATOM     26  O   UNL A   1      38.094  19.743  25.009  1.00  0.00    -0.246 OA
BRANCH  25  27
ATOM     27  C   UNL A   1      38.773  22.554  26.254  1.00  0.00     0.060 A 
ATOM     28  C   UNL A   1      38.512  24.051  26.190  1.00  0.00     0.016 A 
ATOM     29  C   UNL A   1      40.009  22.570  27.148  1.00  0.00     0.016 A 
ATOM     30  C   UNL A   1      39.343  25.136  26.483  1.00  0.00     0.010 A 
ATOM     31  C   UNL A   1      40.802  23.672  27.594  1.00  0.00     0.010 A 
ATOM     32  C   UNL A   1      40.490  24.956  27.210  1.00  0.00    -0.014 A 
BRANCH  32  33
ATOM     33  C   UNL A   1      41.220  26.158  27.637  1.00  0.00     0.031 A 
ATOM     34  C   UNL A   1      40.581  27.143  28.562  1.00  0.00     0.074 A 
ATOM     35  C   UNL A   1      42.508  26.253  27.258  1.00  0.00     0.049 A 
ATOM     36  N   UNL A   1      41.024  28.307  28.948  1.00  0.00    -0.248 NA
ATOM     37  C   UNL A   1      39.273  26.775  29.124  1.00  0.00     0.031 C 
ATOM     38  C   UNL A   1      43.217  25.251  26.444  1.00  0.00     0.029 A 
ATOM     39  N   UNL A   1      43.465  27.189  27.523  1.00  0.00    -0.354 N 
ATOM     40  C   UNL A   1      40.031  28.841  29.762  1.00  0.00     0.074 A 
ATOM     41  C   UNL A   1      38.965  27.861  29.822  1.00  0.00     0.031 C 
ATOM     42  C   UNL A   1      44.502  25.598  26.332  1.00  0.00     0.029 A 
ATOM     43  C   UNL A   1      44.670  26.915  26.920  1.00  0.00     0.049 A 
ATOM     44  H   UNL A   1      43.308  27.981  28.088  1.00  0.00     0.167 HD
ATOM     45  C   UNL A   1      40.027  30.053  30.369  1.00  0.00     0.034 A 
ATOM     46  C   UNL A   1      45.762  27.684  26.779  1.00  0.00     0.034 A 
ATOM     47  C   UNL A   1      41.132  30.979  30.248  1.00  0.00     0.049 A 
ATOM     48  C   UNL A   1      45.696  29.056  27.382  1.00  0.00     0.074 A 
ATOM     49  C   UNL A   1      41.253  32.263  30.745  1.00  0.00     0.029 A 
ATOM     50  N   UNL A   1      42.321  30.704  29.571  1.00  0.00    -0.354 N 
ATOM     51  N   UNL A   1      44.712  29.607  28.060  1.00  0.00    -0.248 NA
ATOM     52  C   UNL A   1      46.864  29.914  27.193  1.00  0.00     0.031 C 
ATOM     53  C   UNL A   1      42.478  32.785  30.313  1.00  0.00     0.029 A 
ATOM     54  C   UNL A   1      43.167  31.801  29.617  1.00  0.00     0.049 A 
ATOM     55  H   UNL A   1      42.529  29.852  29.125  1.00  0.00     0.167 HD
ATOM     56  C   UNL A   1      45.147  30.882  28.388  1.00  0.00     0.074 A 
ATOM     57  C   UNL A   1      46.495  30.999  27.857  1.00  0.00     0.031 C 
ATOM     58  C   UNL A   1      44.498  31.870  29.056  1.00  0.00     0.034 A 
BRANCH  45  59
ATOM     59  C   UNL A   1      38.767  30.467  31.095  1.00  0.00     0.023 A 
ATOM     60  C   UNL A   1      37.686  31.086  30.440  1.00  0.00     0.031 A 
ATOM     61  C   UNL A   1      38.671  30.297  32.489  1.00  0.00     0.131 A 
ATOM     62  C   UNL A   1      36.601  31.580  31.186  1.00  0.00     0.055 A 
ATOM     63  C   UNL A   1      37.552  30.716  33.214  1.00  0.00     0.041 A 
ATOM     64  F   UNL A   1      39.678  29.739  33.181  1.00  0.00    -0.206 F 
ATOM     65  C   UNL A   1      36.515  31.378  32.565  1.00  0.00     0.022 A 
BRANCH  62  66
ATOM     66  S   UNL A   1      35.377  32.630  30.352  1.00  0.00     0.124 S 
ATOM     67  O   UNL A   1      34.282  32.630  31.319  1.00  0.00    -0.237 OA
ATOM     68  O   UNL A   1      36.094  33.890  30.199  1.00  0.00    -0.237 OA
ATOM     69  O   UNL A   1      35.100  31.915  29.108  1.00  0.00    -0.744 OA
ENDBRANCH  62  66
ENDBRANCH  45  59
BRANCH  46  70
ATOM     70  C   UNL A   1      46.916  27.211  25.963  1.00  0.00     0.023 A 
ATOM     71  C   UNL A   1      47.125  27.678  24.658  1.00  0.00     0.031 A 
ATOM     72  C   UNL A   1      47.843  26.286  26.485  1.00  0.00     0.131 A 
ATOM     73  C   UNL A   1      48.217  27.203  23.913  1.00  0.00     0.055 A 
ATOM     74  C   UNL A   1      48.963  25.869  25.766  1.00  0.00     0.041 A 
ATOM     75  F   UNL A   1      47.694  25.801  27.729  1.00  0.00    -0.206 F 
ATOM     76  C   UNL A   1      49.148  26.318  24.465  1.00  0.00     0.022 A 
BRANCH  73  77
ATOM     77  S   UNL A   1      48.359  27.695  22.175  1.00  0.00     0.124 S 
ATOM     78  O   UNL A   1      47.129  28.453  21.979  1.00  0.00    -0.237 OA
ATOM     79  O   UNL A   1      49.596  28.468  22.181  1.00  0.00    -0.237 OA
ATOM     80  O   UNL A   1      48.426  26.420  21.465  1.00  0.00    -0.744 OA
ENDBRANCH  73  77
ENDBRANCH  46  70
BRANCH  58  81
ATOM     81  C   UNL A   1      45.284  33.135  29.271  1.00  0.00     0.023 A 
ATOM     82  C   UNL A   1      45.280  34.170  28.322  1.00  0.00     0.031 A 
ATOM     83  C   UNL A   1      46.077  33.283  30.421  1.00  0.00     0.131 A 
ATOM     84  C   UNL A   1      46.115  35.279  28.504  1.00  0.00     0.055 A 
ATOM     85  C   UNL A   1      46.849  34.423  30.633  1.00  0.00     0.041 A 
ATOM     86  F   UNL A   1      46.118  32.317  31.352  1.00  0.00    -0.206 F 
ATOM     87  C   UNL A   1      46.883  35.422  29.663  1.00  0.00     0.022 A 
BRANCH  84  88
ATOM     88  S   UNL A   1      46.273  36.472  27.150  1.00  0.00     0.124 S 
ATOM     89  O   UNL A   1      44.920  37.011  27.063  1.00  0.00    -0.237 OA
ATOM     90  O   UNL A   1      47.292  37.387  27.658  1.00  0.00    -0.237 OA
ATOM     91  O   UNL A   1      46.689  35.650  26.016  1.00  0.00    -0.744 OA
ENDBRANCH  84  88
ENDBRANCH  58  81
ENDBRANCH  32  33
ENDBRANCH  25  27
ENDBRANCH  24  25
ENDBRANCH  23  24
ENDBRANCH   1  23
TORSDOF 18
ENDMDL
