MODEL 1
REMARK VINA RESULT:     -12.5      0.000      0.000
REMARK SMILES O=C(OCCOC(=O)[C@@H]1CC(=O)N(c2ccc(Cl)cc2C(=O)c2ccccc2)C1)c1ccc(-c2c3nc(c(-c4cc(S(=O)(=O)[O-])ccc4F)c4ccc([nH]4)c(-c4cc(S(=O)(=O)[O-])ccc4F)c4nc(c(-c5cc(S(=O)(=O)[O-])ccc5F)c5ccc2[nH]5)C=C4)C=C3)cc1
REMARK SMILES IDX 4 1 3 2 2 3 1 4 30 5 31 6 92 7 32 8 91 9 33 10 34 11 35 12
REMARK SMILES IDX 85 13 36 14 90 15 84 16 86 17 37 18 89 19 83 20 82 21 38 23
REMARK SMILES IDX 70 24 50 25 69 26 51 27 54 28 68 29 87 30 52 31 53 32 67 34
REMARK SMILES IDX 88 35 55 36 39 37 40 38 48 39 41 40 47 41 49 42 46 43 42 44
REMARK SMILES IDX 43 45 44 46 45 47 71 48 72 49 80 50 73 51 79 52 81 53 78 54
REMARK SMILES IDX 74 55 75 56 76 57 77 58 56 59 57 60 65 61 58 62 64 63 66 64
REMARK SMILES IDX 63 65 59 66 60 67 61 68 62 69 5 70 6 71 7 72 8 73 9 74 10 75
REMARK SMILES IDX 29 76 11 77 13 78 12 79 14 80 15 81 20 82 16 83 19 84 17 85
REMARK SMILES IDX 18 86 21 87 22 88 23 89 24 90 28 91 25 92 27 93 26 94
REMARK H PARENT 86 22 54 33
REMARK Flexibility Score: inf
ROOT
ATOM      1  C   UNL A   1      36.705  21.082  24.803  1.00  0.00     0.275 C 
ENDROOT
BRANCH   1   2
ATOM      2  O   UNL A   1      37.654  20.704  25.828  1.00  0.00    -0.458 OA
BRANCH   2   3
ATOM      3  C   UNL A   1      38.964  20.988  26.023  1.00  0.00     0.338 C 
ATOM      4  O   UNL A   1      39.762  20.059  25.899  1.00  0.00    -0.246 OA
BRANCH   3   5
ATOM      5  C   UNL A   1      39.538  22.329  26.409  1.00  0.00     0.060 A 
ATOM      6  C   UNL A   1      39.021  23.573  26.071  1.00  0.00     0.016 A 
ATOM      7  C   UNL A   1      40.695  22.329  27.224  1.00  0.00     0.016 A 
ATOM      8  C   UNL A   1      39.595  24.753  26.558  1.00  0.00     0.010 A 
ATOM      9  C   UNL A   1      41.271  23.521  27.716  1.00  0.00     0.010 A 
ATOM     10  C   UNL A   1      40.707  24.755  27.398  1.00  0.00    -0.014 A 
BRANCH  10  11
ATOM     11  C   UNL A   1      41.310  26.077  27.741  1.00  0.00     0.031 A 
ATOM     12  C   UNL A   1      42.613  26.437  27.111  1.00  0.00     0.074 A 
ATOM     13  C   UNL A   1      40.650  27.024  28.441  1.00  0.00     0.049 A 
ATOM     14  N   UNL A   1      43.301  27.537  27.237  1.00  0.00    -0.248 NA
ATOM     15  C   UNL A   1      43.202  25.444  26.201  1.00  0.00     0.031 C 
ATOM     16  C   UNL A   1      39.321  26.846  28.980  1.00  0.00     0.029 A 
ATOM     17  N   UNL A   1      40.956  28.317  28.798  1.00  0.00    -0.354 N 
ATOM     18  C   UNL A   1      44.426  27.362  26.451  1.00  0.00     0.074 A 
ATOM     19  C   UNL A   1      44.312  26.061  25.826  1.00  0.00     0.031 C 
ATOM     20  C   UNL A   1      38.903  27.963  29.584  1.00  0.00     0.029 A 
ATOM     21  C   UNL A   1      39.958  28.952  29.517  1.00  0.00     0.049 A 
ATOM     22  H   UNL A   1      41.808  28.751  28.564  1.00  0.00     0.167 HD
ATOM     23  C   UNL A   1      45.472  28.205  26.300  1.00  0.00     0.034 A 
ATOM     24  C   UNL A   1      39.891  30.173  30.090  1.00  0.00     0.034 A 
ATOM     25  C   UNL A   1      45.575  29.487  26.950  1.00  0.00     0.049 A 
ATOM     26  C   UNL A   1      41.106  31.049  29.969  1.00  0.00     0.074 A 
ATOM     27  C   UNL A   1      46.634  30.377  26.918  1.00  0.00     0.029 A 
ATOM     28  N   UNL A   1      44.599  30.060  27.756  1.00  0.00    -0.354 N 
ATOM     29  N   UNL A   1      42.208  30.825  29.291  1.00  0.00    -0.248 NA
ATOM     30  C   UNL A   1      41.092  32.319  30.704  1.00  0.00     0.031 C 
ATOM     31  C   UNL A   1      46.332  31.446  27.767  1.00  0.00     0.029 A 
ATOM     32  C   UNL A   1      45.050  31.270  28.260  1.00  0.00     0.049 A 
ATOM     33  H   UNL A   1      43.717  29.664  27.941  1.00  0.00     0.167 HD
ATOM     34  C   UNL A   1      43.020  31.925  29.528  1.00  0.00     0.074 A 
ATOM     35  C   UNL A   1      42.260  32.836  30.359  1.00  0.00     0.031 C 
ATOM     36  C   UNL A   1      44.292  32.150  29.117  1.00  0.00     0.034 A 
BRANCH  23  37
ATOM     37  C   UNL A   1      46.640  27.688  25.516  1.00  0.00     0.023 A 
ATOM     38  C   UNL A   1      46.895  28.088  24.195  1.00  0.00     0.031 A 
ATOM     39  C   UNL A   1      47.482  26.723  26.098  1.00  0.00     0.131 A 
ATOM     40  C   UNL A   1      47.941  27.486  23.483  1.00  0.00     0.055 A 
ATOM     41  C   UNL A   1      48.568  26.188  25.410  1.00  0.00     0.041 A 
ATOM     42  F   UNL A   1      47.246  26.275  27.342  1.00  0.00    -0.206 F 
ATOM     43  C   UNL A   1      48.797  26.562  24.089  1.00  0.00     0.022 A 
BRANCH  40  44
ATOM     44  S   UNL A   1      48.088  27.828  21.708  1.00  0.00     0.124 S 
ATOM     45  O   UNL A   1      46.772  28.386  21.406  1.00  0.00    -0.237 OA
ATOM     46  O   UNL A   1      49.205  28.763  21.657  1.00  0.00    -0.237 OA
ATOM     47  O   UNL A   1      48.348  26.512  21.127  1.00  0.00    -0.744 OA
ENDBRANCH  40  44
ENDBRANCH  23  37
BRANCH  24  48
ATOM     48  C   UNL A   1      38.713  30.615  30.911  1.00  0.00     0.023 A 
ATOM     49  C   UNL A   1      37.755  31.513  30.404  1.00  0.00     0.031 A 
ATOM     50  C   UNL A   1      38.600  30.248  32.267  1.00  0.00     0.131 A 
ATOM     51  C   UNL A   1      36.787  32.070  31.260  1.00  0.00     0.055 A 
ATOM     52  C   UNL A   1      37.589  30.744  33.093  1.00  0.00     0.041 A 
ATOM     53  F   UNL A   1      39.482  29.401  32.821  1.00  0.00    -0.206 F 
ATOM     54  C   UNL A   1      36.693  31.682  32.597  1.00  0.00     0.022 A 
BRANCH  51  55
ATOM     55  S   UNL A   1      35.752  33.433  30.649  1.00  0.00     0.124 S 
ATOM     56  O   UNL A   1      34.435  32.806  30.609  1.00  0.00    -0.237 OA
ATOM     57  O   UNL A   1      35.944  34.453  31.674  1.00  0.00    -0.237 OA
ATOM     58  O   UNL A   1      36.331  33.744  29.343  1.00  0.00    -0.744 OA
ENDBRANCH  51  55
ENDBRANCH  24  48
BRANCH  36  59
ATOM     59  C   UNL A   1      44.924  33.436  29.573  1.00  0.00     0.023 A 
ATOM     60  C   UNL A   1      44.888  34.590  28.770  1.00  0.00     0.031 A 
ATOM     61  C   UNL A   1      45.605  33.499  30.800  1.00  0.00     0.131 A 
ATOM     62  C   UNL A   1      45.583  35.738  29.170  1.00  0.00     0.055 A 
ATOM     63  C   UNL A   1      46.233  34.668  31.226  1.00  0.00     0.041 A 
ATOM     64  F   UNL A   1      45.674  32.423  31.599  1.00  0.00    -0.206 F 
ATOM     65  C   UNL A   1      46.239  35.791  30.403  1.00  0.00     0.022 A 
BRANCH  62  66
ATOM     66  S   UNL A   1      45.709  37.123  28.008  1.00  0.00     0.124 S 
ATOM     67  O   UNL A   1      47.150  37.201  27.787  1.00  0.00    -0.237 OA
ATOM     68  O   UNL A   1      44.916  36.655  26.875  1.00  0.00    -0.237 OA
ATOM     69  O   UNL A   1      45.132  38.244  28.747  1.00  0.00    -0.744 OA
ENDBRANCH  62  66
ENDBRANCH  36  59
ENDBRANCH  10  11
ENDBRANCH   3   5
ENDBRANCH   2   3
ENDBRANCH   1   2
BRANCH   1  70
ATOM     70  C   UNL A   1      35.382  20.334  24.957  1.00  0.00     0.274 C 
BRANCH  70  71
ATOM     71  O   UNL A   1      34.489  21.124  25.753  1.00  0.00    -0.462 OA
BRANCH  71  72
ATOM     72  C   UNL A   1      33.921  22.195  25.142  1.00  0.00     0.311 C 
ATOM     73  O   UNL A   1      33.258  22.141  24.115  1.00  0.00    -0.252 OA
BRANCH  72  74
ATOM     74  C   UNL A   1      34.089  23.421  26.003  1.00  0.00     0.128 C 
ATOM     75  C   UNL A   1      33.190  23.391  27.218  1.00  0.00     0.117 C 
ATOM     76  C   UNL A   1      33.696  24.724  25.335  1.00  0.00     0.141 C 
ATOM     77  C   UNL A   1      31.947  24.067  26.706  1.00  0.00     0.227 C 
ATOM     78  N   UNL A   1      32.296  24.893  25.603  1.00  0.00    -0.311 N 
ATOM     79  O   UNL A   1      30.859  23.944  27.249  1.00  0.00    -0.274 OA
BRANCH  78  80
ATOM     80  C   UNL A   1      31.471  26.013  25.219  1.00  0.00     0.055 A 
ATOM     81  C   UNL A   1      30.511  25.683  24.216  1.00  0.00     0.028 A 
ATOM     82  C   UNL A   1      31.500  27.373  25.628  1.00  0.00     0.048 A 
ATOM     83  C   UNL A   1      29.778  26.620  23.492  1.00  0.00     0.023 A 
ATOM     84  C   UNL A   1      30.796  28.316  24.808  1.00  0.00     0.035 A 
ATOM     85  C   UNL A   1      29.987  27.952  23.741  1.00  0.00     0.041 A 
ATOM     86  Cl  UNL A   1      29.259  29.142  22.745  1.00  0.00    -0.084 Cl
BRANCH  82  87
ATOM     87  C   UNL A   1      32.040  28.091  26.830  1.00  0.00     0.195 C 
ATOM     88  O   UNL A   1      31.558  27.802  27.934  1.00  0.00    -0.289 OA
BRANCH  87  89
ATOM     89  C   UNL A   1      33.077  29.108  26.960  1.00  0.00     0.023 A 
ATOM     90  C   UNL A   1      34.383  28.650  27.233  1.00  0.00     0.012 A 
ATOM     91  C   UNL A   1      32.768  30.453  27.126  1.00  0.00     0.012 A 
ATOM     92  C   UNL A   1      35.379  29.534  27.638  1.00  0.00     0.001 A 
ATOM     93  C   UNL A   1      33.778  31.337  27.520  1.00  0.00     0.001 A 
ATOM     94  C   UNL A   1      35.081  30.886  27.761  1.00  0.00     0.000 A 
ENDBRANCH  87  89
ENDBRANCH  82  87
ENDBRANCH  78  80
ENDBRANCH  72  74
ENDBRANCH  71  72
ENDBRANCH  70  71
ENDBRANCH   1  70
TORSDOF 17
ENDMDL
MODEL 2
REMARK VINA RESULT:     -12.5      0.620      7.386
REMARK SMILES O=C(OCCOC(=O)[C@@H]1CC(=O)N(c2ccc(Cl)cc2C(=O)c2ccccc2)C1)c1ccc(-c2c3nc(c(-c4cc(S(=O)(=O)[O-])ccc4F)c4ccc([nH]4)c(-c4cc(S(=O)(=O)[O-])ccc4F)c4nc(c(-c5cc(S(=O)(=O)[O-])ccc5F)c5ccc2[nH]5)C=C4)C=C3)cc1
REMARK SMILES IDX 4 1 3 2 2 3 1 4 30 5 31 6 92 7 32 8 91 9 33 10 34 11 35 12
REMARK SMILES IDX 85 13 36 14 90 15 84 16 86 17 37 18 89 19 83 20 82 21 38 23
REMARK SMILES IDX 70 24 50 25 69 26 51 27 54 28 68 29 87 30 52 31 53 32 67 34
REMARK SMILES IDX 88 35 55 36 39 37 40 38 48 39 41 40 47 41 49 42 46 43 42 44
REMARK SMILES IDX 43 45 44 46 45 47 71 48 72 49 80 50 73 51 79 52 81 53 78 54
REMARK SMILES IDX 74 55 75 56 76 57 77 58 56 59 57 60 65 61 58 62 64 63 66 64
REMARK SMILES IDX 63 65 59 66 60 67 61 68 62 69 5 70 6 71 7 72 8 73 9 74 10 75
REMARK SMILES IDX 29 76 11 77 13 78 12 79 14 80 15 81 20 82 16 83 19 84 17 85
REMARK SMILES IDX 18 86 21 87 22 88 23 89 24 90 28 91 25 92 27 93 26 94
REMARK H PARENT 86 22 54 33
REMARK Flexibility Score: inf
ROOT
ATOM      1  C   UNL A   1      36.049  20.297  24.771  1.00  0.00     0.275 C 
ENDROOT
BRANCH   1   2
ATOM      2  O   UNL A   1      36.852  21.144  25.627  1.00  0.00    -0.458 OA
BRANCH   2   3
ATOM      3  C   UNL A   1      38.189  21.276  25.802  1.00  0.00     0.338 C 
ATOM      4  O   UNL A   1      38.871  20.256  25.694  1.00  0.00    -0.246 OA
BRANCH   3   5
ATOM      5  C   UNL A   1      38.923  22.549  26.146  1.00  0.00     0.060 A 
ATOM      6  C   UNL A   1      38.524  23.840  25.826  1.00  0.00     0.016 A 
ATOM      7  C   UNL A   1      40.114  22.427  26.900  1.00  0.00     0.016 A 
ATOM      8  C   UNL A   1      39.245  24.954  26.274  1.00  0.00     0.010 A 
ATOM      9  C   UNL A   1      40.840  23.552  27.353  1.00  0.00     0.010 A 
ATOM     10  C   UNL A   1      40.394  24.839  27.055  1.00  0.00    -0.014 A 
BRANCH  10  11
ATOM     11  C   UNL A   1      41.152  26.089  27.356  1.00  0.00     0.031 A 
ATOM     12  C   UNL A   1      40.550  27.059  28.315  1.00  0.00     0.074 A 
ATOM     13  C   UNL A   1      42.422  26.291  26.946  1.00  0.00     0.049 A 
ATOM     14  N   UNL A   1      41.041  28.187  28.746  1.00  0.00    -0.248 NA
ATOM     15  C   UNL A   1      39.243  26.700  28.884  1.00  0.00     0.031 C 
ATOM     16  C   UNL A   1      43.164  25.356  26.132  1.00  0.00     0.029 A 
ATOM     17  N   UNL A   1      43.334  27.299  27.166  1.00  0.00    -0.354 N 
ATOM     18  C   UNL A   1      40.091  28.697  29.612  1.00  0.00     0.074 A 
ATOM     19  C   UNL A   1      39.007  27.738  29.670  1.00  0.00     0.031 C 
ATOM     20  C   UNL A   1      44.408  25.797  25.921  1.00  0.00     0.029 A 
ATOM     21  C   UNL A   1      44.559  27.089  26.557  1.00  0.00     0.049 A 
ATOM     22  H   UNL A   1      43.132  28.096  27.706  1.00  0.00     0.167 HD
ATOM     23  C   UNL A   1      40.116  29.879  30.268  1.00  0.00     0.034 A 
ATOM     24  C   UNL A   1      45.675  27.846  26.482  1.00  0.00     0.034 A 
ATOM     25  C   UNL A   1      41.195  30.829  30.179  1.00  0.00     0.049 A 
ATOM     26  C   UNL A   1      45.633  29.189  27.156  1.00  0.00     0.074 A 
ATOM     27  C   UNL A   1      41.273  32.088  30.747  1.00  0.00     0.029 A 
ATOM     28  N   UNL A   1      42.376  30.639  29.472  1.00  0.00    -0.354 N 
ATOM     29  N   UNL A   1      44.679  29.697  27.901  1.00  0.00    -0.248 NA
ATOM     30  C   UNL A   1      46.788  30.072  26.961  1.00  0.00     0.031 C 
ATOM     31  C   UNL A   1      42.460  32.688  30.318  1.00  0.00     0.029 A 
ATOM     32  C   UNL A   1      43.167  31.774  29.556  1.00  0.00     0.049 A 
ATOM     33  H   UNL A   1      42.615  29.818  28.985  1.00  0.00     0.167 HD
ATOM     34  C   UNL A   1      45.119  30.964  28.255  1.00  0.00     0.074 A 
ATOM     35  C   UNL A   1      46.446  31.119  27.695  1.00  0.00     0.031 C 
ATOM     36  C   UNL A   1      44.473  31.924  28.960  1.00  0.00     0.034 A 
BRANCH  23  37
ATOM     37  C   UNL A   1      38.870  30.256  31.014  1.00  0.00     0.023 A 
ATOM     38  C   UNL A   1      37.965  31.213  30.529  1.00  0.00     0.031 A 
ATOM     39  C   UNL A   1      38.623  29.678  32.271  1.00  0.00     0.131 A 
ATOM     40  C   UNL A   1      36.877  31.597  31.324  1.00  0.00     0.055 A 
ATOM     41  C   UNL A   1      37.497  30.007  33.021  1.00  0.00     0.041 A 
ATOM     42  F   UNL A   1      39.489  28.794  32.796  1.00  0.00    -0.206 F 
ATOM     43  C   UNL A   1      36.620  30.980  32.552  1.00  0.00     0.022 A 
BRANCH  40  44
ATOM     44  S   UNL A   1      35.874  33.011  30.793  1.00  0.00     0.124 S 
ATOM     45  O   UNL A   1      36.195  34.000  31.820  1.00  0.00    -0.237 OA
ATOM     46  O   UNL A   1      36.392  33.286  29.459  1.00  0.00    -0.237 OA
ATOM     47  O   UNL A   1      34.507  32.497  30.839  1.00  0.00    -0.744 OA
ENDBRANCH  40  44
ENDBRANCH  23  37
BRANCH  24  48
ATOM     48  C   UNL A   1      46.874  27.438  25.673  1.00  0.00     0.023 A 
ATOM     49  C   UNL A   1      47.091  27.934  24.374  1.00  0.00     0.031 A 
ATOM     50  C   UNL A   1      47.753  26.441  26.138  1.00  0.00     0.131 A 
ATOM     51  C   UNL A   1      48.099  27.377  23.565  1.00  0.00     0.055 A 
ATOM     52  C   UNL A   1      48.801  25.947  25.360  1.00  0.00     0.041 A 
ATOM     53  F   UNL A   1      47.602  25.915  27.365  1.00  0.00    -0.206 F 
ATOM     54  C   UNL A   1      48.961  26.396  24.055  1.00  0.00     0.022 A 
BRANCH  51  55
ATOM     55  S   UNL A   1      48.170  27.834  21.808  1.00  0.00     0.124 S 
ATOM     56  O   UNL A   1      46.872  28.472  21.618  1.00  0.00    -0.237 OA
ATOM     57  O   UNL A   1      49.329  28.719  21.764  1.00  0.00    -0.237 OA
ATOM     58  O   UNL A   1      48.337  26.553  21.126  1.00  0.00    -0.744 OA
ENDBRANCH  51  55
ENDBRANCH  24  48
BRANCH  36  59
ATOM     59  C   UNL A   1      45.209  33.222  29.151  1.00  0.00     0.023 A 
ATOM     60  C   UNL A   1      45.079  34.275  28.228  1.00  0.00     0.031 A 
ATOM     61  C   UNL A   1      46.082  33.394  30.238  1.00  0.00     0.131 A 
ATOM     62  C   UNL A   1      45.864  35.426  28.370  1.00  0.00     0.055 A 
ATOM     63  C   UNL A   1      46.806  34.570  30.414  1.00  0.00     0.041 A 
ATOM     64  F   UNL A   1      46.246  32.415  31.143  1.00  0.00    -0.206 F 
ATOM     65  C   UNL A   1      46.712  35.589  29.469  1.00  0.00     0.022 A 
BRANCH  62  66
ATOM     66  S   UNL A   1      45.843  36.659  27.042  1.00  0.00     0.124 S 
ATOM     67  O   UNL A   1      46.752  37.676  27.561  1.00  0.00    -0.237 OA
ATOM     68  O   UNL A   1      46.330  35.895  25.898  1.00  0.00    -0.237 OA
ATOM     69  O   UNL A   1      44.440  37.058  26.967  1.00  0.00    -0.744 OA
ENDBRANCH  62  66
ENDBRANCH  36  59
ENDBRANCH  10  11
ENDBRANCH   3   5
ENDBRANCH   2   3
ENDBRANCH   1   2
BRANCH   1  70
ATOM     70  C   UNL A   1      34.570  20.362  25.145  1.00  0.00     0.274 C 
BRANCH  70  71
ATOM     71  O   UNL A   1      34.024  21.604  24.683  1.00  0.00    -0.462 OA
BRANCH  71  72
ATOM     72  C   UNL A   1      32.865  22.008  25.260  1.00  0.00     0.311 C 
ATOM     73  O   UNL A   1      31.798  21.415  25.171  1.00  0.00    -0.252 OA
BRANCH  72  74
ATOM     74  C   UNL A   1      33.128  23.193  26.156  1.00  0.00     0.128 C 
ATOM     75  C   UNL A   1      32.083  23.329  27.239  1.00  0.00     0.117 C 
ATOM     76  C   UNL A   1      33.060  24.539  25.462  1.00  0.00     0.141 C 
ATOM     77  C   UNL A   1      31.056  24.208  26.577  1.00  0.00     0.227 C 
ATOM     78  N   UNL A   1      31.688  24.952  25.544  1.00  0.00    -0.311 N 
ATOM     79  O   UNL A   1      29.900  24.281  26.970  1.00  0.00    -0.274 OA
BRANCH  78  80
ATOM     80  C   UNL A   1      31.128  26.196  25.072  1.00  0.00     0.055 A 
ATOM     81  C   UNL A   1      30.217  26.023  23.987  1.00  0.00     0.028 A 
ATOM     82  C   UNL A   1      31.380  27.537  25.465  1.00  0.00     0.048 A 
ATOM     83  C   UNL A   1      29.744  27.060  23.187  1.00  0.00     0.023 A 
ATOM     84  C   UNL A   1      30.944  28.571  24.572  1.00  0.00     0.035 A 
ATOM     85  C   UNL A   1      30.180  28.336  23.439  1.00  0.00     0.041 A 
ATOM     86  Cl  UNL A   1      29.784  29.612  22.365  1.00  0.00    -0.084 Cl
BRANCH  82  87
ATOM     87  C   UNL A   1      31.936  28.175  26.704  1.00  0.00     0.195 C 
ATOM     88  O   UNL A   1      31.419  27.870  27.788  1.00  0.00    -0.289 OA
BRANCH  87  89
ATOM     89  C   UNL A   1      33.026  29.126  26.892  1.00  0.00     0.023 A 
ATOM     90  C   UNL A   1      34.323  28.586  27.016  1.00  0.00     0.012 A 
ATOM     91  C   UNL A   1      32.791  30.450  27.248  1.00  0.00     0.012 A 
ATOM     92  C   UNL A   1      35.384  29.372  27.462  1.00  0.00     0.001 A 
ATOM     93  C   UNL A   1      33.864  31.235  27.682  1.00  0.00     0.001 A 
ATOM     94  C   UNL A   1      35.156  30.707  27.775  1.00  0.00     0.000 A 
ENDBRANCH  87  89
ENDBRANCH  82  87
ENDBRANCH  78  80
ENDBRANCH  72  74
ENDBRANCH  71  72
ENDBRANCH  70  71
ENDBRANCH   1  70
TORSDOF 17
ENDMDL
MODEL 3
REMARK VINA RESULT:     -12.4      1.435      2.596
REMARK SMILES O=C(OCCOC(=O)[C@@H]1CC(=O)N(c2ccc(Cl)cc2C(=O)c2ccccc2)C1)c1ccc(-c2c3nc(c(-c4cc(S(=O)(=O)[O-])ccc4F)c4ccc([nH]4)c(-c4cc(S(=O)(=O)[O-])ccc4F)c4nc(c(-c5cc(S(=O)(=O)[O-])ccc5F)c5ccc2[nH]5)C=C4)C=C3)cc1
REMARK SMILES IDX 4 1 3 2 2 3 1 4 30 5 31 6 92 7 32 8 91 9 33 10 34 11 35 12
REMARK SMILES IDX 85 13 36 14 90 15 84 16 86 17 37 18 89 19 83 20 82 21 38 23
REMARK SMILES IDX 70 24 50 25 69 26 51 27 54 28 68 29 87 30 52 31 53 32 67 34
REMARK SMILES IDX 88 35 55 36 39 37 40 38 48 39 41 40 47 41 49 42 46 43 42 44
REMARK SMILES IDX 43 45 44 46 45 47 71 48 72 49 80 50 73 51 79 52 81 53 78 54
REMARK SMILES IDX 74 55 75 56 76 57 77 58 56 59 57 60 65 61 58 62 64 63 66 64
REMARK SMILES IDX 63 65 59 66 60 67 61 68 62 69 5 70 6 71 7 72 8 73 9 74 10 75
REMARK SMILES IDX 29 76 11 77 13 78 12 79 14 80 15 81 20 82 16 83 19 84 17 85
REMARK SMILES IDX 18 86 21 87 22 88 23 89 24 90 28 91 25 92 27 93 26 94
REMARK H PARENT 86 22 54 33
REMARK Flexibility Score: inf
ROOT
ATOM      1  C   UNL A   1      36.696  21.201  25.410  1.00  0.00     0.275 C 
ENDROOT
BRANCH   1   2
ATOM      2  O   UNL A   1      38.131  21.081  25.262  1.00  0.00    -0.458 OA
BRANCH   2   3
ATOM      3  C   UNL A   1      39.168  21.309  26.104  1.00  0.00     0.338 C 
ATOM      4  O   UNL A   1      39.749  20.321  26.555  1.00  0.00    -0.246 OA
BRANCH   3   5
ATOM      5  C   UNL A   1      39.662  22.657  26.566  1.00  0.00     0.060 A 
ATOM      6  C   UNL A   1      39.191  23.894  26.146  1.00  0.00     0.016 A 
ATOM      7  C   UNL A   1      40.679  22.672  27.551  1.00  0.00     0.016 A 
ATOM      8  C   UNL A   1      39.671  25.082  26.710  1.00  0.00     0.010 A 
ATOM      9  C   UNL A   1      41.160  23.872  28.120  1.00  0.00     0.010 A 
ATOM     10  C   UNL A   1      40.639  25.099  27.712  1.00  0.00    -0.014 A 
BRANCH  10  11
ATOM     11  C   UNL A   1      41.169  26.428  28.137  1.00  0.00     0.031 A 
ATOM     12  C   UNL A   1      42.548  26.803  27.708  1.00  0.00     0.074 A 
ATOM     13  C   UNL A   1      40.401  27.368  28.727  1.00  0.00     0.049 A 
ATOM     14  N   UNL A   1      43.196  27.912  27.932  1.00  0.00    -0.248 NA
ATOM     15  C   UNL A   1      43.278  25.816  26.899  1.00  0.00     0.031 C 
ATOM     16  C   UNL A   1      39.008  27.176  29.062  1.00  0.00     0.029 A 
ATOM     17  N   UNL A   1      40.635  28.666  29.122  1.00  0.00    -0.354 N 
ATOM     18  C   UNL A   1      44.428  27.749  27.324  1.00  0.00     0.074 A 
ATOM     19  C   UNL A   1      44.424  26.445  26.693  1.00  0.00     0.031 C 
ATOM     20  C   UNL A   1      38.492  28.288  29.593  1.00  0.00     0.029 A 
ATOM     21  C   UNL A   1      39.534  29.290  29.682  1.00  0.00     0.049 A 
ATOM     22  H   UNL A   1      41.507  29.109  29.017  1.00  0.00     0.167 HD
ATOM     23  C   UNL A   1      45.474  28.604  27.329  1.00  0.00     0.034 A 
ATOM     24  C   UNL A   1      39.367  30.511  30.234  1.00  0.00     0.034 A 
ATOM     25  C   UNL A   1      45.465  29.888  27.982  1.00  0.00     0.049 A 
ATOM     26  C   UNL A   1      40.576  31.401  30.293  1.00  0.00     0.074 A 
ATOM     27  C   UNL A   1      46.506  30.791  28.106  1.00  0.00     0.029 A 
ATOM     28  N   UNL A   1      44.372  30.450  28.631  1.00  0.00    -0.354 N 
ATOM     29  N   UNL A   1      41.770  31.189  29.789  1.00  0.00    -0.248 NA
ATOM     30  C   UNL A   1      40.438  32.671  31.014  1.00  0.00     0.031 C 
ATOM     31  C   UNL A   1      46.068  31.857  28.897  1.00  0.00     0.029 A 
ATOM     32  C   UNL A   1      44.729  31.666  29.193  1.00  0.00     0.049 A 
ATOM     33  H   UNL A   1      43.477  30.044  28.684  1.00  0.00     0.167 HD
ATOM     34  C   UNL A   1      42.525  32.299  30.142  1.00  0.00     0.074 A 
ATOM     35  C   UNL A   1      41.638  33.202  30.846  1.00  0.00     0.031 C 
ATOM     36  C   UNL A   1      43.841  32.538  29.924  1.00  0.00     0.034 A 
BRANCH  23  37
ATOM     37  C   UNL A   1      46.753  28.099  26.730  1.00  0.00     0.023 A 
ATOM     38  C   UNL A   1      47.024  28.184  25.355  1.00  0.00     0.031 A 
ATOM     39  C   UNL A   1      47.695  27.465  27.560  1.00  0.00     0.131 A 
ATOM     40  C   UNL A   1      48.190  27.598  24.845  1.00  0.00     0.055 A 
ATOM     41  C   UNL A   1      48.889  26.955  27.057  1.00  0.00     0.041 A 
ATOM     42  F   UNL A   1      47.455  27.318  28.873  1.00  0.00    -0.206 F 
ATOM     43  C   UNL A   1      49.138  27.011  25.689  1.00  0.00     0.022 A 
BRANCH  40  44
ATOM     44  S   UNL A   1      48.391  27.493  23.047  1.00  0.00     0.124 S 
ATOM     45  O   UNL A   1      49.699  28.118  22.861  1.00  0.00    -0.237 OA
ATOM     46  O   UNL A   1      48.331  26.057  22.804  1.00  0.00    -0.237 OA
ATOM     47  O   UNL A   1      47.262  28.263  22.530  1.00  0.00    -0.744 OA
ENDBRANCH  40  44
ENDBRANCH  23  37
BRANCH  24  48
ATOM     48  C   UNL A   1      38.074  30.940  30.868  1.00  0.00     0.023 A 
ATOM     49  C   UNL A   1      37.073  31.598  30.130  1.00  0.00     0.031 A 
ATOM     50  C   UNL A   1      37.876  30.815  32.257  1.00  0.00     0.131 A 
ATOM     51  C   UNL A   1      35.972  32.173  30.792  1.00  0.00     0.055 A 
ATOM     52  C   UNL A   1      36.742  31.319  32.898  1.00  0.00     0.041 A 
ATOM     53  F   UNL A   1      38.792  30.205  33.026  1.00  0.00    -0.206 F 
ATOM     54  C   UNL A   1      35.796  32.027  32.168  1.00  0.00     0.022 A 
BRANCH  51  55
ATOM     55  S   UNL A   1      34.852  33.256  29.856  1.00  0.00     0.124 S 
ATOM     56  O   UNL A   1      34.207  32.305  28.957  1.00  0.00    -0.237 OA
ATOM     57  O   UNL A   1      34.009  33.814  30.908  1.00  0.00    -0.237 OA
ATOM     58  O   UNL A   1      35.754  34.208  29.210  1.00  0.00    -0.744 OA
ENDBRANCH  51  55
ENDBRANCH  24  48
BRANCH  36  59
ATOM     59  C   UNL A   1      44.382  33.832  30.466  1.00  0.00     0.023 A 
ATOM     60  C   UNL A   1      44.300  35.023  29.722  1.00  0.00     0.031 A 
ATOM     61  C   UNL A   1      45.024  33.870  31.715  1.00  0.00     0.131 A 
ATOM     62  C   UNL A   1      44.915  36.187  30.203  1.00  0.00     0.055 A 
ATOM     63  C   UNL A   1      45.570  35.048  32.220  1.00  0.00     0.041 A 
ATOM     64  F   UNL A   1      45.134  32.758  32.459  1.00  0.00    -0.206 F 
ATOM     65  C   UNL A   1      45.531  36.212  31.457  1.00  0.00     0.022 A 
BRANCH  62  66
ATOM     66  S   UNL A   1      44.992  37.637  29.118  1.00  0.00     0.124 S 
ATOM     67  O   UNL A   1      43.582  37.863  28.817  1.00  0.00    -0.237 OA
ATOM     68  O   UNL A   1      45.628  38.634  29.973  1.00  0.00    -0.237 OA
ATOM     69  O   UNL A   1      45.803  37.180  27.992  1.00  0.00    -0.744 OA
ENDBRANCH  62  66
ENDBRANCH  36  59
ENDBRANCH  10  11
ENDBRANCH   3   5
ENDBRANCH   2   3
ENDBRANCH   1   2
BRANCH   1  70
ATOM     70  C   UNL A   1      36.105  22.171  24.390  1.00  0.00     0.274 C 
BRANCH  70  71
ATOM     71  O   UNL A   1      34.678  22.031  24.384  1.00  0.00    -0.462 OA
BRANCH  71  72
ATOM     72  C   UNL A   1      33.957  23.181  24.387  1.00  0.00     0.311 C 
ATOM     73  O   UNL A   1      33.117  23.479  23.548  1.00  0.00    -0.252 OA
BRANCH  72  74
ATOM     74  C   UNL A   1      34.227  23.947  25.657  1.00  0.00     0.128 C 
ATOM     75  C   UNL A   1      33.065  23.878  26.621  1.00  0.00     0.117 C 
ATOM     76  C   UNL A   1      34.410  25.441  25.469  1.00  0.00     0.141 C 
ATOM     77  C   UNL A   1      32.246  25.073  26.214  1.00  0.00     0.227 C 
ATOM     78  N   UNL A   1      33.095  26.010  25.564  1.00  0.00    -0.311 N 
ATOM     79  O   UNL A   1      31.064  25.190  26.501  1.00  0.00    -0.274 OA
BRANCH  78  80
ATOM     80  C   UNL A   1      32.752  27.410  25.504  1.00  0.00     0.055 A 
ATOM     81  C   UNL A   1      33.515  28.213  26.404  1.00  0.00     0.028 A 
ATOM     82  C   UNL A   1      31.758  28.093  24.753  1.00  0.00     0.048 A 
ATOM     83  C   UNL A   1      33.211  29.532  26.731  1.00  0.00     0.023 A 
ATOM     84  C   UNL A   1      31.421  29.422  25.173  1.00  0.00     0.035 A 
ATOM     85  C   UNL A   1      32.104  30.110  26.166  1.00  0.00     0.041 A 
ATOM     86  Cl  UNL A   1      31.576  31.656  26.684  1.00  0.00    -0.084 Cl
BRANCH  82  87
ATOM     87  C   UNL A   1      31.001  27.779  23.495  1.00  0.00     0.195 C 
ATOM     88  O   UNL A   1      31.342  26.775  22.856  1.00  0.00    -0.289 OA
BRANCH  87  89
ATOM     89  C   UNL A   1      29.880  28.457  22.852  1.00  0.00     0.023 A 
ATOM     90  C   UNL A   1      30.193  29.572  22.047  1.00  0.00     0.012 A 
ATOM     91  C   UNL A   1      28.566  28.235  23.245  1.00  0.00     0.012 A 
ATOM     92  C   UNL A   1      29.196  30.441  21.612  1.00  0.00     0.001 A 
ATOM     93  C   UNL A   1      27.567  29.105  22.793  1.00  0.00     0.001 A 
ATOM     94  C   UNL A   1      27.875  30.193  21.969  1.00  0.00     0.000 A 
ENDBRANCH  87  89
ENDBRANCH  82  87
ENDBRANCH  78  80
ENDBRANCH  72  74
ENDBRANCH  71  72
ENDBRANCH  70  71
ENDBRANCH   1  70
TORSDOF 17
ENDMDL
