MODEL 1
REMARK VINA RESULT:     -11.5      0.000      0.000
REMARK SMILES O=C(OCCOC(=O)c1ccc(CN2CC(=O)N3CCCC[C@@H]3C2=O)o1)c1ccc(-c2c3nc(c(-c4cc(S(=O)(=O)[O-])ccc4F)c4ccc([nH]4)c(-c4cc(S(=O)(=O)[O-])ccc4F)c4nc(c(-c5cc(S(=O)(=O)[O-])ccc5F)c5ccc2[nH]5)C=C4)C=C3)cc1
REMARK SMILES IDX 4 1 3 2 2 3 1 4 27 5 28 6 89 7 29 8 88 9 30 10 31 11 32 12
REMARK SMILES IDX 82 13 33 14 87 15 81 16 83 17 34 18 86 19 80 20 79 21 35 23
REMARK SMILES IDX 67 24 47 25 66 26 48 27 51 28 65 29 84 30 49 31 50 32 64 34
REMARK SMILES IDX 85 35 52 36 36 37 37 38 45 39 38 40 44 41 46 42 43 43 39 44
REMARK SMILES IDX 40 45 41 46 42 47 68 48 69 49 77 50 70 51 76 52 78 53 75 54
REMARK SMILES IDX 71 55 72 56 73 57 74 58 53 59 54 60 62 61 55 62 61 63 63 64
REMARK SMILES IDX 60 65 56 66 57 67 58 68 59 69 5 70 6 71 7 72 8 73 9 74 10 75
REMARK SMILES IDX 26 76 11 77 12 78 13 79 14 80 15 81 24 82 16 83 23 84 25 85
REMARK SMILES IDX 17 86 18 87 22 88 19 89 21 90 20 91
REMARK H PARENT 83 22 51 33
REMARK Flexibility Score: inf
ROOT
ATOM      1  C   UNL A   1      41.137  20.846  27.004  1.00  0.00     0.275 C 
ENDROOT
BRANCH   1   2
ATOM      2  O   UNL A   1      40.624  21.884  26.152  1.00  0.00    -0.458 OA
BRANCH   2   3
ATOM      3  C   UNL A   1      39.546  22.670  26.406  1.00  0.00     0.338 C 
ATOM      4  O   UNL A   1      38.422  22.294  26.093  1.00  0.00    -0.246 OA
BRANCH   3   5
ATOM      5  C   UNL A   1      39.733  24.083  26.841  1.00  0.00     0.060 A 
ATOM      6  C   UNL A   1      40.249  25.095  26.029  1.00  0.00     0.016 A 
ATOM      7  C   UNL A   1      39.487  24.369  28.195  1.00  0.00     0.016 A 
ATOM      8  C   UNL A   1      40.458  26.382  26.537  1.00  0.00     0.010 A 
ATOM      9  C   UNL A   1      39.714  25.652  28.711  1.00  0.00     0.010 A 
ATOM     10  C   UNL A   1      40.208  26.666  27.884  1.00  0.00    -0.014 A 
BRANCH  10  11
ATOM     11  C   UNL A   1      40.634  27.977  28.431  1.00  0.00     0.031 A 
ATOM     12  C   UNL A   1      42.098  28.311  28.440  1.00  0.00     0.074 A 
ATOM     13  C   UNL A   1      39.730  28.884  28.842  1.00  0.00     0.049 A 
ATOM     14  N   UNL A   1      42.684  29.448  28.709  1.00  0.00    -0.248 NA
ATOM     15  C   UNL A   1      43.017  27.222  28.080  1.00  0.00     0.031 C 
ATOM     16  C   UNL A   1      38.284  28.685  28.846  1.00  0.00     0.029 A 
ATOM     17  N   UNL A   1      39.890  30.158  29.323  1.00  0.00    -0.354 N 
ATOM     18  C   UNL A   1      44.039  29.227  28.498  1.00  0.00     0.074 A 
ATOM     19  C   UNL A   1      44.192  27.827  28.159  1.00  0.00     0.031 C 
ATOM     20  C   UNL A   1      37.686  29.785  29.334  1.00  0.00     0.029 A 
ATOM     21  C   UNL A   1      38.708  30.778  29.653  1.00  0.00     0.049 A 
ATOM     22  H   UNL A   1      40.770  30.589  29.424  1.00  0.00     0.167 HD
ATOM     23  C   UNL A   1      45.061  30.117  28.549  1.00  0.00     0.034 A 
ATOM     24  C   UNL A   1      38.476  32.014  30.136  1.00  0.00     0.034 A 
ATOM     25  C   UNL A   1      44.905  31.493  28.946  1.00  0.00     0.049 A 
ATOM     26  C   UNL A   1      39.638  32.961  30.290  1.00  0.00     0.074 A 
ATOM     27  C   UNL A   1      45.868  32.478  29.065  1.00  0.00     0.029 A 
ATOM     28  N   UNL A   1      43.697  32.072  29.318  1.00  0.00    -0.354 N 
ATOM     29  N   UNL A   1      40.909  32.757  30.025  1.00  0.00    -0.248 NA
ATOM     30  C   UNL A   1      39.331  34.314  30.771  1.00  0.00     0.031 C 
ATOM     31  C   UNL A   1      45.253  33.637  29.558  1.00  0.00     0.029 A 
ATOM     32  C   UNL A   1      43.895  33.392  29.694  1.00  0.00     0.049 A 
ATOM     33  H   UNL A   1      42.827  31.612  29.315  1.00  0.00     0.167 HD
ATOM     34  C   UNL A   1      41.545  33.971  30.264  1.00  0.00     0.074 A 
ATOM     35  C   UNL A   1      40.518  34.899  30.696  1.00  0.00     0.031 C 
ATOM     36  C   UNL A   1      42.856  34.297  30.124  1.00  0.00     0.034 A 
BRANCH  23  37
ATOM     37  C   UNL A   1      46.427  29.585  28.198  1.00  0.00     0.023 A 
ATOM     38  C   UNL A   1      47.268  29.036  29.184  1.00  0.00     0.031 A 
ATOM     39  C   UNL A   1      46.933  29.715  26.896  1.00  0.00     0.131 A 
ATOM     40  C   UNL A   1      48.598  28.720  28.874  1.00  0.00     0.055 A 
ATOM     41  C   UNL A   1      48.238  29.330  26.575  1.00  0.00     0.041 A 
ATOM     42  F   UNL A   1      46.185  30.253  25.921  1.00  0.00    -0.206 F 
ATOM     43  C   UNL A   1      49.084  28.847  27.571  1.00  0.00     0.022 A 
BRANCH  40  44
ATOM     44  S   UNL A   1      49.726  28.296  30.230  1.00  0.00     0.124 S 
ATOM     45  O   UNL A   1      48.830  27.615  31.161  1.00  0.00    -0.237 OA
ATOM     46  O   UNL A   1      50.717  27.458  29.566  1.00  0.00    -0.237 OA
ATOM     47  O   UNL A   1      50.216  29.597  30.687  1.00  0.00    -0.744 OA
ENDBRANCH  40  44
ENDBRANCH  23  37
BRANCH  24  48
ATOM     48  C   UNL A   1      37.093  32.437  30.495  1.00  0.00     0.023 A 
ATOM     49  C   UNL A   1      36.225  32.989  29.540  1.00  0.00     0.031 A 
ATOM     50  C   UNL A   1      36.635  32.327  31.820  1.00  0.00     0.131 A 
ATOM     51  C   UNL A   1      34.956  33.445  29.931  1.00  0.00     0.055 A 
ATOM     52  C   UNL A   1      35.360  32.751  32.198  1.00  0.00     0.041 A 
ATOM     53  F   UNL A   1      37.423  31.795  32.768  1.00  0.00    -0.206 F 
ATOM     54  C   UNL A   1      34.516  33.326  31.252  1.00  0.00     0.022 A 
BRANCH  51  55
ATOM     55  S   UNL A   1      33.904  34.257  28.695  1.00  0.00     0.124 S 
ATOM     56  O   UNL A   1      33.648  33.170  27.759  1.00  0.00    -0.237 OA
ATOM     57  O   UNL A   1      32.769  34.688  29.507  1.00  0.00    -0.237 OA
ATOM     58  O   UNL A   1      34.747  35.337  28.186  1.00  0.00    -0.744 OA
ENDBRANCH  51  55
ENDBRANCH  24  48
BRANCH  36  59
ATOM     59  C   UNL A   1      43.229  35.732  30.394  1.00  0.00     0.023 A 
ATOM     60  C   UNL A   1      43.178  36.709  29.386  1.00  0.00     0.031 A 
ATOM     61  C   UNL A   1      43.662  36.116  31.675  1.00  0.00     0.131 A 
ATOM     62  C   UNL A   1      43.608  38.015  29.662  1.00  0.00     0.055 A 
ATOM     63  C   UNL A   1      44.040  37.430  31.956  1.00  0.00     0.041 A 
ATOM     64  F   UNL A   1      43.729  35.219  32.671  1.00  0.00    -0.206 F 
ATOM     65  C   UNL A   1      44.027  38.385  30.944  1.00  0.00     0.022 A 
BRANCH  62  66
ATOM     66  S   UNL A   1      43.694  39.209  28.298  1.00  0.00     0.124 S 
ATOM     67  O   UNL A   1      43.989  38.346  27.159  1.00  0.00    -0.237 OA
ATOM     68  O   UNL A   1      42.362  39.802  28.320  1.00  0.00    -0.237 OA
ATOM     69  O   UNL A   1      44.779  40.104  28.695  1.00  0.00    -0.744 OA
ENDBRANCH  62  66
ENDBRANCH  36  59
ENDBRANCH  10  11
ENDBRANCH   3   5
ENDBRANCH   2   3
ENDBRANCH   1   2
BRANCH   1  70
ATOM     70  C   UNL A   1      40.973  19.449  26.406  1.00  0.00     0.275 C 
BRANCH  70  71
ATOM     71  O   UNL A   1      41.916  19.185  25.358  1.00  0.00    -0.456 OA
BRANCH  71  72
ATOM     72  C   UNL A   1      43.097  18.635  25.774  1.00  0.00     0.374 C 
ATOM     73  O   UNL A   1      43.196  17.611  26.442  1.00  0.00    -0.242 OA
BRANCH  72  74
ATOM     74  C   UNL A   1      44.201  19.398  25.255  1.00  0.00     0.211 A 
ATOM     75  C   UNL A   1      45.572  19.234  25.263  1.00  0.00     0.058 A 
ATOM     76  O   UNL A   1      43.902  20.575  24.639  1.00  0.00    -0.452 OA
ATOM     77  C   UNL A   1      46.129  20.383  24.633  1.00  0.00     0.048 A 
ATOM     78  C   UNL A   1      45.068  21.196  24.299  1.00  0.00     0.124 A 
BRANCH  78  79
ATOM     79  C   UNL A   1      44.926  22.560  23.701  1.00  0.00     0.195 C 
BRANCH  79  80
ATOM     80  N   UNL A   1      44.926  23.518  24.791  1.00  0.00    -0.324 N 
ATOM     81  C   UNL A   1      43.750  23.708  25.608  1.00  0.00     0.220 C 
ATOM     82  C   UNL A   1      46.058  24.284  25.038  1.00  0.00     0.246 C 
ATOM     83  C   UNL A   1      44.030  23.841  27.105  1.00  0.00     0.242 C 
ATOM     84  C   UNL A   1      46.418  24.235  26.540  1.00  0.00     0.174 C 
ATOM     85  O   UNL A   1      46.840  24.626  24.158  1.00  0.00    -0.272 OA
ATOM     86  O   UNL A   1      43.129  23.666  27.927  1.00  0.00    -0.273 OA
ATOM     87  N   UNL A   1      45.269  24.388  27.451  1.00  0.00    -0.329 N 
ATOM     88  C   UNL A   1      47.551  25.211  26.857  1.00  0.00     0.035 C 
ATOM     89  C   UNL A   1      45.564  24.489  28.875  1.00  0.00     0.120 C 
ATOM     90  C   UNL A   1      47.933  25.138  28.331  1.00  0.00     0.004 C 
ATOM     91  C   UNL A   1      46.715  25.434  29.193  1.00  0.00     0.022 C 
ENDBRANCH  79  80
ENDBRANCH  78  79
ENDBRANCH  72  74
ENDBRANCH  71  72
ENDBRANCH  70  71
ENDBRANCH   1  70
TORSDOF 16
ENDMDL
MODEL 2
REMARK VINA RESULT:     -11.2      4.460     12.736
REMARK SMILES O=C(OCCOC(=O)c1ccc(CN2CC(=O)N3CCCC[C@@H]3C2=O)o1)c1ccc(-c2c3nc(c(-c4cc(S(=O)(=O)[O-])ccc4F)c4ccc([nH]4)c(-c4cc(S(=O)(=O)[O-])ccc4F)c4nc(c(-c5cc(S(=O)(=O)[O-])ccc5F)c5ccc2[nH]5)C=C4)C=C3)cc1
REMARK SMILES IDX 4 1 3 2 2 3 1 4 27 5 28 6 89 7 29 8 88 9 30 10 31 11 32 12
REMARK SMILES IDX 82 13 33 14 87 15 81 16 83 17 34 18 86 19 80 20 79 21 35 23
REMARK SMILES IDX 67 24 47 25 66 26 48 27 51 28 65 29 84 30 49 31 50 32 64 34
REMARK SMILES IDX 85 35 52 36 36 37 37 38 45 39 38 40 44 41 46 42 43 43 39 44
REMARK SMILES IDX 40 45 41 46 42 47 68 48 69 49 77 50 70 51 76 52 78 53 75 54
REMARK SMILES IDX 71 55 72 56 73 57 74 58 53 59 54 60 62 61 55 62 61 63 63 64
REMARK SMILES IDX 60 65 56 66 57 67 58 68 59 69 5 70 6 71 7 72 8 73 9 74 10 75
REMARK SMILES IDX 26 76 11 77 12 78 13 79 14 80 15 81 24 82 16 83 23 84 25 85
REMARK SMILES IDX 17 86 18 87 22 88 19 89 21 90 20 91
REMARK H PARENT 83 22 51 33
REMARK Flexibility Score: inf
ROOT
ATOM      1  C   UNL A   1      34.511  33.688  28.428  1.00  0.00     0.275 C 
ENDROOT
BRANCH   1   2
ATOM      2  O   UNL A   1      34.219  32.316  28.740  1.00  0.00    -0.458 OA
BRANCH   2   3
ATOM      3  C   UNL A   1      34.586  31.231  28.009  1.00  0.00     0.338 C 
ATOM      4  O   UNL A   1      33.831  30.782  27.153  1.00  0.00    -0.246 OA
BRANCH   3   5
ATOM      5  C   UNL A   1      35.786  30.436  28.394  1.00  0.00     0.060 A 
ATOM      6  C   UNL A   1      35.892  29.691  29.570  1.00  0.00     0.016 A 
ATOM      7  C   UNL A   1      36.918  30.557  27.571  1.00  0.00     0.016 A 
ATOM      8  C   UNL A   1      37.081  29.028  29.891  1.00  0.00     0.010 A 
ATOM      9  C   UNL A   1      38.117  29.910  27.900  1.00  0.00     0.010 A 
ATOM     10  C   UNL A   1      38.207  29.145  29.068  1.00  0.00    -0.014 A 
BRANCH  10  11
ATOM     11  C   UNL A   1      39.502  28.601  29.544  1.00  0.00     0.031 A 
ATOM     12  C   UNL A   1      40.157  29.240  30.734  1.00  0.00     0.074 A 
ATOM     13  C   UNL A   1      40.048  27.512  28.975  1.00  0.00     0.049 A 
ATOM     14  N   UNL A   1      41.192  28.837  31.423  1.00  0.00    -0.248 NA
ATOM     15  C   UNL A   1      39.551  30.488  31.220  1.00  0.00     0.031 C 
ATOM     16  C   UNL A   1      39.486  26.788  27.838  1.00  0.00     0.029 A 
ATOM     17  N   UNL A   1      41.189  26.815  29.279  1.00  0.00    -0.354 N 
ATOM     18  C   UNL A   1      41.329  29.753  32.459  1.00  0.00     0.074 A 
ATOM     19  C   UNL A   1      40.323  30.774  32.256  1.00  0.00     0.031 C 
ATOM     20  C   UNL A   1      40.296  25.764  27.519  1.00  0.00     0.029 A 
ATOM     21  C   UNL A   1      41.423  25.745  28.448  1.00  0.00     0.049 A 
ATOM     22  H   UNL A   1      41.786  27.058  30.023  1.00  0.00     0.167 HD
ATOM     23  C   UNL A   1      42.194  29.728  33.504  1.00  0.00     0.034 A 
ATOM     24  C   UNL A   1      42.421  24.840  28.450  1.00  0.00     0.034 A 
ATOM     25  C   UNL A   1      43.230  28.739  33.661  1.00  0.00     0.049 A 
ATOM     26  C   UNL A   1      43.440  24.889  29.559  1.00  0.00     0.074 A 
ATOM     27  C   UNL A   1      44.182  28.629  34.658  1.00  0.00     0.029 A 
ATOM     28  N   UNL A   1      43.464  27.697  32.772  1.00  0.00    -0.354 N 
ATOM     29  N   UNL A   1      43.520  25.725  30.569  1.00  0.00    -0.248 NA
ATOM     30  C   UNL A   1      44.479  23.852  29.549  1.00  0.00     0.031 C 
ATOM     31  C   UNL A   1      45.023  27.553  34.345  1.00  0.00     0.029 A 
ATOM     32  C   UNL A   1      44.563  26.957  33.181  1.00  0.00     0.049 A 
ATOM     33  H   UNL A   1      42.928  27.511  31.968  1.00  0.00     0.167 HD
ATOM     34  C   UNL A   1      44.591  25.286  31.340  1.00  0.00     0.074 A 
ATOM     35  C   UNL A   1      45.127  24.113  30.676  1.00  0.00     0.031 C 
ATOM     36  C   UNL A   1      45.080  25.794  32.501  1.00  0.00     0.034 A 
BRANCH  23  37
ATOM     37  C   UNL A   1      42.051  30.837  34.514  1.00  0.00     0.023 A 
ATOM     38  C   UNL A   1      42.842  31.998  34.433  1.00  0.00     0.031 A 
ATOM     39  C   UNL A   1      41.196  30.696  35.617  1.00  0.00     0.131 A 
ATOM     40  C   UNL A   1      42.828  32.930  35.481  1.00  0.00     0.055 A 
ATOM     41  C   UNL A   1      41.132  31.663  36.623  1.00  0.00     0.041 A 
ATOM     42  F   UNL A   1      40.436  29.598  35.758  1.00  0.00    -0.206 F 
ATOM     43  C   UNL A   1      41.964  32.778  36.569  1.00  0.00     0.022 A 
BRANCH  40  44
ATOM     44  S   UNL A   1      44.070  34.253  35.481  1.00  0.00     0.124 S 
ATOM     45  O   UNL A   1      43.824  34.892  36.771  1.00  0.00    -0.237 OA
ATOM     46  O   UNL A   1      45.320  33.512  35.362  1.00  0.00    -0.237 OA
ATOM     47  O   UNL A   1      43.709  35.060  34.315  1.00  0.00    -0.744 OA
ENDBRANCH  40  44
ENDBRANCH  23  37
BRANCH  24  48
ATOM     48  C   UNL A   1      42.502  23.803  27.383  1.00  0.00     0.023 A 
ATOM     49  C   UNL A   1      41.850  22.568  27.511  1.00  0.00     0.031 A 
ATOM     50  C   UNL A   1      43.273  24.027  26.228  1.00  0.00     0.131 A 
ATOM     51  C   UNL A   1      42.010  21.586  26.520  1.00  0.00     0.055 A 
ATOM     52  C   UNL A   1      43.403  23.061  25.228  1.00  0.00     0.041 A 
ATOM     53  F   UNL A   1      43.907  25.197  26.052  1.00  0.00    -0.206 F 
ATOM     54  C   UNL A   1      42.778  21.827  25.377  1.00  0.00     0.022 A 
BRANCH  51  55
ATOM     55  S   UNL A   1      41.246  19.960  26.772  1.00  0.00     0.124 S 
ATOM     56  O   UNL A   1      40.194  19.963  25.764  1.00  0.00    -0.237 OA
ATOM     57  O   UNL A   1      42.370  19.061  26.526  1.00  0.00    -0.237 OA
ATOM     58  O   UNL A   1      40.785  20.011  28.158  1.00  0.00    -0.744 OA
ENDBRANCH  51  55
ENDBRANCH  24  48
BRANCH  36  59
ATOM     59  C   UNL A   1      46.218  25.042  33.142  1.00  0.00     0.023 A 
ATOM     60  C   UNL A   1      45.992  23.977  34.029  1.00  0.00     0.031 A 
ATOM     61  C   UNL A   1      47.546  25.417  32.874  1.00  0.00     0.131 A 
ATOM     62  C   UNL A   1      47.079  23.356  34.662  1.00  0.00     0.055 A 
ATOM     63  C   UNL A   1      48.626  24.761  33.468  1.00  0.00     0.041 A 
ATOM     64  F   UNL A   1      47.815  26.429  32.034  1.00  0.00    -0.206 F 
ATOM     65  C   UNL A   1      48.394  23.733  34.377  1.00  0.00     0.022 A 
BRANCH  62  66
ATOM     66  S   UNL A   1      46.746  22.102  35.930  1.00  0.00     0.124 S 
ATOM     67  O   UNL A   1      45.569  22.650  36.597  1.00  0.00    -0.237 OA
ATOM     68  O   UNL A   1      46.525  20.902  35.130  1.00  0.00    -0.237 OA
ATOM     69  O   UNL A   1      47.967  22.095  36.734  1.00  0.00    -0.744 OA
ENDBRANCH  62  66
ENDBRANCH  36  59
ENDBRANCH  10  11
ENDBRANCH   3   5
ENDBRANCH   2   3
ENDBRANCH   1   2
BRANCH   1  70
ATOM     70  C   UNL A   1      33.268  34.492  28.052  1.00  0.00     0.275 C 
BRANCH  70  71
ATOM     71  O   UNL A   1      32.526  34.927  29.201  1.00  0.00    -0.456 OA
BRANCH  71  72
ATOM     72  C   UNL A   1      32.918  36.133  29.712  1.00  0.00     0.374 C 
ATOM     73  O   UNL A   1      32.905  37.193  29.095  1.00  0.00    -0.242 OA
BRANCH  72  74
ATOM     74  C   UNL A   1      33.279  35.982  31.096  1.00  0.00     0.211 A 
ATOM     75  C   UNL A   1      33.568  36.866  32.118  1.00  0.00     0.058 A 
ATOM     76  O   UNL A   1      33.425  34.710  31.561  1.00  0.00    -0.452 OA
ATOM     77  C   UNL A   1      33.923  36.083  33.253  1.00  0.00     0.048 A 
ATOM     78  C   UNL A   1      33.857  34.767  32.854  1.00  0.00     0.124 A 
BRANCH  78  79
ATOM     79  C   UNL A   1      34.169  33.449  33.491  1.00  0.00     0.195 C 
BRANCH  79  80
ATOM     80  N   UNL A   1      35.559  33.144  33.206  1.00  0.00    -0.324 N 
ATOM     81  C   UNL A   1      35.956  32.649  31.908  1.00  0.00     0.220 C 
ATOM     82  C   UNL A   1      36.519  33.302  34.197  1.00  0.00     0.246 C 
ATOM     83  C   UNL A   1      37.244  33.263  31.359  1.00  0.00     0.242 C 
ATOM     84  C   UNL A   1      37.725  34.098  33.650  1.00  0.00     0.174 C 
ATOM     85  O   UNL A   1      36.279  33.160  35.391  1.00  0.00    -0.272 OA
ATOM     86  O   UNL A   1      37.506  33.193  30.157  1.00  0.00    -0.273 OA
ATOM     87  N   UNL A   1      38.179  33.680  32.311  1.00  0.00    -0.329 N 
ATOM     88  C   UNL A   1      38.863  34.126  34.671  1.00  0.00     0.035 C 
ATOM     89  C   UNL A   1      39.397  34.299  31.803  1.00  0.00     0.120 C 
ATOM     90  C   UNL A   1      40.040  34.942  34.149  1.00  0.00     0.004 C 
ATOM     91  C   UNL A   1      40.522  34.360  32.827  1.00  0.00     0.022 C 
ENDBRANCH  79  80
ENDBRANCH  78  79
ENDBRANCH  72  74
ENDBRANCH  71  72
ENDBRANCH  70  71
ENDBRANCH   1  70
TORSDOF 16
ENDMDL
MODEL 3
REMARK VINA RESULT:     -10.7      5.666     11.776
REMARK SMILES O=C(OCCOC(=O)c1ccc(CN2CC(=O)N3CCCC[C@@H]3C2=O)o1)c1ccc(-c2c3nc(c(-c4cc(S(=O)(=O)[O-])ccc4F)c4ccc([nH]4)c(-c4cc(S(=O)(=O)[O-])ccc4F)c4nc(c(-c5cc(S(=O)(=O)[O-])ccc5F)c5ccc2[nH]5)C=C4)C=C3)cc1
REMARK SMILES IDX 4 1 3 2 2 3 1 4 27 5 28 6 89 7 29 8 88 9 30 10 31 11 32 12
REMARK SMILES IDX 82 13 33 14 87 15 81 16 83 17 34 18 86 19 80 20 79 21 35 23
REMARK SMILES IDX 67 24 47 25 66 26 48 27 51 28 65 29 84 30 49 31 50 32 64 34
REMARK SMILES IDX 85 35 52 36 36 37 37 38 45 39 38 40 44 41 46 42 43 43 39 44
REMARK SMILES IDX 40 45 41 46 42 47 68 48 69 49 77 50 70 51 76 52 78 53 75 54
REMARK SMILES IDX 71 55 72 56 73 57 74 58 53 59 54 60 62 61 55 62 61 63 63 64
REMARK SMILES IDX 60 65 56 66 57 67 58 68 59 69 5 70 6 71 7 72 8 73 9 74 10 75
REMARK SMILES IDX 26 76 11 77 12 78 13 79 14 80 15 81 24 82 16 83 23 84 25 85
REMARK SMILES IDX 17 86 18 87 22 88 19 89 21 90 20 91
REMARK H PARENT 83 22 51 33
REMARK Flexibility Score: inf
ROOT
ATOM      1  C   UNL A   1      31.319  32.083  26.871  1.00  0.00     0.275 C 
ENDROOT
BRANCH   1   2
ATOM      2  O   UNL A   1      32.344  33.088  26.813  1.00  0.00    -0.458 OA
BRANCH   2   3
ATOM      3  C   UNL A   1      33.079  33.546  27.859  1.00  0.00     0.338 C 
ATOM      4  O   UNL A   1      32.834  34.643  28.350  1.00  0.00    -0.246 OA
BRANCH   3   5
ATOM      5  C   UNL A   1      34.329  32.844  28.264  1.00  0.00     0.060 A 
ATOM      6  C   UNL A   1      34.363  31.592  28.882  1.00  0.00     0.016 A 
ATOM      7  C   UNL A   1      35.533  33.555  28.121  1.00  0.00     0.016 A 
ATOM      8  C   UNL A   1      35.577  31.031  29.294  1.00  0.00     0.010 A 
ATOM      9  C   UNL A   1      36.747  33.004  28.551  1.00  0.00     0.010 A 
ATOM     10  C   UNL A   1      36.775  31.738  29.147  1.00  0.00    -0.014 A 
BRANCH  10  11
ATOM     11  C   UNL A   1      38.005  31.204  29.780  1.00  0.00     0.031 A 
ATOM     12  C   UNL A   1      38.332  31.622  31.184  1.00  0.00     0.074 A 
ATOM     13  C   UNL A   1      38.777  30.304  29.145  1.00  0.00     0.049 A 
ATOM     14  N   UNL A   1      39.251  31.159  31.991  1.00  0.00    -0.248 NA
ATOM     15  C   UNL A   1      37.500  32.690  31.757  1.00  0.00     0.031 C 
ATOM     16  C   UNL A   1      38.539  29.798  27.796  1.00  0.00     0.029 A 
ATOM     17  N   UNL A   1      39.909  29.644  29.551  1.00  0.00    -0.354 N 
ATOM     18  C   UNL A   1      39.072  31.842  33.188  1.00  0.00     0.074 A 
ATOM     19  C   UNL A   1      38.013  32.806  32.971  1.00  0.00     0.031 C 
ATOM     20  C   UNL A   1      39.511  28.928  27.471  1.00  0.00     0.029 A 
ATOM     21  C   UNL A   1      40.426  28.796  28.600  1.00  0.00     0.049 A 
ATOM     22  H   UNL A   1      40.314  29.767  30.439  1.00  0.00     0.167 HD
ATOM     23  C   UNL A   1      39.710  31.660  34.371  1.00  0.00     0.034 A 
ATOM     24  C   UNL A   1      41.503  27.987  28.646  1.00  0.00     0.034 A 
ATOM     25  C   UNL A   1      40.803  30.740  34.557  1.00  0.00     0.049 A 
ATOM     26  C   UNL A   1      42.270  27.875  29.938  1.00  0.00     0.074 A 
ATOM     27  C   UNL A   1      41.545  30.492  35.698  1.00  0.00     0.029 A 
ATOM     28  N   UNL A   1      41.329  29.931  33.557  1.00  0.00    -0.354 N 
ATOM     29  N   UNL A   1      42.050  28.482  31.083  1.00  0.00    -0.248 NA
ATOM     30  C   UNL A   1      43.405  26.944  29.956  1.00  0.00     0.031 C 
ATOM     31  C   UNL A   1      42.552  29.573  35.374  1.00  0.00     0.029 A 
ATOM     32  C   UNL A   1      42.404  29.204  34.046  1.00  0.00     0.049 A 
ATOM     33  H   UNL A   1      40.988  29.881  32.636  1.00  0.00     0.167 HD
ATOM     34  C   UNL A   1      42.991  27.969  31.970  1.00  0.00     0.074 A 
ATOM     35  C   UNL A   1      43.781  27.008  31.225  1.00  0.00     0.031 C 
ATOM     36  C   UNL A   1      43.178  28.254  33.284  1.00  0.00     0.034 A 
BRANCH  23  37
ATOM     37  C   UNL A   1      39.241  32.516  35.520  1.00  0.00     0.023 A 
ATOM     38  C   UNL A   1      39.652  33.857  35.641  1.00  0.00     0.031 A 
ATOM     39  C   UNL A   1      38.464  31.967  36.551  1.00  0.00     0.131 A 
ATOM     40  C   UNL A   1      39.359  34.577  36.808  1.00  0.00     0.055 A 
ATOM     41  C   UNL A   1      38.113  32.713  37.680  1.00  0.00     0.041 A 
ATOM     42  F   UNL A   1      38.065  30.687  36.500  1.00  0.00    -0.206 F 
ATOM     43  C   UNL A   1      38.577  34.018  37.821  1.00  0.00     0.022 A 
BRANCH  40  44
ATOM     44  S   UNL A   1      40.150  36.191  37.051  1.00  0.00     0.124 S 
ATOM     45  O   UNL A   1      39.351  36.754  38.136  1.00  0.00    -0.237 OA
ATOM     46  O   UNL A   1      41.520  35.822  37.391  1.00  0.00    -0.237 OA
ATOM     47  O   UNL A   1      39.985  36.852  35.758  1.00  0.00    -0.744 OA
ENDBRANCH  40  44
ENDBRANCH  23  37
BRANCH  24  48
ATOM     48  C   UNL A   1      41.914  27.210  27.443  1.00  0.00     0.023 A 
ATOM     49  C   UNL A   1      41.757  25.817  27.383  1.00  0.00     0.031 A 
ATOM     50  C   UNL A   1      42.511  27.857  26.345  1.00  0.00     0.131 A 
ATOM     51  C   UNL A   1      42.225  25.109  26.264  1.00  0.00     0.055 A 
ATOM     52  C   UNL A   1      42.945  27.153  25.221  1.00  0.00     0.041 A 
ATOM     53  F   UNL A   1      42.674  29.189  26.350  1.00  0.00    -0.206 F 
ATOM     54  C   UNL A   1      42.813  25.768  25.181  1.00  0.00     0.022 A 
BRANCH  51  55
ATOM     55  S   UNL A   1      42.108  23.298  26.268  1.00  0.00     0.124 S 
ATOM     56  O   UNL A   1      40.685  23.089  26.502  1.00  0.00    -0.237 OA
ATOM     57  O   UNL A   1      42.597  22.965  24.933  1.00  0.00    -0.237 OA
ATOM     58  O   UNL A   1      42.988  22.903  27.366  1.00  0.00    -0.744 OA
ENDBRANCH  51  55
ENDBRANCH  24  48
BRANCH  36  59
ATOM     59  C   UNL A   1      44.247  27.470  34.001  1.00  0.00     0.023 A 
ATOM     60  C   UNL A   1      43.942  26.323  34.753  1.00  0.00     0.031 A 
ATOM     61  C   UNL A   1      45.586  27.894  33.945  1.00  0.00     0.131 A 
ATOM     62  C   UNL A   1      44.957  25.669  35.467  1.00  0.00     0.055 A 
ATOM     63  C   UNL A   1      46.600  27.209  34.616  1.00  0.00     0.041 A 
ATOM     64  F   UNL A   1      45.929  28.984  33.240  1.00  0.00    -0.206 F 
ATOM     65  C   UNL A   1      46.286  26.097  35.392  1.00  0.00     0.022 A 
BRANCH  62  66
ATOM     66  S   UNL A   1      44.504  24.298  36.565  1.00  0.00     0.124 S 
ATOM     67  O   UNL A   1      43.431  24.888  37.359  1.00  0.00    -0.237 OA
ATOM     68  O   UNL A   1      44.101  23.263  35.619  1.00  0.00    -0.237 OA
ATOM     69  O   UNL A   1      45.738  24.023  37.298  1.00  0.00    -0.744 OA
ENDBRANCH  62  66
ENDBRANCH  36  59
ENDBRANCH  10  11
ENDBRANCH   3   5
ENDBRANCH   2   3
ENDBRANCH   1   2
BRANCH   1  70
ATOM     70  C   UNL A   1      31.669  30.828  26.072  1.00  0.00     0.275 C 
BRANCH  70  71
ATOM     71  O   UNL A   1      32.278  29.812  26.881  1.00  0.00    -0.456 OA
BRANCH  71  72
ATOM     72  C   UNL A   1      33.227  29.062  26.243  1.00  0.00     0.374 C 
ATOM     73  O   UNL A   1      34.416  29.034  26.543  1.00  0.00    -0.242 OA
BRANCH  72  74
ATOM     74  C   UNL A   1      32.610  28.264  25.217  1.00  0.00     0.211 A 
ATOM     75  C   UNL A   1      32.690  28.239  23.838  1.00  0.00     0.058 A 
ATOM     76  O   UNL A   1      31.704  27.331  25.622  1.00  0.00    -0.452 OA
ATOM     77  C   UNL A   1      31.770  27.250  23.389  1.00  0.00     0.048 A 
ATOM     78  C   UNL A   1      31.161  26.744  24.516  1.00  0.00     0.124 A 
BRANCH  78  79
ATOM     79  C   UNL A   1      30.064  25.760  24.777  1.00  0.00     0.195 C 
BRANCH  79  80
ATOM     80  N   UNL A   1      30.671  24.444  24.867  1.00  0.00    -0.324 N 
ATOM     81  C   UNL A   1      30.936  23.670  23.677  1.00  0.00     0.220 C 
ATOM     82  C   UNL A   1      30.974  23.906  26.111  1.00  0.00     0.246 C 
ATOM     83  C   UNL A   1      32.288  22.955  23.672  1.00  0.00     0.242 C 
ATOM     84  C   UNL A   1      32.421  23.365  26.120  1.00  0.00     0.174 C 
ATOM     85  O   UNL A   1      30.333  24.161  27.125  1.00  0.00    -0.272 OA
ATOM     86  O   UNL A   1      32.778  22.554  22.615  1.00  0.00    -0.273 OA
ATOM     87  N   UNL A   1      32.791  22.587  24.923  1.00  0.00    -0.329 N 
ATOM     88  C   UNL A   1      32.710  22.613  27.420  1.00  0.00     0.035 C 
ATOM     89  C   UNL A   1      34.095  21.934  24.937  1.00  0.00     0.120 C 
ATOM     90  C   UNL A   1      34.149  22.109  27.446  1.00  0.00     0.004 C 
ATOM     91  C   UNL A   1      34.401  21.213  26.242  1.00  0.00     0.022 C 
ENDBRANCH  79  80
ENDBRANCH  78  79
ENDBRANCH  72  74
ENDBRANCH  71  72
ENDBRANCH  70  71
ENDBRANCH   1  70
TORSDOF 16
ENDMDL
