MODEL 1
REMARK VINA RESULT:     -11.8      0.000      0.000
REMARK SMILES C[C@@H](C(=O)OCCOC(=O)c1ccc(-c2c3nc(c(-c4cc(S(=O)(=O)[O-])ccc4F)c4ccc([nH]4)c(-c4cc(S(=O)(=O)[O-])ccc4F)c4nc(c(-c5cc(S(=O)(=O)[O-])ccc5F)c5ccc2[nH]5)C=C4)C=C3)cc1)c1ccc(Cc2ccsc2)cc1F
REMARK SMILES IDX 6 1 5 2 3 3 4 4 2 5 1 6 74 7 75 8 85 9 76 10 84 11 86 12
REMARK SMILES IDX 77 13 78 14 79 15 80 16 83 17 81 18 82 19 7 20 8 21 9 22
REMARK SMILES IDX 10 23 11 24 12 25 73 26 13 27 72 28 14 29 15 30 16 31 66 32
REMARK SMILES IDX 17 33 71 34 65 35 67 36 18 37 70 38 64 39 63 40 19 42 51 43
REMARK SMILES IDX 31 44 50 45 32 46 35 47 49 48 68 49 33 50 34 51 48 53 69 54
REMARK SMILES IDX 36 55 20 56 21 57 29 58 22 59 28 60 30 61 27 62 23 63 24 64
REMARK SMILES IDX 25 65 26 66 52 67 53 68 61 69 54 70 60 71 62 72 59 73 55 74
REMARK SMILES IDX 56 75 57 76 58 77 37 78 38 79 46 80 39 81 45 82 47 83 44 84
REMARK SMILES IDX 40 85 41 86 42 87 43 88
REMARK H PARENT 67 41 35 52
REMARK Flexibility Score: inf
ROOT
ATOM      1  C   UNL A   1      32.111  28.185  26.647  1.00  0.00     0.274 C 
ENDROOT
BRANCH   1   2
ATOM      2  O   UNL A   1      32.705  27.807  25.386  1.00  0.00    -0.462 OA
BRANCH   2   3
ATOM      3  C   UNL A   1      33.100  26.507  25.251  1.00  0.00     0.313 C 
ATOM      4  O   UNL A   1      34.031  26.024  25.886  1.00  0.00    -0.252 OA
BRANCH   3   5
ATOM      5  C   UNL A   1      32.311  25.748  24.157  1.00  0.00     0.129 C 
ATOM      6  C   UNL A   1      33.241  25.287  23.023  1.00  0.00     0.025 C 
BRANCH   5   7
ATOM      7  C   UNL A   1      31.051  26.502  23.704  1.00  0.00     0.002 A 
ATOM      8  C   UNL A   1      29.786  26.074  24.148  1.00  0.00     0.008 A 
ATOM      9  C   UNL A   1      31.063  27.634  22.880  1.00  0.00     0.127 A 
ATOM     10  C   UNL A   1      28.616  26.804  23.872  1.00  0.00     0.004 A 
ATOM     11  C   UNL A   1      29.898  28.351  22.580  1.00  0.00     0.043 A 
ATOM     12  F   UNL A   1      32.211  28.109  22.378  1.00  0.00    -0.207 F 
ATOM     13  C   UNL A   1      28.650  27.970  23.097  1.00  0.00    -0.041 A 
BRANCH  13  14
ATOM     14  C   UNL A   1      27.492  28.947  22.984  1.00  0.00     0.072 C 
BRANCH  14  15
ATOM     15  C   UNL A   1      27.969  30.313  22.596  1.00  0.00    -0.033 A 
ATOM     16  C   UNL A   1      28.023  30.822  21.251  1.00  0.00     0.015 A 
ATOM     17  C   UNL A   1      28.266  31.320  23.498  1.00  0.00     0.068 A 
ATOM     18  C   UNL A   1      28.391  32.149  21.190  1.00  0.00     0.065 A 
ATOM     19  S   UNL A   1      28.661  32.802  22.744  1.00  0.00    -0.152 S 
ENDBRANCH  14  15
ENDBRANCH  13  14
ENDBRANCH   5   7
ENDBRANCH   3   5
ENDBRANCH   2   3
ENDBRANCH   1   2
BRANCH   1  20
ATOM     20  C   UNL A   1      31.876  29.692  26.691  1.00  0.00     0.275 C 
BRANCH  20  21
ATOM     21  O   UNL A   1      33.098  30.359  26.341  1.00  0.00    -0.458 OA
BRANCH  21  22
ATOM     22  C   UNL A   1      33.486  31.364  27.159  1.00  0.00     0.338 C 
ATOM     23  O   UNL A   1      32.874  32.380  27.431  1.00  0.00    -0.246 OA
BRANCH  22  24
ATOM     24  C   UNL A   1      34.807  31.021  27.710  1.00  0.00     0.060 A 
ATOM     25  C   UNL A   1      35.081  29.692  28.010  1.00  0.00     0.016 A 
ATOM     26  C   UNL A   1      35.742  32.014  27.998  1.00  0.00     0.016 A 
ATOM     27  C   UNL A   1      36.269  29.358  28.650  1.00  0.00     0.010 A 
ATOM     28  C   UNL A   1      36.962  31.662  28.593  1.00  0.00     0.010 A 
ATOM     29  C   UNL A   1      37.226  30.330  28.959  1.00  0.00    -0.014 A 
BRANCH  29  30
ATOM     30  C   UNL A   1      38.435  29.951  29.745  1.00  0.00     0.031 A 
ATOM     31  C   UNL A   1      39.466  29.036  29.135  1.00  0.00     0.074 A 
ATOM     32  C   UNL A   1      38.671  30.484  30.963  1.00  0.00     0.049 A 
ATOM     33  N   UNL A   1      40.514  28.479  29.685  1.00  0.00    -0.248 NA
ATOM     34  C   UNL A   1      39.290  28.708  27.712  1.00  0.00     0.031 C 
ATOM     35  C   UNL A   1      37.822  31.468  31.636  1.00  0.00     0.029 A 
ATOM     36  N   UNL A   1      39.714  30.297  31.838  1.00  0.00    -0.354 N 
ATOM     37  C   UNL A   1      41.090  27.688  28.696  1.00  0.00     0.074 A 
ATOM     38  C   UNL A   1      40.275  27.845  27.509  1.00  0.00     0.031 C 
ATOM     39  C   UNL A   1      38.398  31.828  32.793  1.00  0.00     0.029 A 
ATOM     40  C   UNL A   1      39.607  31.035  32.994  1.00  0.00     0.049 A 
ATOM     41  H   UNL A   1      40.468  29.690  31.655  1.00  0.00     0.167 HD
ATOM     42  C   UNL A   1      42.190  26.897  28.773  1.00  0.00     0.034 A 
ATOM     43  C   UNL A   1      40.366  31.041  34.111  1.00  0.00     0.034 A 
ATOM     44  C   UNL A   1      43.016  26.775  29.949  1.00  0.00     0.049 A 
ATOM     45  C   UNL A   1      41.536  30.092  34.205  1.00  0.00     0.074 A 
ATOM     46  C   UNL A   1      44.136  25.980  30.139  1.00  0.00     0.029 A 
ATOM     47  N   UNL A   1      42.822  27.471  31.135  1.00  0.00    -0.354 N 
ATOM     48  N   UNL A   1      42.002  29.261  33.302  1.00  0.00    -0.248 NA
ATOM     49  C   UNL A   1      42.261  30.059  35.483  1.00  0.00     0.031 C 
ATOM     50  C   UNL A   1      44.580  26.152  31.456  1.00  0.00     0.029 A 
ATOM     51  C   UNL A   1      43.781  27.104  32.066  1.00  0.00     0.049 A 
ATOM     52  H   UNL A   1      42.106  28.128  31.292  1.00  0.00     0.167 HD
ATOM     53  C   UNL A   1      43.080  28.616  33.902  1.00  0.00     0.074 A 
ATOM     54  C   UNL A   1      43.211  29.171  35.233  1.00  0.00     0.031 C 
ATOM     55  C   UNL A   1      43.889  27.648  33.399  1.00  0.00     0.034 A 
BRANCH  42  56
ATOM     56  C   UNL A   1      42.505  26.036  27.575  1.00  0.00     0.023 A 
ATOM     57  C   UNL A   1      42.008  24.730  27.436  1.00  0.00     0.031 A 
ATOM     58  C   UNL A   1      43.357  26.529  26.569  1.00  0.00     0.131 A 
ATOM     59  C   UNL A   1      42.418  23.938  26.352  1.00  0.00     0.055 A 
ATOM     60  C   UNL A   1      43.704  25.762  25.456  1.00  0.00     0.041 A 
ATOM     61  F   UNL A   1      43.881  27.761  26.662  1.00  0.00    -0.206 F 
ATOM     62  C   UNL A   1      43.245  24.453  25.350  1.00  0.00     0.022 A 
BRANCH  59  63
ATOM     63  S   UNL A   1      41.973  22.179  26.341  1.00  0.00     0.124 S 
ATOM     64  O   UNL A   1      42.522  21.727  27.616  1.00  0.00    -0.237 OA
ATOM     65  O   UNL A   1      40.518  22.225  26.251  1.00  0.00    -0.237 OA
ATOM     66  O   UNL A   1      42.656  21.661  25.157  1.00  0.00    -0.744 OA
ENDBRANCH  59  63
ENDBRANCH  42  56
BRANCH  43  67
ATOM     67  C   UNL A   1      40.002  31.902  35.275  1.00  0.00     0.023 A 
ATOM     68  C   UNL A   1      39.102  31.456  36.255  1.00  0.00     0.031 A 
ATOM     69  C   UNL A   1      40.500  33.214  35.386  1.00  0.00     0.131 A 
ATOM     70  C   UNL A   1      38.696  32.328  37.279  1.00  0.00     0.055 A 
ATOM     71  C   UNL A   1      40.138  34.056  36.439  1.00  0.00     0.041 A 
ATOM     72  F   UNL A   1      41.355  33.697  34.471  1.00  0.00    -0.206 F 
ATOM     73  C   UNL A   1      39.220  33.618  37.386  1.00  0.00     0.022 A 
BRANCH  70  74
ATOM     74  S   UNL A   1      37.402  31.779  38.425  1.00  0.00     0.124 S 
ATOM     75  O   UNL A   1      36.326  32.719  38.131  1.00  0.00    -0.237 OA
ATOM     76  O   UNL A   1      37.189  30.401  37.998  1.00  0.00    -0.237 OA
ATOM     77  O   UNL A   1      38.024  31.934  39.739  1.00  0.00    -0.744 OA
ENDBRANCH  70  74
ENDBRANCH  43  67
BRANCH  55  78
ATOM     78  C   UNL A   1      45.001  27.153  34.290  1.00  0.00     0.023 A 
ATOM     79  C   UNL A   1      44.845  26.015  35.104  1.00  0.00     0.031 A 
ATOM     80  C   UNL A   1      46.229  27.836  34.336  1.00  0.00     0.131 A 
ATOM     81  C   UNL A   1      45.882  25.623  35.962  1.00  0.00     0.055 A 
ATOM     82  C   UNL A   1      47.276  27.411  35.155  1.00  0.00     0.041 A 
ATOM     83  F   UNL A   1      46.431  28.928  33.581  1.00  0.00    -0.206 F 
ATOM     84  C   UNL A   1      47.103  26.306  35.983  1.00  0.00     0.022 A 
BRANCH  81  85
ATOM     85  S   UNL A   1      45.592  24.251  37.113  1.00  0.00     0.124 S 
ATOM     86  O   UNL A   1      44.861  24.908  38.192  1.00  0.00    -0.237 OA
ATOM     87  O   UNL A   1      44.823  23.316  36.298  1.00  0.00    -0.237 OA
ATOM     88  O   UNL A   1      46.940  23.803  37.461  1.00  0.00    -0.744 OA
ENDBRANCH  81  85
ENDBRANCH  55  78
ENDBRANCH  29  30
ENDBRANCH  22  24
ENDBRANCH  21  22
ENDBRANCH  20  21
ENDBRANCH   1  20
TORSDOF 17
ENDMDL
MODEL 2
REMARK VINA RESULT:     -11.6      1.973      3.485
REMARK SMILES C[C@@H](C(=O)OCCOC(=O)c1ccc(-c2c3nc(c(-c4cc(S(=O)(=O)[O-])ccc4F)c4ccc([nH]4)c(-c4cc(S(=O)(=O)[O-])ccc4F)c4nc(c(-c5cc(S(=O)(=O)[O-])ccc5F)c5ccc2[nH]5)C=C4)C=C3)cc1)c1ccc(Cc2ccsc2)cc1F
REMARK SMILES IDX 6 1 5 2 3 3 4 4 2 5 1 6 74 7 75 8 85 9 76 10 84 11 86 12
REMARK SMILES IDX 77 13 78 14 79 15 80 16 83 17 81 18 82 19 7 20 8 21 9 22
REMARK SMILES IDX 10 23 11 24 12 25 73 26 13 27 72 28 14 29 15 30 16 31 66 32
REMARK SMILES IDX 17 33 71 34 65 35 67 36 18 37 70 38 64 39 63 40 19 42 51 43
REMARK SMILES IDX 31 44 50 45 32 46 35 47 49 48 68 49 33 50 34 51 48 53 69 54
REMARK SMILES IDX 36 55 20 56 21 57 29 58 22 59 28 60 30 61 27 62 23 63 24 64
REMARK SMILES IDX 25 65 26 66 52 67 53 68 61 69 54 70 60 71 62 72 59 73 55 74
REMARK SMILES IDX 56 75 57 76 58 77 37 78 38 79 46 80 39 81 45 82 47 83 44 84
REMARK SMILES IDX 40 85 41 86 42 87 43 88
REMARK H PARENT 67 41 35 52
REMARK Flexibility Score: inf
ROOT
ATOM      1  C   UNL A   1      31.302  30.081  25.228  1.00  0.00     0.274 C 
ENDROOT
BRANCH   1   2
ATOM      2  O   UNL A   1      31.372  28.701  24.806  1.00  0.00    -0.462 OA
BRANCH   2   3
ATOM      3  C   UNL A   1      32.010  28.444  23.626  1.00  0.00     0.313 C 
ATOM      4  O   UNL A   1      33.105  28.917  23.344  1.00  0.00    -0.252 OA
BRANCH   3   5
ATOM      5  C   UNL A   1      31.166  27.574  22.663  1.00  0.00     0.129 C 
ATOM      6  C   UNL A   1      29.671  27.909  22.779  1.00  0.00     0.025 C 
BRANCH   5   7
ATOM      7  C   UNL A   1      31.511  26.080  22.757  1.00  0.00     0.002 A 
ATOM      8  C   UNL A   1      30.602  25.192  23.362  1.00  0.00     0.008 A 
ATOM      9  C   UNL A   1      32.684  25.508  22.249  1.00  0.00     0.127 A 
ATOM     10  C   UNL A   1      30.807  23.801  23.357  1.00  0.00     0.004 A 
ATOM     11  C   UNL A   1      32.907  24.125  22.264  1.00  0.00     0.043 A 
ATOM     12  F   UNL A   1      33.630  26.267  21.679  1.00  0.00    -0.207 F 
ATOM     13  C   UNL A   1      31.957  23.236  22.790  1.00  0.00    -0.041 A 
BRANCH  13  14
ATOM     14  C   UNL A   1      32.120  21.752  22.507  1.00  0.00     0.072 C 
BRANCH  14  15
ATOM     15  C   UNL A   1      32.660  21.027  23.702  1.00  0.00    -0.033 A 
ATOM     16  C   UNL A   1      33.381  21.639  24.787  1.00  0.00     0.015 A 
ATOM     17  C   UNL A   1      32.392  19.702  23.996  1.00  0.00     0.068 A 
ATOM     18  C   UNL A   1      33.659  20.762  25.813  1.00  0.00     0.065 A 
ATOM     19  S   UNL A   1      33.046  19.200  25.494  1.00  0.00    -0.152 S 
ENDBRANCH  14  15
ENDBRANCH  13  14
ENDBRANCH   5   7
ENDBRANCH   3   5
ENDBRANCH   2   3
ENDBRANCH   1   2
BRANCH   1  20
ATOM     20  C   UNL A   1      31.849  30.230  26.644  1.00  0.00     0.275 C 
BRANCH  20  21
ATOM     21  O   UNL A   1      33.263  30.469  26.569  1.00  0.00    -0.458 OA
BRANCH  21  22
ATOM     22  C   UNL A   1      33.738  31.486  27.324  1.00  0.00     0.338 C 
ATOM     23  O   UNL A   1      33.192  32.544  27.576  1.00  0.00    -0.246 OA
BRANCH  22  24
ATOM     24  C   UNL A   1      35.062  31.096  27.834  1.00  0.00     0.060 A 
ATOM     25  C   UNL A   1      35.279  29.768  28.184  1.00  0.00     0.016 A 
ATOM     26  C   UNL A   1      36.060  32.048  28.037  1.00  0.00     0.016 A 
ATOM     27  C   UNL A   1      36.475  29.398  28.788  1.00  0.00     0.010 A 
ATOM     28  C   UNL A   1      37.285  31.657  28.596  1.00  0.00     0.010 A 
ATOM     29  C   UNL A   1      37.495  30.330  29.011  1.00  0.00    -0.014 A 
BRANCH  29  30
ATOM     30  C   UNL A   1      38.716  29.921  29.763  1.00  0.00     0.031 A 
ATOM     31  C   UNL A   1      39.708  28.984  29.122  1.00  0.00     0.074 A 
ATOM     32  C   UNL A   1      38.998  30.444  30.975  1.00  0.00     0.049 A 
ATOM     33  N   UNL A   1      40.758  28.402  29.641  1.00  0.00    -0.248 NA
ATOM     34  C   UNL A   1      39.486  28.665  27.704  1.00  0.00     0.031 C 
ATOM     35  C   UNL A   1      38.190  31.445  31.674  1.00  0.00     0.029 A 
ATOM     36  N   UNL A   1      40.060  30.230  31.820  1.00  0.00    -0.354 N 
ATOM     37  C   UNL A   1      41.289  27.601  28.635  1.00  0.00     0.074 A 
ATOM     38  C   UNL A   1      40.445  27.781  27.470  1.00  0.00     0.031 C 
ATOM     39  C   UNL A   1      38.807  31.787  32.816  1.00  0.00     0.029 A 
ATOM     40  C   UNL A   1      40.002  30.967  32.981  1.00  0.00     0.049 A 
ATOM     41  H   UNL A   1      40.794  29.607  31.615  1.00  0.00     0.167 HD
ATOM     42  C   UNL A   1      42.371  26.785  28.679  1.00  0.00     0.034 A 
ATOM     43  C   UNL A   1      40.791  30.952  34.077  1.00  0.00     0.034 A 
ATOM     44  C   UNL A   1      43.227  26.639  29.831  1.00  0.00     0.049 A 
ATOM     45  C   UNL A   1      41.941  29.975  34.136  1.00  0.00     0.074 A 
ATOM     46  C   UNL A   1      44.332  25.819  29.988  1.00  0.00     0.029 A 
ATOM     47  N   UNL A   1      43.081  27.335  31.024  1.00  0.00    -0.354 N 
ATOM     48  N   UNL A   1      42.363  29.137  33.217  1.00  0.00    -0.248 NA
ATOM     49  C   UNL A   1      42.700  29.922  35.393  1.00  0.00     0.031 C 
ATOM     50  C   UNL A   1      44.817  25.975  31.292  1.00  0.00     0.029 A 
ATOM     51  C   UNL A   1      44.057  26.944  31.927  1.00  0.00     0.049 A 
ATOM     52  H   UNL A   1      42.386  28.009  31.202  1.00  0.00     0.167 HD
ATOM     53  C   UNL A   1      43.442  28.466  33.786  1.00  0.00     0.074 A 
ATOM     54  C   UNL A   1      43.622  29.013  35.114  1.00  0.00     0.031 C 
ATOM     55  C   UNL A   1      44.214  27.481  33.258  1.00  0.00     0.034 A 
BRANCH  42  56
ATOM     56  C   UNL A   1      42.633  25.921  27.470  1.00  0.00     0.023 A 
ATOM     57  C   UNL A   1      42.146  24.608  27.365  1.00  0.00     0.031 A 
ATOM     58  C   UNL A   1      43.425  26.418  26.418  1.00  0.00     0.131 A 
ATOM     59  C   UNL A   1      42.508  23.815  26.264  1.00  0.00     0.055 A 
ATOM     60  C   UNL A   1      43.722  25.649  25.292  1.00  0.00     0.041 A 
ATOM     61  F   UNL A   1      43.937  27.657  26.476  1.00  0.00    -0.206 F 
ATOM     62  C   UNL A   1      43.274  24.333  25.217  1.00  0.00     0.022 A 
BRANCH  59  63
ATOM     63  S   UNL A   1      42.085  22.050  26.286  1.00  0.00     0.124 S 
ATOM     64  O   UNL A   1      42.463  21.673  27.645  1.00  0.00    -0.237 OA
ATOM     65  O   UNL A   1      40.655  22.067  26.000  1.00  0.00    -0.237 OA
ATOM     66  O   UNL A   1      42.926  21.484  25.233  1.00  0.00    -0.744 OA
ENDBRANCH  59  63
ENDBRANCH  42  56
BRANCH  43  67
ATOM     67  C   UNL A   1      40.480  31.816  35.252  1.00  0.00     0.023 A 
ATOM     68  C   UNL A   1      39.449  31.485  36.145  1.00  0.00     0.031 A 
ATOM     69  C   UNL A   1      41.167  33.027  35.461  1.00  0.00     0.131 A 
ATOM     70  C   UNL A   1      39.108  32.372  37.179  1.00  0.00     0.055 A 
ATOM     71  C   UNL A   1      40.863  33.877  36.525  1.00  0.00     0.041 A 
ATOM     72  F   UNL A   1      42.154  33.400  34.630  1.00  0.00    -0.206 F 
ATOM     73  C   UNL A   1      39.818  33.558  37.384  1.00  0.00     0.022 A 
BRANCH  70  74
ATOM     74  S   UNL A   1      37.661  31.997  38.205  1.00  0.00     0.124 S 
ATOM     75  O   UNL A   1      37.351  30.631  37.796  1.00  0.00    -0.237 OA
ATOM     76  O   UNL A   1      38.199  32.159  39.552  1.00  0.00    -0.237 OA
ATOM     77  O   UNL A   1      36.685  33.007  37.799  1.00  0.00    -0.744 OA
ENDBRANCH  70  74
ENDBRANCH  43  67
BRANCH  55  78
ATOM     78  C   UNL A   1      45.339  26.958  34.117  1.00  0.00     0.023 A 
ATOM     79  C   UNL A   1      45.141  25.910  35.035  1.00  0.00     0.031 A 
ATOM     80  C   UNL A   1      46.622  27.523  34.025  1.00  0.00     0.131 A 
ATOM     81  C   UNL A   1      46.198  25.492  35.857  1.00  0.00     0.055 A 
ATOM     82  C   UNL A   1      47.684  27.069  34.810  1.00  0.00     0.041 A 
ATOM     83  F   UNL A   1      46.866  28.526  33.166  1.00  0.00    -0.206 F 
ATOM     84  C   UNL A   1      47.473  26.056  35.740  1.00  0.00     0.022 A 
BRANCH  81  85
ATOM     85  S   UNL A   1      45.870  24.252  37.139  1.00  0.00     0.124 S 
ATOM     86  O   UNL A   1      47.162  24.162  37.813  1.00  0.00    -0.237 OA
ATOM     87  O   UNL A   1      44.793  24.870  37.906  1.00  0.00    -0.237 OA
ATOM     88  O   UNL A   1      45.485  23.065  36.378  1.00  0.00    -0.744 OA
ENDBRANCH  81  85
ENDBRANCH  55  78
ENDBRANCH  29  30
ENDBRANCH  22  24
ENDBRANCH  21  22
ENDBRANCH  20  21
ENDBRANCH   1  20
TORSDOF 17
ENDMDL
MODEL 3
REMARK VINA RESULT:     -11.6      2.110      3.823
REMARK SMILES C[C@@H](C(=O)OCCOC(=O)c1ccc(-c2c3nc(c(-c4cc(S(=O)(=O)[O-])ccc4F)c4ccc([nH]4)c(-c4cc(S(=O)(=O)[O-])ccc4F)c4nc(c(-c5cc(S(=O)(=O)[O-])ccc5F)c5ccc2[nH]5)C=C4)C=C3)cc1)c1ccc(Cc2ccsc2)cc1F
REMARK SMILES IDX 6 1 5 2 3 3 4 4 2 5 1 6 74 7 75 8 85 9 76 10 84 11 86 12
REMARK SMILES IDX 77 13 78 14 79 15 80 16 83 17 81 18 82 19 7 20 8 21 9 22
REMARK SMILES IDX 10 23 11 24 12 25 73 26 13 27 72 28 14 29 15 30 16 31 66 32
REMARK SMILES IDX 17 33 71 34 65 35 67 36 18 37 70 38 64 39 63 40 19 42 51 43
REMARK SMILES IDX 31 44 50 45 32 46 35 47 49 48 68 49 33 50 34 51 48 53 69 54
REMARK SMILES IDX 36 55 20 56 21 57 29 58 22 59 28 60 30 61 27 62 23 63 24 64
REMARK SMILES IDX 25 65 26 66 52 67 53 68 61 69 54 70 60 71 62 72 59 73 55 74
REMARK SMILES IDX 56 75 57 76 58 77 37 78 38 79 46 80 39 81 45 82 47 83 44 84
REMARK SMILES IDX 40 85 41 86 42 87 43 88
REMARK H PARENT 67 41 35 52
REMARK Flexibility Score: inf
ROOT
ATOM      1  C   UNL A   1      31.124  30.219  24.973  1.00  0.00     0.274 C 
ENDROOT
BRANCH   1   2
ATOM      2  O   UNL A   1      30.686  29.048  24.251  1.00  0.00    -0.462 OA
BRANCH   2   3
ATOM      3  C   UNL A   1      31.617  28.405  23.487  1.00  0.00     0.313 C 
ATOM      4  O   UNL A   1      32.521  28.992  22.902  1.00  0.00    -0.252 OA
BRANCH   3   5
ATOM      5  C   UNL A   1      31.354  26.884  23.369  1.00  0.00     0.129 C 
ATOM      6  C   UNL A   1      29.934  26.530  23.837  1.00  0.00     0.025 C 
BRANCH   5   7
ATOM      7  C   UNL A   1      32.477  26.038  23.989  1.00  0.00     0.002 A 
ATOM      8  C   UNL A   1      33.362  25.333  23.151  1.00  0.00     0.008 A 
ATOM      9  C   UNL A   1      32.716  25.930  25.365  1.00  0.00     0.127 A 
ATOM     10  C   UNL A   1      34.484  24.654  23.659  1.00  0.00     0.004 A 
ATOM     11  C   UNL A   1      33.816  25.233  25.879  1.00  0.00     0.043 A 
ATOM     12  F   UNL A   1      31.916  26.537  26.252  1.00  0.00    -0.207 F 
ATOM     13  C   UNL A   1      34.745  24.605  25.034  1.00  0.00    -0.041 A 
BRANCH  13  14
ATOM     14  C   UNL A   1      36.060  24.132  25.630  1.00  0.00     0.072 C 
BRANCH  14  15
ATOM     15  C   UNL A   1      36.253  22.661  25.420  1.00  0.00    -0.033 A 
ATOM     16  C   UNL A   1      35.200  21.681  25.397  1.00  0.00     0.015 A 
ATOM     17  C   UNL A   1      37.454  22.077  25.057  1.00  0.00     0.068 A 
ATOM     18  C   UNL A   1      35.644  20.418  25.068  1.00  0.00     0.065 A 
ATOM     19  S   UNL A   1      37.324  20.397  24.768  1.00  0.00    -0.152 S 
ENDBRANCH  14  15
ENDBRANCH  13  14
ENDBRANCH   5   7
ENDBRANCH   3   5
ENDBRANCH   2   3
ENDBRANCH   1   2
BRANCH   1  20
ATOM     20  C   UNL A   1      31.745  29.816  26.308  1.00  0.00     0.275 C 
BRANCH  20  21
ATOM     21  O   UNL A   1      33.136  30.172  26.294  1.00  0.00    -0.458 OA
BRANCH  21  22
ATOM     22  C   UNL A   1      33.500  31.190  27.107  1.00  0.00     0.338 C 
ATOM     23  O   UNL A   1      32.859  32.187  27.384  1.00  0.00    -0.246 OA
BRANCH  22  24
ATOM     24  C   UNL A   1      34.835  30.889  27.647  1.00  0.00     0.060 A 
ATOM     25  C   UNL A   1      35.178  29.562  27.880  1.00  0.00     0.016 A 
ATOM     26  C   UNL A   1      35.716  31.913  27.990  1.00  0.00     0.016 A 
ATOM     27  C   UNL A   1      36.380  29.258  28.508  1.00  0.00     0.010 A 
ATOM     28  C   UNL A   1      36.952  31.596  28.573  1.00  0.00     0.010 A 
ATOM     29  C   UNL A   1      37.285  30.263  28.871  1.00  0.00    -0.014 A 
BRANCH  29  30
ATOM     30  C   UNL A   1      38.510  29.907  29.644  1.00  0.00     0.031 A 
ATOM     31  C   UNL A   1      39.541  28.996  29.029  1.00  0.00     0.074 A 
ATOM     32  C   UNL A   1      38.758  30.458  30.850  1.00  0.00     0.049 A 
ATOM     33  N   UNL A   1      40.604  28.458  29.570  1.00  0.00    -0.248 NA
ATOM     34  C   UNL A   1      39.347  28.647  27.613  1.00  0.00     0.031 C 
ATOM     35  C   UNL A   1      37.908  31.441  31.524  1.00  0.00     0.029 A 
ATOM     36  N   UNL A   1      39.817  30.294  31.712  1.00  0.00    -0.354 N 
ATOM     37  C   UNL A   1      41.174  27.661  28.582  1.00  0.00     0.074 A 
ATOM     38  C   UNL A   1      40.339  27.793  27.405  1.00  0.00     0.031 C 
ATOM     39  C   UNL A   1      38.499  31.823  32.668  1.00  0.00     0.029 A 
ATOM     40  C   UNL A   1      39.720  31.046  32.860  1.00  0.00     0.049 A 
ATOM     41  H   UNL A   1      40.575  29.694  31.524  1.00  0.00     0.167 HD
ATOM     42  C   UNL A   1      42.284  26.884  28.652  1.00  0.00     0.034 A 
ATOM     43  C   UNL A   1      40.495  31.076  33.964  1.00  0.00     0.034 A 
ATOM     44  C   UNL A   1      43.130  26.786  29.816  1.00  0.00     0.049 A 
ATOM     45  C   UNL A   1      41.677  30.141  34.052  1.00  0.00     0.074 A 
ATOM     46  C   UNL A   1      44.261  26.006  29.999  1.00  0.00     0.029 A 
ATOM     47  N   UNL A   1      42.946  27.495  30.996  1.00  0.00    -0.354 N 
ATOM     48  N   UNL A   1      42.139  29.304  33.152  1.00  0.00    -0.248 NA
ATOM     49  C   UNL A   1      42.423  30.133  35.319  1.00  0.00     0.031 C 
ATOM     50  C   UNL A   1      44.724  26.200  31.306  1.00  0.00     0.029 A 
ATOM     51  C   UNL A   1      43.924  27.151  31.917  1.00  0.00     0.049 A 
ATOM     52  H   UNL A   1      42.225  28.146  31.155  1.00  0.00     0.167 HD
ATOM     53  C   UNL A   1      43.234  28.679  33.744  1.00  0.00     0.074 A 
ATOM     54  C   UNL A   1      43.379  29.252  35.065  1.00  0.00     0.031 C 
ATOM     55  C   UNL A   1      44.046  27.713  33.241  1.00  0.00     0.034 A 
BRANCH  42  56
ATOM     56  C   UNL A   1      42.590  26.011  27.460  1.00  0.00     0.023 A 
ATOM     57  C   UNL A   1      42.148  24.681  27.369  1.00  0.00     0.031 A 
ATOM     58  C   UNL A   1      43.379  26.518  26.411  1.00  0.00     0.131 A 
ATOM     59  C   UNL A   1      42.550  23.884  26.285  1.00  0.00     0.055 A 
ATOM     60  C   UNL A   1      43.716  25.742  25.300  1.00  0.00     0.041 A 
ATOM     61  F   UNL A   1      43.850  27.774  26.456  1.00  0.00    -0.206 F 
ATOM     62  C   UNL A   1      43.313  24.412  25.240  1.00  0.00     0.022 A 
BRANCH  59  63
ATOM     63  S   UNL A   1      42.185  22.107  26.328  1.00  0.00     0.124 S 
ATOM     64  O   UNL A   1      42.583  21.757  27.689  1.00  0.00    -0.237 OA
ATOM     65  O   UNL A   1      40.754  22.075  26.051  1.00  0.00    -0.237 OA
ATOM     66  O   UNL A   1      43.038  21.557  25.276  1.00  0.00    -0.744 OA
ENDBRANCH  59  63
ENDBRANCH  42  56
BRANCH  43  67
ATOM     67  C   UNL A   1      40.140  31.947  35.122  1.00  0.00     0.023 A 
ATOM     68  C   UNL A   1      39.247  31.510  36.113  1.00  0.00     0.031 A 
ATOM     69  C   UNL A   1      40.638  33.260  35.218  1.00  0.00     0.131 A 
ATOM     70  C   UNL A   1      38.848  32.392  37.131  1.00  0.00     0.055 A 
ATOM     71  C   UNL A   1      40.284  34.112  36.265  1.00  0.00     0.041 A 
ATOM     72  F   UNL A   1      41.487  33.734  34.292  1.00  0.00    -0.206 F 
ATOM     73  C   UNL A   1      39.372  33.683  37.223  1.00  0.00     0.022 A 
BRANCH  70  74
ATOM     74  S   UNL A   1      37.562  31.854  38.292  1.00  0.00     0.124 S 
ATOM     75  O   UNL A   1      38.253  31.958  39.572  1.00  0.00    -0.237 OA
ATOM     76  O   UNL A   1      36.509  32.833  38.046  1.00  0.00    -0.237 OA
ATOM     77  O   UNL A   1      37.259  30.492  37.856  1.00  0.00    -0.744 OA
ENDBRANCH  70  74
ENDBRANCH  43  67
BRANCH  55  78
ATOM     78  C   UNL A   1      45.177  27.243  34.121  1.00  0.00     0.023 A 
ATOM     79  C   UNL A   1      45.035  26.136  34.978  1.00  0.00     0.031 A 
ATOM     80  C   UNL A   1      46.410  27.918  34.111  1.00  0.00     0.131 A 
ATOM     81  C   UNL A   1      46.091  25.767  35.824  1.00  0.00     0.055 A 
ATOM     82  C   UNL A   1      47.475  27.515  34.918  1.00  0.00     0.041 A 
ATOM     83  F   UNL A   1      46.600  28.981  33.313  1.00  0.00    -0.206 F 
ATOM     84  C   UNL A   1      47.316  26.441  35.789  1.00  0.00     0.022 A 
BRANCH  81  85
ATOM     85  S   UNL A   1      45.822  24.439  37.029  1.00  0.00     0.124 S 
ATOM     86  O   UNL A   1      45.003  25.104  38.037  1.00  0.00    -0.237 OA
ATOM     87  O   UNL A   1      45.148  23.421  36.229  1.00  0.00    -0.237 OA
ATOM     88  O   UNL A   1      47.174  24.089  37.463  1.00  0.00    -0.744 OA
ENDBRANCH  81  85
ENDBRANCH  55  78
ENDBRANCH  29  30
ENDBRANCH  22  24
ENDBRANCH  21  22
ENDBRANCH  20  21
ENDBRANCH   1  20
TORSDOF 17
ENDMDL
