MODEL 1
REMARK VINA RESULT:     -12.3      0.000      0.000
REMARK SMILES Cc1ccc(Cl)c(Nc2ccccc2C(=O)N[C@@H](C)C(=O)OCCOC(=O)c2ccc(-c3c4nc(c(-c5cc(S(=O)(=O)[O-])ccc5F)c5ccc([nH]5)c(-c5cc(S(=O)(=O)[O-])ccc5F)c5nc(c(-c6cc(S(=O)(=O)[O-])ccc6F)c6ccc3[nH]6)C=C5)C=C4)cc2)c1Cl
REMARK SMILES IDX 23 1 22 2 20 3 21 4 18 5 19 6 17 7 15 8 16 9 14 11 9 12
REMARK SMILES IDX 10 13 11 14 13 15 12 16 8 17 7 19 1 20 2 21 3 22 91 23 4 24
REMARK SMILES IDX 92 25 5 26 6 27 24 28 25 29 26 30 27 31 28 32 29 33 90 34
REMARK SMILES IDX 30 35 89 36 31 37 32 38 33 39 83 40 34 41 88 42 82 43 84 44
REMARK SMILES IDX 35 45 87 46 81 47 80 48 36 50 68 51 48 52 67 53 49 54 52 55
REMARK SMILES IDX 66 56 85 57 50 58 51 59 65 61 86 62 53 63 37 64 38 65 46 66
REMARK SMILES IDX 39 67 45 68 47 69 44 70 40 71 41 72 42 73 43 74 69 75 70 76
REMARK SMILES IDX 78 77 71 78 77 79 79 80 76 81 72 82 73 83 74 84 75 85 54 86
REMARK SMILES IDX 55 87 63 88 56 89 62 90 64 91 61 92 57 93 58 94 59 95 60 96
REMARK H PARENT 17 10 8 18 84 49 52 60
REMARK Flexibility Score: inf
ROOT
ATOM      1  C   UNL A   1      33.712  21.079  25.543  1.00  0.00     0.274 C 
ENDROOT
BRANCH   1   2
ATOM      2  O   UNL A   1      32.562  22.014  25.663  1.00  0.00    -0.461 OA
BRANCH   2   3
ATOM      3  C   UNL A   1      32.107  22.591  26.838  1.00  0.00     0.328 C 
ATOM      4  O   UNL A   1      32.610  22.370  27.921  1.00  0.00    -0.250 OA
BRANCH   3   5
ATOM      5  C   UNL A   1      30.835  23.584  26.618  1.00  0.00     0.189 C 
ATOM      6  C   UNL A   1      29.575  22.951  27.207  1.00  0.00     0.043 C 
BRANCH   5   7
ATOM      7  N   UNL A   1      30.624  23.922  25.176  1.00  0.00    -0.339 N 
ATOM      8  C   UNL A   1      30.444  24.948  24.261  1.00  0.00     0.254 C 
ATOM      9  O   UNL A   1      30.152  24.449  23.156  1.00  0.00    -0.269 OA
ATOM     10  H   UNL A   1      30.606  23.075  24.675  1.00  0.00     0.164 HD
BRANCH   8  11
ATOM     11  C   UNL A   1      30.516  26.492  24.275  1.00  0.00     0.063 A 
ATOM     12  C   UNL A   1      31.532  27.409  24.637  1.00  0.00     0.051 A 
ATOM     13  C   UNL A   1      31.363  28.821  24.505  1.00  0.00     0.027 A 
ATOM     14  C   UNL A   1      30.264  29.356  23.862  1.00  0.00     0.002 A 
ATOM     15  C   UNL A   1      29.384  27.109  23.669  1.00  0.00     0.016 A 
ATOM     16  C   UNL A   1      29.279  28.493  23.426  1.00  0.00     0.001 A 
BRANCH  12  17
ATOM     17  N   UNL A   1      32.883  27.084  24.723  1.00  0.00    -0.352 N 
ATOM     18  H   UNL A   1      33.391  27.398  25.506  1.00  0.00     0.167 HD
BRANCH  17  19
ATOM     19  C   UNL A   1      33.561  26.327  23.743  1.00  0.00     0.077 A 
ATOM     20  C   UNL A   1      32.733  25.424  20.086  1.00  0.00     0.046 C 
ATOM     21  C   UNL A   1      33.198  25.391  21.512  1.00  0.00    -0.030 A 
ATOM     22  C   UNL A   1      33.479  24.182  22.089  1.00  0.00     0.006 A 
ATOM     23  C   UNL A   1      33.347  26.491  22.335  1.00  0.00     0.069 A 
ATOM     24  C   UNL A   1      34.016  24.074  23.390  1.00  0.00     0.023 A 
ATOM     25  Cl  UNL A   1      33.345  28.046  21.582  1.00  0.00    -0.082 Cl
ATOM     26  C   UNL A   1      34.082  25.145  24.225  1.00  0.00     0.066 A 
ATOM     27  Cl  UNL A   1      34.509  24.894  25.881  1.00  0.00    -0.082 Cl
ENDBRANCH  17  19
ENDBRANCH  12  17
ENDBRANCH   8  11
ENDBRANCH   5   7
ENDBRANCH   3   5
ENDBRANCH   2   3
ENDBRANCH   1   2
BRANCH   1  28
ATOM     28  C   UNL A   1      35.212  21.467  26.046  1.00  0.00     0.275 C 
BRANCH  28  29
ATOM     29  O   UNL A   1      36.295  21.702  25.059  1.00  0.00    -0.458 OA
BRANCH  29  30
ATOM     30  C   UNL A   1      37.600  21.327  25.391  1.00  0.00     0.338 C 
ATOM     31  O   UNL A   1      38.119  20.301  24.977  1.00  0.00    -0.246 OA
BRANCH  30  32
ATOM     32  C   UNL A   1      38.428  22.400  26.132  1.00  0.00     0.060 A 
ATOM     33  C   UNL A   1      38.094  23.742  26.085  1.00  0.00     0.016 A 
ATOM     34  C   UNL A   1      39.676  22.115  26.727  1.00  0.00     0.016 A 
ATOM     35  C   UNL A   1      39.047  24.742  26.412  1.00  0.00     0.010 A 
ATOM     36  C   UNL A   1      40.541  23.145  27.253  1.00  0.00     0.010 A 
ATOM     37  C   UNL A   1      40.244  24.509  27.113  1.00  0.00    -0.014 A 
BRANCH  37  38
ATOM     38  C   UNL A   1      41.029  25.681  27.744  1.00  0.00     0.031 A 
ATOM     39  C   UNL A   1      40.412  26.797  28.605  1.00  0.00     0.074 A 
ATOM     40  C   UNL A   1      42.372  25.800  27.546  1.00  0.00     0.049 A 
ATOM     41  N   UNL A   1      40.920  27.970  28.941  1.00  0.00    -0.248 NA
ATOM     42  C   UNL A   1      39.087  26.564  29.189  1.00  0.00     0.031 C 
ATOM     43  C   UNL A   1      43.228  24.850  26.828  1.00  0.00     0.029 A 
ATOM     44  N   UNL A   1      43.275  26.783  27.926  1.00  0.00    -0.354 N 
ATOM     45  C   UNL A   1      39.969  28.623  29.730  1.00  0.00     0.074 A 
ATOM     46  C   UNL A   1      38.859  27.696  29.851  1.00  0.00     0.031 C 
ATOM     47  C   UNL A   1      44.503  25.234  26.893  1.00  0.00     0.029 A 
ATOM     48  C   UNL A   1      44.549  26.578  27.434  1.00  0.00     0.049 A 
ATOM     49  H   UNL A   1      43.030  27.553  28.489  1.00  0.00     0.167 HD
ATOM     50  C   UNL A   1      39.996  29.870  30.283  1.00  0.00     0.034 A 
ATOM     51  C   UNL A   1      45.625  27.376  27.270  1.00  0.00     0.034 A 
ATOM     52  C   UNL A   1      41.106  30.805  30.195  1.00  0.00     0.049 A 
ATOM     53  C   UNL A   1      45.574  28.809  27.689  1.00  0.00     0.074 A 
ATOM     54  C   UNL A   1      41.207  32.083  30.735  1.00  0.00     0.029 A 
ATOM     55  N   UNL A   1      42.298  30.583  29.523  1.00  0.00    -0.354 N 
ATOM     56  N   UNL A   1      44.611  29.450  28.301  1.00  0.00    -0.248 NA
ATOM     57  C   UNL A   1      46.743  29.637  27.363  1.00  0.00     0.031 C 
ATOM     58  C   UNL A   1      42.415  32.658  30.319  1.00  0.00     0.029 A 
ATOM     59  C   UNL A   1      43.109  31.713  29.589  1.00  0.00     0.049 A 
ATOM     60  H   UNL A   1      42.537  29.745  29.066  1.00  0.00     0.167 HD
ATOM     61  C   UNL A   1      45.060  30.758  28.434  1.00  0.00     0.074 A 
ATOM     62  C   UNL A   1      46.389  30.811  27.862  1.00  0.00     0.031 C 
ATOM     63  C   UNL A   1      44.416  31.815  28.985  1.00  0.00     0.034 A 
BRANCH  50  64
ATOM     64  C   UNL A   1      38.742  30.385  30.975  1.00  0.00     0.023 A 
ATOM     65  C   UNL A   1      37.717  31.069  30.300  1.00  0.00     0.031 A 
ATOM     66  C   UNL A   1      38.547  30.106  32.345  1.00  0.00     0.131 A 
ATOM     67  C   UNL A   1      36.566  31.479  31.001  1.00  0.00     0.055 A 
ATOM     68  C   UNL A   1      37.377  30.462  33.021  1.00  0.00     0.041 A 
ATOM     69  F   UNL A   1      39.489  29.455  33.048  1.00  0.00    -0.206 F 
ATOM     70  C   UNL A   1      36.382  31.162  32.351  1.00  0.00     0.022 A 
BRANCH  67  71
ATOM     71  S   UNL A   1      35.345  32.527  30.159  1.00  0.00     0.124 S 
ATOM     72  O   UNL A   1      36.153  33.680  29.773  1.00  0.00    -0.237 OA
ATOM     73  O   UNL A   1      34.893  31.669  29.070  1.00  0.00    -0.237 OA
ATOM     74  O   UNL A   1      34.349  32.795  31.195  1.00  0.00    -0.744 OA
ENDBRANCH  67  71
ENDBRANCH  50  64
BRANCH  51  75
ATOM     75  C   UNL A   1      46.798  26.867  26.492  1.00  0.00     0.023 A 
ATOM     76  C   UNL A   1      47.920  26.325  27.130  1.00  0.00     0.031 A 
ATOM     77  C   UNL A   1      46.799  26.928  25.082  1.00  0.00     0.131 A 
ATOM     78  C   UNL A   1      49.000  25.868  26.358  1.00  0.00     0.055 A 
ATOM     79  C   UNL A   1      47.844  26.409  24.321  1.00  0.00     0.041 A 
ATOM     80  F   UNL A   1      45.751  27.449  24.423  1.00  0.00    -0.206 F 
ATOM     81  C   UNL A   1      48.958  25.881  24.960  1.00  0.00     0.022 A 
BRANCH  78  82
ATOM     82  S   UNL A   1      50.498  25.307  27.210  1.00  0.00     0.124 S 
ATOM     83  O   UNL A   1      50.883  26.503  27.951  1.00  0.00    -0.237 OA
ATOM     84  O   UNL A   1      49.995  24.193  28.006  1.00  0.00    -0.237 OA
ATOM     85  O   UNL A   1      51.392  24.934  26.116  1.00  0.00    -0.744 OA
ENDBRANCH  78  82
ENDBRANCH  51  75
BRANCH  63  86
ATOM     86  C   UNL A   1      45.164  33.125  29.014  1.00  0.00     0.023 A 
ATOM     87  C   UNL A   1      45.298  33.919  27.861  1.00  0.00     0.031 A 
ATOM     88  C   UNL A   1      45.813  33.550  30.188  1.00  0.00     0.131 A 
ATOM     89  C   UNL A   1      46.108  35.066  27.889  1.00  0.00     0.055 A 
ATOM     90  C   UNL A   1      46.573  34.720  30.224  1.00  0.00     0.041 A 
ATOM     91  F   UNL A   1      45.733  32.824  31.313  1.00  0.00    -0.206 F 
ATOM     92  C   UNL A   1      46.735  35.479  29.067  1.00  0.00     0.022 A 
BRANCH  89  93
ATOM     93  S   UNL A   1      46.409  35.962  26.340  1.00  0.00     0.124 S 
ATOM     94  O   UNL A   1      45.759  37.243  26.601  1.00  0.00    -0.237 OA
ATOM     95  O   UNL A   1      47.866  35.988  26.271  1.00  0.00    -0.237 OA
ATOM     96  O   UNL A   1      45.758  35.131  25.329  1.00  0.00    -0.744 OA
ENDBRANCH  89  93
ENDBRANCH  63  86
ENDBRANCH  37  38
ENDBRANCH  30  32
ENDBRANCH  29  30
ENDBRANCH  28  29
ENDBRANCH   1  28
TORSDOF 18
ENDMDL
MODEL 2
REMARK VINA RESULT:     -12.2      4.896      9.652
REMARK SMILES Cc1ccc(Cl)c(Nc2ccccc2C(=O)N[C@@H](C)C(=O)OCCOC(=O)c2ccc(-c3c4nc(c(-c5cc(S(=O)(=O)[O-])ccc5F)c5ccc([nH]5)c(-c5cc(S(=O)(=O)[O-])ccc5F)c5nc(c(-c6cc(S(=O)(=O)[O-])ccc6F)c6ccc3[nH]6)C=C5)C=C4)cc2)c1Cl
REMARK SMILES IDX 23 1 22 2 20 3 21 4 18 5 19 6 17 7 15 8 16 9 14 11 9 12
REMARK SMILES IDX 10 13 11 14 13 15 12 16 8 17 7 19 1 20 2 21 3 22 91 23 4 24
REMARK SMILES IDX 92 25 5 26 6 27 24 28 25 29 26 30 27 31 28 32 29 33 90 34
REMARK SMILES IDX 30 35 89 36 31 37 32 38 33 39 83 40 34 41 88 42 82 43 84 44
REMARK SMILES IDX 35 45 87 46 81 47 80 48 36 50 68 51 48 52 67 53 49 54 52 55
REMARK SMILES IDX 66 56 85 57 50 58 51 59 65 61 86 62 53 63 37 64 38 65 46 66
REMARK SMILES IDX 39 67 45 68 47 69 44 70 40 71 41 72 42 73 43 74 69 75 70 76
REMARK SMILES IDX 78 77 71 78 77 79 79 80 76 81 72 82 73 83 74 84 75 85 54 86
REMARK SMILES IDX 55 87 63 88 56 89 62 90 64 91 61 92 57 93 58 94 59 95 60 96
REMARK H PARENT 17 10 8 18 84 49 52 60
REMARK Flexibility Score: inf
ROOT
ATOM      1  C   UNL A   1      30.797  29.685  24.524  1.00  0.00     0.274 C 
ENDROOT
BRANCH   1   2
ATOM      2  O   UNL A   1      31.300  29.370  23.161  1.00  0.00    -0.461 OA
BRANCH   2   3
ATOM      3  C   UNL A   1      31.442  28.100  22.625  1.00  0.00     0.328 C 
ATOM      4  O   UNL A   1      30.559  27.541  22.007  1.00  0.00    -0.250 OA
BRANCH   3   5
ATOM      5  C   UNL A   1      32.902  27.438  22.913  1.00  0.00     0.189 C 
ATOM      6  C   UNL A   1      34.001  28.346  22.363  1.00  0.00     0.043 C 
BRANCH   5   7
ATOM      7  N   UNL A   1      33.024  26.063  22.335  1.00  0.00    -0.339 N 
ATOM      8  C   UNL A   1      32.838  24.710  22.567  1.00  0.00     0.254 C 
ATOM      9  O   UNL A   1      33.338  24.070  21.620  1.00  0.00    -0.269 OA
ATOM     10  H   UNL A   1      33.379  26.159  21.422  1.00  0.00     0.164 HD
BRANCH   8  11
ATOM     11  C   UNL A   1      32.187  23.836  23.664  1.00  0.00     0.063 A 
ATOM     12  C   UNL A   1      32.416  22.511  24.107  1.00  0.00     0.051 A 
ATOM     13  C   UNL A   1      31.697  21.941  25.201  1.00  0.00     0.027 A 
ATOM     14  C   UNL A   1      30.861  22.707  25.988  1.00  0.00     0.002 A 
ATOM     15  C   UNL A   1      31.272  24.558  24.483  1.00  0.00     0.016 A 
ATOM     16  C   UNL A   1      30.661  24.027  25.637  1.00  0.00     0.001 A 
BRANCH  12  17
ATOM     17  N   UNL A   1      33.589  21.799  23.868  1.00  0.00    -0.352 N 
ATOM     18  H   UNL A   1      33.700  21.358  22.995  1.00  0.00     0.167 HD
BRANCH  17  19
ATOM     19  C   UNL A   1      34.626  21.677  24.818  1.00  0.00     0.077 A 
ATOM     20  C   UNL A   1      37.720  23.835  25.620  1.00  0.00     0.046 C 
ATOM     21  C   UNL A   1      36.779  22.690  25.387  1.00  0.00    -0.030 A 
ATOM     22  C   UNL A   1      37.293  21.431  25.231  1.00  0.00     0.006 A 
ATOM     23  C   UNL A   1      35.404  22.788  25.281  1.00  0.00     0.069 A 
ATOM     24  C   UNL A   1      36.471  20.291  25.109  1.00  0.00     0.023 A 
ATOM     25  Cl  UNL A   1      34.675  24.264  25.804  1.00  0.00    -0.082 Cl
ATOM     26  C   UNL A   1      35.128  20.397  24.921  1.00  0.00     0.066 A 
ATOM     27  Cl  UNL A   1      34.221  18.980  24.525  1.00  0.00    -0.082 Cl
ENDBRANCH  17  19
ENDBRANCH  12  17
ENDBRANCH   8  11
ENDBRANCH   5   7
ENDBRANCH   3   5
ENDBRANCH   2   3
ENDBRANCH   1   2
BRANCH   1  28
ATOM     28  C   UNL A   1      31.700  29.467  25.863  1.00  0.00     0.275 C 
BRANCH  28  29
ATOM     29  O   UNL A   1      33.110  29.930  25.898  1.00  0.00    -0.458 OA
BRANCH  29  30
ATOM     30  C   UNL A   1      33.499  30.823  26.901  1.00  0.00     0.338 C 
ATOM     31  O   UNL A   1      32.713  31.576  27.458  1.00  0.00    -0.246 OA
BRANCH  30  32
ATOM     32  C   UNL A   1      34.941  30.643  27.423  1.00  0.00     0.060 A 
ATOM     33  C   UNL A   1      35.455  29.396  27.736  1.00  0.00     0.016 A 
ATOM     34  C   UNL A   1      35.750  31.736  27.804  1.00  0.00     0.016 A 
ATOM     35  C   UNL A   1      36.595  29.268  28.572  1.00  0.00     0.010 A 
ATOM     36  C   UNL A   1      37.021  31.569  28.467  1.00  0.00     0.010 A 
ATOM     37  C   UNL A   1      37.490  30.310  28.873  1.00  0.00    -0.014 A 
BRANCH  37  38
ATOM     38  C   UNL A   1      38.882  30.006  29.471  1.00  0.00     0.031 A 
ATOM     39  C   UNL A   1      39.900  29.012  28.884  1.00  0.00     0.074 A 
ATOM     40  C   UNL A   1      39.293  30.622  30.615  1.00  0.00     0.049 A 
ATOM     41  N   UNL A   1      40.963  28.473  29.453  1.00  0.00    -0.248 NA
ATOM     42  C   UNL A   1      39.731  28.598  27.488  1.00  0.00     0.031 C 
ATOM     43  C   UNL A   1      38.560  31.659  31.349  1.00  0.00     0.029 A 
ATOM     44  N   UNL A   1      40.437  30.466  31.386  1.00  0.00    -0.354 N 
ATOM     45  C   UNL A   1      41.558  27.631  28.507  1.00  0.00     0.074 A 
ATOM     46  C   UNL A   1      40.748  27.759  27.309  1.00  0.00     0.031 C 
ATOM     47  C   UNL A   1      39.286  32.099  32.378  1.00  0.00     0.029 A 
ATOM     48  C   UNL A   1      40.426  31.218  32.543  1.00  0.00     0.049 A 
ATOM     49  H   UNL A   1      41.182  29.875  31.132  1.00  0.00     0.167 HD
ATOM     50  C   UNL A   1      42.648  26.819  28.619  1.00  0.00     0.034 A 
ATOM     51  C   UNL A   1      41.121  31.162  33.699  1.00  0.00     0.034 A 
ATOM     52  C   UNL A   1      43.486  26.695  29.801  1.00  0.00     0.049 A 
ATOM     53  C   UNL A   1      42.179  30.124  33.894  1.00  0.00     0.074 A 
ATOM     54  C   UNL A   1      44.610  25.897  29.985  1.00  0.00     0.029 A 
ATOM     55  N   UNL A   1      43.298  27.366  30.999  1.00  0.00    -0.354 N 
ATOM     56  N   UNL A   1      42.626  29.240  33.040  1.00  0.00    -0.248 NA
ATOM     57  C   UNL A   1      42.801  30.055  35.224  1.00  0.00     0.031 C 
ATOM     58  C   UNL A   1      45.044  26.022  31.312  1.00  0.00     0.029 A 
ATOM     59  C   UNL A   1      44.246  26.961  31.936  1.00  0.00     0.049 A 
ATOM     60  H   UNL A   1      42.596  28.036  31.164  1.00  0.00     0.167 HD
ATOM     61  C   UNL A   1      43.585  28.508  33.731  1.00  0.00     0.074 A 
ATOM     62  C   UNL A   1      43.669  29.069  35.063  1.00  0.00     0.031 C 
ATOM     63  C   UNL A   1      44.324  27.463  33.286  1.00  0.00     0.034 A 
BRANCH  50  64
ATOM     64  C   UNL A   1      42.983  25.889  27.462  1.00  0.00     0.023 A 
ATOM     65  C   UNL A   1      42.462  24.589  27.345  1.00  0.00     0.031 A 
ATOM     66  C   UNL A   1      43.794  26.364  26.409  1.00  0.00     0.131 A 
ATOM     67  C   UNL A   1      42.784  23.802  26.222  1.00  0.00     0.055 A 
ATOM     68  C   UNL A   1      44.061  25.600  25.270  1.00  0.00     0.041 A 
ATOM     69  F   UNL A   1      44.323  27.597  26.460  1.00  0.00    -0.206 F 
ATOM     70  C   UNL A   1      43.563  24.306  25.176  1.00  0.00     0.022 A 
BRANCH  67  71
ATOM     71  S   UNL A   1      42.260  22.063  26.182  1.00  0.00     0.124 S 
ATOM     72  O   UNL A   1      42.649  21.601  27.512  1.00  0.00    -0.237 OA
ATOM     73  O   UNL A   1      40.828  22.173  25.937  1.00  0.00    -0.237 OA
ATOM     74  O   UNL A   1      43.039  21.495  25.084  1.00  0.00    -0.744 OA
ENDBRANCH  67  71
ENDBRANCH  50  64
BRANCH  51  75
ATOM     75  C   UNL A   1      40.694  32.018  34.849  1.00  0.00     0.023 A 
ATOM     76  C   UNL A   1      39.636  31.646  35.686  1.00  0.00     0.031 A 
ATOM     77  C   UNL A   1      41.355  33.236  35.116  1.00  0.00     0.131 A 
ATOM     78  C   UNL A   1      39.265  32.485  36.748  1.00  0.00     0.055 A 
ATOM     79  C   UNL A   1      41.028  34.030  36.213  1.00  0.00     0.041 A 
ATOM     80  F   UNL A   1      42.370  33.645  34.336  1.00  0.00    -0.206 F 
ATOM     81  C   UNL A   1      39.970  33.659  37.033  1.00  0.00     0.022 A 
BRANCH  78  82
ATOM     82  S   UNL A   1      37.801  32.053  37.725  1.00  0.00     0.124 S 
ATOM     83  O   UNL A   1      37.605  30.654  37.362  1.00  0.00    -0.237 OA
ATOM     84  O   UNL A   1      38.259  32.306  39.086  1.00  0.00    -0.237 OA
ATOM     85  O   UNL A   1      36.779  32.975  37.232  1.00  0.00    -0.744 OA
ENDBRANCH  78  82
ENDBRANCH  51  75
BRANCH  63  86
ATOM     86  C   UNL A   1      45.315  26.872  34.258  1.00  0.00     0.023 A 
ATOM     87  C   UNL A   1      44.921  25.930  35.226  1.00  0.00     0.031 A 
ATOM     88  C   UNL A   1      46.652  27.307  34.266  1.00  0.00     0.131 A 
ATOM     89  C   UNL A   1      45.838  25.497  36.198  1.00  0.00     0.055 A 
ATOM     90  C   UNL A   1      47.574  26.831  35.201  1.00  0.00     0.041 A 
ATOM     91  F   UNL A   1      47.081  28.215  33.376  1.00  0.00    -0.206 F 
ATOM     92  C   UNL A   1      47.166  25.932  36.182  1.00  0.00     0.022 A 
BRANCH  89  93
ATOM     93  S   UNL A   1      45.249  24.429  37.542  1.00  0.00     0.124 S 
ATOM     94  O   UNL A   1      45.318  23.106  36.928  1.00  0.00    -0.237 OA
ATOM     95  O   UNL A   1      46.218  24.693  38.599  1.00  0.00    -0.237 OA
ATOM     96  O   UNL A   1      43.898  24.921  37.805  1.00  0.00    -0.744 OA
ENDBRANCH  89  93
ENDBRANCH  63  86
ENDBRANCH  37  38
ENDBRANCH  30  32
ENDBRANCH  29  30
ENDBRANCH  28  29
ENDBRANCH   1  28
TORSDOF 18
ENDMDL
MODEL 3
REMARK VINA RESULT:     -12.2      4.519      9.702
REMARK SMILES Cc1ccc(Cl)c(Nc2ccccc2C(=O)N[C@@H](C)C(=O)OCCOC(=O)c2ccc(-c3c4nc(c(-c5cc(S(=O)(=O)[O-])ccc5F)c5ccc([nH]5)c(-c5cc(S(=O)(=O)[O-])ccc5F)c5nc(c(-c6cc(S(=O)(=O)[O-])ccc6F)c6ccc3[nH]6)C=C5)C=C4)cc2)c1Cl
REMARK SMILES IDX 23 1 22 2 20 3 21 4 18 5 19 6 17 7 15 8 16 9 14 11 9 12
REMARK SMILES IDX 10 13 11 14 13 15 12 16 8 17 7 19 1 20 2 21 3 22 91 23 4 24
REMARK SMILES IDX 92 25 5 26 6 27 24 28 25 29 26 30 27 31 28 32 29 33 90 34
REMARK SMILES IDX 30 35 89 36 31 37 32 38 33 39 83 40 34 41 88 42 82 43 84 44
REMARK SMILES IDX 35 45 87 46 81 47 80 48 36 50 68 51 48 52 67 53 49 54 52 55
REMARK SMILES IDX 66 56 85 57 50 58 51 59 65 61 86 62 53 63 37 64 38 65 46 66
REMARK SMILES IDX 39 67 45 68 47 69 44 70 40 71 41 72 42 73 43 74 69 75 70 76
REMARK SMILES IDX 78 77 71 78 77 79 79 80 76 81 72 82 73 83 74 84 75 85 54 86
REMARK SMILES IDX 55 87 63 88 56 89 62 90 64 91 61 92 57 93 58 94 59 95 60 96
REMARK H PARENT 17 10 8 18 84 49 52 60
REMARK Flexibility Score: inf
ROOT
ATOM      1  C   UNL A   1      30.886  29.163  24.213  1.00  0.00     0.274 C 
ENDROOT
BRANCH   1   2
ATOM      2  O   UNL A   1      31.032  28.323  22.996  1.00  0.00    -0.461 OA
BRANCH   2   3
ATOM      3  C   UNL A   1      31.348  26.974  22.976  1.00  0.00     0.328 C 
ATOM      4  O   UNL A   1      30.507  26.099  22.937  1.00  0.00    -0.250 OA
BRANCH   3   5
ATOM      5  C   UNL A   1      32.950  26.686  23.019  1.00  0.00     0.189 C 
ATOM      6  C   UNL A   1      33.674  27.641  22.070  1.00  0.00     0.043 C 
BRANCH   5   7
ATOM      7  N   UNL A   1      33.279  25.266  22.679  1.00  0.00    -0.339 N 
ATOM      8  C   UNL A   1      34.136  24.206  22.927  1.00  0.00     0.254 C 
ATOM      9  O   UNL A   1      33.895  23.298  22.106  1.00  0.00    -0.269 OA
ATOM     10  H   UNL A   1      32.622  24.964  22.011  1.00  0.00     0.164 HD
BRANCH   8  11
ATOM     11  C   UNL A   1      35.267  23.885  23.931  1.00  0.00     0.063 A 
ATOM     12  C   UNL A   1      35.473  24.212  25.292  1.00  0.00     0.051 A 
ATOM     13  C   UNL A   1      36.602  23.737  26.026  1.00  0.00     0.027 A 
ATOM     14  C   UNL A   1      37.463  22.799  25.491  1.00  0.00     0.002 A 
ATOM     15  C   UNL A   1      36.220  22.957  23.420  1.00  0.00     0.016 A 
ATOM     16  C   UNL A   1      37.260  22.394  24.187  1.00  0.00     0.001 A 
BRANCH  12  17
ATOM     17  N   UNL A   1      34.462  24.618  26.160  1.00  0.00    -0.352 N 
ATOM     18  H   UNL A   1      34.590  25.448  26.673  1.00  0.00     0.167 HD
BRANCH  17  19
ATOM     19  C   UNL A   1      33.262  23.895  26.341  1.00  0.00     0.077 A 
ATOM     20  C   UNL A   1      32.056  20.453  25.090  1.00  0.00     0.046 C 
ATOM     21  C   UNL A   1      32.133  21.892  25.506  1.00  0.00    -0.030 A 
ATOM     22  C   UNL A   1      31.119  22.740  25.150  1.00  0.00     0.006 A 
ATOM     23  C   UNL A   1      33.174  22.471  26.208  1.00  0.00     0.069 A 
ATOM     24  C   UNL A   1      31.070  24.081  25.588  1.00  0.00     0.023 A 
ATOM     25  Cl  UNL A   1      34.297  21.406  26.975  1.00  0.00    -0.082 Cl
ATOM     26  C   UNL A   1      32.130  24.669  26.204  1.00  0.00     0.066 A 
ATOM     27  Cl  UNL A   1      32.098  26.375  26.483  1.00  0.00    -0.082 Cl
ENDBRANCH  17  19
ENDBRANCH  12  17
ENDBRANCH   8  11
ENDBRANCH   5   7
ENDBRANCH   3   5
ENDBRANCH   2   3
ENDBRANCH   1   2
BRANCH   1  28
ATOM     28  C   UNL A   1      32.166  29.703  25.064  1.00  0.00     0.275 C 
BRANCH  28  29
ATOM     29  O   UNL A   1      32.008  30.089  26.489  1.00  0.00    -0.458 OA
BRANCH  29  30
ATOM     30  C   UNL A   1      32.693  31.212  26.960  1.00  0.00     0.338 C 
ATOM     31  O   UNL A   1      32.203  32.331  26.966  1.00  0.00    -0.246 OA
BRANCH  30  32
ATOM     32  C   UNL A   1      34.026  30.918  27.684  1.00  0.00     0.060 A 
ATOM     33  C   UNL A   1      34.861  31.934  28.118  1.00  0.00     0.016 A 
ATOM     34  C   UNL A   1      34.572  29.619  27.766  1.00  0.00     0.016 A 
ATOM     35  C   UNL A   1      36.227  31.680  28.406  1.00  0.00     0.010 A 
ATOM     36  C   UNL A   1      35.901  29.364  28.270  1.00  0.00     0.010 A 
ATOM     37  C   UNL A   1      36.779  30.403  28.614  1.00  0.00    -0.014 A 
BRANCH  37  38
ATOM     38  C   UNL A   1      38.165  30.241  29.278  1.00  0.00     0.031 A 
ATOM     39  C   UNL A   1      39.318  29.388  28.723  1.00  0.00     0.074 A 
ATOM     40  C   UNL A   1      38.444  30.867  30.456  1.00  0.00     0.049 A 
ATOM     41  N   UNL A   1      40.407  28.957  29.334  1.00  0.00    -0.248 NA
ATOM     42  C   UNL A   1      39.268  28.998  27.310  1.00  0.00     0.031 C 
ATOM     43  C   UNL A   1      37.561  31.792  31.175  1.00  0.00     0.029 A 
ATOM     44  N   UNL A   1      39.559  30.820  31.282  1.00  0.00    -0.354 N 
ATOM     45  C   UNL A   1      41.141  28.217  28.401  1.00  0.00     0.074 A 
ATOM     46  C   UNL A   1      40.383  28.286  27.166  1.00  0.00     0.031 C 
ATOM     47  C   UNL A   1      38.180  32.282  32.250  1.00  0.00     0.029 A 
ATOM     48  C   UNL A   1      39.404  31.532  32.454  1.00  0.00     0.049 A 
ATOM     49  H   UNL A   1      40.379  30.325  31.054  1.00  0.00     0.167 HD
ATOM     50  C   UNL A   1      42.311  27.532  28.552  1.00  0.00     0.034 A 
ATOM     51  C   UNL A   1      40.043  31.522  33.644  1.00  0.00     0.034 A 
ATOM     52  C   UNL A   1      43.098  27.470  29.773  1.00  0.00     0.049 A 
ATOM     53  C   UNL A   1      41.202  30.606  33.870  1.00  0.00     0.074 A 
ATOM     54  C   UNL A   1      44.297  26.800  29.997  1.00  0.00     0.029 A 
ATOM     55  N   UNL A   1      42.775  28.080  30.974  1.00  0.00    -0.354 N 
ATOM     56  N   UNL A   1      41.791  29.804  33.021  1.00  0.00    -0.248 NA
ATOM     57  C   UNL A   1      41.761  30.570  35.228  1.00  0.00     0.031 C 
ATOM     58  C   UNL A   1      44.647  26.935  31.348  1.00  0.00     0.029 A 
ATOM     59  C   UNL A   1      43.715  27.759  31.950  1.00  0.00     0.049 A 
ATOM     60  H   UNL A   1      41.993  28.660  31.118  1.00  0.00     0.167 HD
ATOM     61  C   UNL A   1      42.792  29.167  33.743  1.00  0.00     0.074 A 
ATOM     62  C   UNL A   1      42.744  29.694  35.091  1.00  0.00     0.031 C 
ATOM     63  C   UNL A   1      43.668  28.226  33.314  1.00  0.00     0.034 A 
BRANCH  50  64
ATOM     64  C   UNL A   1      42.808  26.680  27.393  1.00  0.00     0.023 A 
ATOM     65  C   UNL A   1      42.439  25.337  27.212  1.00  0.00     0.031 A 
ATOM     66  C   UNL A   1      43.619  27.272  26.401  1.00  0.00     0.131 A 
ATOM     67  C   UNL A   1      42.906  24.624  26.090  1.00  0.00     0.055 A 
ATOM     68  C   UNL A   1      44.030  26.578  25.260  1.00  0.00     0.041 A 
ATOM     69  F   UNL A   1      44.007  28.553  26.514  1.00  0.00    -0.206 F 
ATOM     70  C   UNL A   1      43.682  25.242  25.104  1.00  0.00     0.022 A 
BRANCH  67  71
ATOM     71  S   UNL A   1      42.577  22.842  25.975  1.00  0.00     0.124 S 
ATOM     72  O   UNL A   1      41.137  22.786  26.212  1.00  0.00    -0.237 OA
ATOM     73  O   UNL A   1      43.016  22.528  24.621  1.00  0.00    -0.237 OA
ATOM     74  O   UNL A   1      43.396  22.272  27.044  1.00  0.00    -0.744 OA
ENDBRANCH  67  71
ENDBRANCH  50  64
BRANCH  51  75
ATOM     75  C   UNL A   1      39.463  32.290  34.789  1.00  0.00     0.023 A 
ATOM     76  C   UNL A   1      39.945  33.557  35.140  1.00  0.00     0.031 A 
ATOM     77  C   UNL A   1      38.409  31.746  35.552  1.00  0.00     0.131 A 
ATOM     78  C   UNL A   1      39.375  34.237  36.228  1.00  0.00     0.055 A 
ATOM     79  C   UNL A   1      37.801  32.455  36.586  1.00  0.00     0.041 A 
ATOM     80  F   UNL A   1      37.917  30.529  35.263  1.00  0.00    -0.206 F 
ATOM     81  C   UNL A   1      38.291  33.708  36.935  1.00  0.00     0.022 A 
BRANCH  78  82
ATOM     82  S   UNL A   1      40.113  35.807  36.752  1.00  0.00     0.124 S 
ATOM     83  O   UNL A   1      39.700  36.702  35.676  1.00  0.00    -0.237 OA
ATOM     84  O   UNL A   1      39.478  36.023  38.047  1.00  0.00    -0.237 OA
ATOM     85  O   UNL A   1      41.543  35.510  36.803  1.00  0.00    -0.744 OA
ENDBRANCH  78  82
ENDBRANCH  51  75
BRANCH  63  86
ATOM     86  C   UNL A   1      44.671  27.724  34.323  1.00  0.00     0.023 A 
ATOM     87  C   UNL A   1      44.462  26.528  35.034  1.00  0.00     0.031 A 
ATOM     88  C   UNL A   1      45.814  28.484  34.631  1.00  0.00     0.131 A 
ATOM     89  C   UNL A   1      45.348  26.155  36.057  1.00  0.00     0.055 A 
ATOM     90  C   UNL A   1      46.721  28.080  35.613  1.00  0.00     0.041 A 
ATOM     91  F   UNL A   1      46.057  29.640  33.997  1.00  0.00    -0.206 F 
ATOM     92  C   UNL A   1      46.485  26.917  36.341  1.00  0.00     0.022 A 
BRANCH  89  93
ATOM     93  S   UNL A   1      44.947  24.709  37.077  1.00  0.00     0.124 S 
ATOM     94  O   UNL A   1      44.357  25.329  38.260  1.00  0.00    -0.237 OA
ATOM     95  O   UNL A   1      44.030  23.966  36.222  1.00  0.00    -0.237 OA
ATOM     96  O   UNL A   1      46.245  24.071  37.295  1.00  0.00    -0.744 OA
ENDBRANCH  89  93
ENDBRANCH  63  86
ENDBRANCH  37  38
ENDBRANCH  30  32
ENDBRANCH  29  30
ENDBRANCH  28  29
ENDBRANCH   1  28
TORSDOF 18
ENDMDL
