MODEL 1
REMARK VINA RESULT:     -11.6      0.000      0.000
REMARK SMILES [NH3+]C1(C(=O)N2[C@@H](C(=O)OCCOC(=O)c3ccc(-c4c5nc(c(-c6cc(S(=O)(=O)[O-])ccc6F)c6ccc([nH]6)c(-c6cc(S(=O)(=O)[O-])ccc6F)c6nc(c(-c7cc(S(=O)(=O)[O-])ccc7F)c7ccc4[nH]7)C=C6)C=C5)cc3)CC[C@@H]3CCCC[C@@H]32)CC1
REMARK SMILES IDX 10 1 9 2 7 3 8 4 6 5 5 6 85 7 78 8 80 9 84 10 79 11 81 12
REMARK SMILES IDX 83 13 82 14 3 15 4 16 2 17 86 18 87 19 1 20 11 24 12 25
REMARK SMILES IDX 13 26 14 27 15 28 16 29 77 30 17 31 76 32 18 33 19 34 20 35
REMARK SMILES IDX 70 36 21 37 75 38 69 39 71 40 22 41 74 42 68 43 67 44 23 46
REMARK SMILES IDX 55 47 35 48 54 49 36 50 39 51 53 52 72 53 37 54 38 55 52 57
REMARK SMILES IDX 73 58 40 59 24 60 25 61 33 62 26 63 32 64 34 65 31 66 27 67
REMARK SMILES IDX 28 68 29 69 30 70 56 71 57 72 65 73 58 74 64 75 66 76 63 77
REMARK SMILES IDX 59 78 60 79 61 80 62 81 41 82 42 83 50 84 43 85 49 86 51 87
REMARK SMILES IDX 48 88 44 89 45 90 46 91 47 92
REMARK H PARENT 1 21 1 22 1 23 71 45 39 56
REMARK Flexibility Score: inf
ROOT
ATOM      1  C   UNL A   1      31.336  28.530  25.143  1.00  0.00     0.274 C 
ENDROOT
BRANCH   1   2
ATOM      2  O   UNL A   1      32.274  27.547  25.620  1.00  0.00    -0.461 OA
BRANCH   2   3
ATOM      3  C   UNL A   1      31.708  26.430  26.151  1.00  0.00     0.328 C 
ATOM      4  O   UNL A   1      30.669  26.450  26.800  1.00  0.00    -0.250 OA
BRANCH   3   5
ATOM      5  C   UNL A   1      32.462  25.132  25.800  1.00  0.00     0.195 C 
ATOM      6  N   UNL A   1      32.705  24.883  24.366  1.00  0.00    -0.320 N 
ATOM      7  C   UNL A   1      33.606  23.760  24.050  1.00  0.00     0.089 C 
ATOM      8  C   UNL A   1      32.013  23.876  26.545  1.00  0.00     0.037 C 
ATOM      9  C   UNL A   1      33.257  22.485  24.857  1.00  0.00     0.012 C 
ATOM     10  C   UNL A   1      35.077  24.190  24.180  1.00  0.00     0.025 C 
ATOM     11  C   UNL A   1      33.068  22.783  26.354  1.00  0.00     0.008 C 
ATOM     12  C   UNL A   1      34.290  21.372  24.629  1.00  0.00     0.006 C 
ATOM     13  C   UNL A   1      36.054  23.038  23.961  1.00  0.00     0.002 C 
ATOM     14  C   UNL A   1      35.727  21.836  24.838  1.00  0.00     0.000 C 
BRANCH   6  15
ATOM     15  C   UNL A   1      31.655  25.086  23.481  1.00  0.00     0.284 C 
ATOM     16  O   UNL A   1      30.619  24.426  23.500  1.00  0.00    -0.268 OA
BRANCH  15  17
ATOM     17  C   UNL A   1      31.866  26.140  22.397  1.00  0.00     0.174 C 
ATOM     18  C   UNL A   1      32.545  25.705  21.112  1.00  0.00     0.086 C 
ATOM     19  C   UNL A   1      33.228  26.678  22.015  1.00  0.00     0.086 C 
BRANCH  17  20
ATOM     20  N   UNL A   1      30.706  27.060  22.259  1.00  0.00    -0.345 N 
ATOM     21  H   UNL A   1      31.036  27.987  21.995  1.00  0.00     0.345 HD
ATOM     22  H   UNL A   1      30.209  27.117  23.148  1.00  0.00     0.345 HD
ATOM     23  H   UNL A   1      30.075  26.705  21.540  1.00  0.00     0.345 HD
ENDBRANCH  17  20
ENDBRANCH  15  17
ENDBRANCH   6  15
ENDBRANCH   3   5
ENDBRANCH   2   3
ENDBRANCH   1   2
BRANCH   1  24
ATOM     24  C   UNL A   1      31.818  29.969  25.384  1.00  0.00     0.275 C 
BRANCH  24  25
ATOM     25  O   UNL A   1      33.168  30.051  25.882  1.00  0.00    -0.458 OA
BRANCH  25  26
ATOM     26  C   UNL A   1      33.369  30.978  26.850  1.00  0.00     0.338 C 
ATOM     27  O   UNL A   1      32.555  31.793  27.256  1.00  0.00    -0.246 OA
BRANCH  26  28
ATOM     28  C   UNL A   1      34.683  30.794  27.492  1.00  0.00     0.060 A 
ATOM     29  C   UNL A   1      35.017  29.511  27.932  1.00  0.00     0.016 A 
ATOM     30  C   UNL A   1      35.528  31.867  27.769  1.00  0.00     0.016 A 
ATOM     31  C   UNL A   1      36.170  29.286  28.670  1.00  0.00     0.010 A 
ATOM     32  C   UNL A   1      36.709  31.637  28.490  1.00  0.00     0.010 A 
ATOM     33  C   UNL A   1      37.032  30.347  28.950  1.00  0.00    -0.014 A 
BRANCH  33  34
ATOM     34  C   UNL A   1      38.261  30.090  29.737  1.00  0.00     0.031 A 
ATOM     35  C   UNL A   1      39.308  29.158  29.202  1.00  0.00     0.074 A 
ATOM     36  C   UNL A   1      38.441  30.720  30.913  1.00  0.00     0.049 A 
ATOM     37  N   UNL A   1      40.367  28.677  29.798  1.00  0.00    -0.248 NA
ATOM     38  C   UNL A   1      39.140  28.710  27.812  1.00  0.00     0.031 C 
ATOM     39  C   UNL A   1      37.532  31.716  31.486  1.00  0.00     0.029 A 
ATOM     40  N   UNL A   1      39.443  30.612  31.845  1.00  0.00    -0.354 N 
ATOM     41  C   UNL A   1      40.977  27.841  28.870  1.00  0.00     0.074 A 
ATOM     42  C   UNL A   1      40.167  27.883  27.670  1.00  0.00     0.031 C 
ATOM     43  C   UNL A   1      38.009  32.113  32.676  1.00  0.00     0.029 A 
ATOM     44  C   UNL A   1      39.211  31.346  32.984  1.00  0.00     0.049 A 
ATOM     45  H   UNL A   1      40.249  30.062  31.711  1.00  0.00     0.167 HD
ATOM     46  C   UNL A   1      42.104  27.103  29.019  1.00  0.00     0.034 A 
ATOM     47  C   UNL A   1      39.856  31.352  34.167  1.00  0.00     0.034 A 
ATOM     48  C   UNL A   1      42.899  27.090  30.223  1.00  0.00     0.049 A 
ATOM     49  C   UNL A   1      41.051  30.448  34.340  1.00  0.00     0.074 A 
ATOM     50  C   UNL A   1      44.064  26.388  30.481  1.00  0.00     0.029 A 
ATOM     51  N   UNL A   1      42.606  27.807  31.378  1.00  0.00    -0.354 N 
ATOM     52  N   UNL A   1      41.598  29.628  33.472  1.00  0.00    -0.248 NA
ATOM     53  C   UNL A   1      41.708  30.464  35.652  1.00  0.00     0.031 C 
ATOM     54  C   UNL A   1      44.437  26.628  31.808  1.00  0.00     0.029 A 
ATOM     55  C   UNL A   1      43.545  27.535  32.359  1.00  0.00     0.049 A 
ATOM     56  H   UNL A   1      41.842  28.418  31.482  1.00  0.00     0.167 HD
ATOM     57  C   UNL A   1      42.674  29.042  34.131  1.00  0.00     0.074 A 
ATOM     58  C   UNL A   1      42.712  29.621  35.459  1.00  0.00     0.031 C 
ATOM     59  C   UNL A   1      43.553  28.109  33.684  1.00  0.00     0.034 A 
BRANCH  46  60
ATOM     60  C   UNL A   1      42.496  26.193  27.883  1.00  0.00     0.023 A 
ATOM     61  C   UNL A   1      41.950  24.908  27.728  1.00  0.00     0.031 A 
ATOM     62  C   UNL A   1      43.449  26.623  26.942  1.00  0.00     0.131 A 
ATOM     63  C   UNL A   1      42.398  24.080  26.687  1.00  0.00     0.055 A 
ATOM     64  C   UNL A   1      43.842  25.821  25.870  1.00  0.00     0.041 A 
ATOM     65  F   UNL A   1      44.022  27.833  27.054  1.00  0.00    -0.206 F 
ATOM     66  C   UNL A   1      43.323  24.536  25.743  1.00  0.00     0.022 A 
BRANCH  63  67
ATOM     67  S   UNL A   1      41.838  22.356  26.641  1.00  0.00     0.124 S 
ATOM     68  O   UNL A   1      40.386  22.515  26.691  1.00  0.00    -0.237 OA
ATOM     69  O   UNL A   1      42.385  21.878  25.377  1.00  0.00    -0.237 OA
ATOM     70  O   UNL A   1      42.434  21.768  27.839  1.00  0.00    -0.744 OA
ENDBRANCH  63  67
ENDBRANCH  46  60
BRANCH  47  71
ATOM     71  C   UNL A   1      39.336  32.156  35.309  1.00  0.00     0.023 A 
ATOM     72  C   UNL A   1      39.739  33.484  35.511  1.00  0.00     0.031 A 
ATOM     73  C   UNL A   1      38.469  31.579  36.258  1.00  0.00     0.131 A 
ATOM     74  C   UNL A   1      39.313  34.177  36.656  1.00  0.00     0.055 A 
ATOM     75  C   UNL A   1      38.001  32.292  37.363  1.00  0.00     0.041 A 
ATOM     76  F   UNL A   1      38.055  30.309  36.118  1.00  0.00    -0.206 F 
ATOM     77  C   UNL A   1      38.438  33.595  37.575  1.00  0.00     0.022 A 
BRANCH  74  78
ATOM     78  S   UNL A   1      40.007  35.821  36.982  1.00  0.00     0.124 S 
ATOM     79  O   UNL A   1      39.652  36.541  35.764  1.00  0.00    -0.237 OA
ATOM     80  O   UNL A   1      39.292  36.215  38.192  1.00  0.00    -0.237 OA
ATOM     81  O   UNL A   1      41.433  35.559  37.160  1.00  0.00    -0.744 OA
ENDBRANCH  74  78
ENDBRANCH  47  71
BRANCH  59  82
ATOM     82  C   UNL A   1      44.643  27.694  34.638  1.00  0.00     0.023 A 
ATOM     83  C   UNL A   1      44.533  26.531  35.420  1.00  0.00     0.031 A 
ATOM     84  C   UNL A   1      45.797  28.484  34.782  1.00  0.00     0.131 A 
ATOM     85  C   UNL A   1      45.533  26.219  36.352  1.00  0.00     0.055 A 
ATOM     86  C   UNL A   1      46.816  28.138  35.669  1.00  0.00     0.041 A 
ATOM     87  F   UNL A   1      45.951  29.605  34.061  1.00  0.00    -0.206 F 
ATOM     88  C   UNL A   1      46.682  27.007  36.470  1.00  0.00     0.022 A 
BRANCH  85  89
ATOM     89  S   UNL A   1      45.276  24.814  37.469  1.00  0.00     0.124 S 
ATOM     90  O   UNL A   1      44.556  25.435  38.576  1.00  0.00    -0.237 OA
ATOM     91  O   UNL A   1      44.503  23.894  36.642  1.00  0.00    -0.237 OA
ATOM     92  O   UNL A   1      46.634  24.373  37.784  1.00  0.00    -0.744 OA
ENDBRANCH  85  89
ENDBRANCH  59  82
ENDBRANCH  33  34
ENDBRANCH  26  28
ENDBRANCH  25  26
ENDBRANCH  24  25
ENDBRANCH   1  24
TORSDOF 17
ENDMDL
MODEL 2
REMARK VINA RESULT:     -11.6      4.712      9.871
REMARK SMILES [NH3+]C1(C(=O)N2[C@@H](C(=O)OCCOC(=O)c3ccc(-c4c5nc(c(-c6cc(S(=O)(=O)[O-])ccc6F)c6ccc([nH]6)c(-c6cc(S(=O)(=O)[O-])ccc6F)c6nc(c(-c7cc(S(=O)(=O)[O-])ccc7F)c7ccc4[nH]7)C=C6)C=C5)cc3)CC[C@@H]3CCCC[C@@H]32)CC1
REMARK SMILES IDX 10 1 9 2 7 3 8 4 6 5 5 6 85 7 78 8 80 9 84 10 79 11 81 12
REMARK SMILES IDX 83 13 82 14 3 15 4 16 2 17 86 18 87 19 1 20 11 24 12 25
REMARK SMILES IDX 13 26 14 27 15 28 16 29 77 30 17 31 76 32 18 33 19 34 20 35
REMARK SMILES IDX 70 36 21 37 75 38 69 39 71 40 22 41 74 42 68 43 67 44 23 46
REMARK SMILES IDX 55 47 35 48 54 49 36 50 39 51 53 52 72 53 37 54 38 55 52 57
REMARK SMILES IDX 73 58 40 59 24 60 25 61 33 62 26 63 32 64 34 65 31 66 27 67
REMARK SMILES IDX 28 68 29 69 30 70 56 71 57 72 65 73 58 74 64 75 66 76 63 77
REMARK SMILES IDX 59 78 60 79 61 80 62 81 41 82 42 83 50 84 43 85 49 86 51 87
REMARK SMILES IDX 48 88 44 89 45 90 46 91 47 92
REMARK H PARENT 1 21 1 22 1 23 71 45 39 56
REMARK Flexibility Score: inf
ROOT
ATOM      1  C   UNL A   1      35.054  21.704  24.496  1.00  0.00     0.274 C 
ENDROOT
BRANCH   1   2
ATOM      2  O   UNL A   1      34.711  23.095  24.637  1.00  0.00    -0.461 OA
BRANCH   2   3
ATOM      3  C   UNL A   1      34.230  23.682  23.507  1.00  0.00     0.328 C 
ATOM      4  O   UNL A   1      34.375  23.202  22.390  1.00  0.00    -0.250 OA
BRANCH   3   5
ATOM      5  C   UNL A   1      33.425  24.969  23.778  1.00  0.00     0.195 C 
ATOM      6  N   UNL A   1      32.284  24.846  24.705  1.00  0.00    -0.320 N 
ATOM      7  C   UNL A   1      31.655  26.111  25.125  1.00  0.00     0.089 C 
ATOM      8  C   UNL A   1      33.095  25.820  22.553  1.00  0.00     0.037 C 
ATOM      9  C   UNL A   1      31.390  27.058  23.928  1.00  0.00     0.012 C 
ATOM     10  C   UNL A   1      32.455  26.764  26.265  1.00  0.00     0.025 C 
ATOM     11  C   UNL A   1      32.624  27.199  23.021  1.00  0.00     0.008 C 
ATOM     12  C   UNL A   1      30.872  28.426  24.395  1.00  0.00     0.006 C 
ATOM     13  C   UNL A   1      31.903  28.128  26.671  1.00  0.00     0.002 C 
ATOM     14  C   UNL A   1      31.741  29.059  25.477  1.00  0.00     0.000 C 
BRANCH   6  15
ATOM     15  C   UNL A   1      31.427  23.765  24.547  1.00  0.00     0.284 C 
ATOM     16  O   UNL A   1      30.708  23.613  23.563  1.00  0.00    -0.268 OA
BRANCH  15  17
ATOM     17  C   UNL A   1      31.348  22.777  25.707  1.00  0.00     0.174 C 
ATOM     18  C   UNL A   1      30.267  22.997  26.749  1.00  0.00     0.086 C 
ATOM     19  C   UNL A   1      31.704  23.139  27.133  1.00  0.00     0.086 C 
BRANCH  17  20
ATOM     20  N   UNL A   1      31.585  21.372  25.281  1.00  0.00    -0.345 N 
ATOM     21  H   UNL A   1      30.694  20.882  25.212  1.00  0.00     0.345 HD
ATOM     22  H   UNL A   1      32.178  20.905  25.967  1.00  0.00     0.345 HD
ATOM     23  H   UNL A   1      32.048  21.367  24.371  1.00  0.00     0.345 HD
ENDBRANCH  17  20
ENDBRANCH  15  17
ENDBRANCH   6  15
ENDBRANCH   3   5
ENDBRANCH   2   3
ENDBRANCH   1   2
BRANCH   1  24
ATOM     24  C   UNL A   1      36.190  21.279  25.438  1.00  0.00     0.275 C 
BRANCH  24  25
ATOM     25  O   UNL A   1      37.505  21.600  24.941  1.00  0.00    -0.458 OA
BRANCH  25  26
ATOM     26  C   UNL A   1      38.533  21.169  25.712  1.00  0.00     0.338 C 
ATOM     27  O   UNL A   1      38.937  20.020  25.809  1.00  0.00    -0.246 OA
BRANCH  26  28
ATOM     28  C   UNL A   1      39.236  22.304  26.336  1.00  0.00     0.060 A 
ATOM     29  C   UNL A   1      38.855  23.592  25.955  1.00  0.00     0.016 A 
ATOM     30  C   UNL A   1      40.326  22.122  27.186  1.00  0.00     0.016 A 
ATOM     31  C   UNL A   1      39.562  24.704  26.388  1.00  0.00     0.010 A 
ATOM     32  C   UNL A   1      41.025  23.247  27.649  1.00  0.00     0.010 A 
ATOM     33  C   UNL A   1      40.651  24.543  27.246  1.00  0.00    -0.014 A 
BRANCH  33  34
ATOM     34  C   UNL A   1      41.394  25.741  27.702  1.00  0.00     0.031 A 
ATOM     35  C   UNL A   1      40.695  26.787  28.519  1.00  0.00     0.074 A 
ATOM     36  C   UNL A   1      42.701  25.865  27.405  1.00  0.00     0.049 A 
ATOM     37  N   UNL A   1      41.113  27.972  28.875  1.00  0.00    -0.248 NA
ATOM     38  C   UNL A   1      39.345  26.452  28.998  1.00  0.00     0.031 C 
ATOM     39  C   UNL A   1      43.505  24.866  26.695  1.00  0.00     0.029 A 
ATOM     40  N   UNL A   1      43.584  26.886  27.652  1.00  0.00    -0.354 N 
ATOM     41  C   UNL A   1      40.068  28.543  29.592  1.00  0.00     0.074 A 
ATOM     42  C   UNL A   1      38.996  27.570  29.619  1.00  0.00     0.031 C 
ATOM     43  C   UNL A   1      44.755  25.331  26.549  1.00  0.00     0.029 A 
ATOM     44  C   UNL A   1      44.821  26.687  27.084  1.00  0.00     0.049 A 
ATOM     45  H   UNL A   1      43.355  27.683  28.182  1.00  0.00     0.167 HD
ATOM     46  C   UNL A   1      40.015  29.772  30.164  1.00  0.00     0.034 A 
ATOM     47  C   UNL A   1      45.868  27.526  26.951  1.00  0.00     0.034 A 
ATOM     48  C   UNL A   1      41.105  30.718  30.130  1.00  0.00     0.049 A 
ATOM     49  C   UNL A   1      45.746  28.921  27.511  1.00  0.00     0.074 A 
ATOM     50  C   UNL A   1      41.164  31.985  30.684  1.00  0.00     0.029 A 
ATOM     51  N   UNL A   1      42.326  30.503  29.501  1.00  0.00    -0.354 N 
ATOM     52  N   UNL A   1      44.739  29.470  28.152  1.00  0.00    -0.248 NA
ATOM     53  C   UNL A   1      46.898  29.812  27.322  1.00  0.00     0.031 C 
ATOM     54  C   UNL A   1      42.391  32.560  30.333  1.00  0.00     0.029 A 
ATOM     55  C   UNL A   1      43.128  31.627  29.622  1.00  0.00     0.049 A 
ATOM     56  H   UNL A   1      42.582  29.674  29.038  1.00  0.00     0.167 HD
ATOM     57  C   UNL A   1      45.144  30.766  28.454  1.00  0.00     0.074 A 
ATOM     58  C   UNL A   1      46.494  30.907  27.947  1.00  0.00     0.031 C 
ATOM     59  C   UNL A   1      44.465  31.753  29.092  1.00  0.00     0.034 A 
BRANCH  46  60
ATOM     60  C   UNL A   1      38.714  30.189  30.799  1.00  0.00     0.023 A 
ATOM     61  C   UNL A   1      37.714  30.870  30.085  1.00  0.00     0.031 A 
ATOM     62  C   UNL A   1      38.478  29.905  32.157  1.00  0.00     0.131 A 
ATOM     63  C   UNL A   1      36.547  31.289  30.745  1.00  0.00     0.055 A 
ATOM     64  C   UNL A   1      37.288  30.265  32.790  1.00  0.00     0.041 A 
ATOM     65  F   UNL A   1      39.409  29.277  32.894  1.00  0.00    -0.206 F 
ATOM     66  C   UNL A   1      36.317  30.971  32.086  1.00  0.00     0.022 A 
BRANCH  63  67
ATOM     67  S   UNL A   1      35.377  32.352  29.856  1.00  0.00     0.124 S 
ATOM     68  O   UNL A   1      36.225  33.483  29.490  1.00  0.00    -0.237 OA
ATOM     69  O   UNL A   1      34.942  31.496  28.758  1.00  0.00    -0.237 OA
ATOM     70  O   UNL A   1      34.353  32.648  30.856  1.00  0.00    -0.744 OA
ENDBRANCH  63  67
ENDBRANCH  46  60
BRANCH  47  71
ATOM     71  C   UNL A   1      47.074  27.116  26.179  1.00  0.00     0.023 A 
ATOM     72  C   UNL A   1      48.146  26.453  26.796  1.00  0.00     0.031 A 
ATOM     73  C   UNL A   1      47.198  27.439  24.814  1.00  0.00     0.131 A 
ATOM     74  C   UNL A   1      49.311  26.177  26.063  1.00  0.00     0.055 A 
ATOM     75  C   UNL A   1      48.335  27.110  24.075  1.00  0.00     0.041 A 
ATOM     76  F   UNL A   1      46.206  28.079  24.174  1.00  0.00    -0.206 F 
ATOM     77  C   UNL A   1      49.407  26.488  24.705  1.00  0.00     0.022 A 
BRANCH  74  78
ATOM     78  S   UNL A   1      50.745  25.495  26.939  1.00  0.00     0.124 S 
ATOM     79  O   UNL A   1      50.156  24.356  27.635  1.00  0.00    -0.237 OA
ATOM     80  O   UNL A   1      51.649  25.176  25.838  1.00  0.00    -0.237 OA
ATOM     81  O   UNL A   1      51.175  26.597  27.797  1.00  0.00    -0.744 OA
ENDBRANCH  74  78
ENDBRANCH  47  71
BRANCH  59  82
ATOM     82  C   UNL A   1      45.197  33.054  29.300  1.00  0.00     0.023 A 
ATOM     83  C   UNL A   1      45.168  34.077  28.336  1.00  0.00     0.031 A 
ATOM     84  C   UNL A   1      45.952  33.263  30.467  1.00  0.00     0.131 A 
ATOM     85  C   UNL A   1      45.924  35.242  28.532  1.00  0.00     0.055 A 
ATOM     86  C   UNL A   1      46.656  34.447  30.682  1.00  0.00     0.041 A 
ATOM     87  F   UNL A   1      46.015  32.318  31.418  1.00  0.00    -0.206 F 
ATOM     88  C   UNL A   1      46.655  35.440  29.706  1.00  0.00     0.022 A 
BRANCH  85  89
ATOM     89  S   UNL A   1      46.008  36.461  27.192  1.00  0.00     0.124 S 
ATOM     90  O   UNL A   1      46.086  35.609  26.010  1.00  0.00    -0.237 OA
ATOM     91  O   UNL A   1      44.761  37.200  27.363  1.00  0.00    -0.237 OA
ATOM     92  O   UNL A   1      47.222  37.218  27.493  1.00  0.00    -0.744 OA
ENDBRANCH  85  89
ENDBRANCH  59  82
ENDBRANCH  33  34
ENDBRANCH  26  28
ENDBRANCH  25  26
ENDBRANCH  24  25
ENDBRANCH   1  24
TORSDOF 17
ENDMDL
MODEL 3
REMARK VINA RESULT:     -11.4      1.465      1.751
REMARK SMILES [NH3+]C1(C(=O)N2[C@@H](C(=O)OCCOC(=O)c3ccc(-c4c5nc(c(-c6cc(S(=O)(=O)[O-])ccc6F)c6ccc([nH]6)c(-c6cc(S(=O)(=O)[O-])ccc6F)c6nc(c(-c7cc(S(=O)(=O)[O-])ccc7F)c7ccc4[nH]7)C=C6)C=C5)cc3)CC[C@@H]3CCCC[C@@H]32)CC1
REMARK SMILES IDX 10 1 9 2 7 3 8 4 6 5 5 6 85 7 78 8 80 9 84 10 79 11 81 12
REMARK SMILES IDX 83 13 82 14 3 15 4 16 2 17 86 18 87 19 1 20 11 24 12 25
REMARK SMILES IDX 13 26 14 27 15 28 16 29 77 30 17 31 76 32 18 33 19 34 20 35
REMARK SMILES IDX 70 36 21 37 75 38 69 39 71 40 22 41 74 42 68 43 67 44 23 46
REMARK SMILES IDX 55 47 35 48 54 49 36 50 39 51 53 52 72 53 37 54 38 55 52 57
REMARK SMILES IDX 73 58 40 59 24 60 25 61 33 62 26 63 32 64 34 65 31 66 27 67
REMARK SMILES IDX 28 68 29 69 30 70 56 71 57 72 65 73 58 74 64 75 66 76 63 77
REMARK SMILES IDX 59 78 60 79 61 80 62 81 41 82 42 83 50 84 43 85 49 86 51 87
REMARK SMILES IDX 48 88 44 89 45 90 46 91 47 92
REMARK H PARENT 1 21 1 22 1 23 71 45 39 56
REMARK Flexibility Score: inf
ROOT
ATOM      1  C   UNL A   1      31.794  28.522  27.543  1.00  0.00     0.274 C 
ENDROOT
BRANCH   1   2
ATOM      2  O   UNL A   1      32.339  27.457  26.741  1.00  0.00    -0.461 OA
BRANCH   2   3
ATOM      3  C   UNL A   1      31.491  26.415  26.523  1.00  0.00     0.328 C 
ATOM      4  O   UNL A   1      30.286  26.479  26.734  1.00  0.00    -0.250 OA
BRANCH   3   5
ATOM      5  C   UNL A   1      32.181  25.176  25.920  1.00  0.00     0.195 C 
ATOM      6  N   UNL A   1      32.379  25.182  24.458  1.00  0.00    -0.320 N 
ATOM      7  C   UNL A   1      33.225  24.102  23.917  1.00  0.00     0.089 C 
ATOM      8  C   UNL A   1      31.699  23.823  26.441  1.00  0.00     0.037 C 
ATOM      9  C   UNL A   1      32.842  22.716  24.492  1.00  0.00     0.012 C 
ATOM     10  C   UNL A   1      34.715  24.448  24.075  1.00  0.00     0.025 C 
ATOM     11  C   UNL A   1      32.702  22.745  26.023  1.00  0.00     0.008 C 
ATOM     12  C   UNL A   1      33.822  21.626  24.035  1.00  0.00     0.006 C 
ATOM     13  C   UNL A   1      35.637  23.320  23.622  1.00  0.00     0.002 C 
ATOM     14  C   UNL A   1      35.282  21.991  24.279  1.00  0.00     0.000 C 
BRANCH   6  15
ATOM     15  C   UNL A   1      31.317  25.580  23.657  1.00  0.00     0.284 C 
ATOM     16  O   UNL A   1      30.302  24.907  23.498  1.00  0.00    -0.268 OA
BRANCH  15  17
ATOM     17  C   UNL A   1      31.487  26.890  22.894  1.00  0.00     0.174 C 
ATOM     18  C   UNL A   1      31.068  28.172  23.588  1.00  0.00     0.086 C 
ATOM     19  C   UNL A   1      30.323  27.710  22.380  1.00  0.00     0.086 C 
BRANCH  17  20
ATOM     20  N   UNL A   1      32.752  26.938  22.113  1.00  0.00    -0.345 N 
ATOM     21  H   UNL A   1      32.905  27.887  21.771  1.00  0.00     0.345 HD
ATOM     22  H   UNL A   1      32.687  26.299  21.321  1.00  0.00     0.345 HD
ATOM     23  H   UNL A   1      33.531  26.661  22.710  1.00  0.00     0.345 HD
ENDBRANCH  17  20
ENDBRANCH  15  17
ENDBRANCH   6  15
ENDBRANCH   3   5
ENDBRANCH   2   3
ENDBRANCH   1   2
BRANCH   1  24
ATOM     24  C   UNL A   1      31.816  29.876  26.817  1.00  0.00     0.275 C 
BRANCH  24  25
ATOM     25  O   UNL A   1      33.144  30.341  26.502  1.00  0.00    -0.458 OA
BRANCH  25  26
ATOM     26  C   UNL A   1      33.590  31.369  27.265  1.00  0.00     0.338 C 
ATOM     27  O   UNL A   1      32.959  32.366  27.582  1.00  0.00    -0.246 OA
BRANCH  26  28
ATOM     28  C   UNL A   1      34.924  31.075  27.818  1.00  0.00     0.060 A 
ATOM     29  C   UNL A   1      35.165  29.778  28.279  1.00  0.00     0.016 A 
ATOM     30  C   UNL A   1      35.886  32.068  27.997  1.00  0.00     0.016 A 
ATOM     31  C   UNL A   1      36.342  29.462  28.940  1.00  0.00     0.010 A 
ATOM     32  C   UNL A   1      37.090  31.743  28.639  1.00  0.00     0.010 A 
ATOM     33  C   UNL A   1      37.320  30.441  29.121  1.00  0.00    -0.014 A 
BRANCH  33  34
ATOM     34  C   UNL A   1      38.574  30.086  29.827  1.00  0.00     0.031 A 
ATOM     35  C   UNL A   1      39.522  29.099  29.215  1.00  0.00     0.074 A 
ATOM     36  C   UNL A   1      38.866  30.678  31.001  1.00  0.00     0.049 A 
ATOM     37  N   UNL A   1      40.580  28.536  29.736  1.00  0.00    -0.248 NA
ATOM     38  C   UNL A   1      39.243  28.693  27.829  1.00  0.00     0.031 C 
ATOM     39  C   UNL A   1      38.061  31.719  31.645  1.00  0.00     0.029 A 
ATOM     40  N   UNL A   1      39.911  30.484  31.868  1.00  0.00    -0.354 N 
ATOM     41  C   UNL A   1      41.077  27.682  28.759  1.00  0.00     0.074 A 
ATOM     42  C   UNL A   1      40.201  27.803  27.611  1.00  0.00     0.031 C 
ATOM     43  C   UNL A   1      38.633  32.058  32.811  1.00  0.00     0.029 A 
ATOM     44  C   UNL A   1      39.797  31.207  33.032  1.00  0.00     0.049 A 
ATOM     45  H   UNL A   1      40.669  29.885  31.676  1.00  0.00     0.167 HD
ATOM     46  C   UNL A   1      42.159  26.868  28.826  1.00  0.00     0.034 A 
ATOM     47  C   UNL A   1      40.510  31.145  34.174  1.00  0.00     0.034 A 
ATOM     48  C   UNL A   1      43.021  26.777  29.980  1.00  0.00     0.049 A 
ATOM     49  C   UNL A   1      41.649  30.161  34.258  1.00  0.00     0.074 A 
ATOM     50  C   UNL A   1      44.149  25.994  30.154  1.00  0.00     0.029 A 
ATOM     51  N   UNL A   1      42.845  27.486  31.162  1.00  0.00    -0.354 N 
ATOM     52  N   UNL A   1      42.088  29.326  33.344  1.00  0.00    -0.248 NA
ATOM     53  C   UNL A   1      42.383  30.106  35.528  1.00  0.00     0.031 C 
ATOM     54  C   UNL A   1      44.615  26.181  31.460  1.00  0.00     0.029 A 
ATOM     55  C   UNL A   1      43.821  27.132  32.080  1.00  0.00     0.049 A 
ATOM     56  H   UNL A   1      42.132  28.145  31.323  1.00  0.00     0.167 HD
ATOM     57  C   UNL A   1      43.159  28.656  33.927  1.00  0.00     0.074 A 
ATOM     58  C   UNL A   1      43.315  29.203  35.260  1.00  0.00     0.031 C 
ATOM     59  C   UNL A   1      43.945  27.677  33.412  1.00  0.00     0.034 A 
BRANCH  46  60
ATOM     60  C   UNL A   1      42.420  25.959  27.653  1.00  0.00     0.023 A 
ATOM     61  C   UNL A   1      41.861  24.673  27.560  1.00  0.00     0.031 A 
ATOM     62  C   UNL A   1      43.261  26.390  26.611  1.00  0.00     0.131 A 
ATOM     63  C   UNL A   1      42.189  23.846  26.475  1.00  0.00     0.055 A 
ATOM     64  C   UNL A   1      43.531  25.588  25.501  1.00  0.00     0.041 A 
ATOM     65  F   UNL A   1      43.842  27.599  26.658  1.00  0.00    -0.206 F 
ATOM     66  C   UNL A   1      43.002  24.302  25.433  1.00  0.00     0.022 A 
BRANCH  63  67
ATOM     67  S   UNL A   1      41.628  22.121  26.492  1.00  0.00     0.124 S 
ATOM     68  O   UNL A   1      42.058  21.684  27.818  1.00  0.00    -0.237 OA
ATOM     69  O   UNL A   1      40.189  22.254  26.298  1.00  0.00    -0.237 OA
ATOM     70  O   UNL A   1      42.353  21.512  25.379  1.00  0.00    -0.744 OA
ENDBRANCH  63  67
ENDBRANCH  46  60
BRANCH  47  71
ATOM     71  C   UNL A   1      40.114  31.957  35.359  1.00  0.00     0.023 A 
ATOM     72  C   UNL A   1      39.179  31.481  36.291  1.00  0.00     0.031 A 
ATOM     73  C   UNL A   1      40.623  33.257  35.543  1.00  0.00     0.131 A 
ATOM     74  C   UNL A   1      38.749  32.314  37.336  1.00  0.00     0.055 A 
ATOM     75  C   UNL A   1      40.236  34.060  36.617  1.00  0.00     0.041 A 
ATOM     76  F   UNL A   1      41.515  33.767  34.678  1.00  0.00    -0.206 F 
ATOM     77  C   UNL A   1      39.280  33.593  37.513  1.00  0.00     0.022 A 
BRANCH  74  78
ATOM     78  S   UNL A   1      37.402  31.738  38.405  1.00  0.00     0.124 S 
ATOM     79  O   UNL A   1      36.350  32.705  38.108  1.00  0.00    -0.237 OA
ATOM     80  O   UNL A   1      37.184  30.381  37.912  1.00  0.00    -0.237 OA
ATOM     81  O   UNL A   1      37.970  31.827  39.748  1.00  0.00    -0.744 OA
ENDBRANCH  74  78
ENDBRANCH  47  71
BRANCH  59  82
ATOM     82  C   UNL A   1      45.060  27.170  34.290  1.00  0.00     0.023 A 
ATOM     83  C   UNL A   1      44.851  26.140  35.224  1.00  0.00     0.031 A 
ATOM     84  C   UNL A   1      46.342  27.742  34.209  1.00  0.00     0.131 A 
ATOM     85  C   UNL A   1      45.893  25.748  36.076  1.00  0.00     0.055 A 
ATOM     86  C   UNL A   1      47.390  27.309  35.021  1.00  0.00     0.041 A 
ATOM     87  F   UNL A   1      46.595  28.730  33.337  1.00  0.00    -0.206 F 
ATOM     88  C   UNL A   1      47.166  26.315  35.970  1.00  0.00     0.022 A 
BRANCH  85  89
ATOM     89  S   UNL A   1      45.541  24.545  37.387  1.00  0.00     0.124 S 
ATOM     90  O   UNL A   1      46.517  24.913  38.407  1.00  0.00    -0.237 OA
ATOM     91  O   UNL A   1      44.146  24.829  37.707  1.00  0.00    -0.237 OA
ATOM     92  O   UNL A   1      45.777  23.255  36.740  1.00  0.00    -0.744 OA
ENDBRANCH  85  89
ENDBRANCH  59  82
ENDBRANCH  33  34
ENDBRANCH  26  28
ENDBRANCH  25  26
ENDBRANCH  24  25
ENDBRANCH   1  24
TORSDOF 17
ENDMDL
