MODEL 1
REMARK VINA RESULT:     -12.3      0.000      0.000
REMARK SMILES CC1(C)[C@H](C(=O)OCCOC(=O)c2ccc(-c3c4nc(c(-c5cc(S(=O)(=O)[O-])ccc5F)c5ccc([nH]5)c(-c5cc(S(=O)(=O)[O-])ccc5F)c5nc(c(-c6cc(S(=O)(=O)[O-])ccc6F)c6ccc3[nH]6)C=C5)C=C4)cc2)[C@@H]1C(=O)Nc1ccc(NC(=O)C2CCC2)cc1
REMARK SMILES IDX 8 1 7 2 5 3 6 4 4 5 1 6 2 7 3 8 76 9 77 10 78 11 79 12 80 14
REMARK SMILES IDX 81 15 92 16 82 17 91 18 83 19 84 20 85 21 86 23 87 24 88 25
REMARK SMILES IDX 90 26 89 27 9 28 10 29 11 30 12 31 13 32 14 33 75 34 15 35
REMARK SMILES IDX 74 36 16 37 17 38 18 39 68 40 19 41 73 42 67 43 69 44 20 45
REMARK SMILES IDX 72 46 66 47 65 48 21 50 53 51 33 52 52 53 34 54 37 55 51 56
REMARK SMILES IDX 70 57 35 58 36 59 50 61 71 62 38 63 22 64 23 65 31 66 24 67
REMARK SMILES IDX 30 68 32 69 29 70 25 71 26 72 27 73 28 74 54 75 55 76 63 77
REMARK SMILES IDX 56 78 62 79 64 80 61 81 57 82 58 83 59 84 60 85 39 86 40 87
REMARK SMILES IDX 48 88 41 89 47 90 49 91 46 92 42 93 43 94 44 95 45 96
REMARK H PARENT 79 13 84 22 69 49 37 60
REMARK Flexibility Score: inf
ROOT
ATOM      1  C   UNL A   1      31.087  30.990  25.406  1.00  0.00     0.274 C 
ENDROOT
BRANCH   1   2
ATOM      2  O   UNL A   1      31.822  29.751  25.447  1.00  0.00    -0.462 OA
BRANCH   2   3
ATOM      3  C   UNL A   1      31.179  28.700  24.859  1.00  0.00     0.310 C 
ATOM      4  O   UNL A   1      30.603  28.779  23.792  1.00  0.00    -0.252 OA
BRANCH   3   5
ATOM      5  C   UNL A   1      31.325  27.377  25.497  1.00  0.00     0.118 C 
ATOM      6  C   UNL A   1      30.223  25.133  25.893  1.00  0.00     0.013 C 
ATOM      7  C   UNL A   1      30.995  26.023  24.943  1.00  0.00    -0.009 C 
ATOM      8  C   UNL A   1      30.537  25.896  23.514  1.00  0.00     0.013 C 
ATOM      9  C   UNL A   1      32.451  26.402  25.305  1.00  0.00     0.100 C 
BRANCH   9  10
ATOM     10  C   UNL A   1      33.507  26.417  24.271  1.00  0.00     0.228 C 
ATOM     11  O   UNL A   1      34.031  27.483  23.951  1.00  0.00    -0.274 OA
ATOM     12  N   UNL A   1      33.886  25.275  23.605  1.00  0.00    -0.326 N 
ATOM     13  H   UNL A   1      34.362  25.406  22.753  1.00  0.00     0.169 HD
BRANCH  12  14
ATOM     14  C   UNL A   1      33.673  23.953  23.996  1.00  0.00     0.041 A 
ATOM     15  C   UNL A   1      34.254  23.596  25.204  1.00  0.00     0.028 A 
ATOM     16  C   UNL A   1      32.880  23.037  23.311  1.00  0.00     0.028 A 
ATOM     17  C   UNL A   1      33.915  22.384  25.795  1.00  0.00     0.028 A 
ATOM     18  C   UNL A   1      32.658  21.760  23.868  1.00  0.00     0.028 A 
ATOM     19  C   UNL A   1      33.155  21.432  25.141  1.00  0.00     0.041 A 
BRANCH  19  20
ATOM     20  N   UNL A   1      32.791  20.205  25.714  1.00  0.00    -0.326 N 
ATOM     21  C   UNL A   1      32.974  18.875  25.391  1.00  0.00     0.227 C 
ATOM     22  H   UNL A   1      32.283  20.320  26.549  1.00  0.00     0.169 HD
ATOM     23  O   UNL A   1      32.520  18.080  26.239  1.00  0.00    -0.274 OA
BRANCH  21  24
ATOM     24  C   UNL A   1      33.675  18.306  24.133  1.00  0.00     0.079 C 
ATOM     25  C   UNL A   1      34.615  17.085  24.461  1.00  0.00     0.013 C 
ATOM     26  C   UNL A   1      33.057  17.344  23.072  1.00  0.00     0.013 C 
ATOM     27  C   UNL A   1      34.387  16.587  23.034  1.00  0.00     0.002 C 
ENDBRANCH  21  24
ENDBRANCH  19  20
ENDBRANCH  12  14
ENDBRANCH   9  10
ENDBRANCH   3   5
ENDBRANCH   2   3
ENDBRANCH   1   2
BRANCH   1  28
ATOM     28  C   UNL A   1      31.421  31.984  26.533  1.00  0.00     0.275 C 
BRANCH  28  29
ATOM     29  O   UNL A   1      32.503  31.564  27.386  1.00  0.00    -0.458 OA
BRANCH  29  30
ATOM     30  C   UNL A   1      33.444  32.515  27.605  1.00  0.00     0.338 C 
ATOM     31  O   UNL A   1      33.256  33.722  27.628  1.00  0.00    -0.246 OA
BRANCH  30  32
ATOM     32  C   UNL A   1      34.745  31.921  27.958  1.00  0.00     0.060 A 
ATOM     33  C   UNL A   1      34.798  30.538  28.146  1.00  0.00     0.016 A 
ATOM     34  C   UNL A   1      35.844  32.710  28.287  1.00  0.00     0.016 A 
ATOM     35  C   UNL A   1      35.908  29.927  28.708  1.00  0.00     0.010 A 
ATOM     36  C   UNL A   1      36.973  32.098  28.849  1.00  0.00     0.010 A 
ATOM     37  C   UNL A   1      36.993  30.710  29.093  1.00  0.00    -0.014 A 
BRANCH  37  38
ATOM     38  C   UNL A   1      38.078  30.093  29.890  1.00  0.00     0.031 A 
ATOM     39  C   UNL A   1      38.279  30.551  31.306  1.00  0.00     0.074 A 
ATOM     40  C   UNL A   1      38.833  29.107  29.373  1.00  0.00     0.049 A 
ATOM     41  N   UNL A   1      39.268  30.311  32.123  1.00  0.00    -0.248 NA
ATOM     42  C   UNL A   1      37.217  31.399  31.870  1.00  0.00     0.031 C 
ATOM     43  C   UNL A   1      38.642  28.497  28.057  1.00  0.00     0.029 A 
ATOM     44  N   UNL A   1      39.921  28.454  29.891  1.00  0.00    -0.354 N 
ATOM     45  C   UNL A   1      38.973  31.014  33.286  1.00  0.00     0.074 A 
ATOM     46  C   UNL A   1      37.714  31.693  33.063  1.00  0.00     0.031 C 
ATOM     47  C   UNL A   1      39.597  27.573  27.862  1.00  0.00     0.029 A 
ATOM     48  C   UNL A   1      40.508  27.583  29.003  1.00  0.00     0.049 A 
ATOM     49  H   UNL A   1      40.250  28.594  30.809  1.00  0.00     0.167 HD
ATOM     50  C   UNL A   1      39.700  31.089  34.429  1.00  0.00     0.034 A 
ATOM     51  C   UNL A   1      41.680  26.923  29.079  1.00  0.00     0.034 A 
ATOM     52  C   UNL A   1      40.948  30.390  34.618  1.00  0.00     0.049 A 
ATOM     53  C   UNL A   1      42.530  27.104  30.312  1.00  0.00     0.074 A 
ATOM     54  C   UNL A   1      41.789  30.403  35.716  1.00  0.00     0.029 A 
ATOM     55  N   UNL A   1      41.537  29.552  33.678  1.00  0.00    -0.354 N 
ATOM     56  N   UNL A   1      42.290  27.832  31.381  1.00  0.00    -0.248 NA
ATOM     57  C   UNL A   1      43.807  26.382  30.351  1.00  0.00     0.031 C 
ATOM     58  C   UNL A   1      42.915  29.629  35.415  1.00  0.00     0.029 A 
ATOM     59  C   UNL A   1      42.739  29.064  34.161  1.00  0.00     0.049 A 
ATOM     60  H   UNL A   1      41.154  29.338  32.796  1.00  0.00     0.167 HD
ATOM     61  C   UNL A   1      43.372  27.623  32.232  1.00  0.00     0.074 A 
ATOM     62  C   UNL A   1      44.261  26.703  31.554  1.00  0.00     0.031 C 
ATOM     63  C   UNL A   1      43.606  28.139  33.466  1.00  0.00     0.034 A 
BRANCH  50  64
ATOM     64  C   UNL A   1      39.200  32.015  35.510  1.00  0.00     0.023 A 
ATOM     65  C   UNL A   1      39.636  33.347  35.617  1.00  0.00     0.031 A 
ATOM     66  C   UNL A   1      38.301  31.537  36.483  1.00  0.00     0.131 A 
ATOM     67  C   UNL A   1      39.230  34.131  36.710  1.00  0.00     0.055 A 
ATOM     68  C   UNL A   1      37.839  32.348  37.522  1.00  0.00     0.041 A 
ATOM     69  F   UNL A   1      37.871  30.267  36.449  1.00  0.00    -0.206 F 
ATOM     70  C   UNL A   1      38.316  33.648  37.648  1.00  0.00     0.022 A 
BRANCH  67  71
ATOM     71  S   UNL A   1      40.029  35.739  36.969  1.00  0.00     0.124 S 
ATOM     72  O   UNL A   1      39.660  36.453  35.748  1.00  0.00    -0.237 OA
ATOM     73  O   UNL A   1      39.402  36.209  38.198  1.00  0.00    -0.237 OA
ATOM     74  O   UNL A   1      41.447  35.403  37.080  1.00  0.00    -0.744 OA
ENDBRANCH  67  71
ENDBRANCH  50  64
BRANCH  51  75
ATOM     75  C   UNL A   1      42.157  26.099  27.932  1.00  0.00     0.023 A 
ATOM     76  C   UNL A   1      41.702  24.786  27.742  1.00  0.00     0.031 A 
ATOM     77  C   UNL A   1      43.112  26.603  27.027  1.00  0.00     0.131 A 
ATOM     78  C   UNL A   1      42.228  24.007  26.699  1.00  0.00     0.055 A 
ATOM     79  C   UNL A   1      43.591  25.843  25.958  1.00  0.00     0.041 A 
ATOM     80  F   UNL A   1      43.585  27.851  27.165  1.00  0.00    -0.206 F 
ATOM     81  C   UNL A   1      43.157  24.531  25.797  1.00  0.00     0.022 A 
BRANCH  78  82
ATOM     82  S   UNL A   1      41.741  22.264  26.588  1.00  0.00     0.124 S 
ATOM     83  O   UNL A   1      42.271  21.727  27.835  1.00  0.00    -0.237 OA
ATOM     84  O   UNL A   1      40.288  22.361  26.496  1.00  0.00    -0.237 OA
ATOM     85  O   UNL A   1      42.409  21.800  25.374  1.00  0.00    -0.744 OA
ENDBRANCH  78  82
ENDBRANCH  51  75
BRANCH  63  86
ATOM     86  C   UNL A   1      44.835  27.652  34.191  1.00  0.00     0.023 A 
ATOM     87  C   UNL A   1      44.817  26.506  35.003  1.00  0.00     0.031 A 
ATOM     88  C   UNL A   1      46.049  28.349  34.051  1.00  0.00     0.131 A 
ATOM     89  C   UNL A   1      45.983  26.114  35.680  1.00  0.00     0.055 A 
ATOM     90  C   UNL A   1      47.218  27.923  34.681  1.00  0.00     0.041 A 
ATOM     91  F   UNL A   1      46.118  29.452  33.287  1.00  0.00    -0.206 F 
ATOM     92  C   UNL A   1      47.186  26.806  35.510  1.00  0.00     0.022 A 
BRANCH  89  93
ATOM     93  S   UNL A   1      45.892  24.729  36.846  1.00  0.00     0.124 S 
ATOM     94  O   UNL A   1      44.933  25.223  37.830  1.00  0.00    -0.237 OA
ATOM     95  O   UNL A   1      45.430  23.635  35.999  1.00  0.00    -0.237 OA
ATOM     96  O   UNL A   1      47.265  24.598  37.332  1.00  0.00    -0.744 OA
ENDBRANCH  89  93
ENDBRANCH  63  86
ENDBRANCH  37  38
ENDBRANCH  30  32
ENDBRANCH  29  30
ENDBRANCH  28  29
ENDBRANCH   1  28
TORSDOF 18
ENDMDL
MODEL 2
REMARK VINA RESULT:     -12.2      1.718      2.293
REMARK SMILES CC1(C)[C@H](C(=O)OCCOC(=O)c2ccc(-c3c4nc(c(-c5cc(S(=O)(=O)[O-])ccc5F)c5ccc([nH]5)c(-c5cc(S(=O)(=O)[O-])ccc5F)c5nc(c(-c6cc(S(=O)(=O)[O-])ccc6F)c6ccc3[nH]6)C=C5)C=C4)cc2)[C@@H]1C(=O)Nc1ccc(NC(=O)C2CCC2)cc1
REMARK SMILES IDX 8 1 7 2 5 3 6 4 4 5 1 6 2 7 3 8 76 9 77 10 78 11 79 12 80 14
REMARK SMILES IDX 81 15 92 16 82 17 91 18 83 19 84 20 85 21 86 23 87 24 88 25
REMARK SMILES IDX 90 26 89 27 9 28 10 29 11 30 12 31 13 32 14 33 75 34 15 35
REMARK SMILES IDX 74 36 16 37 17 38 18 39 68 40 19 41 73 42 67 43 69 44 20 45
REMARK SMILES IDX 72 46 66 47 65 48 21 50 53 51 33 52 52 53 34 54 37 55 51 56
REMARK SMILES IDX 70 57 35 58 36 59 50 61 71 62 38 63 22 64 23 65 31 66 24 67
REMARK SMILES IDX 30 68 32 69 29 70 25 71 26 72 27 73 28 74 54 75 55 76 63 77
REMARK SMILES IDX 56 78 62 79 64 80 61 81 57 82 58 83 59 84 60 85 39 86 40 87
REMARK SMILES IDX 48 88 41 89 47 90 49 91 46 92 42 93 43 94 44 95 45 96
REMARK H PARENT 79 13 84 22 69 49 37 60
REMARK Flexibility Score: inf
ROOT
ATOM      1  C   UNL A   1      30.889  31.585  25.851  1.00  0.00     0.274 C 
ENDROOT
BRANCH   1   2
ATOM      2  O   UNL A   1      31.273  30.197  25.903  1.00  0.00    -0.462 OA
BRANCH   2   3
ATOM      3  C   UNL A   1      31.133  29.534  24.718  1.00  0.00     0.310 C 
ATOM      4  O   UNL A   1      30.446  29.938  23.801  1.00  0.00    -0.252 OA
BRANCH   3   5
ATOM      5  C   UNL A   1      31.979  28.343  24.506  1.00  0.00     0.118 C 
ATOM      6  C   UNL A   1      33.713  26.819  25.545  1.00  0.00     0.013 C 
ATOM      7  C   UNL A   1      32.253  27.204  25.442  1.00  0.00    -0.009 C 
ATOM      8  C   UNL A   1      31.532  27.138  26.764  1.00  0.00     0.013 C 
ATOM      9  C   UNL A   1      31.521  26.972  24.099  1.00  0.00     0.100 C 
BRANCH   9  10
ATOM     10  C   UNL A   1      30.142  26.439  24.072  1.00  0.00     0.228 C 
ATOM     11  O   UNL A   1      29.199  27.201  23.867  1.00  0.00    -0.274 OA
ATOM     12  N   UNL A   1      29.871  25.115  24.329  1.00  0.00    -0.326 N 
ATOM     13  H   UNL A   1      28.943  24.903  24.581  1.00  0.00     0.169 HD
BRANCH  12  14
ATOM     14  C   UNL A   1      30.758  24.041  24.276  1.00  0.00     0.041 A 
ATOM     15  C   UNL A   1      30.907  23.341  25.465  1.00  0.00     0.028 A 
ATOM     16  C   UNL A   1      31.412  23.602  23.127  1.00  0.00     0.028 A 
ATOM     17  C   UNL A   1      31.582  22.126  25.464  1.00  0.00     0.028 A 
ATOM     18  C   UNL A   1      32.203  22.435  23.183  1.00  0.00     0.028 A 
ATOM     19  C   UNL A   1      32.270  21.665  24.357  1.00  0.00     0.041 A 
BRANCH  19  20
ATOM     20  N   UNL A   1      32.952  20.440  24.324  1.00  0.00    -0.326 N 
ATOM     21  C   UNL A   1      34.210  20.005  24.689  1.00  0.00     0.227 C 
ATOM     22  H   UNL A   1      32.400  19.716  23.950  1.00  0.00     0.169 HD
ATOM     23  O   UNL A   1      34.387  18.779  24.537  1.00  0.00    -0.274 OA
BRANCH  21  24
ATOM     24  C   UNL A   1      35.366  20.860  25.263  1.00  0.00     0.079 C 
ATOM     25  C   UNL A   1      35.745  22.074  24.331  1.00  0.00     0.013 C 
ATOM     26  C   UNL A   1      35.263  21.949  26.375  1.00  0.00     0.013 C 
ATOM     27  C   UNL A   1      36.242  22.811  25.574  1.00  0.00     0.002 C 
ENDBRANCH  21  24
ENDBRANCH  19  20
ENDBRANCH  12  14
ENDBRANCH   9  10
ENDBRANCH   3   5
ENDBRANCH   2   3
ENDBRANCH   1   2
BRANCH   1  28
ATOM     28  C   UNL A   1      31.704  32.522  26.760  1.00  0.00     0.275 C 
BRANCH  28  29
ATOM     29  O   UNL A   1      32.891  31.920  27.311  1.00  0.00    -0.458 OA
BRANCH  29  30
ATOM     30  C   UNL A   1      33.831  32.808  27.718  1.00  0.00     0.338 C 
ATOM     31  O   UNL A   1      33.651  33.996  27.943  1.00  0.00    -0.246 OA
BRANCH  30  32
ATOM     32  C   UNL A   1      35.117  32.148  27.999  1.00  0.00     0.060 A 
ATOM     33  C   UNL A   1      35.105  30.767  28.214  1.00  0.00     0.016 A 
ATOM     34  C   UNL A   1      36.278  32.878  28.239  1.00  0.00     0.016 A 
ATOM     35  C   UNL A   1      36.214  30.105  28.717  1.00  0.00     0.010 A 
ATOM     36  C   UNL A   1      37.405  32.213  28.741  1.00  0.00     0.010 A 
ATOM     37  C   UNL A   1      37.364  30.832  29.014  1.00  0.00    -0.014 A 
BRANCH  37  38
ATOM     38  C   UNL A   1      38.462  30.168  29.753  1.00  0.00     0.031 A 
ATOM     39  C   UNL A   1      38.733  30.591  31.169  1.00  0.00     0.074 A 
ATOM     40  C   UNL A   1      39.168  29.174  29.186  1.00  0.00     0.049 A 
ATOM     41  N   UNL A   1      39.746  30.306  31.940  1.00  0.00    -0.248 NA
ATOM     42  C   UNL A   1      37.718  31.454  31.793  1.00  0.00     0.031 C 
ATOM     43  C   UNL A   1      38.907  28.598  27.866  1.00  0.00     0.029 A 
ATOM     44  N   UNL A   1      40.258  28.480  29.646  1.00  0.00    -0.354 N 
ATOM     45  C   UNL A   1      39.519  30.992  33.128  1.00  0.00     0.074 A 
ATOM     46  C   UNL A   1      38.271  31.710  32.970  1.00  0.00     0.031 C 
ATOM     47  C   UNL A   1      39.827  27.653  27.614  1.00  0.00     0.029 A 
ATOM     48  C   UNL A   1      40.783  27.613  28.716  1.00  0.00     0.049 A 
ATOM     49  H   UNL A   1      40.627  28.592  30.552  1.00  0.00     0.167 HD
ATOM     50  C   UNL A   1      40.293  31.022  34.241  1.00  0.00     0.034 A 
ATOM     51  C   UNL A   1      41.939  26.921  28.731  1.00  0.00     0.034 A 
ATOM     52  C   UNL A   1      41.528  30.286  34.365  1.00  0.00     0.049 A 
ATOM     53  C   UNL A   1      42.842  27.052  29.932  1.00  0.00     0.074 A 
ATOM     54  C   UNL A   1      42.412  30.253  35.428  1.00  0.00     0.029 A 
ATOM     55  N   UNL A   1      42.054  29.453  33.384  1.00  0.00    -0.354 N 
ATOM     56  N   UNL A   1      42.666  27.762  31.024  1.00  0.00    -0.248 NA
ATOM     57  C   UNL A   1      44.099  26.295  29.903  1.00  0.00     0.031 C 
ATOM     58  C   UNL A   1      43.503  29.455  35.065  1.00  0.00     0.029 A 
ATOM     59  C   UNL A   1      43.261  28.922  33.808  1.00  0.00     0.049 A 
ATOM     60  H   UNL A   1      41.631  29.268  32.515  1.00  0.00     0.167 HD
ATOM     61  C   UNL A   1      43.775  27.507  31.826  1.00  0.00     0.074 A 
ATOM     62  C   UNL A   1      44.610  26.577  31.093  1.00  0.00     0.031 C 
ATOM     63  C   UNL A   1      44.073  27.989  33.060  1.00  0.00     0.034 A 
BRANCH  50  64
ATOM     64  C   UNL A   1      39.863  31.938  35.361  1.00  0.00     0.023 A 
ATOM     65  C   UNL A   1      39.066  31.493  36.430  1.00  0.00     0.031 A 
ATOM     66  C   UNL A   1      40.222  33.298  35.331  1.00  0.00     0.131 A 
ATOM     67  C   UNL A   1      38.597  32.411  37.383  1.00  0.00     0.055 A 
ATOM     68  C   UNL A   1      39.819  34.190  36.327  1.00  0.00     0.041 A 
ATOM     69  F   UNL A   1      40.958  33.788  34.321  1.00  0.00    -0.206 F 
ATOM     70  C   UNL A   1      38.988  33.751  37.353  1.00  0.00     0.022 A 
BRANCH  67  71
ATOM     71  S   UNL A   1      37.349  31.860  38.579  1.00  0.00     0.124 S 
ATOM     72  O   UNL A   1      38.056  32.033  39.846  1.00  0.00    -0.237 OA
ATOM     73  O   UNL A   1      36.246  32.781  38.332  1.00  0.00    -0.237 OA
ATOM     74  O   UNL A   1      37.099  30.471  38.198  1.00  0.00    -0.744 OA
ENDBRANCH  67  71
ENDBRANCH  50  64
BRANCH  51  75
ATOM     75  C   UNL A   1      42.346  26.108  27.549  1.00  0.00     0.023 A 
ATOM     76  C   UNL A   1      41.964  24.765  27.424  1.00  0.00     0.031 A 
ATOM     77  C   UNL A   1      43.162  26.658  26.541  1.00  0.00     0.131 A 
ATOM     78  C   UNL A   1      42.427  24.003  26.340  1.00  0.00     0.055 A 
ATOM     79  C   UNL A   1      43.575  25.912  25.435  1.00  0.00     0.041 A 
ATOM     80  F   UNL A   1      43.561  27.937  26.612  1.00  0.00    -0.206 F 
ATOM     81  C   UNL A   1      43.217  24.571  25.337  1.00  0.00     0.022 A 
BRANCH  78  82
ATOM     82  S   UNL A   1      42.051  22.229  26.301  1.00  0.00     0.124 S 
ATOM     83  O   UNL A   1      42.841  21.783  25.160  1.00  0.00    -0.237 OA
ATOM     84  O   UNL A   1      42.516  21.794  27.614  1.00  0.00    -0.237 OA
ATOM     85  O   UNL A   1      40.603  22.192  26.112  1.00  0.00    -0.744 OA
ENDBRANCH  78  82
ENDBRANCH  51  75
BRANCH  63  86
ATOM     86  C   UNL A   1      45.316  27.454  33.724  1.00  0.00     0.023 A 
ATOM     87  C   UNL A   1      45.302  26.283  34.501  1.00  0.00     0.031 A 
ATOM     88  C   UNL A   1      46.540  28.128  33.560  1.00  0.00     0.131 A 
ATOM     89  C   UNL A   1      46.483  25.846  35.122  1.00  0.00     0.055 A 
ATOM     90  C   UNL A   1      47.721  27.658  34.133  1.00  0.00     0.041 A 
ATOM     91  F   UNL A   1      46.607  29.252  32.828  1.00  0.00    -0.206 F 
ATOM     92  C   UNL A   1      47.694  26.517  34.928  1.00  0.00     0.022 A 
BRANCH  89  93
ATOM     93  S   UNL A   1      46.402  24.428  36.249  1.00  0.00     0.124 S 
ATOM     94  O   UNL A   1      45.104  23.850  35.917  1.00  0.00    -0.237 OA
ATOM     95  O   UNL A   1      47.568  23.646  35.852  1.00  0.00    -0.237 OA
ATOM     96  O   UNL A   1      46.489  25.038  37.575  1.00  0.00    -0.744 OA
ENDBRANCH  89  93
ENDBRANCH  63  86
ENDBRANCH  37  38
ENDBRANCH  30  32
ENDBRANCH  29  30
ENDBRANCH  28  29
ENDBRANCH   1  28
TORSDOF 18
ENDMDL
MODEL 3
REMARK VINA RESULT:     -12.0      1.649      7.591
REMARK SMILES CC1(C)[C@H](C(=O)OCCOC(=O)c2ccc(-c3c4nc(c(-c5cc(S(=O)(=O)[O-])ccc5F)c5ccc([nH]5)c(-c5cc(S(=O)(=O)[O-])ccc5F)c5nc(c(-c6cc(S(=O)(=O)[O-])ccc6F)c6ccc3[nH]6)C=C5)C=C4)cc2)[C@@H]1C(=O)Nc1ccc(NC(=O)C2CCC2)cc1
REMARK SMILES IDX 8 1 7 2 5 3 6 4 4 5 1 6 2 7 3 8 76 9 77 10 78 11 79 12 80 14
REMARK SMILES IDX 81 15 92 16 82 17 91 18 83 19 84 20 85 21 86 23 87 24 88 25
REMARK SMILES IDX 90 26 89 27 9 28 10 29 11 30 12 31 13 32 14 33 75 34 15 35
REMARK SMILES IDX 74 36 16 37 17 38 18 39 68 40 19 41 73 42 67 43 69 44 20 45
REMARK SMILES IDX 72 46 66 47 65 48 21 50 53 51 33 52 52 53 34 54 37 55 51 56
REMARK SMILES IDX 70 57 35 58 36 59 50 61 71 62 38 63 22 64 23 65 31 66 24 67
REMARK SMILES IDX 30 68 32 69 29 70 25 71 26 72 27 73 28 74 54 75 55 76 63 77
REMARK SMILES IDX 56 78 62 79 64 80 61 81 57 82 58 83 59 84 60 85 39 86 40 87
REMARK SMILES IDX 48 88 41 89 47 90 49 91 46 92 42 93 43 94 44 95 45 96
REMARK H PARENT 79 13 84 22 69 49 37 60
REMARK Flexibility Score: inf
ROOT
ATOM      1  C   UNL A   1      31.274  30.621  25.405  1.00  0.00     0.274 C 
ENDROOT
BRANCH   1   2
ATOM      2  O   UNL A   1      31.823  29.608  24.539  1.00  0.00    -0.462 OA
BRANCH   2   3
ATOM      3  C   UNL A   1      30.987  28.552  24.313  1.00  0.00     0.310 C 
ATOM      4  O   UNL A   1      30.118  28.555  23.464  1.00  0.00    -0.252 OA
BRANCH   3   5
ATOM      5  C   UNL A   1      31.263  27.303  25.050  1.00  0.00     0.118 C 
ATOM      6  C   UNL A   1      30.300  25.090  25.814  1.00  0.00     0.013 C 
ATOM      7  C   UNL A   1      30.904  25.894  24.683  1.00  0.00    -0.009 C 
ATOM      8  C   UNL A   1      30.258  25.615  23.351  1.00  0.00     0.013 C 
ATOM      9  C   UNL A   1      32.383  26.335  24.798  1.00  0.00     0.100 C 
BRANCH   9  10
ATOM     10  C   UNL A   1      33.285  26.266  23.629  1.00  0.00     0.228 C 
ATOM     11  O   UNL A   1      33.780  27.298  23.180  1.00  0.00    -0.274 OA
ATOM     12  N   UNL A   1      33.546  25.080  22.983  1.00  0.00    -0.326 N 
ATOM     13  H   UNL A   1      33.901  25.152  22.068  1.00  0.00     0.169 HD
BRANCH  12  14
ATOM     14  C   UNL A   1      33.364  23.787  23.475  1.00  0.00     0.041 A 
ATOM     15  C   UNL A   1      34.038  23.505  24.654  1.00  0.00     0.028 A 
ATOM     16  C   UNL A   1      32.517  22.833  22.916  1.00  0.00     0.028 A 
ATOM     17  C   UNL A   1      33.747  22.336  25.347  1.00  0.00     0.028 A 
ATOM     18  C   UNL A   1      32.339  21.596  23.571  1.00  0.00     0.028 A 
ATOM     19  C   UNL A   1      32.936  21.348  24.819  1.00  0.00     0.041 A 
BRANCH  19  20
ATOM     20  N   UNL A   1      32.618  20.163  25.497  1.00  0.00    -0.326 N 
ATOM     21  C   UNL A   1      32.913  18.825  25.332  1.00  0.00     0.227 C 
ATOM     22  H   UNL A   1      32.047  20.325  26.282  1.00  0.00     0.169 HD
ATOM     23  O   UNL A   1      32.458  18.090  26.231  1.00  0.00    -0.274 OA
BRANCH  21  24
ATOM     24  C   UNL A   1      33.738  18.183  24.189  1.00  0.00     0.079 C 
ATOM     25  C   UNL A   1      34.328  16.775  24.581  1.00  0.00     0.013 C 
ATOM     26  C   UNL A   1      33.181  17.429  22.942  1.00  0.00     0.013 C 
ATOM     27  C   UNL A   1      34.312  16.409  23.097  1.00  0.00     0.002 C 
ENDBRANCH  21  24
ENDBRANCH  19  20
ENDBRANCH  12  14
ENDBRANCH   9  10
ENDBRANCH   3   5
ENDBRANCH   2   3
ENDBRANCH   1   2
BRANCH   1  28
ATOM     28  C   UNL A   1      31.845  30.636  26.834  1.00  0.00     0.275 C 
BRANCH  28  29
ATOM     29  O   UNL A   1      33.281  30.526  26.895  1.00  0.00    -0.458 OA
BRANCH  29  30
ATOM     30  C   UNL A   1      33.897  31.575  27.491  1.00  0.00     0.338 C 
ATOM     31  O   UNL A   1      33.393  32.660  27.742  1.00  0.00    -0.246 OA
BRANCH  30  32
ATOM     32  C   UNL A   1      35.254  31.222  27.945  1.00  0.00     0.060 A 
ATOM     33  C   UNL A   1      35.428  29.985  28.572  1.00  0.00     0.016 A 
ATOM     34  C   UNL A   1      36.293  32.149  27.937  1.00  0.00     0.016 A 
ATOM     35  C   UNL A   1      36.601  29.672  29.239  1.00  0.00     0.010 A 
ATOM     36  C   UNL A   1      37.485  31.836  28.604  1.00  0.00     0.010 A 
ATOM     37  C   UNL A   1      37.628  30.612  29.286  1.00  0.00    -0.014 A 
BRANCH  37  38
ATOM     38  C   UNL A   1      38.784  30.368  30.179  1.00  0.00     0.031 A 
ATOM     39  C   UNL A   1      39.883  29.463  29.700  1.00  0.00     0.074 A 
ATOM     40  C   UNL A   1      38.872  30.985  31.371  1.00  0.00     0.049 A 
ATOM     41  N   UNL A   1      40.881  28.947  30.364  1.00  0.00    -0.248 NA
ATOM     42  C   UNL A   1      39.843  29.092  28.277  1.00  0.00     0.031 C 
ATOM     43  C   UNL A   1      37.928  31.980  31.880  1.00  0.00     0.029 A 
ATOM     44  N   UNL A   1      39.797  30.854  32.375  1.00  0.00    -0.354 N 
ATOM     45  C   UNL A   1      41.566  28.151  29.452  1.00  0.00     0.074 A 
ATOM     46  C   UNL A   1      40.863  28.251  28.191  1.00  0.00     0.031 C 
ATOM     47  C   UNL A   1      38.311  32.353  33.112  1.00  0.00     0.029 A 
ATOM     48  C   UNL A   1      39.477  31.568  33.506  1.00  0.00     0.049 A 
ATOM     49  H   UNL A   1      40.610  30.304  32.294  1.00  0.00     0.167 HD
ATOM     50  C   UNL A   1      42.675  27.399  29.663  1.00  0.00     0.034 A 
ATOM     51  C   UNL A   1      40.026  31.537  34.736  1.00  0.00     0.034 A 
ATOM     52  C   UNL A   1      43.353  27.330  30.934  1.00  0.00     0.049 A 
ATOM     53  C   UNL A   1      41.191  30.612  34.983  1.00  0.00     0.074 A 
ATOM     54  C   UNL A   1      44.469  26.589  31.281  1.00  0.00     0.029 A 
ATOM     55  N   UNL A   1      42.974  28.032  32.073  1.00  0.00    -0.354 N 
ATOM     56  N   UNL A   1      41.791  29.798  34.143  1.00  0.00    -0.248 NA
ATOM     57  C   UNL A   1      41.750  30.595  36.339  1.00  0.00     0.031 C 
ATOM     58  C   UNL A   1      44.722  26.789  32.642  1.00  0.00     0.029 A 
ATOM     59  C   UNL A   1      43.817  27.721  33.127  1.00  0.00     0.049 A 
ATOM     60  H   UNL A   1      42.215  28.658  32.123  1.00  0.00     0.167 HD
ATOM     61  C   UNL A   1      42.822  29.201  34.863  1.00  0.00     0.074 A 
ATOM     62  C   UNL A   1      42.762  29.750  36.203  1.00  0.00     0.031 C 
ATOM     63  C   UNL A   1      43.740  28.288  34.454  1.00  0.00     0.034 A 
BRANCH  50  64
ATOM     64  C   UNL A   1      43.158  26.539  28.520  1.00  0.00     0.023 A 
ATOM     65  C   UNL A   1      44.272  26.889  27.737  1.00  0.00     0.031 A 
ATOM     66  C   UNL A   1      42.458  25.367  28.180  1.00  0.00     0.131 A 
ATOM     67  C   UNL A   1      44.608  26.117  26.614  1.00  0.00     0.055 A 
ATOM     68  C   UNL A   1      42.847  24.559  27.110  1.00  0.00     0.041 A 
ATOM     69  F   UNL A   1      41.371  24.995  28.874  1.00  0.00    -0.206 F 
ATOM     70  C   UNL A   1      43.919  24.941  26.310  1.00  0.00     0.022 A 
BRANCH  67  71
ATOM     71  S   UNL A   1      45.866  26.750  25.470  1.00  0.00     0.124 S 
ATOM     72  O   UNL A   1      45.183  27.903  24.888  1.00  0.00    -0.237 OA
ATOM     73  O   UNL A   1      46.981  27.049  26.360  1.00  0.00    -0.237 OA
ATOM     74  O   UNL A   1      46.084  25.635  24.549  1.00  0.00    -0.744 OA
ENDBRANCH  67  71
ENDBRANCH  50  64
BRANCH  51  75
ATOM     75  C   UNL A   1      39.437  32.344  35.844  1.00  0.00     0.023 A 
ATOM     76  C   UNL A   1      39.846  33.664  36.078  1.00  0.00     0.031 A 
ATOM     77  C   UNL A   1      38.481  31.786  36.715  1.00  0.00     0.131 A 
ATOM     78  C   UNL A   1      39.332  34.372  37.177  1.00  0.00     0.055 A 
ATOM     79  C   UNL A   1      37.931  32.512  37.773  1.00  0.00     0.041 A 
ATOM     80  F   UNL A   1      38.057  30.524  36.540  1.00  0.00    -0.206 F 
ATOM     81  C   UNL A   1      38.367  33.811  38.016  1.00  0.00     0.022 A 
BRANCH  78  82
ATOM     82  S   UNL A   1      40.009  36.014  37.544  1.00  0.00     0.124 S 
ATOM     83  O   UNL A   1      39.204  36.417  38.691  1.00  0.00    -0.237 OA
ATOM     84  O   UNL A   1      41.409  35.709  37.818  1.00  0.00    -0.237 OA
ATOM     85  O   UNL A   1      39.765  36.766  36.316  1.00  0.00    -0.744 OA
ENDBRANCH  78  82
ENDBRANCH  51  75
BRANCH  63  86
ATOM     86  C   UNL A   1      44.802  27.891  35.448  1.00  0.00     0.023 A 
ATOM     87  C   UNL A   1      44.656  26.774  36.289  1.00  0.00     0.031 A 
ATOM     88  C   UNL A   1      45.987  28.643  35.541  1.00  0.00     0.131 A 
ATOM     89  C   UNL A   1      45.663  26.467  37.218  1.00  0.00     0.055 A 
ATOM     90  C   UNL A   1      47.008  28.300  36.427  1.00  0.00     0.041 A 
ATOM     91  F   UNL A   1      46.174  29.720  34.761  1.00  0.00    -0.206 F 
ATOM     92  C   UNL A   1      46.844  27.213  37.279  1.00  0.00     0.022 A 
BRANCH  89  93
ATOM     93  S   UNL A   1      45.379  25.121  38.399  1.00  0.00     0.124 S 
ATOM     94  O   UNL A   1      46.686  24.474  38.442  1.00  0.00    -0.237 OA
ATOM     95  O   UNL A   1      44.983  25.840  39.605  1.00  0.00    -0.237 OA
ATOM     96  O   UNL A   1      44.318  24.334  37.773  1.00  0.00    -0.744 OA
ENDBRANCH  89  93
ENDBRANCH  63  86
ENDBRANCH  37  38
ENDBRANCH  30  32
ENDBRANCH  29  30
ENDBRANCH  28  29
ENDBRANCH   1  28
TORSDOF 18
ENDMDL
