MODEL 1
REMARK VINA RESULT:     -10.0      0.000      0.000
REMARK SMILES C=CCN(CC(=O)OCCOC(=O)c1ccc(-c2c3nc(c(-c4cc(S(=O)(=O)[O-])ccc4F)c4ccc([nH]4)c(-c4cc(S(=O)(=O)[O-])ccc4F)c4nc(c(-c5cc(S(=O)(=O)[O-])ccc5F)c5ccc2[nH]5)C=C4)C=C3)cc1)C(=O)c1sc(N)nc1C
REMARK SMILES IDX 9 1 8 2 6 3 7 4 5 5 4 6 3 7 2 8 1 9 77 10 78 11 79 12 80 13
REMARK SMILES IDX 84 14 81 15 83 16 85 17 82 18 10 21 11 22 12 23 13 24 14 25
REMARK SMILES IDX 15 26 76 27 16 28 75 29 17 30 18 31 19 32 69 33 20 34 74 35
REMARK SMILES IDX 68 36 70 37 21 38 73 39 67 40 66 41 22 43 54 44 34 45 53 46
REMARK SMILES IDX 35 47 38 48 52 49 71 50 36 51 37 52 51 54 72 55 39 56 23 57
REMARK SMILES IDX 24 58 32 59 25 60 31 61 33 62 30 63 26 64 27 65 28 66 29 67
REMARK SMILES IDX 55 68 56 69 64 70 57 71 63 72 65 73 62 74 58 75 59 76 60 77
REMARK SMILES IDX 61 78 40 79 41 80 49 81 42 82 48 83 50 84 47 85 43 86 44 87
REMARK SMILES IDX 45 88 46 89
REMARK H PARENT 82 19 82 20 70 42 38 53
REMARK Flexibility Score: inf
ROOT
ATOM      1  C   UNL A   1      31.921  28.433  27.024  1.00  0.00     0.274 C 
ENDROOT
BRANCH   1   2
ATOM      2  O   UNL A   1      31.328  27.678  25.935  1.00  0.00    -0.461 OA
BRANCH   2   3
ATOM      3  C   UNL A   1      32.086  27.594  24.807  1.00  0.00     0.325 C 
ATOM      4  O   UNL A   1      31.918  28.313  23.822  1.00  0.00    -0.250 OA
BRANCH   3   5
ATOM      5  C   UNL A   1      33.304  26.661  24.906  1.00  0.00     0.242 C 
BRANCH   5   6
ATOM      6  N   UNL A   1      33.231  25.240  24.542  1.00  0.00    -0.323 N 
BRANCH   6   7
ATOM      7  C   UNL A   1      33.699  24.891  23.210  1.00  0.00     0.147 C 
BRANCH   7   8
ATOM      8  C   UNL A   1      32.543  24.937  22.251  1.00  0.00    -0.014 C 
ATOM      9  C   UNL A   1      32.448  25.803  21.232  1.00  0.00     0.006 C 
ENDBRANCH   7   8
ENDBRANCH   6   7
BRANCH   6  10
ATOM     10  C   UNL A   1      32.872  24.177  25.388  1.00  0.00     0.266 C 
ATOM     11  O   UNL A   1      32.037  24.353  26.280  1.00  0.00    -0.268 OA
BRANCH  10  12
ATOM     12  C   UNL A   1      33.564  22.913  25.313  1.00  0.00     0.117 A 
ATOM     13  S   UNL A   1      32.800  21.436  24.916  1.00  0.00    -0.092 S 
ATOM     14  C   UNL A   1      34.867  22.672  25.715  1.00  0.00     0.063 A 
ATOM     15  C   UNL A   1      34.284  20.606  25.197  1.00  0.00     0.180 A 
ATOM     16  N   UNL A   1      35.270  21.346  25.643  1.00  0.00    -0.225 NA
ATOM     17  C   UNL A   1      35.857  23.700  26.118  1.00  0.00     0.068 C 
BRANCH  15  18
ATOM     18  N   UNL A   1      34.416  19.293  24.980  1.00  0.00    -0.375 N 
ATOM     19  H   UNL A   1      35.254  18.937  24.603  1.00  0.00     0.159 HD
ATOM     20  H   UNL A   1      33.675  18.682  25.195  1.00  0.00     0.159 HD
ENDBRANCH  15  18
ENDBRANCH  10  12
ENDBRANCH   6  10
ENDBRANCH   5   6
ENDBRANCH   3   5
ENDBRANCH   2   3
ENDBRANCH   1   2
BRANCH   1  21
ATOM     21  C   UNL A   1      31.785  29.965  26.880  1.00  0.00     0.275 C 
BRANCH  21  22
ATOM     22  O   UNL A   1      32.959  30.617  26.344  1.00  0.00    -0.458 OA
BRANCH  22  23
ATOM     23  C   UNL A   1      33.493  31.488  27.216  1.00  0.00     0.338 C 
ATOM     24  O   UNL A   1      32.919  32.487  27.640  1.00  0.00    -0.246 OA
BRANCH  23  25
ATOM     25  C   UNL A   1      34.806  31.163  27.746  1.00  0.00     0.060 A 
ATOM     26  C   UNL A   1      34.991  29.894  28.308  1.00  0.00     0.016 A 
ATOM     27  C   UNL A   1      35.722  32.191  27.974  1.00  0.00     0.016 A 
ATOM     28  C   UNL A   1      36.097  29.649  29.113  1.00  0.00     0.010 A 
ATOM     29  C   UNL A   1      36.852  31.932  28.750  1.00  0.00     0.010 A 
ATOM     30  C   UNL A   1      37.043  30.662  29.320  1.00  0.00    -0.014 A 
BRANCH  30  31
ATOM     31  C   UNL A   1      38.325  30.350  29.984  1.00  0.00     0.031 A 
ATOM     32  C   UNL A   1      39.285  29.355  29.415  1.00  0.00     0.074 A 
ATOM     33  C   UNL A   1      38.548  30.943  31.170  1.00  0.00     0.049 A 
ATOM     34  N   UNL A   1      40.338  28.816  29.972  1.00  0.00    -0.248 NA
ATOM     35  C   UNL A   1      39.026  28.900  28.043  1.00  0.00     0.031 C 
ATOM     36  C   UNL A   1      37.669  31.948  31.778  1.00  0.00     0.029 A 
ATOM     37  N   UNL A   1      39.541  30.762  32.092  1.00  0.00    -0.354 N 
ATOM     38  C   UNL A   1      40.866  27.944  29.027  1.00  0.00     0.074 A 
ATOM     39  C   UNL A   1      40.003  28.016  27.865  1.00  0.00     0.031 C 
ATOM     40  C   UNL A   1      38.136  32.256  32.994  1.00  0.00     0.029 A 
ATOM     41  C   UNL A   1      39.304  31.432  33.267  1.00  0.00     0.049 A 
ATOM     42  H   UNL A   1      40.340  30.209  31.931  1.00  0.00     0.167 HD
ATOM     43  C   UNL A   1      41.971  27.162  29.138  1.00  0.00     0.034 A 
ATOM     44  C   UNL A   1      39.919  31.342  34.459  1.00  0.00     0.034 A 
ATOM     45  C   UNL A   1      42.801  27.127  30.321  1.00  0.00     0.049 A 
ATOM     46  C   UNL A   1      41.094  30.421  34.586  1.00  0.00     0.074 A 
ATOM     47  C   UNL A   1      43.969  26.416  30.540  1.00  0.00     0.029 A 
ATOM     48  N   UNL A   1      42.540  27.824  31.497  1.00  0.00    -0.354 N 
ATOM     49  N   UNL A   1      41.592  29.602  33.688  1.00  0.00    -0.248 NA
ATOM     50  C   UNL A   1      41.797  30.421  35.871  1.00  0.00     0.031 C 
ATOM     51  C   UNL A   1      44.378  26.637  31.863  1.00  0.00     0.029 A 
ATOM     52  C   UNL A   1      43.503  27.535  32.452  1.00  0.00     0.049 A 
ATOM     53  H   UNL A   1      41.781  28.437  31.631  1.00  0.00     0.167 HD
ATOM     54  C   UNL A   1      42.686  29.000  34.295  1.00  0.00     0.074 A 
ATOM     55  C   UNL A   1      42.772  29.554  35.634  1.00  0.00     0.031 C 
ATOM     56  C   UNL A   1      43.551  28.086  33.787  1.00  0.00     0.034 A 
BRANCH  43  57
ATOM     57  C   UNL A   1      42.308  26.249  27.982  1.00  0.00     0.023 A 
ATOM     58  C   UNL A   1      41.759  24.961  27.862  1.00  0.00     0.031 A 
ATOM     59  C   UNL A   1      43.202  26.676  26.983  1.00  0.00     0.131 A 
ATOM     60  C   UNL A   1      42.151  24.126  26.802  1.00  0.00     0.055 A 
ATOM     61  C   UNL A   1      43.538  25.866  25.896  1.00  0.00     0.041 A 
ATOM     62  F   UNL A   1      43.774  27.888  27.052  1.00  0.00    -0.206 F 
ATOM     63  C   UNL A   1      43.022  24.577  25.807  1.00  0.00     0.022 A 
BRANCH  60  64
ATOM     64  S   UNL A   1      41.607  22.395  26.809  1.00  0.00     0.124 S 
ATOM     65  O   UNL A   1      42.043  21.944  25.490  1.00  0.00    -0.237 OA
ATOM     66  O   UNL A   1      42.332  21.842  27.946  1.00  0.00    -0.237 OA
ATOM     67  O   UNL A   1      40.158  22.491  26.979  1.00  0.00    -0.744 OA
ENDBRANCH  60  64
ENDBRANCH  43  57
BRANCH  44  68
ATOM     68  C   UNL A   1      39.375  32.103  35.611  1.00  0.00     0.023 A 
ATOM     69  C   UNL A   1      38.561  31.486  36.569  1.00  0.00     0.031 A 
ATOM     70  C   UNL A   1      39.732  33.451  35.805  1.00  0.00     0.131 A 
ATOM     71  C   UNL A   1      38.125  32.220  37.683  1.00  0.00     0.055 A 
ATOM     72  C   UNL A   1      39.323  34.166  36.930  1.00  0.00     0.041 A 
ATOM     73  F   UNL A   1      40.530  34.075  34.923  1.00  0.00    -0.206 F 
ATOM     74  C   UNL A   1      38.511  33.550  37.877  1.00  0.00     0.022 A 
BRANCH  71  75
ATOM     75  S   UNL A   1      37.028  31.411  38.877  1.00  0.00     0.124 S 
ATOM     76  O   UNL A   1      36.859  30.091  38.281  1.00  0.00    -0.237 OA
ATOM     77  O   UNL A   1      37.822  31.464  40.102  1.00  0.00    -0.237 OA
ATOM     78  O   UNL A   1      35.837  32.256  38.873  1.00  0.00    -0.744 OA
ENDBRANCH  71  75
ENDBRANCH  44  68
BRANCH  56  79
ATOM     79  C   UNL A   1      44.682  27.672  34.686  1.00  0.00     0.023 A 
ATOM     80  C   UNL A   1      44.592  26.532  35.501  1.00  0.00     0.031 A 
ATOM     81  C   UNL A   1      45.854  28.447  34.742  1.00  0.00     0.131 A 
ATOM     82  C   UNL A   1      45.642  26.222  36.378  1.00  0.00     0.055 A 
ATOM     83  C   UNL A   1      46.913  28.107  35.582  1.00  0.00     0.041 A 
ATOM     84  F   UNL A   1      45.981  29.547  33.983  1.00  0.00    -0.206 F 
ATOM     85  C   UNL A   1      46.807  26.995  36.413  1.00  0.00     0.022 A 
BRANCH  82  86
ATOM     86  S   UNL A   1      45.440  24.830  37.520  1.00  0.00     0.124 S 
ATOM     87  O   UNL A   1      44.532  25.387  38.517  1.00  0.00    -0.237 OA
ATOM     88  O   UNL A   1      44.882  23.794  36.658  1.00  0.00    -0.237 OA
ATOM     89  O   UNL A   1      46.799  24.575  37.993  1.00  0.00    -0.744 OA
ENDBRANCH  82  86
ENDBRANCH  56  79
ENDBRANCH  30  31
ENDBRANCH  23  25
ENDBRANCH  22  23
ENDBRANCH  21  22
ENDBRANCH   1  21
TORSDOF 20
ENDMDL
MODEL 2
REMARK VINA RESULT:      -9.9      1.820      2.722
REMARK SMILES C=CCN(CC(=O)OCCOC(=O)c1ccc(-c2c3nc(c(-c4cc(S(=O)(=O)[O-])ccc4F)c4ccc([nH]4)c(-c4cc(S(=O)(=O)[O-])ccc4F)c4nc(c(-c5cc(S(=O)(=O)[O-])ccc5F)c5ccc2[nH]5)C=C4)C=C3)cc1)C(=O)c1sc(N)nc1C
REMARK SMILES IDX 9 1 8 2 6 3 7 4 5 5 4 6 3 7 2 8 1 9 77 10 78 11 79 12 80 13
REMARK SMILES IDX 84 14 81 15 83 16 85 17 82 18 10 21 11 22 12 23 13 24 14 25
REMARK SMILES IDX 15 26 76 27 16 28 75 29 17 30 18 31 19 32 69 33 20 34 74 35
REMARK SMILES IDX 68 36 70 37 21 38 73 39 67 40 66 41 22 43 54 44 34 45 53 46
REMARK SMILES IDX 35 47 38 48 52 49 71 50 36 51 37 52 51 54 72 55 39 56 23 57
REMARK SMILES IDX 24 58 32 59 25 60 31 61 33 62 30 63 26 64 27 65 28 66 29 67
REMARK SMILES IDX 55 68 56 69 64 70 57 71 63 72 65 73 62 74 58 75 59 76 60 77
REMARK SMILES IDX 61 78 40 79 41 80 49 81 42 82 48 83 50 84 47 85 43 86 44 87
REMARK SMILES IDX 45 88 46 89
REMARK H PARENT 82 19 82 20 70 42 38 53
REMARK Flexibility Score: inf
ROOT
ATOM      1  C   UNL A   1      31.388  29.693  25.387  1.00  0.00     0.274 C 
ENDROOT
BRANCH   1   2
ATOM      2  O   UNL A   1      32.424  28.676  25.356  1.00  0.00    -0.461 OA
BRANCH   2   3
ATOM      3  C   UNL A   1      32.259  27.654  26.238  1.00  0.00     0.325 C 
ATOM      4  O   UNL A   1      31.284  27.549  26.981  1.00  0.00    -0.250 OA
BRANCH   3   5
ATOM      5  C   UNL A   1      33.288  26.516  26.122  1.00  0.00     0.242 C 
BRANCH   5   6
ATOM      6  N   UNL A   1      32.928  25.186  25.614  1.00  0.00    -0.323 N 
BRANCH   6   7
ATOM      7  C   UNL A   1      33.759  24.079  26.063  1.00  0.00     0.147 C 
BRANCH   7   8
ATOM      8  C   UNL A   1      35.005  24.024  25.224  1.00  0.00    -0.014 C 
ATOM      9  C   UNL A   1      36.244  23.938  25.727  1.00  0.00     0.006 C 
ENDBRANCH   7   8
ENDBRANCH   6   7
BRANCH   6  10
ATOM     10  C   UNL A   1      31.798  24.861  24.845  1.00  0.00     0.266 C 
ATOM     11  O   UNL A   1      30.906  24.157  25.326  1.00  0.00    -0.268 OA
BRANCH  10  12
ATOM     12  C   UNL A   1      31.727  25.232  23.452  1.00  0.00     0.117 A 
ATOM     13  S   UNL A   1      32.815  24.662  22.263  1.00  0.00    -0.092 S 
ATOM     14  C   UNL A   1      30.916  26.215  22.910  1.00  0.00     0.063 A 
ATOM     15  C   UNL A   1      32.052  25.676  21.096  1.00  0.00     0.180 A 
ATOM     16  N   UNL A   1      31.110  26.460  21.559  1.00  0.00    -0.225 NA
ATOM     17  C   UNL A   1      29.832  26.937  23.621  1.00  0.00     0.068 C 
BRANCH  15  18
ATOM     18  N   UNL A   1      32.407  25.666  19.807  1.00  0.00    -0.375 N 
ATOM     19  H   UNL A   1      31.725  25.535  19.109  1.00  0.00     0.159 HD
ATOM     20  H   UNL A   1      33.351  25.788  19.555  1.00  0.00     0.159 HD
ENDBRANCH  15  18
ENDBRANCH  10  12
ENDBRANCH   6  10
ENDBRANCH   5   6
ENDBRANCH   3   5
ENDBRANCH   2   3
ENDBRANCH   1   2
BRANCH   1  21
ATOM     21  C   UNL A   1      31.744  30.932  26.239  1.00  0.00     0.275 C 
BRANCH  21  22
ATOM     22  O   UNL A   1      32.712  30.677  27.282  1.00  0.00    -0.458 OA
BRANCH  22  23
ATOM     23  C   UNL A   1      33.609  31.670  27.389  1.00  0.00     0.338 C 
ATOM     24  O   UNL A   1      33.364  32.855  27.176  1.00  0.00    -0.246 OA
BRANCH  23  25
ATOM     25  C   UNL A   1      34.931  31.310  27.873  1.00  0.00     0.060 A 
ATOM     26  C   UNL A   1      35.085  30.066  28.496  1.00  0.00     0.016 A 
ATOM     27  C   UNL A   1      35.904  32.302  27.999  1.00  0.00     0.016 A 
ATOM     28  C   UNL A   1      36.218  29.811  29.259  1.00  0.00     0.010 A 
ATOM     29  C   UNL A   1      37.059  32.030  28.733  1.00  0.00     0.010 A 
ATOM     30  C   UNL A   1      37.219  30.785  29.364  1.00  0.00    -0.014 A 
BRANCH  30  31
ATOM     31  C   UNL A   1      38.517  30.446  29.982  1.00  0.00     0.031 A 
ATOM     32  C   UNL A   1      39.434  29.430  29.381  1.00  0.00     0.074 A 
ATOM     33  C   UNL A   1      38.795  31.036  31.158  1.00  0.00     0.049 A 
ATOM     34  N   UNL A   1      40.495  28.870  29.901  1.00  0.00    -0.248 NA
ATOM     35  C   UNL A   1      39.117  28.979  28.020  1.00  0.00     0.031 C 
ATOM     36  C   UNL A   1      37.961  32.061  31.795  1.00  0.00     0.029 A 
ATOM     37  N   UNL A   1      39.817  30.835  32.044  1.00  0.00    -0.354 N 
ATOM     38  C   UNL A   1      40.970  27.985  28.940  1.00  0.00     0.074 A 
ATOM     39  C   UNL A   1      40.067  28.074  27.809  1.00  0.00     0.031 C 
ATOM     40  C   UNL A   1      38.477  32.361  32.993  1.00  0.00     0.029 A 
ATOM     41  C   UNL A   1      39.637  31.512  33.225  1.00  0.00     0.049 A 
ATOM     42  H   UNL A   1      40.597  30.265  31.856  1.00  0.00     0.167 HD
ATOM     43  C   UNL A   1      42.061  27.179  29.013  1.00  0.00     0.034 A 
ATOM     44  C   UNL A   1      40.292  31.410  34.395  1.00  0.00     0.034 A 
ATOM     45  C   UNL A   1      42.932  27.127  30.165  1.00  0.00     0.049 A 
ATOM     46  C   UNL A   1      41.451  30.464  34.481  1.00  0.00     0.074 A 
ATOM     47  C   UNL A   1      44.091  26.392  30.344  1.00  0.00     0.029 A 
ATOM     48  N   UNL A   1      42.729  27.832  31.348  1.00  0.00    -0.354 N 
ATOM     49  N   UNL A   1      41.899  29.633  33.568  1.00  0.00    -0.248 NA
ATOM     50  C   UNL A   1      42.199  30.451  35.740  1.00  0.00     0.031 C 
ATOM     51  C   UNL A   1      44.553  26.606  31.650  1.00  0.00     0.029 A 
ATOM     52  C   UNL A   1      43.718  27.524  32.268  1.00  0.00     0.049 A 
ATOM     53  H   UNL A   1      41.988  28.461  31.508  1.00  0.00     0.167 HD
ATOM     54  C   UNL A   1      43.000  29.009  34.136  1.00  0.00     0.074 A 
ATOM     55  C   UNL A   1      43.146  29.563  35.470  1.00  0.00     0.031 C 
ATOM     56  C   UNL A   1      43.827  28.075  33.599  1.00  0.00     0.034 A 
BRANCH  43  57
ATOM     57  C   UNL A   1      42.336  26.257  27.847  1.00  0.00     0.023 A 
ATOM     58  C   UNL A   1      41.767  24.975  27.757  1.00  0.00     0.031 A 
ATOM     59  C   UNL A   1      43.191  26.669  26.809  1.00  0.00     0.131 A 
ATOM     60  C   UNL A   1      42.103  24.132  26.685  1.00  0.00     0.055 A 
ATOM     61  C   UNL A   1      43.470  25.851  25.711  1.00  0.00     0.041 A 
ATOM     62  F   UNL A   1      43.780  27.875  26.847  1.00  0.00    -0.206 F 
ATOM     63  C   UNL A   1      42.935  24.568  25.651  1.00  0.00     0.022 A 
BRANCH  60  64
ATOM     64  S   UNL A   1      41.538  22.408  26.723  1.00  0.00     0.124 S 
ATOM     65  O   UNL A   1      42.151  21.923  27.958  1.00  0.00    -0.237 OA
ATOM     66  O   UNL A   1      40.087  22.553  26.743  1.00  0.00    -0.237 OA
ATOM     67  O   UNL A   1      42.091  21.837  25.496  1.00  0.00    -0.744 OA
ENDBRANCH  60  64
ENDBRANCH  43  57
BRANCH  44  68
ATOM     68  C   UNL A   1      39.806  32.185  35.564  1.00  0.00     0.023 A 
ATOM     69  C   UNL A   1      40.240  33.496  35.796  1.00  0.00     0.031 A 
ATOM     70  C   UNL A   1      38.834  31.640  36.423  1.00  0.00     0.131 A 
ATOM     71  C   UNL A   1      39.702  34.223  36.869  1.00  0.00     0.055 A 
ATOM     72  C   UNL A   1      38.279  32.378  37.469  1.00  0.00     0.041 A 
ATOM     73  F   UNL A   1      38.373  30.395  36.222  1.00  0.00    -0.206 F 
ATOM     74  C   UNL A   1      38.718  33.678  37.698  1.00  0.00     0.022 A 
BRANCH  71  75
ATOM     75  S   UNL A   1      40.324  35.897  37.178  1.00  0.00     0.124 S 
ATOM     76  O   UNL A   1      39.735  36.644  36.072  1.00  0.00    -0.237 OA
ATOM     77  O   UNL A   1      39.782  36.181  38.504  1.00  0.00    -0.237 OA
ATOM     78  O   UNL A   1      41.775  35.738  37.121  1.00  0.00    -0.744 OA
ENDBRANCH  71  75
ENDBRANCH  44  68
BRANCH  56  79
ATOM     79  C   UNL A   1      44.981  27.639  34.458  1.00  0.00     0.023 A 
ATOM     80  C   UNL A   1      44.878  26.531  35.316  1.00  0.00     0.031 A 
ATOM     81  C   UNL A   1      46.187  28.360  34.433  1.00  0.00     0.131 A 
ATOM     82  C   UNL A   1      45.954  26.201  36.152  1.00  0.00     0.055 A 
ATOM     83  C   UNL A   1      47.269  27.998  35.233  1.00  0.00     0.041 A 
ATOM     84  F   UNL A   1      46.327  29.427  33.631  1.00  0.00    -0.206 F 
ATOM     85  C   UNL A   1      47.153  26.920  36.106  1.00  0.00     0.022 A 
BRANCH  82  86
ATOM     86  S   UNL A   1      45.746  24.857  37.350  1.00  0.00     0.124 S 
ATOM     87  O   UNL A   1      44.334  24.979  37.696  1.00  0.00    -0.237 OA
ATOM     88  O   UNL A   1      46.111  23.680  36.569  1.00  0.00    -0.237 OA
ATOM     89  O   UNL A   1      46.679  25.203  38.420  1.00  0.00    -0.744 OA
ENDBRANCH  82  86
ENDBRANCH  56  79
ENDBRANCH  30  31
ENDBRANCH  23  25
ENDBRANCH  22  23
ENDBRANCH  21  22
ENDBRANCH   1  21
TORSDOF 20
ENDMDL
MODEL 3
REMARK VINA RESULT:      -9.8      2.172      2.621
REMARK SMILES C=CCN(CC(=O)OCCOC(=O)c1ccc(-c2c3nc(c(-c4cc(S(=O)(=O)[O-])ccc4F)c4ccc([nH]4)c(-c4cc(S(=O)(=O)[O-])ccc4F)c4nc(c(-c5cc(S(=O)(=O)[O-])ccc5F)c5ccc2[nH]5)C=C4)C=C3)cc1)C(=O)c1sc(N)nc1C
REMARK SMILES IDX 9 1 8 2 6 3 7 4 5 5 4 6 3 7 2 8 1 9 77 10 78 11 79 12 80 13
REMARK SMILES IDX 84 14 81 15 83 16 85 17 82 18 10 21 11 22 12 23 13 24 14 25
REMARK SMILES IDX 15 26 76 27 16 28 75 29 17 30 18 31 19 32 69 33 20 34 74 35
REMARK SMILES IDX 68 36 70 37 21 38 73 39 67 40 66 41 22 43 54 44 34 45 53 46
REMARK SMILES IDX 35 47 38 48 52 49 71 50 36 51 37 52 51 54 72 55 39 56 23 57
REMARK SMILES IDX 24 58 32 59 25 60 31 61 33 62 30 63 26 64 27 65 28 66 29 67
REMARK SMILES IDX 55 68 56 69 64 70 57 71 63 72 65 73 62 74 58 75 59 76 60 77
REMARK SMILES IDX 61 78 40 79 41 80 49 81 42 82 48 83 50 84 47 85 43 86 44 87
REMARK SMILES IDX 45 88 46 89
REMARK H PARENT 82 19 82 20 70 42 38 53
REMARK Flexibility Score: inf
ROOT
ATOM      1  C   UNL A   1      32.122  28.046  27.189  1.00  0.00     0.274 C 
ENDROOT
BRANCH   1   2
ATOM      2  O   UNL A   1      32.274  27.321  25.940  1.00  0.00    -0.461 OA
BRANCH   2   3
ATOM      3  C   UNL A   1      31.590  26.147  25.865  1.00  0.00     0.325 C 
ATOM      4  O   UNL A   1      31.164  25.545  26.850  1.00  0.00    -0.250 OA
BRANCH   3   5
ATOM      5  C   UNL A   1      31.209  25.702  24.442  1.00  0.00     0.242 C 
BRANCH   5   6
ATOM      6  N   UNL A   1      32.106  25.900  23.296  1.00  0.00    -0.323 N 
BRANCH   6   7
ATOM      7  C   UNL A   1      31.724  26.939  22.352  1.00  0.00     0.147 C 
BRANCH   7   8
ATOM      8  C   UNL A   1      31.975  28.286  22.971  1.00  0.00    -0.014 C 
ATOM      9  C   UNL A   1      33.148  28.932  22.909  1.00  0.00     0.006 C 
ENDBRANCH   7   8
ENDBRANCH   6   7
BRANCH   6  10
ATOM     10  C   UNL A   1      33.348  25.276  23.087  1.00  0.00     0.266 C 
ATOM     11  O   UNL A   1      34.029  25.573  22.102  1.00  0.00    -0.268 OA
BRANCH  10  12
ATOM     12  C   UNL A   1      33.780  24.196  23.941  1.00  0.00     0.117 A 
ATOM     13  S   UNL A   1      34.909  24.385  25.211  1.00  0.00    -0.092 S 
ATOM     14  C   UNL A   1      33.503  22.852  23.758  1.00  0.00     0.063 A 
ATOM     15  C   UNL A   1      34.856  22.686  25.495  1.00  0.00     0.180 A 
ATOM     16  N   UNL A   1      34.124  21.995  24.655  1.00  0.00    -0.225 NA
ATOM     17  C   UNL A   1      32.555  22.286  22.767  1.00  0.00     0.068 C 
BRANCH  15  18
ATOM     18  N   UNL A   1      35.525  22.112  26.502  1.00  0.00    -0.375 N 
ATOM     19  H   UNL A   1      36.230  22.612  26.973  1.00  0.00     0.159 HD
ATOM     20  H   UNL A   1      35.312  21.189  26.771  1.00  0.00     0.159 HD
ENDBRANCH  15  18
ENDBRANCH  10  12
ENDBRANCH   6  10
ENDBRANCH   5   6
ENDBRANCH   3   5
ENDBRANCH   2   3
ENDBRANCH   1   2
BRANCH   1  21
ATOM     21  C   UNL A   1      31.866  29.559  27.015  1.00  0.00     0.275 C 
BRANCH  21  22
ATOM     22  O   UNL A   1      32.946  30.274  26.371  1.00  0.00    -0.458 OA
BRANCH  22  23
ATOM     23  C   UNL A   1      33.503  31.184  27.186  1.00  0.00     0.338 C 
ATOM     24  O   UNL A   1      32.936  32.198  27.585  1.00  0.00    -0.246 OA
BRANCH  23  25
ATOM     25  C   UNL A   1      34.836  30.890  27.685  1.00  0.00     0.060 A 
ATOM     26  C   UNL A   1      35.044  29.654  28.306  1.00  0.00     0.016 A 
ATOM     27  C   UNL A   1      35.756  31.930  27.824  1.00  0.00     0.016 A 
ATOM     28  C   UNL A   1      36.180  29.454  29.083  1.00  0.00     0.010 A 
ATOM     29  C   UNL A   1      36.913  31.714  28.571  1.00  0.00     0.010 A 
ATOM     30  C   UNL A   1      37.129  30.477  29.201  1.00  0.00    -0.014 A 
BRANCH  30  31
ATOM     31  C   UNL A   1      38.436  30.202  29.834  1.00  0.00     0.031 A 
ATOM     32  C   UNL A   1      39.403  29.224  29.250  1.00  0.00     0.074 A 
ATOM     33  C   UNL A   1      38.675  30.814  31.008  1.00  0.00     0.049 A 
ATOM     34  N   UNL A   1      40.483  28.717  29.784  1.00  0.00    -0.248 NA
ATOM     35  C   UNL A   1      39.120  28.748  27.891  1.00  0.00     0.031 C 
ATOM     36  C   UNL A   1      37.789  31.805  31.628  1.00  0.00     0.029 A 
ATOM     37  N   UNL A   1      39.696  30.667  31.904  1.00  0.00    -0.354 N 
ATOM     38  C   UNL A   1      41.007  27.846  28.835  1.00  0.00     0.074 A 
ATOM     39  C   UNL A   1      40.112  27.886  27.695  1.00  0.00     0.031 C 
ATOM     40  C   UNL A   1      38.280  32.138  32.828  1.00  0.00     0.029 A 
ATOM     41  C   UNL A   1      39.475  31.344  33.078  1.00  0.00     0.049 A 
ATOM     42  H   UNL A   1      40.504  30.131  31.728  1.00  0.00     0.167 HD
ATOM     43  C   UNL A   1      42.132  27.092  28.925  1.00  0.00     0.034 A 
ATOM     44  C   UNL A   1      40.123  31.282  34.254  1.00  0.00     0.034 A 
ATOM     45  C   UNL A   1      42.994  27.089  30.086  1.00  0.00     0.049 A 
ATOM     46  C   UNL A   1      41.323  30.390  34.360  1.00  0.00     0.074 A 
ATOM     47  C   UNL A   1      44.184  26.409  30.281  1.00  0.00     0.029 A 
ATOM     48  N   UNL A   1      42.748  27.794  31.261  1.00  0.00    -0.354 N 
ATOM     49  N   UNL A   1      41.816  29.573  33.458  1.00  0.00    -0.248 NA
ATOM     50  C   UNL A   1      42.059  30.421  35.625  1.00  0.00     0.031 C 
ATOM     51  C   UNL A   1      44.622  26.654  31.590  1.00  0.00     0.029 A 
ATOM     52  C   UNL A   1      43.742  27.538  32.192  1.00  0.00     0.049 A 
ATOM     53  H   UNL A   1      41.978  28.390  31.408  1.00  0.00     0.167 HD
ATOM     54  C   UNL A   1      42.939  29.004  34.041  1.00  0.00     0.074 A 
ATOM     55  C   UNL A   1      43.047  29.575  35.371  1.00  0.00     0.031 C 
ATOM     56  C   UNL A   1      43.812  28.105  33.520  1.00  0.00     0.034 A 
BRANCH  43  57
ATOM     57  C   UNL A   1      42.460  26.174  27.770  1.00  0.00     0.023 A 
ATOM     58  C   UNL A   1      41.907  24.887  27.658  1.00  0.00     0.031 A 
ATOM     59  C   UNL A   1      43.350  26.595  26.765  1.00  0.00     0.131 A 
ATOM     60  C   UNL A   1      42.291  24.048  26.598  1.00  0.00     0.055 A 
ATOM     61  C   UNL A   1      43.678  25.781  25.678  1.00  0.00     0.041 A 
ATOM     62  F   UNL A   1      43.925  27.806  26.826  1.00  0.00    -0.206 F 
ATOM     63  C   UNL A   1      43.158  24.493  25.597  1.00  0.00     0.022 A 
BRANCH  60  64
ATOM     64  S   UNL A   1      41.742  22.318  26.614  1.00  0.00     0.124 S 
ATOM     65  O   UNL A   1      42.330  21.811  25.376  1.00  0.00    -0.237 OA
ATOM     66  O   UNL A   1      42.325  21.815  27.852  1.00  0.00    -0.237 OA
ATOM     67  O   UNL A   1      40.284  22.420  26.607  1.00  0.00    -0.744 OA
ENDBRANCH  60  64
ENDBRANCH  43  57
BRANCH  44  68
ATOM     68  C   UNL A   1      39.591  32.043  35.412  1.00  0.00     0.023 A 
ATOM     69  C   UNL A   1      40.011  33.353  35.673  1.00  0.00     0.031 A 
ATOM     70  C   UNL A   1      38.590  31.487  36.230  1.00  0.00     0.131 A 
ATOM     71  C   UNL A   1      39.431  34.067  36.733  1.00  0.00     0.055 A 
ATOM     72  C   UNL A   1      37.995  32.211  37.262  1.00  0.00     0.041 A 
ATOM     73  F   UNL A   1      38.142  30.241  36.001  1.00  0.00    -0.206 F 
ATOM     74  C   UNL A   1      38.419  33.511  37.520  1.00  0.00     0.022 A 
BRANCH  71  75
ATOM     75  S   UNL A   1      40.034  35.741  37.081  1.00  0.00     0.124 S 
ATOM     76  O   UNL A   1      39.651  36.455  35.868  1.00  0.00    -0.237 OA
ATOM     77  O   UNL A   1      39.291  36.085  38.289  1.00  0.00    -0.237 OA
ATOM     78  O   UNL A   1      41.471  35.553  37.268  1.00  0.00    -0.744 OA
ENDBRANCH  71  75
ENDBRANCH  44  68
BRANCH  56  79
ATOM     79  C   UNL A   1      44.976  27.728  34.393  1.00  0.00     0.023 A 
ATOM     80  C   UNL A   1      46.189  28.436  34.345  1.00  0.00     0.031 A 
ATOM     81  C   UNL A   1      44.875  26.628  35.263  1.00  0.00     0.131 A 
ATOM     82  C   UNL A   1      47.273  28.006  35.123  1.00  0.00     0.055 A 
ATOM     83  C   UNL A   1      45.942  26.235  36.069  1.00  0.00     0.041 A 
ATOM     84  F   UNL A   1      43.737  25.920  35.338  1.00  0.00    -0.206 F 
ATOM     85  C   UNL A   1      47.153  26.919  35.994  1.00  0.00     0.022 A 
BRANCH  82  86
ATOM     86  S   UNL A   1      48.866  28.850  34.937  1.00  0.00     0.124 S 
ATOM     87  O   UNL A   1      49.730  27.764  34.483  1.00  0.00    -0.237 OA
ATOM     88  O   UNL A   1      48.564  29.879  33.948  1.00  0.00    -0.237 OA
ATOM     89  O   UNL A   1      49.150  29.348  36.281  1.00  0.00    -0.744 OA
ENDBRANCH  82  86
ENDBRANCH  56  79
ENDBRANCH  30  31
ENDBRANCH  23  25
ENDBRANCH  22  23
ENDBRANCH  21  22
ENDBRANCH   1  21
TORSDOF 20
ENDMDL
