MODEL 1
REMARK VINA RESULT:     -10.4      0.000      0.000
REMARK SMILES CCCCNC(=O)c1cnn([C@@H](C)C(=O)OCCOC(=O)c2ccc(-c3c4nc(c(-c5cc(S(=O)(=O)[O-])ccc5F)c5ccc([nH]5)c(-c5cc(S(=O)(=O)[O-])ccc5F)c5nc(c(-c6cc(S(=O)(=O)[O-])ccc6F)c6ccc3[nH]6)C=C5)C=C4)cc2)c1
REMARK SMILES IDX 17 1 16 2 14 3 15 4 12 5 13 6 11 7 8 8 9 9 85 10 10 11 6 12
REMARK SMILES IDX 5 13 7 15 4 16 3 17 2 18 1 19 18 20 19 21 20 22 21 23 22 24
REMARK SMILES IDX 23 25 84 26 24 27 83 28 25 29 26 30 27 31 77 32 28 33 82 34
REMARK SMILES IDX 76 35 78 36 29 37 81 38 75 39 74 40 30 42 62 43 42 44 61 45
REMARK SMILES IDX 43 46 46 47 60 48 79 49 44 50 45 51 59 53 80 54 47 55 31 56
REMARK SMILES IDX 32 57 40 58 33 59 39 60 41 61 38 62 34 63 35 64 36 65 37 66
REMARK SMILES IDX 63 67 64 68 72 69 65 70 71 71 73 72 70 73 66 74 67 75 68 76
REMARK SMILES IDX 69 77 48 78 49 79 57 80 50 81 56 82 58 83 55 84 51 85 52 86
REMARK SMILES IDX 53 87 54 88
REMARK H PARENT 5 14 78 41 46 52
REMARK Flexibility Score: inf
ROOT
ATOM      1  C   UNL A   1      41.437  19.878  26.236  1.00  0.00     0.274 C 
ENDROOT
BRANCH   1   2
ATOM      2  O   UNL A   1      42.853  20.107  26.110  1.00  0.00    -0.460 OA
BRANCH   2   3
ATOM      3  C   UNL A   1      43.556  19.229  25.349  1.00  0.00     0.330 C 
ATOM      4  O   UNL A   1      43.282  18.031  25.265  1.00  0.00    -0.250 OA
BRANCH   3   5
ATOM      5  C   UNL A   1      44.775  19.809  24.664  1.00  0.00     0.213 C 
ATOM      6  C   UNL A   1      46.040  19.224  25.270  1.00  0.00     0.046 C 
BRANCH   5   7
ATOM      7  N   UNL A   1      44.835  21.267  24.591  1.00  0.00    -0.258 N 
ATOM      8  C   UNL A   1      45.570  23.345  24.710  1.00  0.00     0.077 A 
ATOM      9  C   UNL A   1      44.187  23.262  24.437  1.00  0.00     0.149 A 
ATOM     10  C   UNL A   1      45.966  22.024  24.763  1.00  0.00     0.123 A 
ATOM     11  N   UNL A   1      43.713  22.017  24.534  1.00  0.00    -0.180 NA
BRANCH   8  12
ATOM     12  C   UNL A   1      46.430  24.498  24.865  1.00  0.00     0.254 C 
ATOM     13  N   UNL A   1      46.348  25.233  26.024  1.00  0.00    -0.352 N 
ATOM     14  H   UNL A   1      46.772  26.120  25.994  1.00  0.00     0.163 HD
ATOM     15  O   UNL A   1      47.278  24.802  24.027  1.00  0.00    -0.269 OA
BRANCH  13  16
ATOM     16  C   UNL A   1      45.721  24.880  27.284  1.00  0.00     0.116 C 
BRANCH  16  17
ATOM     17  C   UNL A   1      45.678  26.059  28.255  1.00  0.00     0.021 C 
BRANCH  17  18
ATOM     18  C   UNL A   1      46.022  25.711  29.703  1.00  0.00    -0.002 C 
ATOM     19  C   UNL A   1      45.151  26.437  30.717  1.00  0.00     0.004 C 
ENDBRANCH  17  18
ENDBRANCH  16  17
ENDBRANCH  13  16
ENDBRANCH   8  12
ENDBRANCH   5   7
ENDBRANCH   3   5
ENDBRANCH   2   3
ENDBRANCH   1   2
BRANCH   1  20
ATOM     20  C   UNL A   1      40.818  20.724  27.343  1.00  0.00     0.275 C 
BRANCH  20  21
ATOM     21  O   UNL A   1      41.316  22.063  27.313  1.00  0.00    -0.458 OA
BRANCH  21  22
ATOM     22  C   UNL A   1      40.347  22.996  27.194  1.00  0.00     0.338 C 
ATOM     23  O   UNL A   1      39.176  22.794  26.934  1.00  0.00    -0.246 OA
BRANCH  22  24
ATOM     24  C   UNL A   1      40.900  24.344  27.235  1.00  0.00     0.060 A 
ATOM     25  C   UNL A   1      42.000  24.537  28.084  1.00  0.00     0.016 A 
ATOM     26  C   UNL A   1      40.124  25.401  26.754  1.00  0.00     0.016 A 
ATOM     27  C   UNL A   1      42.188  25.782  28.632  1.00  0.00     0.010 A 
ATOM     28  C   UNL A   1      40.298  26.635  27.323  1.00  0.00     0.010 A 
ATOM     29  C   UNL A   1      41.270  26.783  28.313  1.00  0.00    -0.014 A 
BRANCH  29  30
ATOM     30  C   UNL A   1      41.349  28.031  29.033  1.00  0.00     0.031 A 
ATOM     31  C   UNL A   1      42.366  28.959  28.501  1.00  0.00     0.074 A 
ATOM     32  C   UNL A   1      40.440  28.350  29.973  1.00  0.00     0.049 A 
ATOM     33  N   UNL A   1      43.410  29.425  29.098  1.00  0.00    -0.248 NA
ATOM     34  C   UNL A   1      42.302  29.283  27.066  1.00  0.00     0.031 C 
ATOM     35  C   UNL A   1      39.221  27.619  30.330  1.00  0.00     0.029 A 
ATOM     36  N   UNL A   1      40.337  29.492  30.696  1.00  0.00    -0.354 N 
ATOM     37  C   UNL A   1      44.012  30.277  28.181  1.00  0.00     0.074 A 
ATOM     38  C   UNL A   1      43.425  29.978  26.904  1.00  0.00     0.031 C 
ATOM     39  C   UNL A   1      38.389  28.455  30.990  1.00  0.00     0.029 A 
ATOM     40  C   UNL A   1      39.061  29.732  31.188  1.00  0.00     0.049 A 
ATOM     41  H   UNL A   1      41.098  30.096  30.859  1.00  0.00     0.167 HD
ATOM     42  C   UNL A   1      44.759  31.339  28.583  1.00  0.00     0.034 A 
ATOM     43  C   UNL A   1      38.570  30.931  31.598  1.00  0.00     0.034 A 
ATOM     44  C   UNL A   1      45.170  31.198  29.962  1.00  0.00     0.049 A 
ATOM     45  C   UNL A   1      39.743  31.800  31.893  1.00  0.00     0.074 A 
ATOM     46  C   UNL A   1      45.871  30.230  30.658  1.00  0.00     0.029 A 
ATOM     47  N   UNL A   1      44.516  31.940  30.921  1.00  0.00    -0.354 N 
ATOM     48  N   UNL A   1      40.595  31.560  32.855  1.00  0.00    -0.248 NA
ATOM     49  C   UNL A   1      40.258  32.642  30.819  1.00  0.00     0.031 C 
ATOM     50  C   UNL A   1      45.194  30.118  31.907  1.00  0.00     0.029 A 
ATOM     51  C   UNL A   1      44.175  31.073  31.932  1.00  0.00     0.049 A 
ATOM     52  H   UNL A   1      44.328  32.906  30.889  1.00  0.00     0.167 HD
ATOM     53  C   UNL A   1      41.843  31.838  32.315  1.00  0.00     0.074 A 
ATOM     54  C   UNL A   1      41.566  32.595  31.095  1.00  0.00     0.031 C 
ATOM     55  C   UNL A   1      42.969  31.183  32.733  1.00  0.00     0.034 A 
BRANCH  42  56
ATOM     56  C   UNL A   1      44.826  32.651  27.842  1.00  0.00     0.023 A 
ATOM     57  C   UNL A   1      44.049  33.710  28.339  1.00  0.00     0.031 A 
ATOM     58  C   UNL A   1      45.371  32.840  26.550  1.00  0.00     0.131 A 
ATOM     59  C   UNL A   1      43.776  34.836  27.544  1.00  0.00     0.055 A 
ATOM     60  C   UNL A   1      45.162  33.996  25.796  1.00  0.00     0.041 A 
ATOM     61  F   UNL A   1      46.048  31.886  25.898  1.00  0.00    -0.206 F 
ATOM     62  C   UNL A   1      44.333  34.990  26.279  1.00  0.00     0.022 A 
BRANCH  59  63
ATOM     63  S   UNL A   1      42.519  36.004  28.122  1.00  0.00     0.124 S 
ATOM     64  O   UNL A   1      41.529  35.108  28.709  1.00  0.00    -0.237 OA
ATOM     65  O   UNL A   1      43.281  36.824  29.057  1.00  0.00    -0.237 OA
ATOM     66  O   UNL A   1      42.099  36.680  26.896  1.00  0.00    -0.744 OA
ENDBRANCH  59  63
ENDBRANCH  42  56
BRANCH  43  67
ATOM     67  C   UNL A   1      37.182  31.431  31.384  1.00  0.00     0.023 A 
ATOM     68  C   UNL A   1      36.445  32.094  32.386  1.00  0.00     0.031 A 
ATOM     69  C   UNL A   1      36.620  31.440  30.084  1.00  0.00     0.131 A 
ATOM     70  C   UNL A   1      35.204  32.702  32.075  1.00  0.00     0.055 A 
ATOM     71  C   UNL A   1      35.388  32.024  29.786  1.00  0.00     0.041 A 
ATOM     72  F   UNL A   1      37.291  30.950  29.030  1.00  0.00    -0.206 F 
ATOM     73  C   UNL A   1      34.674  32.665  30.783  1.00  0.00     0.022 A 
BRANCH  70  74
ATOM     74  S   UNL A   1      34.295  33.648  33.341  1.00  0.00     0.124 S 
ATOM     75  O   UNL A   1      35.093  33.410  34.538  1.00  0.00    -0.237 OA
ATOM     76  O   UNL A   1      34.321  35.002  32.800  1.00  0.00    -0.237 OA
ATOM     77  O   UNL A   1      32.972  33.021  33.350  1.00  0.00    -0.744 OA
ENDBRANCH  70  74
ENDBRANCH  43  67
BRANCH  55  78
ATOM     78  C   UNL A   1      42.897  30.314  33.975  1.00  0.00     0.023 A 
ATOM     79  C   UNL A   1      42.445  28.974  33.994  1.00  0.00     0.031 A 
ATOM     80  C   UNL A   1      43.458  30.826  35.159  1.00  0.00     0.131 A 
ATOM     81  C   UNL A   1      42.558  28.206  35.171  1.00  0.00     0.055 A 
ATOM     82  C   UNL A   1      43.590  30.056  36.314  1.00  0.00     0.041 A 
ATOM     83  F   UNL A   1      43.933  32.083  35.200  1.00  0.00    -0.206 F 
ATOM     84  C   UNL A   1      43.136  28.743  36.325  1.00  0.00     0.022 A 
BRANCH  81  85
ATOM     85  S   UNL A   1      41.939  26.493  35.228  1.00  0.00     0.124 S 
ATOM     86  O   UNL A   1      40.656  26.569  34.539  1.00  0.00    -0.237 OA
ATOM     87  O   UNL A   1      42.993  25.751  34.541  1.00  0.00    -0.237 OA
ATOM     88  O   UNL A   1      41.841  26.215  36.663  1.00  0.00    -0.744 OA
ENDBRANCH  81  85
ENDBRANCH  55  78
ENDBRANCH  29  30
ENDBRANCH  22  24
ENDBRANCH  21  22
ENDBRANCH  20  21
ENDBRANCH   1  20
TORSDOF 19
ENDMDL
MODEL 2
REMARK VINA RESULT:     -10.2      3.398     11.348
REMARK SMILES CCCCNC(=O)c1cnn([C@@H](C)C(=O)OCCOC(=O)c2ccc(-c3c4nc(c(-c5cc(S(=O)(=O)[O-])ccc5F)c5ccc([nH]5)c(-c5cc(S(=O)(=O)[O-])ccc5F)c5nc(c(-c6cc(S(=O)(=O)[O-])ccc6F)c6ccc3[nH]6)C=C5)C=C4)cc2)c1
REMARK SMILES IDX 17 1 16 2 14 3 15 4 12 5 13 6 11 7 8 8 9 9 85 10 10 11 6 12
REMARK SMILES IDX 5 13 7 15 4 16 3 17 2 18 1 19 18 20 19 21 20 22 21 23 22 24
REMARK SMILES IDX 23 25 84 26 24 27 83 28 25 29 26 30 27 31 77 32 28 33 82 34
REMARK SMILES IDX 76 35 78 36 29 37 81 38 75 39 74 40 30 42 62 43 42 44 61 45
REMARK SMILES IDX 43 46 46 47 60 48 79 49 44 50 45 51 59 53 80 54 47 55 31 56
REMARK SMILES IDX 32 57 40 58 33 59 39 60 41 61 38 62 34 63 35 64 36 65 37 66
REMARK SMILES IDX 63 67 64 68 72 69 65 70 71 71 73 72 70 73 66 74 67 75 68 76
REMARK SMILES IDX 69 77 48 78 49 79 57 80 50 81 56 82 58 83 55 84 51 85 52 86
REMARK SMILES IDX 53 87 54 88
REMARK H PARENT 5 14 78 41 46 52
REMARK Flexibility Score: inf
ROOT
ATOM      1  C   UNL A   1      37.494  30.581  32.715  1.00  0.00     0.274 C 
ENDROOT
BRANCH   1   2
ATOM      2  O   UNL A   1      37.927  31.864  33.206  1.00  0.00    -0.460 OA
BRANCH   2   3
ATOM      3  C   UNL A   1      37.740  32.115  34.528  1.00  0.00     0.330 C 
ATOM      4  O   UNL A   1      37.906  31.272  35.410  1.00  0.00    -0.250 OA
BRANCH   3   5
ATOM      5  C   UNL A   1      37.219  33.499  34.848  1.00  0.00     0.213 C 
ATOM      6  C   UNL A   1      37.128  33.686  36.354  1.00  0.00     0.046 C 
BRANCH   5   7
ATOM      7  N   UNL A   1      35.979  33.887  34.180  1.00  0.00    -0.258 N 
ATOM      8  C   UNL A   1      34.392  35.101  33.242  1.00  0.00     0.077 A 
ATOM      9  C   UNL A   1      34.022  33.750  33.421  1.00  0.00     0.149 A 
ATOM     10  C   UNL A   1      35.689  35.143  33.711  1.00  0.00     0.123 A 
ATOM     11  N   UNL A   1      34.912  33.059  34.138  1.00  0.00    -0.180 NA
BRANCH   8  12
ATOM     12  C   UNL A   1      33.657  36.210  32.674  1.00  0.00     0.254 C 
ATOM     13  N   UNL A   1      33.522  36.283  31.309  1.00  0.00    -0.352 N 
ATOM     14  H   UNL A   1      33.222  37.153  30.958  1.00  0.00     0.163 HD
ATOM     15  O   UNL A   1      33.091  37.050  33.373  1.00  0.00    -0.269 OA
BRANCH  13  16
ATOM     16  C   UNL A   1      33.761  35.255  30.313  1.00  0.00     0.116 C 
BRANCH  16  17
ATOM     17  C   UNL A   1      33.495  35.756  28.893  1.00  0.00     0.021 C 
BRANCH  17  18
ATOM     18  C   UNL A   1      34.513  35.299  27.850  1.00  0.00    -0.002 C 
ATOM     19  C   UNL A   1      34.869  33.825  27.965  1.00  0.00     0.004 C 
ENDBRANCH  17  18
ENDBRANCH  16  17
ENDBRANCH  13  16
ENDBRANCH   8  12
ENDBRANCH   5   7
ENDBRANCH   3   5
ENDBRANCH   2   3
ENDBRANCH   1   2
BRANCH   1  20
ATOM     20  C   UNL A   1      36.282  30.700  31.798  1.00  0.00     0.275 C 
BRANCH  20  21
ATOM     21  O   UNL A   1      36.220  29.609  30.877  1.00  0.00    -0.458 OA
BRANCH  21  22
ATOM     22  C   UNL A   1      36.607  29.938  29.625  1.00  0.00     0.338 C 
ATOM     23  O   UNL A   1      36.122  30.804  28.922  1.00  0.00    -0.246 OA
BRANCH  22  24
ATOM     24  C   UNL A   1      37.589  28.993  29.108  1.00  0.00     0.060 A 
ATOM     25  C   UNL A   1      38.074  28.042  30.017  1.00  0.00     0.016 A 
ATOM     26  C   UNL A   1      38.246  29.299  27.914  1.00  0.00     0.016 A 
ATOM     27  C   UNL A   1      39.344  27.553  29.832  1.00  0.00     0.010 A 
ATOM     28  C   UNL A   1      39.523  28.830  27.746  1.00  0.00     0.010 A 
ATOM     29  C   UNL A   1      40.079  28.035  28.749  1.00  0.00    -0.014 A 
BRANCH  29  30
ATOM     30  C   UNL A   1      41.474  27.675  28.661  1.00  0.00     0.031 A 
ATOM     31  C   UNL A   1      41.713  26.399  27.959  1.00  0.00     0.074 A 
ATOM     32  C   UNL A   1      42.439  28.536  29.032  1.00  0.00     0.049 A 
ATOM     33  N   UNL A   1      42.248  25.322  28.424  1.00  0.00    -0.248 NA
ATOM     34  C   UNL A   1      41.135  26.249  26.613  1.00  0.00     0.031 C 
ATOM     35  C   UNL A   1      42.287  29.936  29.440  1.00  0.00     0.029 A 
ATOM     36  N   UNL A   1      43.784  28.379  28.964  1.00  0.00    -0.354 N 
ATOM     37  C   UNL A   1      42.274  24.431  27.357  1.00  0.00     0.074 A 
ATOM     38  C   UNL A   1      41.390  24.967  26.360  1.00  0.00     0.031 C 
ATOM     39  C   UNL A   1      43.482  30.556  29.320  1.00  0.00     0.029 A 
ATOM     40  C   UNL A   1      44.487  29.576  28.934  1.00  0.00     0.049 A 
ATOM     41  H   UNL A   1      44.222  27.498  28.938  1.00  0.00     0.167 HD
ATOM     42  C   UNL A   1      43.217  23.456  27.271  1.00  0.00     0.034 A 
ATOM     43  C   UNL A   1      45.761  29.749  28.493  1.00  0.00     0.034 A 
ATOM     44  C   UNL A   1      43.845  23.219  28.550  1.00  0.00     0.049 A 
ATOM     45  C   UNL A   1      46.414  28.410  28.523  1.00  0.00     0.074 A 
ATOM     46  C   UNL A   1      43.368  22.875  29.802  1.00  0.00     0.029 A 
ATOM     47  N   UNL A   1      45.110  23.720  28.763  1.00  0.00    -0.354 N 
ATOM     48  N   UNL A   1      46.641  27.743  29.624  1.00  0.00    -0.248 NA
ATOM     49  C   UNL A   1      46.355  27.592  27.317  1.00  0.00     0.031 C 
ATOM     50  C   UNL A   1      44.134  23.660  30.712  1.00  0.00     0.029 A 
ATOM     51  C   UNL A   1      45.082  24.373  29.974  1.00  0.00     0.049 A 
ATOM     52  H   UNL A   1      45.887  23.630  28.165  1.00  0.00     0.167 HD
ATOM     53  C   UNL A   1      46.322  26.425  29.325  1.00  0.00     0.074 A 
ATOM     54  C   UNL A   1      46.250  26.377  27.865  1.00  0.00     0.031 C 
ATOM     55  C   UNL A   1      45.852  25.565  30.279  1.00  0.00     0.034 A 
BRANCH  42  56
ATOM     56  C   UNL A   1      43.804  22.965  25.970  1.00  0.00     0.023 A 
ATOM     57  C   UNL A   1      43.807  21.578  25.750  1.00  0.00     0.031 A 
ATOM     58  C   UNL A   1      44.593  23.733  25.081  1.00  0.00     0.131 A 
ATOM     59  C   UNL A   1      44.624  21.010  24.757  1.00  0.00     0.055 A 
ATOM     60  C   UNL A   1      45.340  23.169  24.045  1.00  0.00     0.041 A 
ATOM     61  F   UNL A   1      44.773  25.052  25.221  1.00  0.00    -0.206 F 
ATOM     62  C   UNL A   1      45.385  21.797  23.898  1.00  0.00     0.022 A 
BRANCH  59  63
ATOM     63  S   UNL A   1      44.820  19.210  24.741  1.00  0.00     0.124 S 
ATOM     64  O   UNL A   1      46.035  19.038  25.529  1.00  0.00    -0.237 OA
ATOM     65  O   UNL A   1      43.578  18.768  25.364  1.00  0.00    -0.237 OA
ATOM     66  O   UNL A   1      44.951  18.899  23.319  1.00  0.00    -0.744 OA
ENDBRANCH  59  63
ENDBRANCH  42  56
BRANCH  43  67
ATOM     67  C   UNL A   1      46.275  30.920  27.727  1.00  0.00     0.023 A 
ATOM     68  C   UNL A   1      45.455  31.707  26.892  1.00  0.00     0.031 A 
ATOM     69  C   UNL A   1      47.579  31.415  27.972  1.00  0.00     0.131 A 
ATOM     70  C   UNL A   1      45.953  32.908  26.330  1.00  0.00     0.055 A 
ATOM     71  C   UNL A   1      48.072  32.589  27.400  1.00  0.00     0.041 A 
ATOM     72  F   UNL A   1      48.401  30.816  28.847  1.00  0.00    -0.206 F 
ATOM     73  C   UNL A   1      47.256  33.347  26.578  1.00  0.00     0.022 A 
BRANCH  70  74
ATOM     74  S   UNL A   1      44.868  33.982  25.334  1.00  0.00     0.124 S 
ATOM     75  O   UNL A   1      44.353  34.912  26.332  1.00  0.00    -0.237 OA
ATOM     76  O   UNL A   1      45.790  34.530  24.347  1.00  0.00    -0.237 OA
ATOM     77  O   UNL A   1      43.875  33.052  24.791  1.00  0.00    -0.744 OA
ENDBRANCH  70  74
ENDBRANCH  43  67
BRANCH  55  78
ATOM     78  C   UNL A   1      45.912  25.980  31.738  1.00  0.00     0.023 A 
ATOM     79  C   UNL A   1      44.811  26.466  32.480  1.00  0.00     0.031 A 
ATOM     80  C   UNL A   1      47.104  25.723  32.439  1.00  0.00     0.131 A 
ATOM     81  C   UNL A   1      44.934  26.682  33.868  1.00  0.00     0.055 A 
ATOM     82  C   UNL A   1      47.214  25.915  33.815  1.00  0.00     0.041 A 
ATOM     83  F   UNL A   1      48.179  25.233  31.797  1.00  0.00    -0.206 F 
ATOM     84  C   UNL A   1      46.130  26.400  34.535  1.00  0.00     0.022 A 
BRANCH  81  85
ATOM     85  S   UNL A   1      43.540  27.350  34.834  1.00  0.00     0.124 S 
ATOM     86  O   UNL A   1      43.980  28.696  35.183  1.00  0.00    -0.237 OA
ATOM     87  O   UNL A   1      42.429  27.263  33.891  1.00  0.00    -0.237 OA
ATOM     88  O   UNL A   1      43.443  26.430  35.970  1.00  0.00    -0.744 OA
ENDBRANCH  81  85
ENDBRANCH  55  78
ENDBRANCH  29  30
ENDBRANCH  22  24
ENDBRANCH  21  22
ENDBRANCH  20  21
ENDBRANCH   1  20
TORSDOF 19
ENDMDL
MODEL 3
REMARK VINA RESULT:     -10.1      4.591     10.844
REMARK SMILES CCCCNC(=O)c1cnn([C@@H](C)C(=O)OCCOC(=O)c2ccc(-c3c4nc(c(-c5cc(S(=O)(=O)[O-])ccc5F)c5ccc([nH]5)c(-c5cc(S(=O)(=O)[O-])ccc5F)c5nc(c(-c6cc(S(=O)(=O)[O-])ccc6F)c6ccc3[nH]6)C=C5)C=C4)cc2)c1
REMARK SMILES IDX 17 1 16 2 14 3 15 4 12 5 13 6 11 7 8 8 9 9 85 10 10 11 6 12
REMARK SMILES IDX 5 13 7 15 4 16 3 17 2 18 1 19 18 20 19 21 20 22 21 23 22 24
REMARK SMILES IDX 23 25 84 26 24 27 83 28 25 29 26 30 27 31 77 32 28 33 82 34
REMARK SMILES IDX 76 35 78 36 29 37 81 38 75 39 74 40 30 42 62 43 42 44 61 45
REMARK SMILES IDX 43 46 46 47 60 48 79 49 44 50 45 51 59 53 80 54 47 55 31 56
REMARK SMILES IDX 32 57 40 58 33 59 39 60 41 61 38 62 34 63 35 64 36 65 37 66
REMARK SMILES IDX 63 67 64 68 72 69 65 70 71 71 73 72 70 73 66 74 67 75 68 76
REMARK SMILES IDX 69 77 48 78 49 79 57 80 50 81 56 82 58 83 55 84 51 85 52 86
REMARK SMILES IDX 53 87 54 88
REMARK H PARENT 5 14 78 41 46 52
REMARK Flexibility Score: inf
ROOT
ATOM      1  C   UNL A   1      32.583  29.890  27.351  1.00  0.00     0.274 C 
ENDROOT
BRANCH   1   2
ATOM      2  O   UNL A   1      32.674  28.674  26.586  1.00  0.00    -0.460 OA
BRANCH   2   3
ATOM      3  C   UNL A   1      31.752  27.711  26.845  1.00  0.00     0.330 C 
ATOM      4  O   UNL A   1      31.085  27.669  27.879  1.00  0.00    -0.250 OA
BRANCH   3   5
ATOM      5  C   UNL A   1      31.657  26.619  25.801  1.00  0.00     0.213 C 
ATOM      6  C   UNL A   1      30.213  26.441  25.363  1.00  0.00     0.046 C 
BRANCH   5   7
ATOM      7  N   UNL A   1      32.277  25.344  26.150  1.00  0.00    -0.258 N 
ATOM      8  C   UNL A   1      33.622  23.594  26.147  1.00  0.00     0.077 A 
ATOM      9  C   UNL A   1      32.528  23.448  27.028  1.00  0.00     0.149 A 
ATOM     10  C   UNL A   1      33.447  24.858  25.623  1.00  0.00     0.123 A 
ATOM     11  N   UNL A   1      31.629  24.428  26.904  1.00  0.00    -0.180 NA
BRANCH   8  12
ATOM     12  C   UNL A   1      34.716  22.695  25.850  1.00  0.00     0.254 C 
ATOM     13  N   UNL A   1      34.477  21.604  25.049  1.00  0.00    -0.352 N 
ATOM     14  H   UNL A   1      35.173  20.908  25.061  1.00  0.00     0.163 HD
ATOM     15  O   UNL A   1      35.866  22.910  26.232  1.00  0.00    -0.269 OA
BRANCH  13  16
ATOM     16  C   UNL A   1      33.338  21.336  24.191  1.00  0.00     0.116 C 
BRANCH  16  17
ATOM     17  C   UNL A   1      32.411  20.272  24.778  1.00  0.00     0.021 C 
BRANCH  17  18
ATOM     18  C   UNL A   1      32.778  18.833  24.419  1.00  0.00    -0.002 C 
ATOM     19  C   UNL A   1      32.642  17.869  25.589  1.00  0.00     0.004 C 
ENDBRANCH  17  18
ENDBRANCH  16  17
ENDBRANCH  13  16
ENDBRANCH   8  12
ENDBRANCH   5   7
ENDBRANCH   3   5
ENDBRANCH   2   3
ENDBRANCH   1   2
BRANCH   1  20
ATOM     20  C   UNL A   1      33.675  30.885  26.975  1.00  0.00     0.275 C 
BRANCH  20  21
ATOM     21  O   UNL A   1      34.968  30.397  27.338  1.00  0.00    -0.458 OA
BRANCH  21  22
ATOM     22  C   UNL A   1      35.770  31.343  27.874  1.00  0.00     0.338 C 
ATOM     23  O   UNL A   1      35.845  32.507  27.532  1.00  0.00    -0.246 OA
BRANCH  22  24
ATOM     24  C   UNL A   1      36.708  30.764  28.830  1.00  0.00     0.060 A 
ATOM     25  C   UNL A   1      37.795  31.570  29.197  1.00  0.00     0.016 A 
ATOM     26  C   UNL A   1      36.691  29.382  29.030  1.00  0.00     0.016 A 
ATOM     27  C   UNL A   1      38.966  30.954  29.565  1.00  0.00     0.010 A 
ATOM     28  C   UNL A   1      37.869  28.770  29.371  1.00  0.00     0.010 A 
ATOM     29  C   UNL A   1      39.005  29.560  29.549  1.00  0.00    -0.014 A 
BRANCH  29  30
ATOM     30  C   UNL A   1      40.281  28.914  29.746  1.00  0.00     0.031 A 
ATOM     31  C   UNL A   1      40.636  28.724  31.166  1.00  0.00     0.074 A 
ATOM     32  C   UNL A   1      40.959  28.388  28.710  1.00  0.00     0.049 A 
ATOM     33  N   UNL A   1      41.642  29.212  31.807  1.00  0.00    -0.248 NA
ATOM     34  C   UNL A   1      39.657  28.032  32.021  1.00  0.00     0.031 C 
ATOM     35  C   UNL A   1      40.519  28.260  27.318  1.00  0.00     0.029 A 
ATOM     36  N   UNL A   1      42.132  27.707  28.726  1.00  0.00    -0.354 N 
ATOM     37  C   UNL A   1      41.541  28.705  33.097  1.00  0.00     0.074 A 
ATOM     38  C   UNL A   1      40.208  28.184  33.224  1.00  0.00     0.031 C 
ATOM     39  C   UNL A   1      41.280  27.325  26.705  1.00  0.00     0.029 A 
ATOM     40  C   UNL A   1      42.314  26.878  27.627  1.00  0.00     0.049 A 
ATOM     41  H   UNL A   1      42.793  27.792  29.450  1.00  0.00     0.167 HD
ATOM     42  C   UNL A   1      42.640  28.520  33.875  1.00  0.00     0.034 A 
ATOM     43  C   UNL A   1      43.166  25.822  27.550  1.00  0.00     0.034 A 
ATOM     44  C   UNL A   1      43.765  29.279  33.381  1.00  0.00     0.049 A 
ATOM     45  C   UNL A   1      44.187  26.011  28.618  1.00  0.00     0.074 A 
ATOM     46  C   UNL A   1      43.974  30.621  33.117  1.00  0.00     0.029 A 
ATOM     47  N   UNL A   1      44.759  28.611  32.699  1.00  0.00    -0.354 N 
ATOM     48  N   UNL A   1      45.045  26.997  28.628  1.00  0.00    -0.248 NA
ATOM     49  C   UNL A   1      43.933  25.411  29.923  1.00  0.00     0.031 C 
ATOM     50  C   UNL A   1      44.725  30.642  31.906  1.00  0.00     0.029 A 
ATOM     51  C   UNL A   1      44.997  29.320  31.545  1.00  0.00     0.049 A 
ATOM     52  H   UNL A   1      45.213  27.785  32.983  1.00  0.00     0.167 HD
ATOM     53  C   UNL A   1      45.100  27.419  29.949  1.00  0.00     0.074 A 
ATOM     54  C   UNL A   1      44.473  26.343  30.716  1.00  0.00     0.031 C 
ATOM     55  C   UNL A   1      45.372  28.719  30.278  1.00  0.00     0.034 A 
BRANCH  42  56
ATOM     56  C   UNL A   1      42.787  27.396  34.871  1.00  0.00     0.023 A 
ATOM     57  C   UNL A   1      43.571  26.296  34.486  1.00  0.00     0.031 A 
ATOM     58  C   UNL A   1      41.998  27.215  36.031  1.00  0.00     0.131 A 
ATOM     59  C   UNL A   1      43.489  25.077  35.179  1.00  0.00     0.055 A 
ATOM     60  C   UNL A   1      41.981  26.026  36.763  1.00  0.00     0.041 A 
ATOM     61  F   UNL A   1      41.124  28.130  36.468  1.00  0.00    -0.206 F 
ATOM     62  C   UNL A   1      42.704  24.936  36.320  1.00  0.00     0.022 A 
BRANCH  59  63
ATOM     63  S   UNL A   1      44.276  23.622  34.444  1.00  0.00     0.124 S 
ATOM     64  O   UNL A   1      44.234  22.671  35.550  1.00  0.00    -0.237 OA
ATOM     65  O   UNL A   1      43.393  23.341  33.317  1.00  0.00    -0.237 OA
ATOM     66  O   UNL A   1      45.609  24.104  34.088  1.00  0.00    -0.744 OA
ENDBRANCH  59  63
ENDBRANCH  42  56
BRANCH  43  67
ATOM     67  C   UNL A   1      42.901  24.529  26.855  1.00  0.00     0.023 A 
ATOM     68  C   UNL A   1      43.872  23.867  26.076  1.00  0.00     0.031 A 
ATOM     69  C   UNL A   1      41.713  23.807  27.123  1.00  0.00     0.131 A 
ATOM     70  C   UNL A   1      43.625  22.561  25.587  1.00  0.00     0.055 A 
ATOM     71  C   UNL A   1      41.466  22.527  26.623  1.00  0.00     0.041 A 
ATOM     72  F   UNL A   1      40.776  24.287  27.955  1.00  0.00    -0.206 F 
ATOM     73  C   UNL A   1      42.427  21.894  25.854  1.00  0.00     0.022 A 
BRANCH  70  74
ATOM     74  S   UNL A   1      44.914  21.659  24.667  1.00  0.00     0.124 S 
ATOM     75  O   UNL A   1      46.138  22.271  25.169  1.00  0.00    -0.237 OA
ATOM     76  O   UNL A   1      44.669  20.276  25.058  1.00  0.00    -0.237 OA
ATOM     77  O   UNL A   1      44.606  21.961  23.267  1.00  0.00    -0.744 OA
ENDBRANCH  70  74
ENDBRANCH  43  67
BRANCH  55  78
ATOM     78  C   UNL A   1      45.863  29.664  29.197  1.00  0.00     0.023 A 
ATOM     79  C   UNL A   1      45.024  30.441  28.366  1.00  0.00     0.031 A 
ATOM     80  C   UNL A   1      47.248  29.896  29.117  1.00  0.00     0.131 A 
ATOM     81  C   UNL A   1      45.581  31.400  27.495  1.00  0.00     0.055 A 
ATOM     82  C   UNL A   1      47.794  30.862  28.272  1.00  0.00     0.041 A 
ATOM     83  F   UNL A   1      48.100  29.212  29.901  1.00  0.00    -0.206 F 
ATOM     84  C   UNL A   1      46.962  31.614  27.454  1.00  0.00     0.022 A 
BRANCH  81  85
ATOM     85  S   UNL A   1      44.518  32.379  26.384  1.00  0.00     0.124 S 
ATOM     86  O   UNL A   1      45.445  32.875  25.373  1.00  0.00    -0.237 OA
ATOM     87  O   UNL A   1      43.540  31.394  25.930  1.00  0.00    -0.237 OA
ATOM     88  O   UNL A   1      43.970  33.413  27.264  1.00  0.00    -0.744 OA
ENDBRANCH  81  85
ENDBRANCH  55  78
ENDBRANCH  29  30
ENDBRANCH  22  24
ENDBRANCH  21  22
ENDBRANCH  20  21
ENDBRANCH   1  20
TORSDOF 19
ENDMDL
