MODEL 1
REMARK VINA RESULT:     -10.6      0.000      0.000
REMARK SMILES CS(=O)(=O)CC[C@H](NC(=O)Cc1ccn[nH]1)C(=O)OCCOC(=O)c1ccc(-c2c3nc(c(-c4cc(S(=O)(=O)[O-])ccc4F)c4ccc([nH]4)c(-c4cc(S(=O)(=O)[O-])ccc4F)c4nc(c(-c5cc(S(=O)(=O)[O-])ccc5F)c5ccc2[nH]5)C=C4)C=C3)cc1
REMARK SMILES IDX 20 1 19 2 17 3 18 4 7 5 6 6 5 7 2 8 1 9 3 10 4 11 8 12 9 13
REMARK SMILES IDX 10 15 11 16 12 17 13 18 16 19 14 20 15 21 21 23 22 24 23 25
REMARK SMILES IDX 24 26 25 27 26 28 87 29 27 30 86 31 28 32 29 33 30 34 80 35
REMARK SMILES IDX 31 36 85 37 79 38 81 39 32 40 84 41 78 42 77 43 33 45 65 46
REMARK SMILES IDX 45 47 64 48 46 49 49 50 63 51 82 52 47 53 48 54 62 56 83 57
REMARK SMILES IDX 50 58 34 59 35 60 43 61 36 62 42 63 44 64 41 65 37 66 38 67
REMARK SMILES IDX 39 68 40 69 66 70 67 71 75 72 68 73 74 74 76 75 73 76 69 77
REMARK SMILES IDX 70 78 71 79 72 80 51 81 52 82 60 83 53 84 59 85 61 86 58 87
REMARK SMILES IDX 54 88 55 89 56 90 57 91
REMARK H PARENT 8 14 16 22 81 44 49 55
REMARK Flexibility Score: inf
ROOT
ATOM      1  C   UNL A   1      36.526  22.585  23.556  1.00  0.00     0.274 C 
ENDROOT
BRANCH   1   2
ATOM      2  O   UNL A   1      35.574  23.520  24.108  1.00  0.00    -0.461 OA
BRANCH   2   3
ATOM      3  C   UNL A   1      34.594  23.935  23.271  1.00  0.00     0.328 C 
ATOM      4  O   UNL A   1      34.278  23.377  22.226  1.00  0.00    -0.250 OA
BRANCH   3   5
ATOM      5  C   UNL A   1      33.917  25.239  23.731  1.00  0.00     0.193 C 
BRANCH   5   6
ATOM      6  C   UNL A   1      33.066  24.962  24.990  1.00  0.00     0.053 C 
BRANCH   6   7
ATOM      7  C   UNL A   1      31.935  23.935  24.871  1.00  0.00     0.139 C 
BRANCH   7   8
ATOM      8  S   UNL A   1      31.588  22.933  26.311  1.00  0.00     0.147 S 
ATOM      9  C   UNL A   1      33.030  21.913  26.532  1.00  0.00     0.158 C 
ATOM     10  O   UNL A   1      30.505  22.031  25.959  1.00  0.00    -0.229 OA
ATOM     11  O   UNL A   1      31.466  23.794  27.469  1.00  0.00    -0.229 OA
ENDBRANCH   7   8
ENDBRANCH   6   7
ENDBRANCH   5   6
BRANCH   5  12
ATOM     12  N   UNL A   1      33.158  26.064  22.789  1.00  0.00    -0.342 N 
ATOM     13  C   UNL A   1      32.780  27.375  22.889  1.00  0.00     0.226 C 
ATOM     14  H   UNL A   1      32.877  25.607  21.962  1.00  0.00     0.164 HD
ATOM     15  O   UNL A   1      31.754  27.707  22.289  1.00  0.00    -0.275 OA
BRANCH  13  16
ATOM     16  C   UNL A   1      33.660  28.395  23.583  1.00  0.00     0.155 C 
BRANCH  16  17
ATOM     17  C   UNL A   1      33.367  28.663  25.018  1.00  0.00     0.044 A 
ATOM     18  C   UNL A   1      34.048  28.435  26.198  1.00  0.00     0.045 A 
ATOM     19  N   UNL A   1      32.284  29.431  25.380  1.00  0.00    -0.282 N 
ATOM     20  C   UNL A   1      33.300  29.092  27.192  1.00  0.00     0.135 A 
ATOM     21  N   UNL A   1      32.207  29.666  26.698  1.00  0.00    -0.184 NA
ATOM     22  H   UNL A   1      31.628  29.776  24.732  1.00  0.00     0.190 HD
ENDBRANCH  16  17
ENDBRANCH  13  16
ENDBRANCH   5  12
ENDBRANCH   3   5
ENDBRANCH   2   3
ENDBRANCH   1   2
BRANCH   1  23
ATOM     23  C   UNL A   1      36.697  21.397  24.504  1.00  0.00     0.275 C 
BRANCH  23  24
ATOM     24  O   UNL A   1      37.256  21.841  25.751  1.00  0.00    -0.458 OA
BRANCH  24  25
ATOM     25  C   UNL A   1      38.533  21.465  25.969  1.00  0.00     0.338 C 
ATOM     26  O   UNL A   1      39.086  20.432  25.604  1.00  0.00    -0.246 OA
BRANCH  25  27
ATOM     27  C   UNL A   1      39.258  22.596  26.545  1.00  0.00     0.060 A 
ATOM     28  C   UNL A   1      38.861  23.876  26.162  1.00  0.00     0.016 A 
ATOM     29  C   UNL A   1      40.352  22.411  27.385  1.00  0.00     0.016 A 
ATOM     30  C   UNL A   1      39.606  24.983  26.538  1.00  0.00     0.010 A 
ATOM     31  C   UNL A   1      41.047  23.533  27.840  1.00  0.00     0.010 A 
ATOM     32  C   UNL A   1      40.687  24.825  27.409  1.00  0.00    -0.014 A 
BRANCH  32  33
ATOM     33  C   UNL A   1      41.418  26.017  27.896  1.00  0.00     0.031 A 
ATOM     34  C   UNL A   1      40.704  27.051  28.715  1.00  0.00     0.074 A 
ATOM     35  C   UNL A   1      42.720  26.161  27.584  1.00  0.00     0.049 A 
ATOM     36  N   UNL A   1      41.092  28.253  29.047  1.00  0.00    -0.248 NA
ATOM     37  C   UNL A   1      39.372  26.682  29.215  1.00  0.00     0.031 C 
ATOM     38  C   UNL A   1      43.528  25.179  26.855  1.00  0.00     0.029 A 
ATOM     39  N   UNL A   1      43.592  27.189  27.830  1.00  0.00    -0.354 N 
ATOM     40  C   UNL A   1      40.038  28.803  29.768  1.00  0.00     0.074 A 
ATOM     41  C   UNL A   1      38.991  27.803  29.811  1.00  0.00     0.031 C 
ATOM     42  C   UNL A   1      44.777  25.648  26.721  1.00  0.00     0.029 A 
ATOM     43  C   UNL A   1      44.831  26.999  27.263  1.00  0.00     0.049 A 
ATOM     44  H   UNL A   1      43.356  27.984  28.359  1.00  0.00     0.167 HD
ATOM     45  C   UNL A   1      39.960  30.035  30.330  1.00  0.00     0.034 A 
ATOM     46  C   UNL A   1      45.869  27.845  27.129  1.00  0.00     0.034 A 
ATOM     47  C   UNL A   1      41.030  31.003  30.269  1.00  0.00     0.049 A 
ATOM     48  C   UNL A   1      45.719  29.243  27.660  1.00  0.00     0.074 A 
ATOM     49  C   UNL A   1      41.077  32.279  30.802  1.00  0.00     0.029 A 
ATOM     50  N   UNL A   1      42.246  30.800  29.623  1.00  0.00    -0.354 N 
ATOM     51  N   UNL A   1      44.698  29.780  28.289  1.00  0.00    -0.248 NA
ATOM     52  C   UNL A   1      46.847  30.156  27.443  1.00  0.00     0.031 C 
ATOM     53  C   UNL A   1      42.290  32.868  30.424  1.00  0.00     0.029 A 
ATOM     54  C   UNL A   1      43.031  31.939  29.709  1.00  0.00     0.049 A 
ATOM     55  H   UNL A   1      42.511  29.967  29.170  1.00  0.00     0.167 HD
ATOM     56  C   UNL A   1      45.062  31.097  28.542  1.00  0.00     0.074 A 
ATOM     57  C   UNL A   1      46.406  31.263  28.022  1.00  0.00     0.031 C 
ATOM     58  C   UNL A   1      44.353  32.084  29.146  1.00  0.00     0.034 A 
BRANCH  45  59
ATOM     59  C   UNL A   1      38.655  30.417  30.983  1.00  0.00     0.023 A 
ATOM     60  C   UNL A   1      37.623  31.056  30.272  1.00  0.00     0.031 A 
ATOM     61  C   UNL A   1      38.459  30.184  32.356  1.00  0.00     0.131 A 
ATOM     62  C   UNL A   1      36.480  31.506  30.951  1.00  0.00     0.055 A 
ATOM     63  C   UNL A   1      37.286  30.565  33.010  1.00  0.00     0.041 A 
ATOM     64  F   UNL A   1      39.417  29.600  33.093  1.00  0.00    -0.206 F 
ATOM     65  C   UNL A   1      36.293  31.245  32.310  1.00  0.00     0.022 A 
BRANCH  62  66
ATOM     66  S   UNL A   1      35.309  32.573  30.065  1.00  0.00     0.124 S 
ATOM     67  O   UNL A   1      36.160  33.702  29.694  1.00  0.00    -0.237 OA
ATOM     68  O   UNL A   1      34.869  31.717  28.969  1.00  0.00    -0.237 OA
ATOM     69  O   UNL A   1      34.292  32.874  31.070  1.00  0.00    -0.744 OA
ENDBRANCH  62  66
ENDBRANCH  45  59
BRANCH  46  70
ATOM     70  C   UNL A   1      47.087  27.424  26.381  1.00  0.00     0.023 A 
ATOM     71  C   UNL A   1      47.240  27.719  25.019  1.00  0.00     0.031 A 
ATOM     72  C   UNL A   1      48.116  26.707  27.022  1.00  0.00     0.131 A 
ATOM     73  C   UNL A   1      48.384  27.281  24.335  1.00  0.00     0.055 A 
ATOM     74  C   UNL A   1      49.273  26.317  26.349  1.00  0.00     0.041 A 
ATOM     75  F   UNL A   1      48.019  26.398  28.326  1.00  0.00    -0.206 F 
ATOM     76  C   UNL A   1      49.409  26.596  24.994  1.00  0.00     0.022 A 
BRANCH  73  77
ATOM     77  S   UNL A   1      48.490  27.566  22.547  1.00  0.00     0.124 S 
ATOM     78  O   UNL A   1      47.251  28.290  22.287  1.00  0.00    -0.237 OA
ATOM     79  O   UNL A   1      49.722  28.341  22.438  1.00  0.00    -0.237 OA
ATOM     80  O   UNL A   1      48.554  26.216  21.990  1.00  0.00    -0.744 OA
ENDBRANCH  73  77
ENDBRANCH  46  70
BRANCH  58  81
ATOM     81  C   UNL A   1      45.039  33.418  29.270  1.00  0.00     0.023 A 
ATOM     82  C   UNL A   1      44.850  34.426  28.309  1.00  0.00     0.031 A 
ATOM     83  C   UNL A   1      45.907  33.674  30.344  1.00  0.00     0.131 A 
ATOM     84  C   UNL A   1      45.562  35.629  28.413  1.00  0.00     0.055 A 
ATOM     85  C   UNL A   1      46.573  34.893  30.470  1.00  0.00     0.041 A 
ATOM     86  F   UNL A   1      46.125  32.741  31.284  1.00  0.00    -0.206 F 
ATOM     87  C   UNL A   1      46.411  35.875  29.497  1.00  0.00     0.022 A 
BRANCH  84  88
ATOM     88  S   UNL A   1      45.421  36.843  27.074  1.00  0.00     0.124 S 
ATOM     89  O   UNL A   1      46.213  36.221  26.018  1.00  0.00    -0.237 OA
ATOM     90  O   UNL A   1      43.980  36.893  26.844  1.00  0.00    -0.237 OA
ATOM     91  O   UNL A   1      45.996  38.057  27.649  1.00  0.00    -0.744 OA
ENDBRANCH  84  88
ENDBRANCH  58  81
ENDBRANCH  32  33
ENDBRANCH  25  27
ENDBRANCH  24  25
ENDBRANCH  23  24
ENDBRANCH   1  23
TORSDOF 20
ENDMDL
MODEL 2
REMARK VINA RESULT:     -10.4      5.192     10.202
REMARK SMILES CS(=O)(=O)CC[C@H](NC(=O)Cc1ccn[nH]1)C(=O)OCCOC(=O)c1ccc(-c2c3nc(c(-c4cc(S(=O)(=O)[O-])ccc4F)c4ccc([nH]4)c(-c4cc(S(=O)(=O)[O-])ccc4F)c4nc(c(-c5cc(S(=O)(=O)[O-])ccc5F)c5ccc2[nH]5)C=C4)C=C3)cc1
REMARK SMILES IDX 20 1 19 2 17 3 18 4 7 5 6 6 5 7 2 8 1 9 3 10 4 11 8 12 9 13
REMARK SMILES IDX 10 15 11 16 12 17 13 18 16 19 14 20 15 21 21 23 22 24 23 25
REMARK SMILES IDX 24 26 25 27 26 28 87 29 27 30 86 31 28 32 29 33 30 34 80 35
REMARK SMILES IDX 31 36 85 37 79 38 81 39 32 40 84 41 78 42 77 43 33 45 65 46
REMARK SMILES IDX 45 47 64 48 46 49 49 50 63 51 82 52 47 53 48 54 62 56 83 57
REMARK SMILES IDX 50 58 34 59 35 60 43 61 36 62 42 63 44 64 41 65 37 66 38 67
REMARK SMILES IDX 39 68 40 69 66 70 67 71 75 72 68 73 74 74 76 75 73 76 69 77
REMARK SMILES IDX 70 78 71 79 72 80 51 81 52 82 60 83 53 84 59 85 61 86 58 87
REMARK SMILES IDX 54 88 55 89 56 90 57 91
REMARK H PARENT 8 14 16 22 81 44 49 55
REMARK Flexibility Score: inf
ROOT
ATOM      1  C   UNL A   1      31.899  28.474  26.420  1.00  0.00     0.274 C 
ENDROOT
BRANCH   1   2
ATOM      2  O   UNL A   1      31.148  27.976  25.292  1.00  0.00    -0.461 OA
BRANCH   2   3
ATOM      3  C   UNL A   1      30.853  26.654  25.312  1.00  0.00     0.328 C 
ATOM      4  O   UNL A   1      29.824  26.156  24.866  1.00  0.00    -0.250 OA
BRANCH   3   5
ATOM      5  C   UNL A   1      31.930  25.804  26.009  1.00  0.00     0.193 C 
BRANCH   5   6
ATOM      6  C   UNL A   1      32.954  25.311  24.962  1.00  0.00     0.053 C 
BRANCH   6   7
ATOM      7  C   UNL A   1      33.259  26.234  23.778  1.00  0.00     0.139 C 
BRANCH   7   8
ATOM      8  S   UNL A   1      32.799  25.652  22.151  1.00  0.00     0.147 S 
ATOM      9  C   UNL A   1      33.263  23.933  22.119  1.00  0.00     0.158 C 
ATOM     10  O   UNL A   1      33.662  26.321  21.193  1.00  0.00    -0.229 OA
ATOM     11  O   UNL A   1      31.360  25.731  22.008  1.00  0.00    -0.229 OA
ENDBRANCH   7   8
ENDBRANCH   6   7
ENDBRANCH   5   6
BRANCH   5  12
ATOM     12  N   UNL A   1      31.558  24.701  26.898  1.00  0.00    -0.342 N 
ATOM     13  C   UNL A   1      30.872  23.551  26.617  1.00  0.00     0.226 C 
ATOM     14  H   UNL A   1      31.843  24.802  27.836  1.00  0.00     0.164 HD
ATOM     15  O   UNL A   1      30.228  23.046  27.541  1.00  0.00    -0.275 OA
BRANCH  13  16
ATOM     16  C   UNL A   1      31.015  22.859  25.277  1.00  0.00     0.155 C 
BRANCH  16  17
ATOM     17  C   UNL A   1      31.966  21.714  25.215  1.00  0.00     0.044 A 
ATOM     18  C   UNL A   1      32.603  21.048  24.188  1.00  0.00     0.045 A 
ATOM     19  N   UNL A   1      32.528  21.208  26.365  1.00  0.00    -0.282 N 
ATOM     20  C   UNL A   1      33.510  20.175  24.816  1.00  0.00     0.135 A 
ATOM     21  N   UNL A   1      33.436  20.247  26.142  1.00  0.00    -0.184 NA
ATOM     22  H   UNL A   1      32.286  21.523  27.266  1.00  0.00     0.190 HD
ENDBRANCH  16  17
ENDBRANCH  13  16
ENDBRANCH   5  12
ENDBRANCH   3   5
ENDBRANCH   2   3
ENDBRANCH   1   2
BRANCH   1  23
ATOM     23  C   UNL A   1      31.950  30.002  26.376  1.00  0.00     0.275 C 
BRANCH  23  24
ATOM     24  O   UNL A   1      33.317  30.448  26.373  1.00  0.00    -0.458 OA
BRANCH  24  25
ATOM     25  C   UNL A   1      33.593  31.442  27.243  1.00  0.00     0.338 C 
ATOM     26  O   UNL A   1      32.843  32.332  27.631  1.00  0.00    -0.246 OA
BRANCH  25  27
ATOM     27  C   UNL A   1      34.901  31.184  27.843  1.00  0.00     0.060 A 
ATOM     28  C   UNL A   1      35.141  29.901  28.333  1.00  0.00     0.016 A 
ATOM     29  C   UNL A   1      35.848  32.192  27.991  1.00  0.00     0.016 A 
ATOM     30  C   UNL A   1      36.291  29.632  29.059  1.00  0.00     0.010 A 
ATOM     31  C   UNL A   1      37.048  31.896  28.642  1.00  0.00     0.010 A 
ATOM     32  C   UNL A   1      37.271  30.618  29.191  1.00  0.00    -0.014 A 
BRANCH  32  33
ATOM     33  C   UNL A   1      38.545  30.300  29.875  1.00  0.00     0.031 A 
ATOM     34  C   UNL A   1      39.518  29.351  29.243  1.00  0.00     0.074 A 
ATOM     35  C   UNL A   1      38.808  30.865  31.069  1.00  0.00     0.049 A 
ATOM     36  N   UNL A   1      40.569  28.776  29.763  1.00  0.00    -0.248 NA
ATOM     37  C   UNL A   1      39.264  28.993  27.840  1.00  0.00     0.031 C 
ATOM     38  C   UNL A   1      37.963  31.859  31.738  1.00  0.00     0.029 A 
ATOM     39  N   UNL A   1      39.852  30.681  31.937  1.00  0.00    -0.354 N 
ATOM     40  C   UNL A   1      41.087  27.959  28.764  1.00  0.00     0.074 A 
ATOM     41  C   UNL A   1      40.222  28.107  27.611  1.00  0.00     0.031 C 
ATOM     42  C   UNL A   1      38.526  32.202  32.905  1.00  0.00     0.029 A 
ATOM     43  C   UNL A   1      39.713  31.382  33.112  1.00  0.00     0.049 A 
ATOM     44  H   UNL A   1      40.624  30.104  31.740  1.00  0.00     0.167 HD
ATOM     45  C   UNL A   1      42.179  27.158  28.820  1.00  0.00     0.034 A 
ATOM     46  C   UNL A   1      40.419  31.318  34.257  1.00  0.00     0.034 A 
ATOM     47  C   UNL A   1      43.019  27.043  29.989  1.00  0.00     0.049 A 
ATOM     48  C   UNL A   1      41.557  30.340  34.335  1.00  0.00     0.074 A 
ATOM     49  C   UNL A   1      44.155  26.273  30.169  1.00  0.00     0.029 A 
ATOM     50  N   UNL A   1      42.805  27.716  31.188  1.00  0.00    -0.354 N 
ATOM     51  N   UNL A   1      42.008  29.525  33.408  1.00  0.00    -0.248 NA
ATOM     52  C   UNL A   1      42.266  30.254  35.616  1.00  0.00     0.031 C 
ATOM     53  C   UNL A   1      44.587  26.431  31.491  1.00  0.00     0.029 A 
ATOM     54  C   UNL A   1      43.761  27.349  32.122  1.00  0.00     0.049 A 
ATOM     55  H   UNL A   1      42.079  28.362  31.349  1.00  0.00     0.167 HD
ATOM     56  C   UNL A   1      43.055  28.826  33.997  1.00  0.00     0.074 A 
ATOM     57  C   UNL A   1      43.185  29.337  35.348  1.00  0.00     0.031 C 
ATOM     58  C   UNL A   1      43.839  27.850  33.474  1.00  0.00     0.034 A 
BRANCH  45  59
ATOM     59  C   UNL A   1      42.469  26.299  27.614  1.00  0.00     0.023 A 
ATOM     60  C   UNL A   1      42.178  24.923  27.590  1.00  0.00     0.031 A 
ATOM     61  C   UNL A   1      43.097  26.857  26.486  1.00  0.00     0.131 A 
ATOM     62  C   UNL A   1      42.583  24.141  26.496  1.00  0.00     0.055 A 
ATOM     63  C   UNL A   1      43.427  26.088  25.369  1.00  0.00     0.041 A 
ATOM     64  F   UNL A   1      43.422  28.159  26.460  1.00  0.00    -0.206 F 
ATOM     65  C   UNL A   1      43.185  24.718  25.375  1.00  0.00     0.022 A 
BRANCH  62  66
ATOM     66  S   UNL A   1      42.451  22.336  26.625  1.00  0.00     0.124 S 
ATOM     67  O   UNL A   1      43.852  21.946  26.764  1.00  0.00    -0.237 OA
ATOM     68  O   UNL A   1      41.619  22.164  27.811  1.00  0.00    -0.237 OA
ATOM     69  O   UNL A   1      41.826  21.947  25.362  1.00  0.00    -0.744 OA
ENDBRANCH  62  66
ENDBRANCH  45  59
BRANCH  46  70
ATOM     70  C   UNL A   1      40.006  32.126  35.438  1.00  0.00     0.023 A 
ATOM     71  C   UNL A   1      39.083  31.630  36.369  1.00  0.00     0.031 A 
ATOM     72  C   UNL A   1      40.525  33.419  35.646  1.00  0.00     0.131 A 
ATOM     73  C   UNL A   1      38.690  32.429  37.455  1.00  0.00     0.055 A 
ATOM     74  C   UNL A   1      40.168  34.189  36.752  1.00  0.00     0.041 A 
ATOM     75  F   UNL A   1      41.411  33.943  34.782  1.00  0.00    -0.206 F 
ATOM     76  C   UNL A   1      39.238  33.697  37.661  1.00  0.00     0.022 A 
BRANCH  73  77
ATOM     77  S   UNL A   1      37.399  31.808  38.567  1.00  0.00     0.124 S 
ATOM     78  O   UNL A   1      38.026  31.977  39.874  1.00  0.00    -0.237 OA
ATOM     79  O   UNL A   1      36.287  32.704  38.268  1.00  0.00    -0.237 OA
ATOM     80  O   UNL A   1      37.215  30.424  38.136  1.00  0.00    -0.744 OA
ENDBRANCH  73  77
ENDBRANCH  46  70
BRANCH  58  81
ATOM     81  C   UNL A   1      44.901  27.289  34.382  1.00  0.00     0.023 A 
ATOM     82  C   UNL A   1      44.628  26.215  35.246  1.00  0.00     0.031 A 
ATOM     83  C   UNL A   1      46.188  27.851  34.402  1.00  0.00     0.131 A 
ATOM     84  C   UNL A   1      45.616  25.766  36.132  1.00  0.00     0.055 A 
ATOM     85  C   UNL A   1      47.184  27.366  35.250  1.00  0.00     0.041 A 
ATOM     86  F   UNL A   1      46.497  28.882  33.599  1.00  0.00    -0.206 F 
ATOM     87  C   UNL A   1      46.898  26.325  36.128  1.00  0.00     0.022 A 
BRANCH  84  88
ATOM     88  S   UNL A   1      45.184  24.489  37.344  1.00  0.00     0.124 S 
ATOM     89  O   UNL A   1      43.827  24.874  37.718  1.00  0.00    -0.237 OA
ATOM     90  O   UNL A   1      45.305  23.261  36.564  1.00  0.00    -0.237 OA
ATOM     91  O   UNL A   1      46.189  24.656  38.392  1.00  0.00    -0.744 OA
ENDBRANCH  84  88
ENDBRANCH  58  81
ENDBRANCH  32  33
ENDBRANCH  25  27
ENDBRANCH  24  25
ENDBRANCH  23  24
ENDBRANCH   1  23
TORSDOF 20
ENDMDL
MODEL 3
REMARK VINA RESULT:     -10.3      4.967      9.748
REMARK SMILES CS(=O)(=O)CC[C@H](NC(=O)Cc1ccn[nH]1)C(=O)OCCOC(=O)c1ccc(-c2c3nc(c(-c4cc(S(=O)(=O)[O-])ccc4F)c4ccc([nH]4)c(-c4cc(S(=O)(=O)[O-])ccc4F)c4nc(c(-c5cc(S(=O)(=O)[O-])ccc5F)c5ccc2[nH]5)C=C4)C=C3)cc1
REMARK SMILES IDX 20 1 19 2 17 3 18 4 7 5 6 6 5 7 2 8 1 9 3 10 4 11 8 12 9 13
REMARK SMILES IDX 10 15 11 16 12 17 13 18 16 19 14 20 15 21 21 23 22 24 23 25
REMARK SMILES IDX 24 26 25 27 26 28 87 29 27 30 86 31 28 32 29 33 30 34 80 35
REMARK SMILES IDX 31 36 85 37 79 38 81 39 32 40 84 41 78 42 77 43 33 45 65 46
REMARK SMILES IDX 45 47 64 48 46 49 49 50 63 51 82 52 47 53 48 54 62 56 83 57
REMARK SMILES IDX 50 58 34 59 35 60 43 61 36 62 42 63 44 64 41 65 37 66 38 67
REMARK SMILES IDX 39 68 40 69 66 70 67 71 75 72 68 73 74 74 76 75 73 76 69 77
REMARK SMILES IDX 70 78 71 79 72 80 51 81 52 82 60 83 53 84 59 85 61 86 58 87
REMARK SMILES IDX 54 88 55 89 56 90 57 91
REMARK H PARENT 8 14 16 22 81 44 49 55
REMARK Flexibility Score: inf
ROOT
ATOM      1  C   UNL A   1      31.885  28.080  25.425  1.00  0.00     0.274 C 
ENDROOT
BRANCH   1   2
ATOM      2  O   UNL A   1      30.659  27.906  24.683  1.00  0.00    -0.461 OA
BRANCH   2   3
ATOM      3  C   UNL A   1      30.792  27.462  23.410  1.00  0.00     0.328 C 
ATOM      4  O   UNL A   1      31.032  28.172  22.439  1.00  0.00    -0.250 OA
BRANCH   3   5
ATOM      5  C   UNL A   1      30.563  25.946  23.270  1.00  0.00     0.193 C 
BRANCH   5   6
ATOM      6  C   UNL A   1      30.428  25.315  24.673  1.00  0.00     0.053 C 
BRANCH   6   7
ATOM      7  C   UNL A   1      30.780  23.830  24.821  1.00  0.00     0.139 C 
BRANCH   7   8
ATOM      8  S   UNL A   1      31.135  23.238  26.470  1.00  0.00     0.147 S 
ATOM      9  C   UNL A   1      29.582  22.636  27.098  1.00  0.00     0.158 C 
ATOM     10  O   UNL A   1      31.477  24.394  27.280  1.00  0.00    -0.229 OA
ATOM     11  O   UNL A   1      32.049  22.117  26.386  1.00  0.00    -0.229 OA
ENDBRANCH   7   8
ENDBRANCH   6   7
ENDBRANCH   5   6
BRANCH   5  12
ATOM     12  N   UNL A   1      31.446  25.127  22.438  1.00  0.00    -0.342 N 
ATOM     13  C   UNL A   1      32.786  25.265  22.194  1.00  0.00     0.226 C 
ATOM     14  H   UNL A   1      31.014  24.364  21.988  1.00  0.00     0.164 HD
ATOM     15  O   UNL A   1      33.203  24.836  21.115  1.00  0.00    -0.275 OA
BRANCH  13  16
ATOM     16  C   UNL A   1      33.728  25.789  23.259  1.00  0.00     0.155 C 
BRANCH  16  17
ATOM     17  C   UNL A   1      34.401  24.772  24.114  1.00  0.00     0.044 A 
ATOM     18  C   UNL A   1      34.628  24.654  25.471  1.00  0.00     0.045 A 
ATOM     19  N   UNL A   1      34.799  23.566  23.585  1.00  0.00    -0.282 N 
ATOM     20  C   UNL A   1      35.161  23.365  25.649  1.00  0.00     0.135 A 
ATOM     21  N   UNL A   1      35.299  22.718  24.495  1.00  0.00    -0.184 NA
ATOM     22  H   UNL A   1      34.724  23.346  22.628  1.00  0.00     0.190 HD
ENDBRANCH  16  17
ENDBRANCH  13  16
ENDBRANCH   5  12
ENDBRANCH   3   5
ENDBRANCH   2   3
ENDBRANCH   1   2
BRANCH   1  23
ATOM     23  C   UNL A   1      31.866  29.426  26.151  1.00  0.00     0.275 C 
BRANCH  23  24
ATOM     24  O   UNL A   1      33.148  30.066  26.030  1.00  0.00    -0.458 OA
BRANCH  24  25
ATOM     25  C   UNL A   1      33.368  31.068  26.906  1.00  0.00     0.338 C 
ATOM     26  O   UNL A   1      32.575  31.924  27.285  1.00  0.00    -0.246 OA
BRANCH  25  27
ATOM     27  C   UNL A   1      34.676  30.864  27.526  1.00  0.00     0.060 A 
ATOM     28  C   UNL A   1      34.994  29.573  27.945  1.00  0.00     0.016 A 
ATOM     29  C   UNL A   1      35.547  31.923  27.760  1.00  0.00     0.016 A 
ATOM     30  C   UNL A   1      36.142  29.339  28.685  1.00  0.00     0.010 A 
ATOM     31  C   UNL A   1      36.749  31.670  28.425  1.00  0.00     0.010 A 
ATOM     32  C   UNL A   1      37.047  30.380  28.904  1.00  0.00    -0.014 A 
BRANCH  32  33
ATOM     33  C   UNL A   1      38.324  30.108  29.602  1.00  0.00     0.031 A 
ATOM     34  C   UNL A   1      39.326  29.172  28.995  1.00  0.00     0.074 A 
ATOM     35  C   UNL A   1      38.563  30.702  30.787  1.00  0.00     0.049 A 
ATOM     36  N   UNL A   1      40.387  28.635  29.534  1.00  0.00    -0.248 NA
ATOM     37  C   UNL A   1      39.092  28.782  27.598  1.00  0.00     0.031 C 
ATOM     38  C   UNL A   1      37.688  31.686  31.431  1.00  0.00     0.029 A 
ATOM     39  N   UNL A   1      39.605  30.562  31.666  1.00  0.00    -0.354 N 
ATOM     40  C   UNL A   1      40.934  27.813  28.555  1.00  0.00     0.074 A 
ATOM     41  C   UNL A   1      40.075  27.916  27.393  1.00  0.00     0.031 C 
ATOM     42  C   UNL A   1      38.233  32.065  32.595  1.00  0.00     0.029 A 
ATOM     43  C   UNL A   1      39.439  31.281  32.826  1.00  0.00     0.049 A 
ATOM     44  H   UNL A   1      40.393  30.001  31.485  1.00  0.00     0.167 HD
ATOM     45  C   UNL A   1      42.046  27.042  28.634  1.00  0.00     0.034 A 
ATOM     46  C   UNL A   1      40.138  31.257  33.977  1.00  0.00     0.034 A 
ATOM     47  C   UNL A   1      42.880  26.971  29.811  1.00  0.00     0.049 A 
ATOM     48  C   UNL A   1      41.301  30.311  34.082  1.00  0.00     0.074 A 
ATOM     49  C   UNL A   1      44.034  26.234  30.013  1.00  0.00     0.029 A 
ATOM     50  N   UNL A   1      42.639  27.661  30.994  1.00  0.00    -0.354 N 
ATOM     51  N   UNL A   1      41.779  29.491  33.174  1.00  0.00    -0.248 NA
ATOM     52  C   UNL A   1      42.002  30.268  35.369  1.00  0.00     0.031 C 
ATOM     53  C   UNL A   1      44.452  26.429  31.335  1.00  0.00     0.029 A 
ATOM     54  C   UNL A   1      43.597  27.337  31.942  1.00  0.00     0.049 A 
ATOM     55  H   UNL A   1      41.896  28.291  31.138  1.00  0.00     0.167 HD
ATOM     56  C   UNL A   1      42.839  28.830  33.784  1.00  0.00     0.074 A 
ATOM     57  C   UNL A   1      42.945  29.370  35.126  1.00  0.00     0.031 C 
ATOM     58  C   UNL A   1      43.653  27.865  33.285  1.00  0.00     0.034 A 
BRANCH  45  59
ATOM     59  C   UNL A   1      42.368  26.168  27.447  1.00  0.00     0.023 A 
ATOM     60  C   UNL A   1      41.898  24.846  27.343  1.00  0.00     0.031 A 
ATOM     61  C   UNL A   1      43.204  26.649  26.423  1.00  0.00     0.131 A 
ATOM     62  C   UNL A   1      42.328  24.031  26.284  1.00  0.00     0.055 A 
ATOM     63  C   UNL A   1      43.566  25.858  25.331  1.00  0.00     0.041 A 
ATOM     64  F   UNL A   1      43.703  27.894  26.479  1.00  0.00    -0.206 F 
ATOM     65  C   UNL A   1      43.140  24.535  25.265  1.00  0.00     0.022 A 
BRANCH  62  66
ATOM     66  S   UNL A   1      41.937  22.260  26.338  1.00  0.00     0.124 S 
ATOM     67  O   UNL A   1      40.497  22.267  26.091  1.00  0.00    -0.237 OA
ATOM     68  O   UNL A   1      42.767  21.721  25.267  1.00  0.00    -0.237 OA
ATOM     69  O   UNL A   1      42.327  21.865  27.691  1.00  0.00    -0.744 OA
ENDBRANCH  62  66
ENDBRANCH  45  59
BRANCH  46  70
ATOM     70  C   UNL A   1      39.695  32.076  35.139  1.00  0.00     0.023 A 
ATOM     71  C   UNL A   1      40.246  33.341  35.388  1.00  0.00     0.031 A 
ATOM     72  C   UNL A   1      38.714  31.596  36.029  1.00  0.00     0.131 A 
ATOM     73  C   UNL A   1      39.830  34.075  36.510  1.00  0.00     0.055 A 
ATOM     74  C   UNL A   1      38.269  32.350  37.114  1.00  0.00     0.041 A 
ATOM     75  F   UNL A   1      38.154  30.390  35.837  1.00  0.00    -0.206 F 
ATOM     76  C   UNL A   1      38.835  33.595  37.365  1.00  0.00     0.022 A 
BRANCH  73  77
ATOM     77  S   UNL A   1      40.656  35.648  36.875  1.00  0.00     0.124 S 
ATOM     78  O   UNL A   1      41.678  35.696  35.834  1.00  0.00    -0.237 OA
ATOM     79  O   UNL A   1      39.560  36.602  36.742  1.00  0.00    -0.237 OA
ATOM     80  O   UNL A   1      41.157  35.462  38.235  1.00  0.00    -0.744 OA
ENDBRANCH  73  77
ENDBRANCH  46  70
BRANCH  58  81
ATOM     81  C   UNL A   1      44.721  27.350  34.211  1.00  0.00     0.023 A 
ATOM     82  C   UNL A   1      44.516  26.200  34.993  1.00  0.00     0.031 A 
ATOM     83  C   UNL A   1      45.945  28.029  34.332  1.00  0.00     0.131 A 
ATOM     84  C   UNL A   1      45.502  25.790  35.900  1.00  0.00     0.055 A 
ATOM     85  C   UNL A   1      46.944  27.586  35.199  1.00  0.00     0.041 A 
ATOM     86  F   UNL A   1      46.187  29.135  33.610  1.00  0.00    -0.206 F 
ATOM     87  C   UNL A   1      46.722  26.467  35.997  1.00  0.00     0.022 A 
BRANCH  84  88
ATOM     88  S   UNL A   1      45.142  24.401  37.008  1.00  0.00     0.124 S 
ATOM     89  O   UNL A   1      44.454  23.473  36.116  1.00  0.00    -0.237 OA
ATOM     90  O   UNL A   1      46.474  23.993  37.446  1.00  0.00    -0.237 OA
ATOM     91  O   UNL A   1      44.307  24.998  38.048  1.00  0.00    -0.744 OA
ENDBRANCH  84  88
ENDBRANCH  58  81
ENDBRANCH  32  33
ENDBRANCH  25  27
ENDBRANCH  24  25
ENDBRANCH  23  24
ENDBRANCH   1  23
TORSDOF 20
ENDMDL
