MODEL 1
REMARK VINA RESULT:     -12.6      0.000      0.000
REMARK SMILES Cn1c(=O)c2c(-c3ccc(Cl)cc3)n(CC(=O)OCCOC(=O)c3ccc(-c4c5nc(c(-c6cc(S(=O)(=O)[O-])ccc6F)c6ccc([nH]6)c(-c6cc(S(=O)(=O)[O-])ccc6F)c6nc(c(-c7cc(S(=O)(=O)[O-])ccc7F)c7ccc4[nH]7)C=C6)C=C5)cc3)cc2n(C)c1=O
REMARK SMILES IDX 20 1 19 2 18 3 16 4 17 5 15 6 14 7 1 8 2 9 3 10 91 11 4 12
REMARK SMILES IDX 5 13 89 14 92 15 6 16 88 17 90 18 87 19 7 20 8 21 13 22 9 23
REMARK SMILES IDX 12 24 10 25 11 26 21 27 22 28 23 29 24 30 25 31 86 32 26 33
REMARK SMILES IDX 85 34 27 35 28 36 29 37 79 38 30 39 84 40 78 41 80 42 31 43
REMARK SMILES IDX 83 44 77 45 76 46 32 48 64 49 44 50 63 51 45 52 48 53 62 54
REMARK SMILES IDX 81 55 46 56 47 57 61 59 82 60 49 61 33 62 34 63 42 64 35 65
REMARK SMILES IDX 41 66 43 67 40 68 36 69 37 70 38 71 39 72 65 73 66 74 74 75
REMARK SMILES IDX 67 76 73 77 75 78 72 79 68 80 69 81 70 82 71 83 50 84 51 85
REMARK SMILES IDX 59 86 52 87 58 88 60 89 57 90 53 91 54 92 55 93 56 94
REMARK H PARENT 80 47 48 58
REMARK Flexibility Score: inf
ROOT
ATOM      1  C   UNL A   1      34.467  31.097  28.092  1.00  0.00     0.275 C 
ENDROOT
BRANCH   1   2
ATOM      2  C   UNL A   1      33.653  30.448  26.964  1.00  0.00     0.274 C 
BRANCH   2   3
ATOM      3  O   UNL A   1      32.487  29.726  27.430  1.00  0.00    -0.461 OA
BRANCH   3   4
ATOM      4  C   UNL A   1      32.400  28.428  27.040  1.00  0.00     0.326 C 
ATOM      5  O   UNL A   1      31.642  27.612  27.568  1.00  0.00    -0.250 OA
BRANCH   4   6
ATOM      6  C   UNL A   1      33.306  28.005  25.910  1.00  0.00     0.244 C 
BRANCH   6   7
ATOM      7  N   UNL A   1      33.212  26.636  25.407  1.00  0.00    -0.333 N 
ATOM      8  C   UNL A   1      32.104  21.454  22.791  1.00  0.00     0.158 C 
ATOM      9  N   UNL A   1      32.643  22.519  23.609  1.00  0.00    -0.263 N 
ATOM     10  C   UNL A   1      32.028  23.775  23.468  1.00  0.00     0.265 A 
ATOM     11  C   UNL A   1      33.677  22.179  24.505  1.00  0.00     0.330 A 
ATOM     12  O   UNL A   1      31.079  23.985  22.731  1.00  0.00    -0.268 OA
ATOM     13  C   UNL A   1      32.630  24.798  24.294  1.00  0.00     0.090 A 
ATOM     14  N   UNL A   1      34.256  23.223  25.230  1.00  0.00    -0.295 N 
ATOM     15  O   UNL A   1      34.024  21.004  24.638  1.00  0.00    -0.248 OA
ATOM     16  C   UNL A   1      32.329  26.151  24.450  1.00  0.00     0.064 A 
ATOM     17  C   UNL A   1      33.727  24.496  25.106  1.00  0.00     0.076 A 
ATOM     18  C   UNL A   1      35.366  22.932  26.141  1.00  0.00     0.155 C 
ATOM     19  C   UNL A   1      34.130  25.656  25.700  1.00  0.00     0.114 A 
BRANCH  16  20
ATOM     20  C   UNL A   1      31.288  26.967  23.828  1.00  0.00    -0.001 A 
ATOM     21  C   UNL A   1      31.621  27.954  22.890  1.00  0.00     0.012 A 
ATOM     22  C   UNL A   1      29.948  26.788  24.185  1.00  0.00     0.012 A 
ATOM     23  C   UNL A   1      30.635  28.785  22.356  1.00  0.00     0.021 A 
ATOM     24  C   UNL A   1      28.957  27.602  23.633  1.00  0.00     0.021 A 
ATOM     25  C   UNL A   1      29.306  28.605  22.732  1.00  0.00     0.041 A 
ATOM     26  Cl  UNL A   1      28.090  29.632  22.080  1.00  0.00    -0.084 Cl
ENDBRANCH  16  20
ENDBRANCH   6   7
ENDBRANCH   4   6
ENDBRANCH   3   4
ENDBRANCH   2   3
ENDBRANCH   1   2
BRANCH   1  27
ATOM     27  O   UNL A   1      35.866  31.165  27.790  1.00  0.00    -0.458 OA
BRANCH  27  28
ATOM     28  C   UNL A   1      36.616  30.700  28.808  1.00  0.00     0.338 C 
ATOM     29  O   UNL A   1      36.747  31.226  29.906  1.00  0.00    -0.246 OA
BRANCH  28  30
ATOM     30  C   UNL A   1      37.398  29.524  28.453  1.00  0.00     0.060 A 
ATOM     31  C   UNL A   1      37.699  28.642  29.499  1.00  0.00     0.016 A 
ATOM     32  C   UNL A   1      38.209  29.651  27.328  1.00  0.00     0.016 A 
ATOM     33  C   UNL A   1      38.961  28.100  29.565  1.00  0.00     0.010 A 
ATOM     34  C   UNL A   1      39.460  29.081  27.379  1.00  0.00     0.010 A 
ATOM     35  C   UNL A   1      39.855  28.403  28.541  1.00  0.00    -0.014 A 
BRANCH  35  36
ATOM     36  C   UNL A   1      41.233  27.976  28.688  1.00  0.00     0.031 A 
ATOM     37  C   UNL A   1      41.548  26.679  28.046  1.00  0.00     0.074 A 
ATOM     38  C   UNL A   1      42.161  28.817  29.180  1.00  0.00     0.049 A 
ATOM     39  N   UNL A   1      42.141  25.644  28.543  1.00  0.00    -0.248 NA
ATOM     40  C   UNL A   1      41.033  26.480  26.680  1.00  0.00     0.031 C 
ATOM     41  C   UNL A   1      41.978  30.225  29.551  1.00  0.00     0.029 A 
ATOM     42  N   UNL A   1      43.506  28.642  29.283  1.00  0.00    -0.354 N 
ATOM     43  C   UNL A   1      42.239  24.735  27.494  1.00  0.00     0.074 A 
ATOM     44  C   UNL A   1      41.395  25.224  26.438  1.00  0.00     0.031 C 
ATOM     45  C   UNL A   1      43.184  30.831  29.579  1.00  0.00     0.029 A 
ATOM     46  C   UNL A   1      44.216  29.836  29.334  1.00  0.00     0.049 A 
ATOM     47  H   UNL A   1      43.934  27.756  29.316  1.00  0.00     0.167 HD
ATOM     48  C   UNL A   1      43.170  23.746  27.462  1.00  0.00     0.034 A 
ATOM     49  C   UNL A   1      45.537  29.999  29.068  1.00  0.00     0.034 A 
ATOM     50  C   UNL A   1      43.720  23.470  28.760  1.00  0.00     0.049 A 
ATOM     51  C   UNL A   1      46.175  28.663  29.169  1.00  0.00     0.074 A 
ATOM     52  C   UNL A   1      43.190  23.031  29.957  1.00  0.00     0.029 A 
ATOM     53  N   UNL A   1      44.954  23.990  29.065  1.00  0.00    -0.354 N 
ATOM     54  N   UNL A   1      46.262  27.977  30.275  1.00  0.00    -0.248 NA
ATOM     55  C   UNL A   1      46.350  27.888  27.949  1.00  0.00     0.031 C 
ATOM     56  C   UNL A   1      43.915  23.732  30.965  1.00  0.00     0.029 A 
ATOM     57  C   UNL A   1      44.866  24.530  30.326  1.00  0.00     0.049 A 
ATOM     58  H   UNL A   1      45.752  23.977  28.490  1.00  0.00     0.167 HD
ATOM     59  C   UNL A   1      46.088  26.654  29.895  1.00  0.00     0.074 A 
ATOM     60  C   UNL A   1      46.265  26.651  28.447  1.00  0.00     0.031 C 
ATOM     61  C   UNL A   1      45.543  25.740  30.749  1.00  0.00     0.034 A 
BRANCH  48  62
ATOM     62  C   UNL A   1      43.764  23.225  26.181  1.00  0.00     0.023 A 
ATOM     63  C   UNL A   1      43.625  21.864  25.870  1.00  0.00     0.031 A 
ATOM     64  C   UNL A   1      44.656  23.964  25.367  1.00  0.00     0.131 A 
ATOM     65  C   UNL A   1      44.348  21.298  24.805  1.00  0.00     0.055 A 
ATOM     66  C   UNL A   1      45.308  23.418  24.261  1.00  0.00     0.041 A 
ATOM     67  F   UNL A   1      45.013  25.223  25.657  1.00  0.00    -0.206 F 
ATOM     68  C   UNL A   1      45.168  22.071  23.983  1.00  0.00     0.022 A 
BRANCH  65  69
ATOM     69  S   UNL A   1      44.324  19.499  24.597  1.00  0.00     0.124 S 
ATOM     70  O   UNL A   1      42.967  19.166  25.015  1.00  0.00    -0.237 OA
ATOM     71  O   UNL A   1      44.614  19.356  23.173  1.00  0.00    -0.237 OA
ATOM     72  O   UNL A   1      45.381  19.040  25.496  1.00  0.00    -0.744 OA
ENDBRANCH  65  69
ENDBRANCH  48  62
BRANCH  49  73
ATOM     73  C   UNL A   1      46.188  31.167  28.415  1.00  0.00     0.023 A 
ATOM     74  C   UNL A   1      45.585  31.834  27.331  1.00  0.00     0.031 A 
ATOM     75  C   UNL A   1      47.310  31.798  29.001  1.00  0.00     0.131 A 
ATOM     76  C   UNL A   1      46.103  33.065  26.874  1.00  0.00     0.055 A 
ATOM     77  C   UNL A   1      47.833  33.005  28.530  1.00  0.00     0.041 A 
ATOM     78  F   UNL A   1      47.888  31.312  30.110  1.00  0.00    -0.206 F 
ATOM     79  C   UNL A   1      47.223  33.651  27.469  1.00  0.00     0.022 A 
BRANCH  76  80
ATOM     80  S   UNL A   1      45.230  34.002  25.582  1.00  0.00     0.124 S 
ATOM     81  O   UNL A   1      44.569  32.942  24.830  1.00  0.00    -0.237 OA
ATOM     82  O   UNL A   1      44.366  34.885  26.355  1.00  0.00    -0.237 OA
ATOM     83  O   UNL A   1      46.315  34.681  24.870  1.00  0.00    -0.744 OA
ENDBRANCH  76  80
ENDBRANCH  49  73
BRANCH  61  84
ATOM     84  C   UNL A   1      45.397  26.129  32.204  1.00  0.00     0.023 A 
ATOM     85  C   UNL A   1      44.219  26.677  32.758  1.00  0.00     0.031 A 
ATOM     86  C   UNL A   1      46.440  25.797  33.084  1.00  0.00     0.131 A 
ATOM     87  C   UNL A   1      44.124  26.887  34.145  1.00  0.00     0.055 A 
ATOM     88  C   UNL A   1      46.337  25.992  34.461  1.00  0.00     0.041 A 
ATOM     89  F   UNL A   1      47.567  25.230  32.619  1.00  0.00    -0.206 F 
ATOM     90  C   UNL A   1      45.179  26.543  34.997  1.00  0.00     0.022 A 
BRANCH  87  91
ATOM     91  S   UNL A   1      42.600  27.581  34.861  1.00  0.00     0.124 S 
ATOM     92  O   UNL A   1      41.643  26.489  34.728  1.00  0.00    -0.237 OA
ATOM     93  O   UNL A   1      43.012  27.912  36.223  1.00  0.00    -0.237 OA
ATOM     94  O   UNL A   1      42.326  28.740  34.009  1.00  0.00    -0.744 OA
ENDBRANCH  87  91
ENDBRANCH  61  84
ENDBRANCH  35  36
ENDBRANCH  28  30
ENDBRANCH  27  28
ENDBRANCH   1  27
TORSDOF 16
ENDMDL
MODEL 2
REMARK VINA RESULT:     -12.6      2.131      6.783
REMARK SMILES Cn1c(=O)c2c(-c3ccc(Cl)cc3)n(CC(=O)OCCOC(=O)c3ccc(-c4c5nc(c(-c6cc(S(=O)(=O)[O-])ccc6F)c6ccc([nH]6)c(-c6cc(S(=O)(=O)[O-])ccc6F)c6nc(c(-c7cc(S(=O)(=O)[O-])ccc7F)c7ccc4[nH]7)C=C6)C=C5)cc3)cc2n(C)c1=O
REMARK SMILES IDX 20 1 19 2 18 3 16 4 17 5 15 6 14 7 1 8 2 9 3 10 91 11 4 12
REMARK SMILES IDX 5 13 89 14 92 15 6 16 88 17 90 18 87 19 7 20 8 21 13 22 9 23
REMARK SMILES IDX 12 24 10 25 11 26 21 27 22 28 23 29 24 30 25 31 86 32 26 33
REMARK SMILES IDX 85 34 27 35 28 36 29 37 79 38 30 39 84 40 78 41 80 42 31 43
REMARK SMILES IDX 83 44 77 45 76 46 32 48 64 49 44 50 63 51 45 52 48 53 62 54
REMARK SMILES IDX 81 55 46 56 47 57 61 59 82 60 49 61 33 62 34 63 42 64 35 65
REMARK SMILES IDX 41 66 43 67 40 68 36 69 37 70 38 71 39 72 65 73 66 74 74 75
REMARK SMILES IDX 67 76 73 77 75 78 72 79 68 80 69 81 70 82 71 83 50 84 51 85
REMARK SMILES IDX 59 86 52 87 58 88 60 89 57 90 53 91 54 92 55 93 56 94
REMARK H PARENT 80 47 48 58
REMARK Flexibility Score: inf
ROOT
ATOM      1  C   UNL A   1      33.660  31.094  27.543  1.00  0.00     0.275 C 
ENDROOT
BRANCH   1   2
ATOM      2  C   UNL A   1      32.700  30.392  26.573  1.00  0.00     0.274 C 
BRANCH   2   3
ATOM      3  O   UNL A   1      31.713  29.561  27.231  1.00  0.00    -0.461 OA
BRANCH   3   4
ATOM      4  C   UNL A   1      31.860  28.221  27.066  1.00  0.00     0.326 C 
ATOM      5  O   UNL A   1      31.112  27.389  27.582  1.00  0.00    -0.250 OA
BRANCH   4   6
ATOM      6  C   UNL A   1      33.022  27.776  26.212  1.00  0.00     0.244 C 
BRANCH   6   7
ATOM      7  N   UNL A   1      32.987  26.441  25.617  1.00  0.00    -0.333 N 
ATOM      8  C   UNL A   1      32.163  21.432  22.593  1.00  0.00     0.158 C 
ATOM      9  N   UNL A   1      32.619  22.445  23.519  1.00  0.00    -0.263 N 
ATOM     10  C   UNL A   1      32.002  23.704  23.407  1.00  0.00     0.265 A 
ATOM     11  C   UNL A   1      33.578  22.055  24.476  1.00  0.00     0.330 A 
ATOM     12  O   UNL A   1      31.116  23.954  22.608  1.00  0.00    -0.268 OA
ATOM     13  C   UNL A   1      32.522  24.675  24.344  1.00  0.00     0.090 A 
ATOM     14  N   UNL A   1      34.082  23.054  25.312  1.00  0.00    -0.295 N 
ATOM     15  O   UNL A   1      33.927  20.876  24.562  1.00  0.00    -0.248 OA
ATOM     16  C   UNL A   1      32.192  26.013  24.560  1.00  0.00     0.064 A 
ATOM     17  C   UNL A   1      33.551  24.329  25.224  1.00  0.00     0.076 A 
ATOM     18  C   UNL A   1      35.116  22.712  26.292  1.00  0.00     0.155 C 
ATOM     19  C   UNL A   1      33.888  25.450  25.923  1.00  0.00     0.114 A 
BRANCH  16  20
ATOM     20  C   UNL A   1      31.197  26.861  23.906  1.00  0.00    -0.001 A 
ATOM     21  C   UNL A   1      31.592  27.853  22.998  1.00  0.00     0.012 A 
ATOM     22  C   UNL A   1      29.840  26.706  24.202  1.00  0.00     0.012 A 
ATOM     23  C   UNL A   1      30.648  28.713  22.434  1.00  0.00     0.021 A 
ATOM     24  C   UNL A   1      28.891  27.550  23.621  1.00  0.00     0.021 A 
ATOM     25  C   UNL A   1      29.301  28.558  22.750  1.00  0.00     0.041 A 
ATOM     26  Cl  UNL A   1      28.136  29.621  22.062  1.00  0.00    -0.084 Cl
ENDBRANCH  16  20
ENDBRANCH   6   7
ENDBRANCH   4   6
ENDBRANCH   3   4
ENDBRANCH   2   3
ENDBRANCH   1   2
BRANCH   1  27
ATOM     27  O   UNL A   1      35.025  30.709  27.339  1.00  0.00    -0.458 OA
BRANCH  27  28
ATOM     28  C   UNL A   1      35.876  31.559  27.947  1.00  0.00     0.338 C 
ATOM     29  O   UNL A   1      36.107  32.713  27.609  1.00  0.00    -0.246 OA
BRANCH  28  30
ATOM     30  C   UNL A   1      36.635  30.938  29.023  1.00  0.00     0.060 A 
ATOM     31  C   UNL A   1      37.644  31.720  29.601  1.00  0.00     0.016 A 
ATOM     32  C   UNL A   1      36.689  29.546  29.005  1.00  0.00     0.016 A 
ATOM     33  C   UNL A   1      38.849  31.130  29.898  1.00  0.00     0.010 A 
ATOM     34  C   UNL A   1      37.885  28.953  29.334  1.00  0.00     0.010 A 
ATOM     35  C   UNL A   1      38.978  29.762  29.674  1.00  0.00    -0.014 A 
BRANCH  35  36
ATOM     36  C   UNL A   1      40.292  29.166  29.824  1.00  0.00     0.031 A 
ATOM     37  C   UNL A   1      40.725  28.973  31.227  1.00  0.00     0.074 A 
ATOM     38  C   UNL A   1      40.933  28.646  28.760  1.00  0.00     0.049 A 
ATOM     39  N   UNL A   1      41.831  29.320  31.795  1.00  0.00    -0.248 NA
ATOM     40  C   UNL A   1      39.729  28.396  32.148  1.00  0.00     0.031 C 
ATOM     41  C   UNL A   1      40.427  28.527  27.388  1.00  0.00     0.029 A 
ATOM     42  N   UNL A   1      42.101  27.950  28.722  1.00  0.00    -0.354 N 
ATOM     43  C   UNL A   1      41.745  28.838  33.098  1.00  0.00     0.074 A 
ATOM     44  C   UNL A   1      40.379  28.442  33.306  1.00  0.00     0.031 C 
ATOM     45  C   UNL A   1      41.149  27.592  26.735  1.00  0.00     0.029 A 
ATOM     46  C   UNL A   1      42.219  27.132  27.605  1.00  0.00     0.049 A 
ATOM     47  H   UNL A   1      42.794  28.020  29.416  1.00  0.00     0.167 HD
ATOM     48  C   UNL A   1      42.839  28.587  33.864  1.00  0.00     0.034 A 
ATOM     49  C   UNL A   1      43.056  26.072  27.468  1.00  0.00     0.034 A 
ATOM     50  C   UNL A   1      44.011  29.260  33.380  1.00  0.00     0.049 A 
ATOM     51  C   UNL A   1      44.121  26.217  28.492  1.00  0.00     0.074 A 
ATOM     52  C   UNL A   1      44.355  30.585  33.195  1.00  0.00     0.029 A 
ATOM     53  N   UNL A   1      44.924  28.533  32.655  1.00  0.00    -0.354 N 
ATOM     54  N   UNL A   1      44.997  27.184  28.502  1.00  0.00    -0.248 NA
ATOM     55  C   UNL A   1      43.958  25.521  29.760  1.00  0.00     0.031 C 
ATOM     56  C   UNL A   1      45.144  30.603  32.008  1.00  0.00     0.029 A 
ATOM     57  C   UNL A   1      45.264  29.287  31.558  1.00  0.00     0.049 A 
ATOM     58  H   UNL A   1      45.270  27.640  32.880  1.00  0.00     0.167 HD
ATOM     59  C   UNL A   1      45.186  27.486  29.843  1.00  0.00     0.074 A 
ATOM     60  C   UNL A   1      44.615  26.357  30.568  1.00  0.00     0.031 C 
ATOM     61  C   UNL A   1      45.533  28.744  30.241  1.00  0.00     0.034 A 
BRANCH  48  62
ATOM     62  C   UNL A   1      42.876  27.500  34.904  1.00  0.00     0.023 A 
ATOM     63  C   UNL A   1      43.531  26.295  34.609  1.00  0.00     0.031 A 
ATOM     64  C   UNL A   1      42.098  27.514  36.088  1.00  0.00     0.131 A 
ATOM     65  C   UNL A   1      43.399  25.184  35.460  1.00  0.00     0.055 A 
ATOM     66  C   UNL A   1      42.036  26.436  36.971  1.00  0.00     0.041 A 
ATOM     67  F   UNL A   1      41.286  28.535  36.398  1.00  0.00    -0.206 F 
ATOM     68  C   UNL A   1      42.677  25.254  36.652  1.00  0.00     0.022 A 
BRANCH  65  69
ATOM     69  S   UNL A   1      44.059  23.588  34.914  1.00  0.00     0.124 S 
ATOM     70  O   UNL A   1      45.128  23.998  34.009  1.00  0.00    -0.237 OA
ATOM     71  O   UNL A   1      44.477  22.987  36.177  1.00  0.00    -0.237 OA
ATOM     72  O   UNL A   1      42.912  22.949  34.271  1.00  0.00    -0.744 OA
ENDBRANCH  65  69
ENDBRANCH  48  62
BRANCH  49  73
ATOM     73  C   UNL A   1      42.793  24.801  26.740  1.00  0.00     0.023 A 
ATOM     74  C   UNL A   1      43.779  24.198  25.935  1.00  0.00     0.031 A 
ATOM     75  C   UNL A   1      41.639  24.030  27.010  1.00  0.00     0.131 A 
ATOM     76  C   UNL A   1      43.591  22.891  25.437  1.00  0.00     0.055 A 
ATOM     77  C   UNL A   1      41.447  22.746  26.495  1.00  0.00     0.041 A 
ATOM     78  F   UNL A   1      40.693  24.459  27.860  1.00  0.00    -0.206 F 
ATOM     79  C   UNL A   1      42.430  22.165  25.714  1.00  0.00     0.022 A 
BRANCH  76  80
ATOM     80  S   UNL A   1      44.931  22.054  24.535  1.00  0.00     0.124 S 
ATOM     81  O   UNL A   1      44.302  20.794  24.153  1.00  0.00    -0.237 OA
ATOM     82  O   UNL A   1      45.220  22.988  23.453  1.00  0.00    -0.237 OA
ATOM     83  O   UNL A   1      45.990  21.938  25.539  1.00  0.00    -0.744 OA
ENDBRANCH  76  80
ENDBRANCH  49  73
BRANCH  61  84
ATOM     84  C   UNL A   1      45.982  29.725  29.179  1.00  0.00     0.023 A 
ATOM     85  C   UNL A   1      45.099  30.420  28.325  1.00  0.00     0.031 A 
ATOM     86  C   UNL A   1      47.343  30.070  29.133  1.00  0.00     0.131 A 
ATOM     87  C   UNL A   1      45.591  31.411  27.456  1.00  0.00     0.055 A 
ATOM     88  C   UNL A   1      47.826  31.063  28.281  1.00  0.00     0.041 A 
ATOM     89  F   UNL A   1      48.224  29.474  29.955  1.00  0.00    -0.206 F 
ATOM     90  C   UNL A   1      46.951  31.735  27.435  1.00  0.00     0.022 A 
BRANCH  87  91
ATOM     91  S   UNL A   1      44.448  32.317  26.365  1.00  0.00     0.124 S 
ATOM     92  O   UNL A   1      45.306  32.740  25.264  1.00  0.00    -0.237 OA
ATOM     93  O   UNL A   1      43.446  31.302  26.044  1.00  0.00    -0.237 OA
ATOM     94  O   UNL A   1      43.963  33.405  27.215  1.00  0.00    -0.744 OA
ENDBRANCH  87  91
ENDBRANCH  61  84
ENDBRANCH  35  36
ENDBRANCH  28  30
ENDBRANCH  27  28
ENDBRANCH   1  27
TORSDOF 16
ENDMDL
MODEL 3
REMARK VINA RESULT:     -12.4      4.092      9.943
REMARK SMILES Cn1c(=O)c2c(-c3ccc(Cl)cc3)n(CC(=O)OCCOC(=O)c3ccc(-c4c5nc(c(-c6cc(S(=O)(=O)[O-])ccc6F)c6ccc([nH]6)c(-c6cc(S(=O)(=O)[O-])ccc6F)c6nc(c(-c7cc(S(=O)(=O)[O-])ccc7F)c7ccc4[nH]7)C=C6)C=C5)cc3)cc2n(C)c1=O
REMARK SMILES IDX 20 1 19 2 18 3 16 4 17 5 15 6 14 7 1 8 2 9 3 10 91 11 4 12
REMARK SMILES IDX 5 13 89 14 92 15 6 16 88 17 90 18 87 19 7 20 8 21 13 22 9 23
REMARK SMILES IDX 12 24 10 25 11 26 21 27 22 28 23 29 24 30 25 31 86 32 26 33
REMARK SMILES IDX 85 34 27 35 28 36 29 37 79 38 30 39 84 40 78 41 80 42 31 43
REMARK SMILES IDX 83 44 77 45 76 46 32 48 64 49 44 50 63 51 45 52 48 53 62 54
REMARK SMILES IDX 81 55 46 56 47 57 61 59 82 60 49 61 33 62 34 63 42 64 35 65
REMARK SMILES IDX 41 66 43 67 40 68 36 69 37 70 38 71 39 72 65 73 66 74 74 75
REMARK SMILES IDX 67 76 73 77 75 78 72 79 68 80 69 81 70 82 71 83 50 84 51 85
REMARK SMILES IDX 59 86 52 87 58 88 60 89 57 90 53 91 54 92 55 93 56 94
REMARK H PARENT 80 47 48 58
REMARK Flexibility Score: inf
ROOT
ATOM      1  C   UNL A   1      39.678  22.728  26.323  1.00  0.00     0.275 C 
ENDROOT
BRANCH   1   2
ATOM      2  C   UNL A   1      38.159  22.783  26.111  1.00  0.00     0.274 C 
BRANCH   2   3
ATOM      3  O   UNL A   1      37.754  22.547  24.740  1.00  0.00    -0.461 OA
BRANCH   3   4
ATOM      4  C   UNL A   1      36.564  23.088  24.372  1.00  0.00     0.326 C 
ATOM      5  O   UNL A   1      36.251  23.301  23.200  1.00  0.00    -0.250 OA
BRANCH   4   6
ATOM      6  C   UNL A   1      35.616  23.444  25.491  1.00  0.00     0.244 C 
BRANCH   6   7
ATOM      7  N   UNL A   1      34.453  24.276  25.189  1.00  0.00    -0.333 N 
ATOM      8  C   UNL A   1      29.297  26.776  23.744  1.00  0.00     0.158 C 
ATOM      9  N   UNL A   1      30.656  26.524  24.173  1.00  0.00    -0.263 N 
ATOM     10  C   UNL A   1      31.073  25.182  24.139  1.00  0.00     0.265 A 
ATOM     11  C   UNL A   1      31.438  27.645  24.515  1.00  0.00     0.330 A 
ATOM     12  O   UNL A   1      30.369  24.264  23.752  1.00  0.00    -0.268 OA
ATOM     13  C   UNL A   1      32.430  24.998  24.603  1.00  0.00     0.090 A 
ATOM     14  N   UNL A   1      32.719  27.396  25.013  1.00  0.00    -0.295 N 
ATOM     15  O   UNL A   1      30.997  28.785  24.357  1.00  0.00    -0.248 OA
ATOM     16  C   UNL A   1      33.213  23.850  24.728  1.00  0.00     0.064 A 
ATOM     17  C   UNL A   1      33.179  26.091  25.049  1.00  0.00     0.076 A 
ATOM     18  C   UNL A   1      33.558  28.523  25.428  1.00  0.00     0.155 C 
ATOM     19  C   UNL A   1      34.376  25.613  25.496  1.00  0.00     0.114 A 
BRANCH  16  20
ATOM     20  C   UNL A   1      32.906  22.456  24.413  1.00  0.00    -0.001 A 
ATOM     21  C   UNL A   1      32.809  21.500  25.432  1.00  0.00     0.012 A 
ATOM     22  C   UNL A   1      32.733  22.059  23.083  1.00  0.00     0.012 A 
ATOM     23  C   UNL A   1      32.595  20.155  25.124  1.00  0.00     0.021 A 
ATOM     24  C   UNL A   1      32.494  20.718  22.774  1.00  0.00     0.021 A 
ATOM     25  C   UNL A   1      32.439  19.771  23.794  1.00  0.00     0.041 A 
ATOM     26  Cl  UNL A   1      32.181  18.114  23.411  1.00  0.00    -0.084 Cl
ENDBRANCH  16  20
ENDBRANCH   6   7
ENDBRANCH   4   6
ENDBRANCH   3   4
ENDBRANCH   2   3
ENDBRANCH   1   2
BRANCH   1  27
ATOM     27  O   UNL A   1      40.121  23.622  27.351  1.00  0.00    -0.458 OA
BRANCH  27  28
ATOM     28  C   UNL A   1      40.663  24.742  26.834  1.00  0.00     0.338 C 
ATOM     29  O   UNL A   1      41.710  24.812  26.204  1.00  0.00    -0.246 OA
BRANCH  28  30
ATOM     30  C   UNL A   1      39.937  25.950  27.198  1.00  0.00     0.060 A 
ATOM     31  C   UNL A   1      40.435  27.153  26.679  1.00  0.00     0.016 A 
ATOM     32  C   UNL A   1      39.222  25.894  28.392  1.00  0.00     0.016 A 
ATOM     33  C   UNL A   1      40.479  28.258  27.495  1.00  0.00     0.010 A 
ATOM     34  C   UNL A   1      39.237  27.011  29.195  1.00  0.00     0.010 A 
ATOM     35  C   UNL A   1      39.956  28.141  28.779  1.00  0.00    -0.014 A 
BRANCH  35  36
ATOM     36  C   UNL A   1      40.149  29.245  29.700  1.00  0.00     0.031 A 
ATOM     37  C   UNL A   1      38.982  30.145  29.837  1.00  0.00     0.074 A 
ATOM     38  C   UNL A   1      41.229  29.284  30.504  1.00  0.00     0.049 A 
ATOM     39  N   UNL A   1      38.928  31.433  29.751  1.00  0.00    -0.248 NA
ATOM     40  C   UNL A   1      37.667  29.497  29.994  1.00  0.00     0.031 C 
ATOM     41  C   UNL A   1      42.274  28.263  30.639  1.00  0.00     0.029 A 
ATOM     42  N   UNL A   1      41.521  30.162  31.500  1.00  0.00    -0.354 N 
ATOM     43  C   UNL A   1      37.607  31.768  30.028  1.00  0.00     0.074 A 
ATOM     44  C   UNL A   1      36.851  30.546  29.994  1.00  0.00     0.031 C 
ATOM     45  C   UNL A   1      42.917  28.448  31.811  1.00  0.00     0.029 A 
ATOM     46  C   UNL A   1      42.400  29.649  32.447  1.00  0.00     0.049 A 
ATOM     47  H   UNL A   1      41.147  31.072  31.546  1.00  0.00     0.167 HD
ATOM     48  C   UNL A   1      37.239  32.994  30.484  1.00  0.00     0.034 A 
ATOM     49  C   UNL A   1      42.586  30.115  33.708  1.00  0.00     0.034 A 
ATOM     50  C   UNL A   1      38.239  33.994  30.233  1.00  0.00     0.049 A 
ATOM     51  C   UNL A   1      42.060  31.502  33.748  1.00  0.00     0.074 A 
ATOM     52  C   UNL A   1      38.818  34.512  29.091  1.00  0.00     0.029 A 
ATOM     53  N   UNL A   1      39.059  34.366  31.269  1.00  0.00    -0.354 N 
ATOM     54  N   UNL A   1      42.569  32.497  33.074  1.00  0.00    -0.248 NA
ATOM     55  C   UNL A   1      40.695  31.710  34.212  1.00  0.00     0.031 C 
ATOM     56  C   UNL A   1      40.179  34.751  29.439  1.00  0.00     0.029 A 
ATOM     57  C   UNL A   1      40.343  34.397  30.780  1.00  0.00     0.049 A 
ATOM     58  H   UNL A   1      38.780  34.572  32.191  1.00  0.00     0.167 HD
ATOM     59  C   UNL A   1      41.482  33.261  32.678  1.00  0.00     0.074 A 
ATOM     60  C   UNL A   1      40.373  32.796  33.504  1.00  0.00     0.031 C 
ATOM     61  C   UNL A   1      41.517  33.999  31.531  1.00  0.00     0.034 A 
BRANCH  48  62
ATOM     62  C   UNL A   1      36.066  33.206  31.404  1.00  0.00     0.023 A 
ATOM     63  C   UNL A   1      35.015  34.036  30.988  1.00  0.00     0.031 A 
ATOM     64  C   UNL A   1      36.048  32.808  32.762  1.00  0.00     0.131 A 
ATOM     65  C   UNL A   1      34.017  34.433  31.895  1.00  0.00     0.055 A 
ATOM     66  C   UNL A   1      35.013  33.137  33.638  1.00  0.00     0.041 A 
ATOM     67  F   UNL A   1      37.075  32.163  33.333  1.00  0.00    -0.206 F 
ATOM     68  C   UNL A   1      33.995  33.968  33.211  1.00  0.00     0.022 A 
BRANCH  65  69
ATOM     69  S   UNL A   1      32.824  35.694  31.379  1.00  0.00     0.124 S 
ATOM     70  O   UNL A   1      32.523  35.281  30.012  1.00  0.00    -0.237 OA
ATOM     71  O   UNL A   1      31.755  35.516  32.357  1.00  0.00    -0.237 OA
ATOM     72  O   UNL A   1      33.576  36.942  31.499  1.00  0.00    -0.744 OA
ENDBRANCH  65  69
ENDBRANCH  48  62
BRANCH  49  73
ATOM     73  C   UNL A   1      42.878  29.319  34.931  1.00  0.00     0.023 A 
ATOM     74  C   UNL A   1      42.083  28.215  35.296  1.00  0.00     0.031 A 
ATOM     75  C   UNL A   1      44.091  29.486  35.638  1.00  0.00     0.131 A 
ATOM     76  C   UNL A   1      42.504  27.343  36.324  1.00  0.00     0.055 A 
ATOM     77  C   UNL A   1      44.491  28.635  36.670  1.00  0.00     0.041 A 
ATOM     78  F   UNL A   1      44.979  30.432  35.293  1.00  0.00    -0.206 F 
ATOM     79  C   UNL A   1      43.702  27.550  37.010  1.00  0.00     0.022 A 
BRANCH  76  80
ATOM     80  S   UNL A   1      41.558  25.832  36.685  1.00  0.00     0.124 S 
ATOM     81  O   UNL A   1      40.740  26.247  37.819  1.00  0.00    -0.237 OA
ATOM     82  O   UNL A   1      40.853  25.588  35.432  1.00  0.00    -0.237 OA
ATOM     83  O   UNL A   1      42.599  24.852  36.998  1.00  0.00    -0.744 OA
ENDBRANCH  76  80
ENDBRANCH  49  73
BRANCH  61  84
ATOM     84  C   UNL A   1      42.856  34.190  30.852  1.00  0.00     0.023 A 
ATOM     85  C   UNL A   1      43.339  33.362  29.816  1.00  0.00     0.031 A 
ATOM     86  C   UNL A   1      43.600  35.338  31.172  1.00  0.00     0.131 A 
ATOM     87  C   UNL A   1      44.535  33.688  29.150  1.00  0.00     0.055 A 
ATOM     88  C   UNL A   1      44.777  35.667  30.500  1.00  0.00     0.041 A 
ATOM     89  F   UNL A   1      43.166  36.187  32.119  1.00  0.00    -0.206 F 
ATOM     90  C   UNL A   1      45.252  34.840  29.489  1.00  0.00     0.022 A 
BRANCH  87  91
ATOM     91  S   UNL A   1      45.149  32.627  27.804  1.00  0.00     0.124 S 
ATOM     92  O   UNL A   1      43.994  32.506  26.923  1.00  0.00    -0.237 OA
ATOM     93  O   UNL A   1      46.276  33.399  27.283  1.00  0.00    -0.237 OA
ATOM     94  O   UNL A   1      45.524  31.391  28.494  1.00  0.00    -0.744 OA
ENDBRANCH  87  91
ENDBRANCH  61  84
ENDBRANCH  35  36
ENDBRANCH  28  30
ENDBRANCH  27  28
ENDBRANCH   1  27
TORSDOF 16
ENDMDL
