MODEL 1
REMARK VINA RESULT:      -9.9      0.000      0.000
REMARK SMILES O=C(COCCNC(=O)c1cc(Cl)c2c(c1)OCCO2)OCCOC(=O)c1ccc(-c2c3nc(c(-c4cc(S(=O)(=O)[O-])ccc4F)c4ccc([nH]4)c(-c4cc(S(=O)(=O)[O-])ccc4F)c4nc(c(-c5cc(S(=O)(=O)[O-])ccc5F)c5ccc2[nH]5)C=C4)C=C3)cc1
REMARK SMILES IDX 22 1 21 2 2 3 1 4 3 5 4 6 5 7 6 8 7 9 8 10 9 12 10 13 11 14
REMARK SMILES IDX 16 15 12 16 15 17 13 18 14 19 17 20 20 21 18 22 19 23 23 24
REMARK SMILES IDX 24 25 25 26 26 27 27 28 28 29 89 30 29 31 88 32 30 33 31 34
REMARK SMILES IDX 32 35 82 36 33 37 87 38 81 39 83 40 34 41 86 42 80 43 79 44
REMARK SMILES IDX 35 46 67 47 47 48 66 49 48 50 51 51 65 52 84 53 49 54 50 55
REMARK SMILES IDX 64 57 85 58 52 59 36 60 37 61 45 62 38 63 44 64 46 65 43 66
REMARK SMILES IDX 39 67 40 68 41 69 42 70 68 71 69 72 77 73 70 74 76 75 78 76
REMARK SMILES IDX 75 77 71 78 72 79 73 80 74 81 53 82 54 83 62 84 55 85 61 86
REMARK SMILES IDX 63 87 60 88 56 89 57 90 58 91 59 92
REMARK H PARENT 7 11 83 45 51 56
REMARK Flexibility Score: inf
ROOT
ATOM      1  C   UNL A   1      34.823  34.890  28.173  1.00  0.00     0.274 C 
ENDROOT
BRANCH   1   2
ATOM      2  O   UNL A   1      34.231  36.201  28.255  1.00  0.00    -0.460 OA
BRANCH   2   3
ATOM      3  C   UNL A   1      33.220  36.544  29.085  1.00  0.00     0.332 C 
ATOM      4  O   UNL A   1      32.057  36.419  28.704  1.00  0.00    -0.250 OA
BRANCH   3   5
ATOM      5  C   UNL A   1      33.536  37.019  30.508  1.00  0.00     0.282 C 
BRANCH   5   6
ATOM      6  O   UNL A   1      32.434  37.211  31.379  1.00  0.00    -0.368 OA
BRANCH   6   7
ATOM      7  C   UNL A   1      32.265  36.231  32.409  1.00  0.00     0.182 C 
BRANCH   7   8
ATOM      8  C   UNL A   1      33.561  35.538  32.865  1.00  0.00     0.144 C 
BRANCH   8   9
ATOM      9  N   UNL A   1      33.584  34.104  32.592  1.00  0.00    -0.350 N 
ATOM     10  C   UNL A   1      34.618  33.227  32.410  1.00  0.00     0.251 C 
ATOM     11  H   UNL A   1      32.693  33.692  32.529  1.00  0.00     0.163 HD
ATOM     12  O   UNL A   1      34.390  32.064  32.086  1.00  0.00    -0.269 OA
BRANCH  10  13
ATOM     13  C   UNL A   1      36.014  33.672  32.551  1.00  0.00     0.045 A 
ATOM     14  C   UNL A   1      36.780  34.035  31.441  1.00  0.00     0.038 A 
ATOM     15  C   UNL A   1      36.548  33.743  33.840  1.00  0.00     0.064 A 
ATOM     16  C   UNL A   1      38.118  34.384  31.618  1.00  0.00     0.087 A 
ATOM     17  C   UNL A   1      37.883  34.099  34.012  1.00  0.00     0.163 A 
ATOM     18  Cl  UNL A   1      39.061  34.748  30.218  1.00  0.00    -0.080 Cl
ATOM     19  C   UNL A   1      38.678  34.419  32.902  1.00  0.00     0.179 A 
ATOM     20  O   UNL A   1      38.344  34.105  35.304  1.00  0.00    -0.486 OA
ATOM     21  O   UNL A   1      40.006  34.751  33.028  1.00  0.00    -0.485 OA
ATOM     22  C   UNL A   1      39.773  34.122  35.354  1.00  0.00     0.271 C 
ATOM     23  C   UNL A   1      40.335  35.127  34.367  1.00  0.00     0.271 C 
ENDBRANCH  10  13
ENDBRANCH   8   9
ENDBRANCH   7   8
ENDBRANCH   6   7
ENDBRANCH   5   6
ENDBRANCH   3   5
ENDBRANCH   2   3
ENDBRANCH   1   2
BRANCH   1  24
ATOM     24  C   UNL A   1      33.763  33.798  28.328  1.00  0.00     0.275 C 
BRANCH  24  25
ATOM     25  O   UNL A   1      34.299  32.674  29.052  1.00  0.00    -0.458 OA
BRANCH  25  26
ATOM     26  C   UNL A   1      34.576  31.565  28.314  1.00  0.00     0.338 C 
ATOM     27  O   UNL A   1      33.974  31.173  27.335  1.00  0.00    -0.246 OA
BRANCH  26  28
ATOM     28  C   UNL A   1      35.844  30.977  28.804  1.00  0.00     0.060 A 
ATOM     29  C   UNL A   1      37.046  31.610  28.467  1.00  0.00     0.016 A 
ATOM     30  C   UNL A   1      35.855  29.827  29.600  1.00  0.00     0.016 A 
ATOM     31  C   UNL A   1      38.258  31.105  28.948  1.00  0.00     0.010 A 
ATOM     32  C   UNL A   1      37.073  29.307  30.054  1.00  0.00     0.010 A 
ATOM     33  C   UNL A   1      38.283  29.941  29.730  1.00  0.00    -0.014 A 
BRANCH  33  34
ATOM     34  C   UNL A   1      39.579  29.334  30.123  1.00  0.00     0.031 A 
ATOM     35  C   UNL A   1      40.322  29.890  31.306  1.00  0.00     0.074 A 
ATOM     36  C   UNL A   1      40.095  28.296  29.438  1.00  0.00     0.049 A 
ATOM     37  N   UNL A   1      41.430  29.467  31.856  1.00  0.00    -0.248 NA
ATOM     38  C   UNL A   1      39.736  31.073  31.957  1.00  0.00     0.031 C 
ATOM     39  C   UNL A   1      39.471  27.651  28.284  1.00  0.00     0.029 A 
ATOM     40  N   UNL A   1      41.266  27.601  29.619  1.00  0.00    -0.354 N 
ATOM     41  C   UNL A   1      41.651  30.300  32.944  1.00  0.00     0.074 A 
ATOM     42  C   UNL A   1      40.591  31.285  32.948  1.00  0.00     0.031 C 
ATOM     43  C   UNL A   1      40.268  26.656  27.858  1.00  0.00     0.029 A 
ATOM     44  C   UNL A   1      41.464  26.598  28.700  1.00  0.00     0.049 A 
ATOM     45  H   UNL A   1      41.905  27.802  30.340  1.00  0.00     0.167 HD
ATOM     46  C   UNL A   1      42.637  30.240  33.870  1.00  0.00     0.034 A 
ATOM     47  C   UNL A   1      42.489  25.730  28.557  1.00  0.00     0.034 A 
ATOM     48  C   UNL A   1      43.723  29.298  33.843  1.00  0.00     0.049 A 
ATOM     49  C   UNL A   1      43.634  25.757  29.541  1.00  0.00     0.074 A 
ATOM     50  C   UNL A   1      44.772  29.178  34.738  1.00  0.00     0.029 A 
ATOM     51  N   UNL A   1      43.912  28.326  32.873  1.00  0.00    -0.354 N 
ATOM     52  N   UNL A   1      43.785  26.494  30.616  1.00  0.00    -0.248 NA
ATOM     53  C   UNL A   1      44.747  24.825  29.297  1.00  0.00     0.031 C 
ATOM     54  C   UNL A   1      45.620  28.165  34.285  1.00  0.00     0.029 A 
ATOM     55  C   UNL A   1      45.074  27.621  33.133  1.00  0.00     0.049 A 
ATOM     56  H   UNL A   1      43.309  28.162  32.112  1.00  0.00     0.167 HD
ATOM     57  C   UNL A   1      44.986  26.086  31.196  1.00  0.00     0.074 A 
ATOM     58  C   UNL A   1      45.516  25.032  30.360  1.00  0.00     0.031 C 
ATOM     59  C   UNL A   1      45.590  26.548  32.319  1.00  0.00     0.034 A 
BRANCH  46  60
ATOM     60  C   UNL A   1      42.588  31.210  35.016  1.00  0.00     0.023 A 
ATOM     61  C   UNL A   1      43.200  32.471  34.910  1.00  0.00     0.031 A 
ATOM     62  C   UNL A   1      42.039  30.829  36.252  1.00  0.00     0.131 A 
ATOM     63  C   UNL A   1      43.276  33.297  36.037  1.00  0.00     0.055 A 
ATOM     64  C   UNL A   1      42.092  31.668  37.365  1.00  0.00     0.041 A 
ATOM     65  F   UNL A   1      41.440  29.634  36.392  1.00  0.00    -0.206 F 
ATOM     66  C   UNL A   1      42.721  32.905  37.262  1.00  0.00     0.022 A 
BRANCH  63  67
ATOM     67  S   UNL A   1      44.115  34.902  35.963  1.00  0.00     0.124 S 
ATOM     68  O   UNL A   1      43.431  35.653  37.014  1.00  0.00    -0.237 OA
ATOM     69  O   UNL A   1      45.497  34.536  36.254  1.00  0.00    -0.237 OA
ATOM     70  O   UNL A   1      43.855  35.369  34.605  1.00  0.00    -0.744 OA
ENDBRANCH  63  67
ENDBRANCH  46  60
BRANCH  47  71
ATOM     71  C   UNL A   1      42.454  24.716  27.464  1.00  0.00     0.023 A 
ATOM     72  C   UNL A   1      41.668  23.556  27.570  1.00  0.00     0.031 A 
ATOM     73  C   UNL A   1      43.227  24.891  26.305  1.00  0.00     0.131 A 
ATOM     74  C   UNL A   1      41.697  22.602  26.545  1.00  0.00     0.055 A 
ATOM     75  C   UNL A   1      43.213  23.964  25.262  1.00  0.00     0.041 A 
ATOM     76  F   UNL A   1      43.995  25.984  26.164  1.00  0.00    -0.206 F 
ATOM     77  C   UNL A   1      42.450  22.807  25.384  1.00  0.00     0.022 A 
BRANCH  74  78
ATOM     78  S   UNL A   1      40.805  21.032  26.709  1.00  0.00     0.124 S 
ATOM     79  O   UNL A   1      39.510  21.349  26.115  1.00  0.00    -0.237 OA
ATOM     80  O   UNL A   1      41.651  20.130  25.930  1.00  0.00    -0.237 OA
ATOM     81  O   UNL A   1      40.795  20.789  28.147  1.00  0.00    -0.744 OA
ENDBRANCH  74  78
ENDBRANCH  47  71
BRANCH  59  82
ATOM     82  C   UNL A   1      46.893  25.923  32.754  1.00  0.00     0.023 A 
ATOM     83  C   UNL A   1      48.088  26.238  32.078  1.00  0.00     0.031 A 
ATOM     84  C   UNL A   1      46.930  24.916  33.734  1.00  0.00     0.131 A 
ATOM     85  C   UNL A   1      49.262  25.531  32.369  1.00  0.00     0.055 A 
ATOM     86  C   UNL A   1      48.111  24.242  34.048  1.00  0.00     0.041 A 
ATOM     87  F   UNL A   1      45.815  24.572  34.399  1.00  0.00    -0.206 F 
ATOM     88  C   UNL A   1      49.281  24.539  33.356  1.00  0.00     0.022 A 
BRANCH  85  89
ATOM     89  S   UNL A   1      50.790  25.818  31.433  1.00  0.00     0.124 S 
ATOM     90  O   UNL A   1      50.532  25.078  30.199  1.00  0.00    -0.237 OA
ATOM     91  O   UNL A   1      50.798  27.272  31.297  1.00  0.00    -0.237 OA
ATOM     92  O   UNL A   1      51.835  25.261  32.285  1.00  0.00    -0.744 OA
ENDBRANCH  85  89
ENDBRANCH  59  82
ENDBRANCH  33  34
ENDBRANCH  26  28
ENDBRANCH  25  26
ENDBRANCH  24  25
ENDBRANCH   1  24
TORSDOF 19
ENDMDL
MODEL 2
REMARK VINA RESULT:      -9.8      1.608      7.743
REMARK SMILES O=C(COCCNC(=O)c1cc(Cl)c2c(c1)OCCO2)OCCOC(=O)c1ccc(-c2c3nc(c(-c4cc(S(=O)(=O)[O-])ccc4F)c4ccc([nH]4)c(-c4cc(S(=O)(=O)[O-])ccc4F)c4nc(c(-c5cc(S(=O)(=O)[O-])ccc5F)c5ccc2[nH]5)C=C4)C=C3)cc1
REMARK SMILES IDX 22 1 21 2 2 3 1 4 3 5 4 6 5 7 6 8 7 9 8 10 9 12 10 13 11 14
REMARK SMILES IDX 16 15 12 16 15 17 13 18 14 19 17 20 20 21 18 22 19 23 23 24
REMARK SMILES IDX 24 25 25 26 26 27 27 28 28 29 89 30 29 31 88 32 30 33 31 34
REMARK SMILES IDX 32 35 82 36 33 37 87 38 81 39 83 40 34 41 86 42 80 43 79 44
REMARK SMILES IDX 35 46 67 47 47 48 66 49 48 50 51 51 65 52 84 53 49 54 50 55
REMARK SMILES IDX 64 57 85 58 52 59 36 60 37 61 45 62 38 63 44 64 46 65 43 66
REMARK SMILES IDX 39 67 40 68 41 69 42 70 68 71 69 72 77 73 70 74 76 75 78 76
REMARK SMILES IDX 75 77 71 78 72 79 73 80 74 81 53 82 54 83 62 84 55 85 61 86
REMARK SMILES IDX 63 87 60 88 56 89 57 90 58 91 59 92
REMARK H PARENT 7 11 83 45 51 56
REMARK Flexibility Score: inf
ROOT
ATOM      1  C   UNL A   1      34.778  33.965  28.047  1.00  0.00     0.274 C 
ENDROOT
BRANCH   1   2
ATOM      2  O   UNL A   1      34.014  35.186  28.071  1.00  0.00    -0.460 OA
BRANCH   2   3
ATOM      3  C   UNL A   1      33.274  35.618  29.117  1.00  0.00     0.332 C 
ATOM      4  O   UNL A   1      32.378  36.437  28.925  1.00  0.00    -0.250 OA
BRANCH   3   5
ATOM      5  C   UNL A   1      33.519  35.029  30.512  1.00  0.00     0.282 C 
BRANCH   5   6
ATOM      6  O   UNL A   1      32.558  35.327  31.510  1.00  0.00    -0.368 OA
BRANCH   6   7
ATOM      7  C   UNL A   1      32.950  36.286  32.499  1.00  0.00     0.182 C 
BRANCH   7   8
ATOM      8  C   UNL A   1      34.417  36.185  32.953  1.00  0.00     0.144 C 
BRANCH   8   9
ATOM      9  N   UNL A   1      34.639  35.187  33.996  1.00  0.00    -0.350 N 
ATOM     10  C   UNL A   1      35.636  34.270  34.183  1.00  0.00     0.251 C 
ATOM     11  H   UNL A   1      33.944  35.173  34.693  1.00  0.00     0.163 HD
ATOM     12  O   UNL A   1      35.558  33.452  35.095  1.00  0.00    -0.269 OA
BRANCH  10  13
ATOM     13  C   UNL A   1      36.790  34.219  33.270  1.00  0.00     0.045 A 
ATOM     14  C   UNL A   1      36.659  33.774  31.953  1.00  0.00     0.038 A 
ATOM     15  C   UNL A   1      38.026  34.652  33.757  1.00  0.00     0.064 A 
ATOM     16  C   UNL A   1      37.793  33.677  31.147  1.00  0.00     0.087 A 
ATOM     17  C   UNL A   1      39.153  34.562  32.945  1.00  0.00     0.163 A 
ATOM     18  Cl  UNL A   1      37.610  33.047  29.550  1.00  0.00    -0.080 Cl
ATOM     19  C   UNL A   1      39.045  34.070  31.636  1.00  0.00     0.179 A 
ATOM     20  O   UNL A   1      40.336  34.967  33.509  1.00  0.00    -0.486 OA
ATOM     21  O   UNL A   1      40.139  33.942  30.813  1.00  0.00    -0.485 OA
ATOM     22  C   UNL A   1      41.464  34.509  32.758  1.00  0.00     0.271 C 
ATOM     23  C   UNL A   1      41.245  34.722  31.272  1.00  0.00     0.271 C 
ENDBRANCH  10  13
ENDBRANCH   8   9
ENDBRANCH   7   8
ENDBRANCH   6   7
ENDBRANCH   5   6
ENDBRANCH   3   5
ENDBRANCH   2   3
ENDBRANCH   1   2
BRANCH   1  24
ATOM     24  C   UNL A   1      33.859  32.744  27.983  1.00  0.00     0.275 C 
BRANCH  24  25
ATOM     25  O   UNL A   1      34.454  31.628  28.672  1.00  0.00    -0.458 OA
BRANCH  25  26
ATOM     26  C   UNL A   1      34.766  30.548  27.904  1.00  0.00     0.338 C 
ATOM     27  O   UNL A   1      34.127  30.113  26.968  1.00  0.00    -0.246 OA
BRANCH  26  28
ATOM     28  C   UNL A   1      36.109  30.063  28.294  1.00  0.00     0.060 A 
ATOM     29  C   UNL A   1      36.267  29.479  29.556  1.00  0.00     0.016 A 
ATOM     30  C   UNL A   1      37.201  30.163  27.425  1.00  0.00     0.016 A 
ATOM     31  C   UNL A   1      37.512  28.973  29.940  1.00  0.00     0.010 A 
ATOM     32  C   UNL A   1      38.453  29.682  27.825  1.00  0.00     0.010 A 
ATOM     33  C   UNL A   1      38.618  29.085  29.085  1.00  0.00    -0.014 A 
BRANCH  33  34
ATOM     34  C   UNL A   1      39.965  28.671  29.551  1.00  0.00     0.031 A 
ATOM     35  C   UNL A   1      40.633  27.488  28.906  1.00  0.00     0.074 A 
ATOM     36  C   UNL A   1      40.594  29.338  30.537  1.00  0.00     0.049 A 
ATOM     37  N   UNL A   1      41.829  27.003  29.114  1.00  0.00    -0.248 NA
ATOM     38  C   UNL A   1      39.854  26.763  27.890  1.00  0.00     0.031 C 
ATOM     39  C   UNL A   1      40.068  30.509  31.234  1.00  0.00     0.029 A 
ATOM     40  N   UNL A   1      41.819  29.122  31.121  1.00  0.00    -0.354 N 
ATOM     41  C   UNL A   1      41.966  25.946  28.225  1.00  0.00     0.074 A 
ATOM     42  C   UNL A   1      40.713  25.826  27.511  1.00  0.00     0.031 C 
ATOM     43  C   UNL A   1      40.964  30.907  32.156  1.00  0.00     0.029 A 
ATOM     44  C   UNL A   1      42.122  30.013  32.122  1.00  0.00     0.049 A 
ATOM     45  H   UNL A   1      42.424  28.395  30.847  1.00  0.00     0.167 HD
ATOM     46  C   UNL A   1      43.044  25.156  28.008  1.00  0.00     0.034 A 
ATOM     47  C   UNL A   1      43.211  30.103  32.916  1.00  0.00     0.034 A 
ATOM     48  C   UNL A   1      44.273  25.234  28.750  1.00  0.00     0.049 A 
ATOM     49  C   UNL A   1      44.356  29.136  32.726  1.00  0.00     0.074 A 
ATOM     50  C   UNL A   1      45.411  24.460  28.600  1.00  0.00     0.029 A 
ATOM     51  N   UNL A   1      44.526  26.121  29.784  1.00  0.00    -0.354 N 
ATOM     52  N   UNL A   1      44.506  28.197  31.823  1.00  0.00    -0.248 NA
ATOM     53  C   UNL A   1      45.488  29.250  33.660  1.00  0.00     0.031 C 
ATOM     54  C   UNL A   1      46.335  24.848  29.573  1.00  0.00     0.029 A 
ATOM     55  C   UNL A   1      45.791  25.896  30.298  1.00  0.00     0.049 A 
ATOM     56  H   UNL A   1      43.899  26.809  30.104  1.00  0.00     0.167 HD
ATOM     57  C   UNL A   1      45.762  27.638  32.055  1.00  0.00     0.074 A 
ATOM     58  C   UNL A   1      46.335  28.349  33.176  1.00  0.00     0.031 C 
ATOM     59  C   UNL A   1      46.378  26.624  31.396  1.00  0.00     0.034 A 
BRANCH  46  60
ATOM     60  C   UNL A   1      42.961  24.138  26.905  1.00  0.00     0.023 A 
ATOM     61  C   UNL A   1      42.366  22.886  27.133  1.00  0.00     0.031 A 
ATOM     62  C   UNL A   1      43.585  24.374  25.668  1.00  0.00     0.131 A 
ATOM     63  C   UNL A   1      42.436  21.900  26.142  1.00  0.00     0.055 A 
ATOM     64  C   UNL A   1      43.627  23.397  24.674  1.00  0.00     0.041 A 
ATOM     65  F   UNL A   1      44.161  25.560  25.410  1.00  0.00    -0.206 F 
ATOM     66  C   UNL A   1      43.058  22.150  24.914  1.00  0.00     0.022 A 
BRANCH  63  67
ATOM     67  S   UNL A   1      41.740  20.249  26.420  1.00  0.00     0.124 S 
ATOM     68  O   UNL A   1      42.310  19.892  27.717  1.00  0.00    -0.237 OA
ATOM     69  O   UNL A   1      40.306  20.519  26.419  1.00  0.00    -0.237 OA
ATOM     70  O   UNL A   1      42.238  19.467  25.293  1.00  0.00    -0.744 OA
ENDBRANCH  63  67
ENDBRANCH  46  60
BRANCH  47  71
ATOM     71  C   UNL A   1      43.298  31.188  33.934  1.00  0.00     0.023 A 
ATOM     72  C   UNL A   1      42.532  31.149  35.111  1.00  0.00     0.031 A 
ATOM     73  C   UNL A   1      44.142  32.292  33.728  1.00  0.00     0.131 A 
ATOM     74  C   UNL A   1      42.603  32.210  36.022  1.00  0.00     0.055 A 
ATOM     75  C   UNL A   1      44.250  33.323  34.662  1.00  0.00     0.041 A 
ATOM     76  F   UNL A   1      44.889  32.371  32.615  1.00  0.00    -0.206 F 
ATOM     77  C   UNL A   1      43.471  33.288  35.815  1.00  0.00     0.022 A 
BRANCH  74  78
ATOM     78  S   UNL A   1      41.528  32.260  37.482  1.00  0.00     0.124 S 
ATOM     79  O   UNL A   1      41.376  33.695  37.704  1.00  0.00    -0.237 OA
ATOM     80  O   UNL A   1      40.337  31.569  36.994  1.00  0.00    -0.237 OA
ATOM     81  O   UNL A   1      42.292  31.544  38.497  1.00  0.00    -0.744 OA
ENDBRANCH  74  78
ENDBRANCH  47  71
BRANCH  59  82
ATOM     82  C   UNL A   1      47.762  26.208  31.833  1.00  0.00     0.023 A 
ATOM     83  C   UNL A   1      48.890  26.632  31.103  1.00  0.00     0.031 A 
ATOM     84  C   UNL A   1      47.953  25.284  32.874  1.00  0.00     0.131 A 
ATOM     85  C   UNL A   1      50.153  26.108  31.405  1.00  0.00     0.055 A 
ATOM     86  C   UNL A   1      49.220  24.795  33.196  1.00  0.00     0.041 A 
ATOM     87  F   UNL A   1      46.908  24.841  33.592  1.00  0.00    -0.206 F 
ATOM     88  C   UNL A   1      50.326  25.197  32.452  1.00  0.00     0.022 A 
BRANCH  85  89
ATOM     89  S   UNL A   1      51.609  26.531  30.408  1.00  0.00     0.124 S 
ATOM     90  O   UNL A   1      51.239  26.008  29.094  1.00  0.00    -0.237 OA
ATOM     91  O   UNL A   1      51.640  27.987  30.512  1.00  0.00    -0.237 OA
ATOM     92  O   UNL A   1      52.705  25.830  31.069  1.00  0.00    -0.744 OA
ENDBRANCH  85  89
ENDBRANCH  59  82
ENDBRANCH  33  34
ENDBRANCH  26  28
ENDBRANCH  25  26
ENDBRANCH  24  25
ENDBRANCH   1  24
TORSDOF 19
ENDMDL
MODEL 3
REMARK VINA RESULT:      -9.6      1.672      8.023
REMARK SMILES O=C(COCCNC(=O)c1cc(Cl)c2c(c1)OCCO2)OCCOC(=O)c1ccc(-c2c3nc(c(-c4cc(S(=O)(=O)[O-])ccc4F)c4ccc([nH]4)c(-c4cc(S(=O)(=O)[O-])ccc4F)c4nc(c(-c5cc(S(=O)(=O)[O-])ccc5F)c5ccc2[nH]5)C=C4)C=C3)cc1
REMARK SMILES IDX 22 1 21 2 2 3 1 4 3 5 4 6 5 7 6 8 7 9 8 10 9 12 10 13 11 14
REMARK SMILES IDX 16 15 12 16 15 17 13 18 14 19 17 20 20 21 18 22 19 23 23 24
REMARK SMILES IDX 24 25 25 26 26 27 27 28 28 29 89 30 29 31 88 32 30 33 31 34
REMARK SMILES IDX 32 35 82 36 33 37 87 38 81 39 83 40 34 41 86 42 80 43 79 44
REMARK SMILES IDX 35 46 67 47 47 48 66 49 48 50 51 51 65 52 84 53 49 54 50 55
REMARK SMILES IDX 64 57 85 58 52 59 36 60 37 61 45 62 38 63 44 64 46 65 43 66
REMARK SMILES IDX 39 67 40 68 41 69 42 70 68 71 69 72 77 73 70 74 76 75 78 76
REMARK SMILES IDX 75 77 71 78 72 79 73 80 74 81 53 82 54 83 62 84 55 85 61 86
REMARK SMILES IDX 63 87 60 88 56 89 57 90 58 91 59 92
REMARK H PARENT 7 11 83 45 51 56
REMARK Flexibility Score: inf
ROOT
ATOM      1  C   UNL A   1      34.604  34.225  28.002  1.00  0.00     0.274 C 
ENDROOT
BRANCH   1   2
ATOM      2  O   UNL A   1      33.912  35.476  28.184  1.00  0.00    -0.460 OA
BRANCH   2   3
ATOM      3  C   UNL A   1      33.195  35.813  29.280  1.00  0.00     0.332 C 
ATOM      4  O   UNL A   1      32.153  36.453  29.146  1.00  0.00    -0.250 OA
BRANCH   3   5
ATOM      5  C   UNL A   1      33.654  35.335  30.662  1.00  0.00     0.282 C 
BRANCH   5   6
ATOM      6  O   UNL A   1      32.682  35.331  31.694  1.00  0.00    -0.368 OA
BRANCH   6   7
ATOM      7  C   UNL A   1      32.933  36.202  32.802  1.00  0.00     0.182 C 
BRANCH   7   8
ATOM      8  C   UNL A   1      34.380  36.185  33.326  1.00  0.00     0.144 C 
BRANCH   8   9
ATOM      9  N   UNL A   1      34.611  35.194  34.373  1.00  0.00    -0.350 N 
ATOM     10  C   UNL A   1      35.597  34.261  34.544  1.00  0.00     0.251 C 
ATOM     11  H   UNL A   1      33.934  35.198  35.088  1.00  0.00     0.163 HD
ATOM     12  O   UNL A   1      35.528  33.453  35.465  1.00  0.00    -0.269 OA
BRANCH  10  13
ATOM     13  C   UNL A   1      36.726  34.180  33.603  1.00  0.00     0.045 A 
ATOM     14  C   UNL A   1      38.028  34.496  33.997  1.00  0.00     0.038 A 
ATOM     15  C   UNL A   1      36.459  33.755  32.299  1.00  0.00     0.064 A 
ATOM     16  C   UNL A   1      39.054  34.472  33.053  1.00  0.00     0.087 A 
ATOM     17  C   UNL A   1      37.488  33.725  31.362  1.00  0.00     0.163 A 
ATOM     18  Cl  UNL A   1      40.637  34.945  33.553  1.00  0.00    -0.080 Cl
ATOM     19  C   UNL A   1      38.792  34.087  31.731  1.00  0.00     0.179 A 
ATOM     20  O   UNL A   1      37.138  33.338  30.093  1.00  0.00    -0.486 OA
ATOM     21  O   UNL A   1      39.829  34.095  30.830  1.00  0.00    -0.485 OA
ATOM     22  C   UNL A   1      38.147  33.680  29.139  1.00  0.00     0.271 C 
ATOM     23  C   UNL A   1      39.526  33.326  29.663  1.00  0.00     0.271 C 
ENDBRANCH  10  13
ENDBRANCH   8   9
ENDBRANCH   7   8
ENDBRANCH   6   7
ENDBRANCH   5   6
ENDBRANCH   3   5
ENDBRANCH   2   3
ENDBRANCH   1   2
BRANCH   1  24
ATOM     24  C   UNL A   1      33.624  33.051  27.998  1.00  0.00     0.275 C 
BRANCH  24  25
ATOM     25  O   UNL A   1      34.194  31.915  28.674  1.00  0.00    -0.458 OA
BRANCH  25  26
ATOM     26  C   UNL A   1      34.537  30.859  27.885  1.00  0.00     0.338 C 
ATOM     27  O   UNL A   1      33.966  30.487  26.881  1.00  0.00    -0.246 OA
BRANCH  26  28
ATOM     28  C   UNL A   1      35.828  30.312  28.362  1.00  0.00     0.060 A 
ATOM     29  C   UNL A   1      35.869  29.703  29.621  1.00  0.00     0.016 A 
ATOM     30  C   UNL A   1      36.983  30.380  27.577  1.00  0.00     0.016 A 
ATOM     31  C   UNL A   1      37.061  29.139  30.085  1.00  0.00     0.010 A 
ATOM     32  C   UNL A   1      38.182  29.841  28.057  1.00  0.00     0.010 A 
ATOM     33  C   UNL A   1      38.231  29.218  29.314  1.00  0.00    -0.014 A 
BRANCH  33  34
ATOM     34  C   UNL A   1      39.522  28.740  29.868  1.00  0.00     0.031 A 
ATOM     35  C   UNL A   1      40.224  27.589  29.204  1.00  0.00     0.074 A 
ATOM     36  C   UNL A   1      40.071  29.323  30.950  1.00  0.00     0.049 A 
ATOM     37  N   UNL A   1      41.388  27.062  29.483  1.00  0.00    -0.248 NA
ATOM     38  C   UNL A   1      39.528  26.954  28.074  1.00  0.00     0.031 C 
ATOM     39  C   UNL A   1      39.504  30.456  31.679  1.00  0.00     0.029 A 
ATOM     40  N   UNL A   1      41.234  29.038  31.625  1.00  0.00    -0.354 N 
ATOM     41  C   UNL A   1      41.585  26.065  28.537  1.00  0.00     0.074 A 
ATOM     42  C   UNL A   1      40.401  26.025  27.708  1.00  0.00     0.031 C 
ATOM     43  C   UNL A   1      40.319  30.768  32.703  1.00  0.00     0.029 A 
ATOM     44  C   UNL A   1      41.460  29.851  32.710  1.00  0.00     0.049 A 
ATOM     45  H   UNL A   1      41.847  28.317  31.356  1.00  0.00     0.167 HD
ATOM     46  C   UNL A   1      42.664  25.266  28.363  1.00  0.00     0.034 A 
ATOM     47  C   UNL A   1      42.473  29.859  33.602  1.00  0.00     0.034 A 
ATOM     48  C   UNL A   1      43.823  25.263  29.215  1.00  0.00     0.049 A 
ATOM     49  C   UNL A   1      43.614  28.881  33.447  1.00  0.00     0.074 A 
ATOM     50  C   UNL A   1      44.955  24.474  29.113  1.00  0.00     0.029 A 
ATOM     51  N   UNL A   1      43.997  26.071  30.327  1.00  0.00    -0.354 N 
ATOM     52  N   UNL A   1      43.829  28.003  32.497  1.00  0.00    -0.248 NA
ATOM     53  C   UNL A   1      44.659  28.902  34.485  1.00  0.00     0.031 C 
ATOM     54  C   UNL A   1      45.794  24.772  30.190  1.00  0.00     0.029 A 
ATOM     55  C   UNL A   1      45.205  25.781  30.936  1.00  0.00     0.049 A 
ATOM     56  H   UNL A   1      43.355  26.750  30.638  1.00  0.00     0.167 HD
ATOM     57  C   UNL A   1      45.048  27.398  32.801  1.00  0.00     0.074 A 
ATOM     58  C   UNL A   1      45.529  28.017  34.016  1.00  0.00     0.031 C 
ATOM     59  C   UNL A   1      45.703  26.418  32.130  1.00  0.00     0.034 A 
BRANCH  46  60
ATOM     60  C   UNL A   1      42.664  24.329  27.188  1.00  0.00     0.023 A 
ATOM     61  C   UNL A   1      42.137  23.032  27.310  1.00  0.00     0.031 A 
ATOM     62  C   UNL A   1      43.300  24.688  25.987  1.00  0.00     0.131 A 
ATOM     63  C   UNL A   1      42.285  22.126  26.253  1.00  0.00     0.055 A 
ATOM     64  C   UNL A   1      43.420  23.790  24.927  1.00  0.00     0.041 A 
ATOM     65  F   UNL A   1      43.812  25.921  25.830  1.00  0.00    -0.206 F 
ATOM     66  C   UNL A   1      42.918  22.499  25.062  1.00  0.00     0.022 A 
BRANCH  63  67
ATOM     67  S   UNL A   1      41.679  20.423  26.393  1.00  0.00     0.124 S 
ATOM     68  O   UNL A   1      42.025  20.089  27.774  1.00  0.00    -0.237 OA
ATOM     69  O   UNL A   1      40.254  20.584  26.127  1.00  0.00    -0.237 OA
ATOM     70  O   UNL A   1      42.436  19.699  25.377  1.00  0.00    -0.744 OA
ENDBRANCH  63  67
ENDBRANCH  46  60
BRANCH  47  71
ATOM     71  C   UNL A   1      42.487  30.870  34.698  1.00  0.00     0.023 A 
ATOM     72  C   UNL A   1      43.166  32.092  34.555  1.00  0.00     0.031 A 
ATOM     73  C   UNL A   1      41.832  30.612  35.913  1.00  0.00     0.131 A 
ATOM     74  C   UNL A   1      43.198  32.997  35.624  1.00  0.00     0.055 A 
ATOM     75  C   UNL A   1      41.822  31.539  36.957  1.00  0.00     0.041 A 
ATOM     76  F   UNL A   1      41.174  29.456  36.093  1.00  0.00    -0.206 F 
ATOM     77  C   UNL A   1      42.515  32.737  36.817  1.00  0.00     0.022 A 
BRANCH  74  78
ATOM     78  S   UNL A   1      44.178  34.520  35.526  1.00  0.00     0.124 S 
ATOM     79  O   UNL A   1      45.515  34.050  35.877  1.00  0.00    -0.237 OA
ATOM     80  O   UNL A   1      43.992  34.902  34.128  1.00  0.00    -0.237 OA
ATOM     81  O   UNL A   1      43.545  35.400  36.502  1.00  0.00    -0.744 OA
ENDBRANCH  74  78
ENDBRANCH  47  71
BRANCH  59  82
ATOM     82  C   UNL A   1      47.034  25.939  32.658  1.00  0.00     0.023 A 
ATOM     83  C   UNL A   1      47.087  24.873  33.577  1.00  0.00     0.031 A 
ATOM     84  C   UNL A   1      48.225  26.625  32.367  1.00  0.00     0.131 A 
ATOM     85  C   UNL A   1      48.300  24.543  34.195  1.00  0.00     0.055 A 
ATOM     86  C   UNL A   1      49.440  26.267  32.955  1.00  0.00     0.041 A 
ATOM     87  F   UNL A   1      48.225  27.655  31.505  1.00  0.00    -0.206 F 
ATOM     88  C   UNL A   1      49.478  25.230  33.883  1.00  0.00     0.022 A 
BRANCH  85  89
ATOM     89  S   UNL A   1      48.385  23.262  35.476  1.00  0.00     0.124 S 
ATOM     90  O   UNL A   1      49.326  23.848  36.428  1.00  0.00    -0.237 OA
ATOM     91  O   UNL A   1      47.000  23.191  35.933  1.00  0.00    -0.237 OA
ATOM     92  O   UNL A   1      48.874  22.084  34.766  1.00  0.00    -0.744 OA
ENDBRANCH  85  89
ENDBRANCH  59  82
ENDBRANCH  33  34
ENDBRANCH  26  28
ENDBRANCH  25  26
ENDBRANCH  24  25
ENDBRANCH   1  24
TORSDOF 19
ENDMDL
