MODEL 1
REMARK VINA RESULT:     -11.1      0.000      0.000
REMARK SMILES C[C@H](NC(=O)OC(C)(C)C)C(=O)N[C@@H](C)C(=O)N1CCC[C@H]1C(=O)OCCOC(=O)c1ccc(-c2c3nc(c(-c4cc(S(=O)(=O)[O-])ccc4F)c4ccc([nH]4)c(-c4cc(S(=O)(=O)[O-])ccc4F)c4nc(c(-c5cc(S(=O)(=O)[O-])ccc5F)c5ccc2[nH]5)C=C4)C=C3)cc1
REMARK SMILES IDX 23 1 24 2 22 3 18 4 19 5 20 6 21 7 16 8 17 9 14 10 15 11
REMARK SMILES IDX 13 12 11 13 12 14 2 16 1 17 3 18 4 19 5 21 6 22 7 23 8 24
REMARK SMILES IDX 9 25 10 26 25 27 26 28 27 29 28 30 29 31 30 32 31 33 32 34
REMARK SMILES IDX 93 35 33 36 92 37 34 38 35 39 36 40 86 41 37 42 91 43 85 44
REMARK SMILES IDX 87 45 38 46 90 47 84 48 83 49 39 51 71 52 51 53 70 54 52 55
REMARK SMILES IDX 55 56 69 57 88 58 53 59 54 60 68 62 89 63 56 64 40 65 41 66
REMARK SMILES IDX 49 67 42 68 48 69 50 70 47 71 43 72 44 73 45 74 46 75 72 76
REMARK SMILES IDX 73 77 81 78 74 79 80 80 82 81 79 82 75 83 76 84 77 85 78 86
REMARK SMILES IDX 57 87 58 88 66 89 59 90 65 91 67 92 64 93 60 94 61 95 62 96
REMARK SMILES IDX 63 97
REMARK H PARENT 13 15 3 20 87 50 55 61
REMARK Flexibility Score: inf
ROOT
ATOM      1  C   UNL A   1      32.298  27.039  25.353  1.00  0.00     0.328 C 
ATOM      2  O   UNL A   1      31.696  26.003  25.612  1.00  0.00    -0.250 OA
ENDROOT
BRANCH   1   3
ATOM      3  C   UNL A   1      32.381  27.673  23.957  1.00  0.00     0.195 C 
ATOM      4  N   UNL A   1      32.083  26.662  22.953  1.00  0.00    -0.327 N 
ATOM      5  C   UNL A   1      30.683  26.724  22.577  1.00  0.00     0.120 C 
ATOM      6  C   UNL A   1      30.364  28.203  22.659  1.00  0.00     0.024 C 
ATOM      7  C   UNL A   1      31.380  28.786  23.650  1.00  0.00     0.039 C 
BRANCH   4   8
ATOM      8  C   UNL A   1      33.095  25.845  22.531  1.00  0.00     0.245 C 
ATOM      9  O   UNL A   1      33.914  26.240  21.694  1.00  0.00    -0.272 OA
BRANCH   8  10
ATOM     10  C   UNL A   1      33.030  24.350  22.872  1.00  0.00     0.168 C 
ATOM     11  C   UNL A   1      33.281  23.549  21.594  1.00  0.00     0.041 C 
BRANCH  10  12
ATOM     12  N   UNL A   1      31.826  23.891  23.557  1.00  0.00    -0.343 N 
ATOM     13  C   UNL A   1      31.663  22.906  24.487  1.00  0.00     0.243 C 
ATOM     14  O   UNL A   1      30.602  22.880  25.112  1.00  0.00    -0.273 OA
ATOM     15  H   UNL A   1      31.001  24.369  23.312  1.00  0.00     0.164 HD
BRANCH  13  16
ATOM     16  C   UNL A   1      32.784  21.904  24.793  1.00  0.00     0.171 C 
ATOM     17  C   UNL A   1      32.342  20.478  24.478  1.00  0.00     0.042 C 
BRANCH  16  18
ATOM     18  N   UNL A   1      33.228  22.082  26.171  1.00  0.00    -0.310 N 
ATOM     19  C   UNL A   1      34.335  22.745  26.588  1.00  0.00     0.408 C 
ATOM     20  H   UNL A   1      32.666  21.678  26.871  1.00  0.00     0.167 HD
ATOM     21  O   UNL A   1      34.621  22.814  27.770  1.00  0.00    -0.225 OA
BRANCH  19  22
ATOM     22  O   UNL A   1      35.009  23.305  25.561  1.00  0.00    -0.444 OA
BRANCH  22  23
ATOM     23  C   UNL A   1      36.338  22.851  25.223  1.00  0.00     0.106 C 
ATOM     24  C   UNL A   1      37.417  23.704  25.901  1.00  0.00     0.056 C 
ATOM     25  C   UNL A   1      36.494  21.361  25.537  1.00  0.00     0.056 C 
ATOM     26  C   UNL A   1      36.434  23.057  23.705  1.00  0.00     0.056 C 
ENDBRANCH  22  23
ENDBRANCH  19  22
ENDBRANCH  16  18
ENDBRANCH  13  16
ENDBRANCH  10  12
ENDBRANCH   8  10
ENDBRANCH   4   8
ENDBRANCH   1   3
BRANCH   1  27
ATOM     27  O   UNL A   1      32.974  27.788  26.269  1.00  0.00    -0.461 OA
BRANCH  27  28
ATOM     28  C   UNL A   1      32.172  28.393  27.300  1.00  0.00     0.274 C 
BRANCH  28  29
ATOM     29  C   UNL A   1      32.039  29.899  27.078  1.00  0.00     0.275 C 
BRANCH  29  30
ATOM     30  O   UNL A   1      33.269  30.466  26.589  1.00  0.00    -0.458 OA
BRANCH  30  31
ATOM     31  C   UNL A   1      33.791  31.433  27.376  1.00  0.00     0.338 C 
ATOM     32  O   UNL A   1      33.224  32.432  27.790  1.00  0.00    -0.246 OA
BRANCH  31  33
ATOM     33  C   UNL A   1      35.160  31.089  27.776  1.00  0.00     0.060 A 
ATOM     34  C   UNL A   1      35.444  29.769  28.120  1.00  0.00     0.016 A 
ATOM     35  C   UNL A   1      36.095  32.092  28.014  1.00  0.00     0.016 A 
ATOM     36  C   UNL A   1      36.607  29.460  28.810  1.00  0.00     0.010 A 
ATOM     37  C   UNL A   1      37.322  31.755  28.596  1.00  0.00     0.010 A 
ATOM     38  C   UNL A   1      37.578  30.439  29.027  1.00  0.00    -0.014 A 
BRANCH  38  39
ATOM     39  C   UNL A   1      38.854  30.082  29.701  1.00  0.00     0.031 A 
ATOM     40  C   UNL A   1      39.792  29.093  29.067  1.00  0.00     0.074 A 
ATOM     41  C   UNL A   1      39.166  30.648  30.886  1.00  0.00     0.049 A 
ATOM     42  N   UNL A   1      40.823  28.481  29.587  1.00  0.00    -0.248 NA
ATOM     43  C   UNL A   1      39.523  28.735  27.666  1.00  0.00     0.031 C 
ATOM     44  C   UNL A   1      38.378  31.678  31.568  1.00  0.00     0.029 A 
ATOM     45  N   UNL A   1      40.224  30.434  31.732  1.00  0.00    -0.354 N 
ATOM     46  C   UNL A   1      41.295  27.624  28.598  1.00  0.00     0.074 A 
ATOM     47  C   UNL A   1      40.427  27.790  27.450  1.00  0.00     0.031 C 
ATOM     48  C   UNL A   1      38.990  32.023  32.709  1.00  0.00     0.029 A 
ATOM     49  C   UNL A   1      40.141  31.153  32.903  1.00  0.00     0.049 A 
ATOM     50  H   UNL A   1      40.970  29.827  31.524  1.00  0.00     0.167 HD
ATOM     51  C   UNL A   1      42.352  26.775  28.655  1.00  0.00     0.034 A 
ATOM     52  C   UNL A   1      40.858  31.073  34.040  1.00  0.00     0.034 A 
ATOM     53  C   UNL A   1      43.210  26.651  29.810  1.00  0.00     0.049 A 
ATOM     54  C   UNL A   1      41.964  30.054  34.117  1.00  0.00     0.074 A 
ATOM     55  C   UNL A   1      44.315  25.833  29.979  1.00  0.00     0.029 A 
ATOM     56  N   UNL A   1      43.060  27.361  30.995  1.00  0.00    -0.354 N 
ATOM     57  N   UNL A   1      42.367  29.206  33.200  1.00  0.00    -0.248 NA
ATOM     58  C   UNL A   1      42.703  29.975  35.381  1.00  0.00     0.031 C 
ATOM     59  C   UNL A   1      44.778  25.988  31.290  1.00  0.00     0.029 A 
ATOM     60  C   UNL A   1      44.027  26.974  31.910  1.00  0.00     0.049 A 
ATOM     61  H   UNL A   1      42.368  28.042  31.161  1.00  0.00     0.167 HD
ATOM     62  C   UNL A   1      43.429  28.511  33.769  1.00  0.00     0.074 A 
ATOM     63  C   UNL A   1      43.611  29.051  35.101  1.00  0.00     0.031 C 
ATOM     64  C   UNL A   1      44.189  27.520  33.238  1.00  0.00     0.034 A 
BRANCH  51  65
ATOM     65  C   UNL A   1      42.592  25.870  27.468  1.00  0.00     0.023 A 
ATOM     66  C   UNL A   1      42.054  24.574  27.391  1.00  0.00     0.031 A 
ATOM     67  C   UNL A   1      43.396  26.310  26.399  1.00  0.00     0.131 A 
ATOM     68  C   UNL A   1      42.384  23.743  26.309  1.00  0.00     0.055 A 
ATOM     69  C   UNL A   1      43.649  25.509  25.286  1.00  0.00     0.041 A 
ATOM     70  F   UNL A   1      43.961  27.528  26.426  1.00  0.00    -0.206 F 
ATOM     71  C   UNL A   1      43.153  24.210  25.242  1.00  0.00     0.022 A 
BRANCH  68  72
ATOM     72  S   UNL A   1      41.918  21.991  26.390  1.00  0.00     0.124 S 
ATOM     73  O   UNL A   1      40.469  22.062  26.210  1.00  0.00    -0.237 OA
ATOM     74  O   UNL A   1      42.671  21.412  25.283  1.00  0.00    -0.237 OA
ATOM     75  O   UNL A   1      42.353  21.581  27.723  1.00  0.00    -0.744 OA
ENDBRANCH  68  72
ENDBRANCH  51  65
BRANCH  52  76
ATOM     76  C   UNL A   1      40.504  31.917  35.217  1.00  0.00     0.023 A 
ATOM     77  C   UNL A   1      39.476  31.540  36.094  1.00  0.00     0.031 A 
ATOM     78  C   UNL A   1      41.167  33.135  35.467  1.00  0.00     0.131 A 
ATOM     79  C   UNL A   1      39.111  32.390  37.149  1.00  0.00     0.055 A 
ATOM     80  C   UNL A   1      40.847  33.941  36.559  1.00  0.00     0.041 A 
ATOM     81  F   UNL A   1      42.155  33.550  34.658  1.00  0.00    -0.206 F 
ATOM     82  C   UNL A   1      39.801  33.577  37.400  1.00  0.00     0.022 A 
BRANCH  79  83
ATOM     83  S   UNL A   1      37.644  31.968  38.128  1.00  0.00     0.124 S 
ATOM     84  O   UNL A   1      37.362  30.613  37.666  1.00  0.00    -0.237 OA
ATOM     85  O   UNL A   1      38.145  32.090  39.492  1.00  0.00    -0.237 OA
ATOM     86  O   UNL A   1      36.667  32.979  37.730  1.00  0.00    -0.744 OA
ENDBRANCH  79  83
ENDBRANCH  52  76
BRANCH  64  87
ATOM     87  C   UNL A   1      45.328  27.004  34.083  1.00  0.00     0.023 A 
ATOM     88  C   UNL A   1      45.172  25.909  34.951  1.00  0.00     0.031 A 
ATOM     89  C   UNL A   1      46.588  27.625  34.018  1.00  0.00     0.131 A 
ATOM     90  C   UNL A   1      46.244  25.503  35.759  1.00  0.00     0.055 A 
ATOM     91  C   UNL A   1      47.669  27.172  34.773  1.00  0.00     0.041 A 
ATOM     92  F   UNL A   1      46.789  28.679  33.211  1.00  0.00    -0.206 F 
ATOM     93  C   UNL A   1      47.497  26.113  35.659  1.00  0.00     0.022 A 
BRANCH  90  94
ATOM     94  S   UNL A   1      45.956  24.226  37.013  1.00  0.00     0.124 S 
ATOM     95  O   UNL A   1      47.232  24.205  37.722  1.00  0.00    -0.237 OA
ATOM     96  O   UNL A   1      44.822  24.766  37.755  1.00  0.00    -0.237 OA
ATOM     97  O   UNL A   1      45.666  23.030  36.224  1.00  0.00    -0.744 OA
ENDBRANCH  90  94
ENDBRANCH  64  87
ENDBRANCH  38  39
ENDBRANCH  31  33
ENDBRANCH  30  31
ENDBRANCH  29  30
ENDBRANCH  28  29
ENDBRANCH  27  28
ENDBRANCH   1  27
TORSDOF 21
ENDMDL
MODEL 2
REMARK VINA RESULT:     -10.2      2.944      3.827
REMARK SMILES C[C@H](NC(=O)OC(C)(C)C)C(=O)N[C@@H](C)C(=O)N1CCC[C@H]1C(=O)OCCOC(=O)c1ccc(-c2c3nc(c(-c4cc(S(=O)(=O)[O-])ccc4F)c4ccc([nH]4)c(-c4cc(S(=O)(=O)[O-])ccc4F)c4nc(c(-c5cc(S(=O)(=O)[O-])ccc5F)c5ccc2[nH]5)C=C4)C=C3)cc1
REMARK SMILES IDX 23 1 24 2 22 3 18 4 19 5 20 6 21 7 16 8 17 9 14 10 15 11
REMARK SMILES IDX 13 12 11 13 12 14 2 16 1 17 3 18 4 19 5 21 6 22 7 23 8 24
REMARK SMILES IDX 9 25 10 26 25 27 26 28 27 29 28 30 29 31 30 32 31 33 32 34
REMARK SMILES IDX 93 35 33 36 92 37 34 38 35 39 36 40 86 41 37 42 91 43 85 44
REMARK SMILES IDX 87 45 38 46 90 47 84 48 83 49 39 51 71 52 51 53 70 54 52 55
REMARK SMILES IDX 55 56 69 57 88 58 53 59 54 60 68 62 89 63 56 64 40 65 41 66
REMARK SMILES IDX 49 67 42 68 48 69 50 70 47 71 43 72 44 73 45 74 46 75 72 76
REMARK SMILES IDX 73 77 81 78 74 79 80 80 82 81 79 82 75 83 76 84 77 85 78 86
REMARK SMILES IDX 57 87 58 88 66 89 59 90 65 91 67 92 64 93 60 94 61 95 62 96
REMARK SMILES IDX 63 97
REMARK H PARENT 13 15 3 20 87 50 55 61
REMARK Flexibility Score: inf
ROOT
ATOM      1  C   UNL A   1      31.674  29.981  25.676  1.00  0.00     0.328 C 
ATOM      2  O   UNL A   1      30.975  30.386  24.754  1.00  0.00    -0.250 OA
ENDROOT
BRANCH   1   3
ATOM      3  C   UNL A   1      32.556  28.726  25.614  1.00  0.00     0.195 C 
ATOM      4  N   UNL A   1      31.790  27.628  25.040  1.00  0.00    -0.327 N 
ATOM      5  C   UNL A   1      32.047  27.524  23.616  1.00  0.00     0.120 C 
ATOM      6  C   UNL A   1      33.504  27.920  23.494  1.00  0.00     0.024 C 
ATOM      7  C   UNL A   1      33.792  28.802  24.717  1.00  0.00     0.039 C 
BRANCH   4   8
ATOM      8  C   UNL A   1      30.983  26.896  25.868  1.00  0.00     0.245 C 
ATOM      9  O   UNL A   1      31.083  27.001  27.095  1.00  0.00    -0.272 OA
BRANCH   8  10
ATOM     10  C   UNL A   1      30.172  25.736  25.275  1.00  0.00     0.168 C 
ATOM     11  C   UNL A   1      28.970  26.314  24.529  1.00  0.00     0.041 C 
BRANCH  10  12
ATOM     12  N   UNL A   1      29.765  24.686  26.205  1.00  0.00    -0.343 N 
ATOM     13  C   UNL A   1      30.422  23.558  26.600  1.00  0.00     0.243 C 
ATOM     14  O   UNL A   1      29.991  22.963  27.590  1.00  0.00    -0.273 OA
ATOM     15  H   UNL A   1      28.878  24.813  26.612  1.00  0.00     0.164 HD
BRANCH  13  16
ATOM     16  C   UNL A   1      31.690  23.078  25.881  1.00  0.00     0.171 C 
ATOM     17  C   UNL A   1      31.346  22.442  24.536  1.00  0.00     0.042 C 
BRANCH  16  18
ATOM     18  N   UNL A   1      32.442  22.195  26.765  1.00  0.00    -0.310 N 
ATOM     19  C   UNL A   1      33.746  22.318  27.116  1.00  0.00     0.408 C 
ATOM     20  H   UNL A   1      31.953  21.431  27.146  1.00  0.00     0.167 HD
ATOM     21  O   UNL A   1      34.280  21.506  27.851  1.00  0.00    -0.225 OA
BRANCH  19  22
ATOM     22  O   UNL A   1      34.313  23.422  26.587  1.00  0.00    -0.444 OA
BRANCH  22  23
ATOM     23  C   UNL A   1      35.191  23.317  25.444  1.00  0.00     0.106 C 
ATOM     24  C   UNL A   1      35.139  21.918  24.818  1.00  0.00     0.056 C 
ATOM     25  C   UNL A   1      34.886  24.419  24.427  1.00  0.00     0.056 C 
ATOM     26  C   UNL A   1      36.595  23.542  26.022  1.00  0.00     0.056 C 
ENDBRANCH  22  23
ENDBRANCH  19  22
ENDBRANCH  16  18
ENDBRANCH  13  16
ENDBRANCH  10  12
ENDBRANCH   8  10
ENDBRANCH   4   8
ENDBRANCH   1   3
BRANCH   1  27
ATOM     27  O   UNL A   1      31.780  30.590  26.890  1.00  0.00    -0.461 OA
BRANCH  27  28
ATOM     28  C   UNL A   1      31.964  32.017  26.862  1.00  0.00     0.274 C 
BRANCH  28  29
ATOM     29  C   UNL A   1      33.172  32.430  27.700  1.00  0.00     0.275 C 
BRANCH  29  30
ATOM     30  O   UNL A   1      33.421  33.845  27.597  1.00  0.00    -0.458 OA
BRANCH  30  31
ATOM     31  C   UNL A   1      33.409  34.502  28.778  1.00  0.00     0.338 C 
ATOM     32  O   UNL A   1      32.533  35.237  29.204  1.00  0.00    -0.246 OA
BRANCH  31  33
ATOM     33  C   UNL A   1      34.587  34.146  29.578  1.00  0.00     0.060 A 
ATOM     34  C   UNL A   1      35.850  34.476  29.091  1.00  0.00     0.016 A 
ATOM     35  C   UNL A   1      34.459  33.312  30.684  1.00  0.00     0.016 A 
ATOM     36  C   UNL A   1      36.984  33.883  29.627  1.00  0.00     0.010 A 
ATOM     37  C   UNL A   1      35.612  32.817  31.302  1.00  0.00     0.010 A 
ATOM     38  C   UNL A   1      36.886  33.074  30.760  1.00  0.00    -0.014 A 
BRANCH  38  39
ATOM     39  C   UNL A   1      38.115  32.503  31.373  1.00  0.00     0.031 A 
ATOM     40  C   UNL A   1      38.827  31.357  30.711  1.00  0.00     0.074 A 
ATOM     41  C   UNL A   1      38.588  33.017  32.527  1.00  0.00     0.049 A 
ATOM     42  N   UNL A   1      39.761  30.577  31.187  1.00  0.00    -0.248 NA
ATOM     43  C   UNL A   1      38.420  31.036  29.334  1.00  0.00     0.031 C 
ATOM     44  C   UNL A   1      38.033  34.179  33.229  1.00  0.00     0.029 A 
ATOM     45  N   UNL A   1      39.637  32.629  33.321  1.00  0.00    -0.354 N 
ATOM     46  C   UNL A   1      40.018  29.638  30.193  1.00  0.00     0.074 A 
ATOM     47  C   UNL A   1      39.130  29.944  29.090  1.00  0.00     0.031 C 
ATOM     48  C   UNL A   1      38.760  34.423  34.328  1.00  0.00     0.029 A 
ATOM     49  C   UNL A   1      39.748  33.364  34.479  1.00  0.00     0.049 A 
ATOM     50  H   UNL A   1      40.251  31.896  33.085  1.00  0.00     0.167 HD
ATOM     51  C   UNL A   1      40.910  28.616  30.211  1.00  0.00     0.034 A 
ATOM     52  C   UNL A   1      40.502  33.170  35.578  1.00  0.00     0.034 A 
ATOM     53  C   UNL A   1      41.795  28.354  31.322  1.00  0.00     0.049 A 
ATOM     54  C   UNL A   1      41.413  31.973  35.617  1.00  0.00     0.074 A 
ATOM     55  C   UNL A   1      42.745  27.355  31.449  1.00  0.00     0.029 A 
ATOM     56  N   UNL A   1      41.839  29.093  32.498  1.00  0.00    -0.354 N 
ATOM     57  N   UNL A   1      41.608  31.056  34.697  1.00  0.00    -0.248 NA
ATOM     58  C   UNL A   1      42.196  31.777  36.841  1.00  0.00     0.031 C 
ATOM     59  C   UNL A   1      43.301  27.440  32.729  1.00  0.00     0.029 A 
ATOM     60  C   UNL A   1      42.772  28.551  33.368  1.00  0.00     0.049 A 
ATOM     61  H   UNL A   1      41.288  29.887  32.686  1.00  0.00     0.167 HD
ATOM     62  C   UNL A   1      42.560  30.190  35.224  1.00  0.00     0.074 A 
ATOM     63  C   UNL A   1      42.909  30.704  36.533  1.00  0.00     0.031 C 
ATOM     64  C   UNL A   1      43.102  29.074  34.674  1.00  0.00     0.034 A 
BRANCH  51  65
ATOM     65  C   UNL A   1      40.919  27.669  29.033  1.00  0.00     0.023 A 
ATOM     66  C   UNL A   1      41.874  27.757  28.006  1.00  0.00     0.031 A 
ATOM     67  C   UNL A   1      39.934  26.668  28.928  1.00  0.00     0.131 A 
ATOM     68  C   UNL A   1      41.781  26.911  26.889  1.00  0.00     0.055 A 
ATOM     69  C   UNL A   1      39.899  25.775  27.857  1.00  0.00     0.041 A 
ATOM     70  F   UNL A   1      38.978  26.549  29.863  1.00  0.00    -0.206 F 
ATOM     71  C   UNL A   1      40.818  25.902  26.821  1.00  0.00     0.022 A 
BRANCH  68  72
ATOM     72  S   UNL A   1      42.842  27.249  25.457  1.00  0.00     0.124 S 
ATOM     73  O   UNL A   1      44.104  27.606  26.101  1.00  0.00    -0.237 OA
ATOM     74  O   UNL A   1      42.825  25.977  24.744  1.00  0.00    -0.237 OA
ATOM     75  O   UNL A   1      42.164  28.353  24.780  1.00  0.00    -0.744 OA
ENDBRANCH  68  72
ENDBRANCH  51  65
BRANCH  52  76
ATOM     76  C   UNL A   1      40.369  34.077  36.754  1.00  0.00     0.023 A 
ATOM     77  C   UNL A   1      41.361  35.022  37.055  1.00  0.00     0.031 A 
ATOM     78  C   UNL A   1      39.259  33.992  37.618  1.00  0.00     0.131 A 
ATOM     79  C   UNL A   1      41.249  35.809  38.211  1.00  0.00     0.055 A 
ATOM     80  C   UNL A   1      39.118  34.827  38.726  1.00  0.00     0.041 A 
ATOM     81  F   UNL A   1      38.281  33.102  37.383  1.00  0.00    -0.206 F 
ATOM     82  C   UNL A   1      40.126  35.733  39.037  1.00  0.00     0.022 A 
BRANCH  79  83
ATOM     83  S   UNL A   1      42.648  36.864  38.675  1.00  0.00     0.124 S 
ATOM     84  O   UNL A   1      42.951  37.525  37.410  1.00  0.00    -0.237 OA
ATOM     85  O   UNL A   1      42.064  37.703  39.715  1.00  0.00    -0.237 OA
ATOM     86  O   UNL A   1      43.654  35.909  39.137  1.00  0.00    -0.744 OA
ENDBRANCH  79  83
ENDBRANCH  52  76
BRANCH  64  87
ATOM     87  C   UNL A   1      44.177  28.372  35.468  1.00  0.00     0.023 A 
ATOM     88  C   UNL A   1      45.537  28.699  35.328  1.00  0.00     0.031 A 
ATOM     89  C   UNL A   1      43.829  27.356  36.376  1.00  0.00     0.131 A 
ATOM     90  C   UNL A   1      46.504  27.979  36.044  1.00  0.00     0.055 A 
ATOM     91  C   UNL A   1      44.790  26.690  37.136  1.00  0.00     0.041 A 
ATOM     92  F   UNL A   1      42.546  26.999  36.542  1.00  0.00    -0.206 F 
ATOM     93  C   UNL A   1      46.137  26.992  36.964  1.00  0.00     0.022 A 
BRANCH  90  94
ATOM     94  S   UNL A   1      48.256  28.282  35.691  1.00  0.00     0.124 S 
ATOM     95  O   UNL A   1      48.689  26.986  35.177  1.00  0.00    -0.237 OA
ATOM     96  O   UNL A   1      48.195  29.367  34.717  1.00  0.00    -0.237 OA
ATOM     97  O   UNL A   1      48.810  28.649  36.993  1.00  0.00    -0.744 OA
ENDBRANCH  90  94
ENDBRANCH  64  87
ENDBRANCH  38  39
ENDBRANCH  31  33
ENDBRANCH  30  31
ENDBRANCH  29  30
ENDBRANCH  28  29
ENDBRANCH  27  28
ENDBRANCH   1  27
TORSDOF 21
ENDMDL
MODEL 3
REMARK VINA RESULT:     -10.0      2.144      2.741
REMARK SMILES C[C@H](NC(=O)OC(C)(C)C)C(=O)N[C@@H](C)C(=O)N1CCC[C@H]1C(=O)OCCOC(=O)c1ccc(-c2c3nc(c(-c4cc(S(=O)(=O)[O-])ccc4F)c4ccc([nH]4)c(-c4cc(S(=O)(=O)[O-])ccc4F)c4nc(c(-c5cc(S(=O)(=O)[O-])ccc5F)c5ccc2[nH]5)C=C4)C=C3)cc1
REMARK SMILES IDX 23 1 24 2 22 3 18 4 19 5 20 6 21 7 16 8 17 9 14 10 15 11
REMARK SMILES IDX 13 12 11 13 12 14 2 16 1 17 3 18 4 19 5 21 6 22 7 23 8 24
REMARK SMILES IDX 9 25 10 26 25 27 26 28 27 29 28 30 29 31 30 32 31 33 32 34
REMARK SMILES IDX 93 35 33 36 92 37 34 38 35 39 36 40 86 41 37 42 91 43 85 44
REMARK SMILES IDX 87 45 38 46 90 47 84 48 83 49 39 51 71 52 51 53 70 54 52 55
REMARK SMILES IDX 55 56 69 57 88 58 53 59 54 60 68 62 89 63 56 64 40 65 41 66
REMARK SMILES IDX 49 67 42 68 48 69 50 70 47 71 43 72 44 73 45 74 46 75 72 76
REMARK SMILES IDX 73 77 81 78 74 79 80 80 82 81 79 82 75 83 76 84 77 85 78 86
REMARK SMILES IDX 57 87 58 88 66 89 59 90 65 91 67 92 64 93 60 94 61 95 62 96
REMARK SMILES IDX 63 97
REMARK H PARENT 13 15 3 20 87 50 55 61
REMARK Flexibility Score: inf
ROOT
ATOM      1  C   UNL A   1      33.625  28.928  25.956  1.00  0.00     0.328 C 
ATOM      2  O   UNL A   1      34.447  28.463  26.738  1.00  0.00    -0.250 OA
ENDROOT
BRANCH   1   3
ATOM      3  C   UNL A   1      32.952  28.135  24.826  1.00  0.00     0.195 C 
ATOM      4  N   UNL A   1      31.516  28.088  25.062  1.00  0.00    -0.327 N 
ATOM      5  C   UNL A   1      30.849  29.143  24.324  1.00  0.00     0.120 C 
ATOM      6  C   UNL A   1      31.668  29.253  23.054  1.00  0.00     0.024 C 
ATOM      7  C   UNL A   1      33.061  28.722  23.419  1.00  0.00     0.039 C 
BRANCH   4   8
ATOM      8  C   UNL A   1      31.025  27.121  25.896  1.00  0.00     0.245 C 
ATOM      9  O   UNL A   1      31.140  27.232  27.122  1.00  0.00    -0.272 OA
BRANCH   8  10
ATOM     10  C   UNL A   1      30.608  25.770  25.300  1.00  0.00     0.168 C 
ATOM     11  C   UNL A   1      29.619  26.026  24.163  1.00  0.00     0.041 C 
BRANCH  10  12
ATOM     12  N   UNL A   1      30.093  24.777  26.238  1.00  0.00    -0.343 N 
ATOM     13  C   UNL A   1      30.611  23.575  26.621  1.00  0.00     0.243 C 
ATOM     14  O   UNL A   1      30.130  23.036  27.619  1.00  0.00    -0.273 OA
ATOM     15  H   UNL A   1      29.236  25.012  26.663  1.00  0.00     0.164 HD
BRANCH  13  16
ATOM     16  C   UNL A   1      31.796  22.944  25.877  1.00  0.00     0.171 C 
ATOM     17  C   UNL A   1      31.406  21.595  25.276  1.00  0.00     0.042 C 
BRANCH  16  18
ATOM     18  N   UNL A   1      32.945  22.869  26.772  1.00  0.00    -0.310 N 
ATOM     19  C   UNL A   1      34.233  23.160  26.465  1.00  0.00     0.408 C 
ATOM     20  H   UNL A   1      32.766  22.577  27.695  1.00  0.00     0.167 HD
ATOM     21  O   UNL A   1      35.120  23.043  27.292  1.00  0.00    -0.225 OA
BRANCH  19  22
ATOM     22  O   UNL A   1      34.366  23.601  25.196  1.00  0.00    -0.444 OA
BRANCH  22  23
ATOM     23  C   UNL A   1      34.979  22.762  24.192  1.00  0.00     0.106 C 
ATOM     24  C   UNL A   1      36.402  23.226  23.859  1.00  0.00     0.056 C 
ATOM     25  C   UNL A   1      34.932  21.293  24.615  1.00  0.00     0.056 C 
ATOM     26  C   UNL A   1      34.099  22.956  22.949  1.00  0.00     0.056 C 
ENDBRANCH  22  23
ENDBRANCH  19  22
ENDBRANCH  16  18
ENDBRANCH  13  16
ENDBRANCH  10  12
ENDBRANCH   8  10
ENDBRANCH   4   8
ENDBRANCH   1   3
BRANCH   1  27
ATOM     27  O   UNL A   1      33.178  30.216  25.979  1.00  0.00    -0.461 OA
BRANCH  27  28
ATOM     28  C   UNL A   1      32.757  30.710  27.263  1.00  0.00     0.274 C 
BRANCH  28  29
ATOM     29  C   UNL A   1      32.205  32.130  27.150  1.00  0.00     0.275 C 
BRANCH  29  30
ATOM     30  O   UNL A   1      33.266  33.104  27.136  1.00  0.00    -0.458 OA
BRANCH  30  31
ATOM     31  C   UNL A   1      33.338  33.868  28.248  1.00  0.00     0.338 C 
ATOM     32  O   UNL A   1      32.545  34.722  28.610  1.00  0.00    -0.246 OA
BRANCH  31  33
ATOM     33  C   UNL A   1      34.490  33.475  29.069  1.00  0.00     0.060 A 
ATOM     34  C   UNL A   1      35.725  34.067  28.812  1.00  0.00     0.016 A 
ATOM     35  C   UNL A   1      34.400  32.388  29.931  1.00  0.00     0.016 A 
ATOM     36  C   UNL A   1      36.889  33.506  29.317  1.00  0.00     0.010 A 
ATOM     37  C   UNL A   1      35.563  31.903  30.541  1.00  0.00     0.010 A 
ATOM     38  C   UNL A   1      36.824  32.439  30.215  1.00  0.00    -0.014 A 
BRANCH  38  39
ATOM     39  C   UNL A   1      38.072  31.892  30.810  1.00  0.00     0.031 A 
ATOM     40  C   UNL A   1      38.874  30.860  30.067  1.00  0.00     0.074 A 
ATOM     41  C   UNL A   1      38.480  32.323  32.021  1.00  0.00     0.049 A 
ATOM     42  N   UNL A   1      39.845  30.099  30.498  1.00  0.00    -0.248 NA
ATOM     43  C   UNL A   1      38.524  30.647  28.654  1.00  0.00     0.031 C 
ATOM     44  C   UNL A   1      37.833  33.376  32.810  1.00  0.00     0.029 A 
ATOM     45  N   UNL A   1      39.533  31.928  32.808  1.00  0.00    -0.354 N 
ATOM     46  C   UNL A   1      40.188  29.278  29.429  1.00  0.00     0.074 A 
ATOM     47  C   UNL A   1      39.310  29.629  28.332  1.00  0.00     0.031 C 
ATOM     48  C   UNL A   1      38.514  33.560  33.949  1.00  0.00     0.029 A 
ATOM     49  C   UNL A   1      39.566  32.557  34.032  1.00  0.00     0.049 A 
ATOM     50  H   UNL A   1      40.199  31.262  32.525  1.00  0.00     0.167 HD
ATOM     51  C   UNL A   1      41.145  28.317  29.381  1.00  0.00     0.034 A 
ATOM     52  C   UNL A   1      40.304  32.308  35.131  1.00  0.00     0.034 A 
ATOM     53  C   UNL A   1      42.018  28.008  30.489  1.00  0.00     0.049 A 
ATOM     54  C   UNL A   1      41.290  31.172  35.088  1.00  0.00     0.074 A 
ATOM     55  C   UNL A   1      43.028  27.064  30.553  1.00  0.00     0.029 A 
ATOM     56  N   UNL A   1      41.983  28.633  31.730  1.00  0.00    -0.354 N 
ATOM     57  N   UNL A   1      41.568  30.360  34.093  1.00  0.00    -0.248 NA
ATOM     58  C   UNL A   1      42.053  30.912  36.312  1.00  0.00     0.031 C 
ATOM     59  C   UNL A   1      43.545  27.062  31.852  1.00  0.00     0.029 A 
ATOM     60  C   UNL A   1      42.928  28.071  32.574  1.00  0.00     0.049 A 
ATOM     61  H   UNL A   1      41.377  29.370  31.973  1.00  0.00     0.167 HD
ATOM     62  C   UNL A   1      42.562  29.511  34.567  1.00  0.00     0.074 A 
ATOM     63  C   UNL A   1      42.843  29.920  35.928  1.00  0.00     0.031 C 
ATOM     64  C   UNL A   1      43.190  28.488  33.933  1.00  0.00     0.034 A 
BRANCH  51  65
ATOM     65  C   UNL A   1      41.246  27.488  28.120  1.00  0.00     0.023 A 
ATOM     66  C   UNL A   1      40.793  26.160  28.056  1.00  0.00     0.031 A 
ATOM     67  C   UNL A   1      41.828  28.039  26.963  1.00  0.00     0.131 A 
ATOM     68  C   UNL A   1      40.995  25.407  26.888  1.00  0.00     0.055 A 
ATOM     69  C   UNL A   1      41.948  27.312  25.778  1.00  0.00     0.041 A 
ATOM     70  F   UNL A   1      42.304  29.295  26.968  1.00  0.00    -0.206 F 
ATOM     71  C   UNL A   1      41.543  25.982  25.740  1.00  0.00     0.022 A 
BRANCH  68  72
ATOM     72  S   UNL A   1      40.672  23.623  26.942  1.00  0.00     0.124 S 
ATOM     73  O   UNL A   1      39.226  23.578  26.732  1.00  0.00    -0.237 OA
ATOM     74  O   UNL A   1      41.492  23.119  25.846  1.00  0.00    -0.237 OA
ATOM     75  O   UNL A   1      41.112  23.234  28.280  1.00  0.00    -0.744 OA
ENDBRANCH  68  72
ENDBRANCH  51  65
BRANCH  52  76
ATOM     76  C   UNL A   1      40.081  33.089  36.382  1.00  0.00     0.023 A 
ATOM     77  C   UNL A   1      40.889  34.191  36.699  1.00  0.00     0.031 A 
ATOM     78  C   UNL A   1      39.075  32.726  37.299  1.00  0.00     0.131 A 
ATOM     79  C   UNL A   1      40.709  34.860  37.919  1.00  0.00     0.055 A 
ATOM     80  C   UNL A   1      38.854  33.440  38.476  1.00  0.00     0.041 A 
ATOM     81  F   UNL A   1      38.275  31.677  37.050  1.00  0.00    -0.206 F 
ATOM     82  C   UNL A   1      39.686  34.507  38.800  1.00  0.00     0.022 A 
BRANCH  79  83
ATOM     83  S   UNL A   1      41.906  36.140  38.385  1.00  0.00     0.124 S 
ATOM     84  O   UNL A   1      41.199  36.827  39.460  1.00  0.00    -0.237 OA
ATOM     85  O   UNL A   1      43.062  35.344  38.782  1.00  0.00    -0.237 OA
ATOM     86  O   UNL A   1      42.074  36.912  37.155  1.00  0.00    -0.744 OA
ENDBRANCH  79  83
ENDBRANCH  52  76
BRANCH  64  87
ATOM     87  C   UNL A   1      44.289  27.785  34.691  1.00  0.00     0.023 A 
ATOM     88  C   UNL A   1      44.047  26.622  35.443  1.00  0.00     0.031 A 
ATOM     89  C   UNL A   1      45.599  28.294  34.662  1.00  0.00     0.131 A 
ATOM     90  C   UNL A   1      45.088  26.037  36.177  1.00  0.00     0.055 A 
ATOM     91  C   UNL A   1      46.645  27.669  35.340  1.00  0.00     0.041 A 
ATOM     92  F   UNL A   1      45.884  29.407  33.967  1.00  0.00    -0.206 F 
ATOM     93  C   UNL A   1      46.390  26.541  36.113  1.00  0.00     0.022 A 
BRANCH  90  94
ATOM     94  S   UNL A   1      44.702  24.664  37.296  1.00  0.00     0.124 S 
ATOM     95  O   UNL A   1      44.759  25.313  38.602  1.00  0.00    -0.237 OA
ATOM     96  O   UNL A   1      43.376  24.256  36.844  1.00  0.00    -0.237 OA
ATOM     97  O   UNL A   1      45.768  23.699  37.036  1.00  0.00    -0.744 OA
ENDBRANCH  90  94
ENDBRANCH  64  87
ENDBRANCH  38  39
ENDBRANCH  31  33
ENDBRANCH  30  31
ENDBRANCH  29  30
ENDBRANCH  28  29
ENDBRANCH  27  28
ENDBRANCH   1  27
TORSDOF 21
ENDMDL
