MODEL 1
REMARK VINA RESULT:     -11.7      0.000      0.000
REMARK SMILES Cc1nn(C)c(C)c1CN(C)C(=O)[C@@H]1CC=CC[C@@H]1C(=O)OCCOC(=O)c1ccc(-c2c3nc(c(-c4cc(S(=O)(=O)[O-])ccc4F)c4ccc([nH]4)c(-c4cc(S(=O)(=O)[O-])ccc4F)c4nc(c(-c5cc(S(=O)(=O)[O-])ccc5F)c5ccc2[nH]5)C=C4)C=C3)cc1
REMARK SMILES IDX 23 1 22 2 20 3 21 4 19 5 14 6 15 7 16 8 18 9 17 10 12 11
REMARK SMILES IDX 13 12 10 13 11 14 9 15 8 16 1 17 2 18 3 19 4 20 6 21 5 22
REMARK SMILES IDX 7 23 24 24 25 25 26 26 27 27 28 28 29 29 90 30 30 31 89 32
REMARK SMILES IDX 31 33 32 34 33 35 83 36 34 37 88 38 82 39 84 40 35 41 87 42
REMARK SMILES IDX 81 43 80 44 36 46 68 47 48 48 67 49 49 50 52 51 66 52 85 53
REMARK SMILES IDX 50 54 51 55 65 57 86 58 53 59 37 60 38 61 46 62 39 63 45 64
REMARK SMILES IDX 47 65 44 66 40 67 41 68 42 69 43 70 69 71 70 72 78 73 71 74
REMARK SMILES IDX 77 75 79 76 76 77 72 78 73 79 74 80 75 81 54 82 55 83 63 84
REMARK SMILES IDX 56 85 62 86 64 87 61 88 57 89 58 90 59 91 60 92
REMARK H PARENT 84 45 52 56
REMARK Flexibility Score: inf
ROOT
ATOM      1  C   UNL A   1      35.983  21.457  25.897  1.00  0.00     0.274 C 
ENDROOT
BRANCH   1   2
ATOM      2  O   UNL A   1      35.398  22.627  25.277  1.00  0.00    -0.462 OA
BRANCH   2   3
ATOM      3  C   UNL A   1      34.285  23.142  25.885  1.00  0.00     0.310 C 
ATOM      4  O   UNL A   1      34.174  23.247  27.100  1.00  0.00    -0.252 OA
BRANCH   3   5
ATOM      5  C   UNL A   1      33.174  23.408  24.857  1.00  0.00     0.115 C 
ATOM      6  C   UNL A   1      31.746  23.015  25.298  1.00  0.00     0.097 C 
ATOM      7  C   UNL A   1      31.660  21.515  25.646  1.00  0.00     0.041 C 
ATOM      8  C   UNL A   1      32.327  20.663  24.596  1.00  0.00    -0.030 C 
ATOM      9  C   UNL A   1      33.508  22.622  23.573  1.00  0.00     0.043 C 
ATOM     10  C   UNL A   1      33.132  21.164  23.646  1.00  0.00    -0.030 C 
BRANCH   6  11
ATOM     11  C   UNL A   1      31.179  23.917  26.390  1.00  0.00     0.226 C 
ATOM     12  O   UNL A   1      30.892  23.451  27.486  1.00  0.00    -0.275 OA
BRANCH  11  13
ATOM     13  N   UNL A   1      30.917  25.239  26.040  1.00  0.00    -0.341 N 
ATOM     14  C   UNL A   1      29.538  25.653  25.874  1.00  0.00     0.147 C 
BRANCH  13  15
ATOM     15  C   UNL A   1      31.937  26.295  26.185  1.00  0.00     0.158 C 
BRANCH  15  16
ATOM     16  C   UNL A   1      31.737  27.482  25.318  1.00  0.00     0.015 A 
ATOM     17  C   UNL A   1      31.856  29.462  27.062  1.00  0.00     0.069 C 
ATOM     18  C   UNL A   1      31.629  28.844  25.734  1.00  0.00     0.065 A 
ATOM     19  N   UNL A   1      31.303  29.642  24.716  1.00  0.00    -0.178 NA
ATOM     20  N   UNL A   1      31.235  28.816  23.659  1.00  0.00    -0.272 N 
ATOM     21  C   UNL A   1      31.680  27.553  23.936  1.00  0.00     0.040 A 
ATOM     22  C   UNL A   1      30.664  29.297  22.426  1.00  0.00     0.174 C 
ATOM     23  C   UNL A   1      31.936  26.548  22.881  1.00  0.00     0.067 C 
ENDBRANCH  15  16
ENDBRANCH  13  15
ENDBRANCH  11  13
ENDBRANCH   6  11
ENDBRANCH   3   5
ENDBRANCH   2   3
ENDBRANCH   1   2
BRANCH   1  24
ATOM     24  C   UNL A   1      37.002  20.707  25.022  1.00  0.00     0.275 C 
BRANCH  24  25
ATOM     25  O   UNL A   1      38.274  21.383  24.892  1.00  0.00    -0.458 OA
BRANCH  25  26
ATOM     26  C   UNL A   1      39.169  20.969  25.816  1.00  0.00     0.338 C 
ATOM     27  O   UNL A   1      39.636  19.840  25.860  1.00  0.00    -0.246 OA
BRANCH  26  28
ATOM     28  C   UNL A   1      39.623  22.014  26.756  1.00  0.00     0.060 A 
ATOM     29  C   UNL A   1      39.171  23.288  26.458  1.00  0.00     0.016 A 
ATOM     30  C   UNL A   1      40.673  21.861  27.663  1.00  0.00     0.016 A 
ATOM     31  C   UNL A   1      39.864  24.409  26.902  1.00  0.00     0.010 A 
ATOM     32  C   UNL A   1      41.303  23.009  28.208  1.00  0.00     0.010 A 
ATOM     33  C   UNL A   1      40.942  24.303  27.791  1.00  0.00    -0.014 A 
BRANCH  33  34
ATOM     34  C   UNL A   1      41.596  25.581  28.233  1.00  0.00     0.031 A 
ATOM     35  C   UNL A   1      43.049  25.897  27.947  1.00  0.00     0.074 A 
ATOM     36  C   UNL A   1      40.808  26.568  28.716  1.00  0.00     0.049 A 
ATOM     37  N   UNL A   1      43.650  27.067  27.956  1.00  0.00    -0.248 NA
ATOM     38  C   UNL A   1      43.930  24.790  27.553  1.00  0.00     0.031 C 
ATOM     39  C   UNL A   1      39.373  26.440  28.993  1.00  0.00     0.029 A 
ATOM     40  N   UNL A   1      41.081  27.881  29.022  1.00  0.00    -0.354 N 
ATOM     41  C   UNL A   1      44.916  26.854  27.415  1.00  0.00     0.074 A 
ATOM     42  C   UNL A   1      45.046  25.428  27.213  1.00  0.00     0.031 C 
ATOM     43  C   UNL A   1      38.891  27.625  29.392  1.00  0.00     0.029 A 
ATOM     44  C   UNL A   1      39.989  28.579  29.484  1.00  0.00     0.049 A 
ATOM     45  H   UNL A   1      41.974  28.283  28.919  1.00  0.00     0.167 HD
ATOM     46  C   UNL A   1      45.845  27.772  27.042  1.00  0.00     0.034 A 
ATOM     47  C   UNL A   1      39.879  29.830  29.976  1.00  0.00     0.034 A 
ATOM     48  C   UNL A   1      45.785  29.169  27.397  1.00  0.00     0.049 A 
ATOM     49  C   UNL A   1      41.091  30.720  29.960  1.00  0.00     0.074 A 
ATOM     50  C   UNL A   1      46.719  30.163  27.157  1.00  0.00     0.029 A 
ATOM     51  N   UNL A   1      44.768  29.756  28.137  1.00  0.00    -0.354 N 
ATOM     52  N   UNL A   1      42.251  30.520  29.379  1.00  0.00    -0.248 NA
ATOM     53  C   UNL A   1      40.983  31.999  30.670  1.00  0.00     0.031 C 
ATOM     54  C   UNL A   1      46.315  31.318  27.841  1.00  0.00     0.029 A 
ATOM     55  C   UNL A   1      45.092  31.071  28.444  1.00  0.00     0.049 A 
ATOM     56  H   UNL A   1      43.936  29.304  28.407  1.00  0.00     0.167 HD
ATOM     57  C   UNL A   1      43.005  31.661  29.636  1.00  0.00     0.074 A 
ATOM     58  C   UNL A   1      42.159  32.549  30.407  1.00  0.00     0.031 C 
ATOM     59  C   UNL A   1      44.279  31.944  29.259  1.00  0.00     0.034 A 
BRANCH  46  60
ATOM     60  C   UNL A   1      47.026  27.294  26.230  1.00  0.00     0.023 A 
ATOM     61  C   UNL A   1      48.140  26.690  26.847  1.00  0.00     0.031 A 
ATOM     62  C   UNL A   1      47.019  27.372  24.830  1.00  0.00     0.131 A 
ATOM     63  C   UNL A   1      49.213  26.215  26.074  1.00  0.00     0.055 A 
ATOM     64  C   UNL A   1      48.073  26.871  24.060  1.00  0.00     0.041 A 
ATOM     65  F   UNL A   1      45.978  27.924  24.185  1.00  0.00    -0.206 F 
ATOM     66  C   UNL A   1      49.181  26.296  24.682  1.00  0.00     0.022 A 
BRANCH  63  67
ATOM     67  S   UNL A   1      50.670  25.517  26.909  1.00  0.00     0.124 S 
ATOM     68  O   UNL A   1      51.132  26.634  27.726  1.00  0.00    -0.237 OA
ATOM     69  O   UNL A   1      50.101  24.389  27.638  1.00  0.00    -0.237 OA
ATOM     70  O   UNL A   1      51.557  25.157  25.803  1.00  0.00    -0.744 OA
ENDBRANCH  63  67
ENDBRANCH  46  60
BRANCH  47  71
ATOM     71  C   UNL A   1      38.611  30.262  30.640  1.00  0.00     0.023 A 
ATOM     72  C   UNL A   1      37.617  30.991  29.969  1.00  0.00     0.031 A 
ATOM     73  C   UNL A   1      38.412  29.990  32.010  1.00  0.00     0.131 A 
ATOM     74  C   UNL A   1      36.487  31.440  30.673  1.00  0.00     0.055 A 
ATOM     75  C   UNL A   1      37.259  30.381  32.687  1.00  0.00     0.041 A 
ATOM     76  F   UNL A   1      39.341  29.323  32.714  1.00  0.00    -0.206 F 
ATOM     77  C   UNL A   1      36.292  31.121  32.020  1.00  0.00     0.022 A 
BRANCH  74  78
ATOM     78  S   UNL A   1      35.308  32.537  29.837  1.00  0.00     0.124 S 
ATOM     79  O   UNL A   1      34.911  31.732  28.688  1.00  0.00    -0.237 OA
ATOM     80  O   UNL A   1      34.292  32.733  30.866  1.00  0.00    -0.237 OA
ATOM     81  O   UNL A   1      36.107  33.720  29.522  1.00  0.00    -0.744 OA
ENDBRANCH  74  78
ENDBRANCH  47  71
BRANCH  59  82
ATOM     82  C   UNL A   1      44.825  33.287  29.684  1.00  0.00     0.023 A 
ATOM     83  C   UNL A   1      44.644  34.432  28.885  1.00  0.00     0.031 A 
ATOM     84  C   UNL A   1      45.592  33.415  30.853  1.00  0.00     0.131 A 
ATOM     85  C   UNL A   1      45.288  35.632  29.224  1.00  0.00     0.055 A 
ATOM     86  C   UNL A   1      46.172  34.631  31.223  1.00  0.00     0.041 A 
ATOM     87  F   UNL A   1      45.809  32.357  31.651  1.00  0.00    -0.206 F 
ATOM     88  C   UNL A   1      46.038  35.743  30.396  1.00  0.00     0.022 A 
BRANCH  85  89
ATOM     89  S   UNL A   1      45.246  37.005  28.038  1.00  0.00     0.124 S 
ATOM     90  O   UNL A   1      43.923  36.852  27.441  1.00  0.00    -0.237 OA
ATOM     91  O   UNL A   1      45.426  38.168  28.901  1.00  0.00    -0.237 OA
ATOM     92  O   UNL A   1      46.366  36.719  27.143  1.00  0.00    -0.744 OA
ENDBRANCH  85  89
ENDBRANCH  59  82
ENDBRANCH  33  34
ENDBRANCH  26  28
ENDBRANCH  25  26
ENDBRANCH  24  25
ENDBRANCH   1  24
TORSDOF 18
ENDMDL
MODEL 2
REMARK VINA RESULT:     -11.5      4.798     10.225
REMARK SMILES Cc1nn(C)c(C)c1CN(C)C(=O)[C@@H]1CC=CC[C@@H]1C(=O)OCCOC(=O)c1ccc(-c2c3nc(c(-c4cc(S(=O)(=O)[O-])ccc4F)c4ccc([nH]4)c(-c4cc(S(=O)(=O)[O-])ccc4F)c4nc(c(-c5cc(S(=O)(=O)[O-])ccc5F)c5ccc2[nH]5)C=C4)C=C3)cc1
REMARK SMILES IDX 23 1 22 2 20 3 21 4 19 5 14 6 15 7 16 8 18 9 17 10 12 11
REMARK SMILES IDX 13 12 10 13 11 14 9 15 8 16 1 17 2 18 3 19 4 20 6 21 5 22
REMARK SMILES IDX 7 23 24 24 25 25 26 26 27 27 28 28 29 29 90 30 30 31 89 32
REMARK SMILES IDX 31 33 32 34 33 35 83 36 34 37 88 38 82 39 84 40 35 41 87 42
REMARK SMILES IDX 81 43 80 44 36 46 68 47 48 48 67 49 49 50 52 51 66 52 85 53
REMARK SMILES IDX 50 54 51 55 65 57 86 58 53 59 37 60 38 61 46 62 39 63 45 64
REMARK SMILES IDX 47 65 44 66 40 67 41 68 42 69 43 70 69 71 70 72 78 73 71 74
REMARK SMILES IDX 77 75 79 76 76 77 72 78 73 79 74 80 75 81 54 82 55 83 63 84
REMARK SMILES IDX 56 85 62 86 64 87 61 88 57 89 58 90 59 91 60 92
REMARK H PARENT 84 45 52 56
REMARK Flexibility Score: inf
ROOT
ATOM      1  C   UNL A   1      31.310  31.190  25.970  1.00  0.00     0.274 C 
ENDROOT
BRANCH   1   2
ATOM      2  O   UNL A   1      32.251  30.424  25.181  1.00  0.00    -0.462 OA
BRANCH   2   3
ATOM      3  C   UNL A   1      31.785  29.247  24.658  1.00  0.00     0.310 C 
ATOM      4  O   UNL A   1      30.648  29.111  24.225  1.00  0.00    -0.252 OA
BRANCH   3   5
ATOM      5  C   UNL A   1      32.816  28.123  24.840  1.00  0.00     0.115 C 
ATOM      6  C   UNL A   1      32.266  26.793  25.402  1.00  0.00     0.097 C 
ATOM      7  C   UNL A   1      31.605  26.998  26.781  1.00  0.00     0.041 C 
ATOM      8  C   UNL A   1      32.468  27.837  27.689  1.00  0.00    -0.030 C 
ATOM      9  C   UNL A   1      33.914  28.626  25.800  1.00  0.00     0.043 C 
ATOM     10  C   UNL A   1      33.523  28.543  27.254  1.00  0.00    -0.030 C 
BRANCH   6  11
ATOM     11  C   UNL A   1      31.374  26.042  24.417  1.00  0.00     0.226 C 
ATOM     12  O   UNL A   1      30.253  25.679  24.754  1.00  0.00    -0.275 OA
BRANCH  11  13
ATOM     13  N   UNL A   1      31.938  25.710  23.188  1.00  0.00    -0.341 N 
ATOM     14  C   UNL A   1      31.473  26.399  22.002  1.00  0.00     0.147 C 
BRANCH  13  15
ATOM     15  C   UNL A   1      33.211  24.968  23.096  1.00  0.00     0.158 C 
BRANCH  15  16
ATOM     16  C   UNL A   1      33.321  23.798  24.001  1.00  0.00     0.015 A 
ATOM     17  C   UNL A   1      31.918  21.970  22.712  1.00  0.00     0.069 C 
ATOM     18  C   UNL A   1      32.687  22.529  23.850  1.00  0.00     0.065 A 
ATOM     19  N   UNL A   1      32.878  21.755  24.919  1.00  0.00    -0.178 NA
ATOM     20  N   UNL A   1      33.649  22.498  25.729  1.00  0.00    -0.272 N 
ATOM     21  C   UNL A   1      34.100  23.645  25.137  1.00  0.00     0.040 A 
ATOM     22  C   UNL A   1      33.855  22.073  27.092  1.00  0.00     0.174 C 
ATOM     23  C   UNL A   1      35.156  24.490  25.734  1.00  0.00     0.067 C 
ENDBRANCH  15  16
ENDBRANCH  13  15
ENDBRANCH  11  13
ENDBRANCH   6  11
ENDBRANCH   3   5
ENDBRANCH   2   3
ENDBRANCH   1   2
BRANCH   1  24
ATOM     24  C   UNL A   1      31.902  31.822  27.241  1.00  0.00     0.275 C 
BRANCH  24  25
ATOM     25  O   UNL A   1      32.165  33.239  27.125  1.00  0.00    -0.458 OA
BRANCH  25  26
ATOM     26  C   UNL A   1      32.963  33.694  28.117  1.00  0.00     0.338 C 
ATOM     27  O   UNL A   1      32.629  34.544  28.929  1.00  0.00    -0.246 OA
BRANCH  26  28
ATOM     28  C   UNL A   1      34.277  33.027  28.214  1.00  0.00     0.060 A 
ATOM     29  C   UNL A   1      34.311  31.949  29.081  1.00  0.00     0.016 A 
ATOM     30  C   UNL A   1      35.481  33.582  27.775  1.00  0.00     0.016 A 
ATOM     31  C   UNL A   1      35.507  31.537  29.656  1.00  0.00     0.010 A 
ATOM     32  C   UNL A   1      36.710  33.080  28.274  1.00  0.00     0.010 A 
ATOM     33  C   UNL A   1      36.737  32.084  29.267  1.00  0.00    -0.014 A 
BRANCH  33  34
ATOM     34  C   UNL A   1      37.971  31.541  29.930  1.00  0.00     0.031 A 
ATOM     35  C   UNL A   1      38.442  32.010  31.290  1.00  0.00     0.074 A 
ATOM     36  C   UNL A   1      38.561  30.452  29.388  1.00  0.00     0.049 A 
ATOM     37  N   UNL A   1      39.264  31.411  32.124  1.00  0.00    -0.248 NA
ATOM     38  C   UNL A   1      37.895  33.269  31.812  1.00  0.00     0.031 C 
ATOM     39  C   UNL A   1      38.185  29.842  28.107  1.00  0.00     0.029 A 
ATOM     40  N   UNL A   1      39.567  29.638  29.852  1.00  0.00    -0.354 N 
ATOM     41  C   UNL A   1      39.199  32.132  33.315  1.00  0.00     0.074 A 
ATOM     42  C   UNL A   1      38.364  33.283  33.057  1.00  0.00     0.031 C 
ATOM     43  C   UNL A   1      38.922  28.740  27.909  1.00  0.00     0.029 A 
ATOM     44  C   UNL A   1      39.882  28.606  28.998  1.00  0.00     0.049 A 
ATOM     45  H   UNL A   1      40.018  29.779  30.716  1.00  0.00     0.167 HD
ATOM     46  C   UNL A   1      39.715  31.812  34.530  1.00  0.00     0.034 A 
ATOM     47  C   UNL A   1      40.861  27.679  29.048  1.00  0.00     0.034 A 
ATOM     48  C   UNL A   1      40.681  30.761  34.744  1.00  0.00     0.049 A 
ATOM     49  C   UNL A   1      41.745  27.631  30.263  1.00  0.00     0.074 A 
ATOM     50  C   UNL A   1      41.341  30.418  35.912  1.00  0.00     0.029 A 
ATOM     51  N   UNL A   1      41.182  29.932  33.750  1.00  0.00    -0.354 N 
ATOM     52  N   UNL A   1      41.616  28.272  31.401  1.00  0.00    -0.248 NA
ATOM     53  C   UNL A   1      42.909  26.740  30.200  1.00  0.00     0.031 C 
ATOM     54  C   UNL A   1      42.313  29.458  35.599  1.00  0.00     0.029 A 
ATOM     55  C   UNL A   1      42.209  29.144  34.254  1.00  0.00     0.049 A 
ATOM     56  H   UNL A   1      40.858  29.906  32.821  1.00  0.00     0.167 HD
ATOM     57  C   UNL A   1      42.673  27.845  32.198  1.00  0.00     0.074 A 
ATOM     58  C   UNL A   1      43.415  26.877  31.416  1.00  0.00     0.031 C 
ATOM     59  C   UNL A   1      42.990  28.217  33.466  1.00  0.00     0.034 A 
BRANCH  46  60
ATOM     60  C   UNL A   1      39.272  32.626  35.723  1.00  0.00     0.023 A 
ATOM     61  C   UNL A   1      39.851  33.879  36.008  1.00  0.00     0.031 A 
ATOM     62  C   UNL A   1      38.222  32.190  36.544  1.00  0.00     0.131 A 
ATOM     63  C   UNL A   1      39.400  34.641  37.098  1.00  0.00     0.055 A 
ATOM     64  C   UNL A   1      37.754  32.964  37.611  1.00  0.00     0.041 A 
ATOM     65  F   UNL A   1      37.624  31.011  36.314  1.00  0.00    -0.206 F 
ATOM     66  C   UNL A   1      38.348  34.192  37.898  1.00  0.00     0.022 A 
BRANCH  63  67
ATOM     67  S   UNL A   1      40.225  36.216  37.484  1.00  0.00     0.124 S 
ATOM     68  O   UNL A   1      41.459  35.777  38.127  1.00  0.00    -0.237 OA
ATOM     69  O   UNL A   1      40.374  36.821  36.166  1.00  0.00    -0.237 OA
ATOM     70  O   UNL A   1      39.277  36.889  38.372  1.00  0.00    -0.744 OA
ENDBRANCH  63  67
ENDBRANCH  46  60
BRANCH  47  71
ATOM     71  C   UNL A   1      41.133  26.816  27.858  1.00  0.00     0.023 A 
ATOM     72  C   UNL A   1      40.731  25.473  27.792  1.00  0.00     0.031 A 
ATOM     73  C   UNL A   1      41.873  27.333  26.774  1.00  0.00     0.131 A 
ATOM     74  C   UNL A   1      41.093  24.692  26.681  1.00  0.00     0.055 A 
ATOM     75  C   UNL A   1      42.171  26.573  25.646  1.00  0.00     0.041 A 
ATOM     76  F   UNL A   1      42.312  28.602  26.792  1.00  0.00    -0.206 F 
ATOM     77  C   UNL A   1      41.790  25.239  25.600  1.00  0.00     0.022 A 
BRANCH  74  78
ATOM     78  S   UNL A   1      40.728  22.914  26.699  1.00  0.00     0.124 S 
ATOM     79  O   UNL A   1      41.609  22.417  25.648  1.00  0.00    -0.237 OA
ATOM     80  O   UNL A   1      41.084  22.544  28.064  1.00  0.00    -0.237 OA
ATOM     81  O   UNL A   1      39.300  22.855  26.392  1.00  0.00    -0.744 OA
ENDBRANCH  74  78
ENDBRANCH  47  71
BRANCH  59  82
ATOM     82  C   UNL A   1      44.203  27.559  34.078  1.00  0.00     0.023 A 
ATOM     83  C   UNL A   1      44.103  26.326  34.749  1.00  0.00     0.031 A 
ATOM     84  C   UNL A   1      45.455  28.196  34.059  1.00  0.00     0.131 A 
ATOM     85  C   UNL A   1      45.210  25.810  35.439  1.00  0.00     0.055 A 
ATOM     86  C   UNL A   1      46.573  27.642  34.687  1.00  0.00     0.041 A 
ATOM     87  F   UNL A   1      45.613  29.379  33.444  1.00  0.00    -0.206 F 
ATOM     88  C   UNL A   1      46.450  26.452  35.399  1.00  0.00     0.022 A 
BRANCH  85  89
ATOM     89  S   UNL A   1      44.972  24.360  36.504  1.00  0.00     0.124 S 
ATOM     90  O   UNL A   1      43.856  23.683  35.852  1.00  0.00    -0.237 OA
ATOM     91  O   UNL A   1      46.265  23.690  36.413  1.00  0.00    -0.237 OA
ATOM     92  O   UNL A   1      44.667  24.941  37.810  1.00  0.00    -0.744 OA
ENDBRANCH  85  89
ENDBRANCH  59  82
ENDBRANCH  33  34
ENDBRANCH  26  28
ENDBRANCH  25  26
ENDBRANCH  24  25
ENDBRANCH   1  24
TORSDOF 18
ENDMDL
MODEL 3
REMARK VINA RESULT:     -11.4      1.745      7.731
REMARK SMILES Cc1nn(C)c(C)c1CN(C)C(=O)[C@@H]1CC=CC[C@@H]1C(=O)OCCOC(=O)c1ccc(-c2c3nc(c(-c4cc(S(=O)(=O)[O-])ccc4F)c4ccc([nH]4)c(-c4cc(S(=O)(=O)[O-])ccc4F)c4nc(c(-c5cc(S(=O)(=O)[O-])ccc5F)c5ccc2[nH]5)C=C4)C=C3)cc1
REMARK SMILES IDX 23 1 22 2 20 3 21 4 19 5 14 6 15 7 16 8 18 9 17 10 12 11
REMARK SMILES IDX 13 12 10 13 11 14 9 15 8 16 1 17 2 18 3 19 4 20 6 21 5 22
REMARK SMILES IDX 7 23 24 24 25 25 26 26 27 27 28 28 29 29 90 30 30 31 89 32
REMARK SMILES IDX 31 33 32 34 33 35 83 36 34 37 88 38 82 39 84 40 35 41 87 42
REMARK SMILES IDX 81 43 80 44 36 46 68 47 48 48 67 49 49 50 52 51 66 52 85 53
REMARK SMILES IDX 50 54 51 55 65 57 86 58 53 59 37 60 38 61 46 62 39 63 45 64
REMARK SMILES IDX 47 65 44 66 40 67 41 68 42 69 43 70 69 71 70 72 78 73 71 74
REMARK SMILES IDX 77 75 79 76 76 77 72 78 73 79 74 80 75 81 54 82 55 83 63 84
REMARK SMILES IDX 56 85 62 86 64 87 61 88 57 89 58 90 59 91 60 92
REMARK H PARENT 84 45 52 56
REMARK Flexibility Score: inf
ROOT
ATOM      1  C   UNL A   1      35.674  21.041  25.038  1.00  0.00     0.274 C 
ENDROOT
BRANCH   1   2
ATOM      2  O   UNL A   1      35.400  22.228  24.256  1.00  0.00    -0.462 OA
BRANCH   2   3
ATOM      3  C   UNL A   1      34.763  23.249  24.908  1.00  0.00     0.310 C 
ATOM      4  O   UNL A   1      34.707  23.333  26.128  1.00  0.00    -0.252 OA
BRANCH   3   5
ATOM      5  C   UNL A   1      34.019  24.152  23.912  1.00  0.00     0.115 C 
ATOM      6  C   UNL A   1      32.592  24.575  24.328  1.00  0.00     0.097 C 
ATOM      7  C   UNL A   1      31.687  23.347  24.553  1.00  0.00     0.041 C 
ATOM      8  C   UNL A   1      31.822  22.345  23.434  1.00  0.00    -0.030 C 
ATOM      9  C   UNL A   1      33.920  23.406  22.566  1.00  0.00     0.043 C 
ATOM     10  C   UNL A   1      32.806  22.391  22.522  1.00  0.00    -0.030 C 
BRANCH   6  11
ATOM     11  C   UNL A   1      32.567  25.559  25.494  1.00  0.00     0.226 C 
ATOM     12  O   UNL A   1      31.939  25.293  26.511  1.00  0.00    -0.275 OA
BRANCH  11  13
ATOM     13  N   UNL A   1      33.194  26.786  25.293  1.00  0.00    -0.341 N 
ATOM     14  C   UNL A   1      34.089  27.285  26.317  1.00  0.00     0.147 C 
BRANCH  13  15
ATOM     15  C   UNL A   1      33.268  27.407  23.956  1.00  0.00     0.158 C 
BRANCH  15  16
ATOM     16  C   UNL A   1      31.980  27.930  23.437  1.00  0.00     0.015 A 
ATOM     17  C   UNL A   1      31.390  26.170  21.558  1.00  0.00     0.069 C 
ATOM     18  C   UNL A   1      31.221  27.417  22.342  1.00  0.00     0.065 A 
ATOM     19  N   UNL A   1      30.192  28.211  22.045  1.00  0.00    -0.178 NA
ATOM     20  N   UNL A   1      30.266  29.199  22.952  1.00  0.00    -0.272 N 
ATOM     21  C   UNL A   1      31.199  28.966  23.924  1.00  0.00     0.040 A 
ATOM     22  C   UNL A   1      29.451  30.376  22.781  1.00  0.00     0.174 C 
ATOM     23  C   UNL A   1      31.289  29.778  25.157  1.00  0.00     0.067 C 
ENDBRANCH  15  16
ENDBRANCH  13  15
ENDBRANCH  11  13
ENDBRANCH   6  11
ENDBRANCH   3   5
ENDBRANCH   2   3
ENDBRANCH   1   2
BRANCH   1  24
ATOM     24  C   UNL A   1      37.138  20.570  25.001  1.00  0.00     0.275 C 
BRANCH  24  25
ATOM     25  O   UNL A   1      38.103  21.646  25.034  1.00  0.00    -0.458 OA
BRANCH  25  26
ATOM     26  C   UNL A   1      39.046  21.458  25.984  1.00  0.00     0.338 C 
ATOM     27  O   UNL A   1      39.565  20.379  26.229  1.00  0.00    -0.246 OA
BRANCH  26  28
ATOM     28  C   UNL A   1      39.483  22.685  26.680  1.00  0.00     0.060 A 
ATOM     29  C   UNL A   1      38.969  23.857  26.153  1.00  0.00     0.016 A 
ATOM     30  C   UNL A   1      40.564  22.754  27.560  1.00  0.00     0.016 A 
ATOM     31  C   UNL A   1      39.627  25.068  26.339  1.00  0.00     0.010 A 
ATOM     32  C   UNL A   1      41.161  24.009  27.844  1.00  0.00     0.010 A 
ATOM     33  C   UNL A   1      40.734  25.180  27.192  1.00  0.00    -0.014 A 
BRANCH  33  34
ATOM     34  C   UNL A   1      41.346  26.543  27.347  1.00  0.00     0.031 A 
ATOM     35  C   UNL A   1      40.629  27.687  28.031  1.00  0.00     0.074 A 
ATOM     36  C   UNL A   1      42.657  26.692  27.053  1.00  0.00     0.049 A 
ATOM     37  N   UNL A   1      41.140  28.788  28.537  1.00  0.00    -0.248 NA
ATOM     38  C   UNL A   1      39.178  27.574  28.224  1.00  0.00     0.031 C 
ATOM     39  C   UNL A   1      43.505  25.661  26.442  1.00  0.00     0.029 A 
ATOM     40  N   UNL A   1      43.522  27.741  27.261  1.00  0.00    -0.354 N 
ATOM     41  C   UNL A   1      40.108  29.404  29.242  1.00  0.00     0.074 A 
ATOM     42  C   UNL A   1      38.915  28.629  28.990  1.00  0.00     0.031 C 
ATOM     43  C   UNL A   1      44.762  26.115  26.357  1.00  0.00     0.029 A 
ATOM     44  C   UNL A   1      44.804  27.495  26.825  1.00  0.00     0.049 A 
ATOM     45  H   UNL A   1      43.248  28.587  27.683  1.00  0.00     0.167 HD
ATOM     46  C   UNL A   1      40.173  30.464  30.090  1.00  0.00     0.034 A 
ATOM     47  C   UNL A   1      45.887  28.296  26.758  1.00  0.00     0.034 A 
ATOM     48  C   UNL A   1      41.320  31.332  30.207  1.00  0.00     0.049 A 
ATOM     49  C   UNL A   1      45.793  29.684  27.330  1.00  0.00     0.074 A 
ATOM     50  C   UNL A   1      41.456  32.488  30.958  1.00  0.00     0.029 A 
ATOM     51  N   UNL A   1      42.502  31.184  29.496  1.00  0.00    -0.354 N 
ATOM     52  N   UNL A   1      44.834  30.213  28.053  1.00  0.00    -0.248 NA
ATOM     53  C   UNL A   1      46.922  30.584  27.072  1.00  0.00     0.031 C 
ATOM     54  C   UNL A   1      42.675  33.090  30.618  1.00  0.00     0.029 A 
ATOM     55  C   UNL A   1      43.336  32.273  29.715  1.00  0.00     0.049 A 
ATOM     56  H   UNL A   1      42.719  30.418  28.917  1.00  0.00     0.167 HD
ATOM     57  C   UNL A   1      45.255  31.504  28.355  1.00  0.00     0.074 A 
ATOM     58  C   UNL A   1      46.564  31.662  27.751  1.00  0.00     0.031 C 
ATOM     59  C   UNL A   1      44.617  32.463  29.074  1.00  0.00     0.034 A 
BRANCH  46  60
ATOM     60  C   UNL A   1      38.961  30.767  30.939  1.00  0.00     0.023 A 
ATOM     61  C   UNL A   1      37.992  31.702  30.521  1.00  0.00     0.031 A 
ATOM     62  C   UNL A   1      38.726  30.074  32.135  1.00  0.00     0.131 A 
ATOM     63  C   UNL A   1      36.851  31.943  31.303  1.00  0.00     0.055 A 
ATOM     64  C   UNL A   1      37.574  30.293  32.896  1.00  0.00     0.041 A 
ATOM     65  F   UNL A   1      39.606  29.162  32.576  1.00  0.00    -0.206 F 
ATOM     66  C   UNL A   1      36.633  31.237  32.486  1.00  0.00     0.022 A 
BRANCH  63  67
ATOM     67  S   UNL A   1      35.663  33.216  30.775  1.00  0.00     0.124 S 
ATOM     68  O   UNL A   1      34.399  32.486  30.772  1.00  0.00    -0.237 OA
ATOM     69  O   UNL A   1      35.810  34.230  31.813  1.00  0.00    -0.237 OA
ATOM     70  O   UNL A   1      36.148  33.607  29.452  1.00  0.00    -0.744 OA
ENDBRANCH  63  67
ENDBRANCH  46  60
BRANCH  47  71
ATOM     71  C   UNL A   1      47.102  27.847  26.011  1.00  0.00     0.023 A 
ATOM     72  C   UNL A   1      47.251  28.036  24.628  1.00  0.00     0.031 A 
ATOM     73  C   UNL A   1      48.122  27.152  26.692  1.00  0.00     0.131 A 
ATOM     74  C   UNL A   1      48.379  27.515  23.972  1.00  0.00     0.055 A 
ATOM     75  C   UNL A   1      49.270  26.695  26.047  1.00  0.00     0.041 A 
ATOM     76  F   UNL A   1      48.023  26.912  28.010  1.00  0.00    -0.206 F 
ATOM     77  C   UNL A   1      49.397  26.866  24.676  1.00  0.00     0.022 A 
BRANCH  74  78
ATOM     78  S   UNL A   1      48.463  27.604  22.162  1.00  0.00     0.124 S 
ATOM     79  O   UNL A   1      49.606  28.486  21.958  1.00  0.00    -0.237 OA
ATOM     80  O   UNL A   1      48.657  26.205  21.796  1.00  0.00    -0.237 OA
ATOM     81  O   UNL A   1      47.167  28.169  21.787  1.00  0.00    -0.744 OA
ENDBRANCH  74  78
ENDBRANCH  47  71
BRANCH  59  82
ATOM     82  C   UNL A   1      45.345  33.776  29.242  1.00  0.00     0.023 A 
ATOM     83  C   UNL A   1      45.091  34.865  28.386  1.00  0.00     0.031 A 
ATOM     84  C   UNL A   1      46.350  33.923  30.212  1.00  0.00     0.131 A 
ATOM     85  C   UNL A   1      45.885  36.019  28.465  1.00  0.00     0.055 A 
ATOM     86  C   UNL A   1      47.090  35.102  30.333  1.00  0.00     0.041 A 
ATOM     87  F   UNL A   1      46.646  32.918  31.051  1.00  0.00    -0.206 F 
ATOM     88  C   UNL A   1      46.873  36.151  29.443  1.00  0.00     0.022 A 
BRANCH  85  89
ATOM     89  S   UNL A   1      45.702  37.288  27.181  1.00  0.00     0.124 S 
ATOM     90  O   UNL A   1      46.583  36.789  26.131  1.00  0.00    -0.237 OA
ATOM     91  O   UNL A   1      44.273  37.236  26.892  1.00  0.00    -0.237 OA
ATOM     92  O   UNL A   1      46.155  38.511  27.841  1.00  0.00    -0.744 OA
ENDBRANCH  85  89
ENDBRANCH  59  82
ENDBRANCH  33  34
ENDBRANCH  26  28
ENDBRANCH  25  26
ENDBRANCH  24  25
ENDBRANCH   1  24
TORSDOF 18
ENDMDL
