MODEL 1
REMARK VINA RESULT:     -11.3      0.000      0.000
REMARK SMILES CC[C@@H](C)S(=O)(=O)c1cc(C(=O)OCCOC(=O)c2ccc(-c3c4nc(c(-c5cc(S(=O)(=O)[O-])ccc5F)c5ccc([nH]5)c(-c5cc(S(=O)(=O)[O-])ccc5F)c5nc(c(-c6cc(S(=O)(=O)[O-])ccc6F)c6ccc3[nH]6)C=C5)C=C4)cc2)c(C)cc1C
REMARK SMILES IDX 14 1 13 2 11 3 12 4 10 5 8 6 9 7 85 8 84 9 86 10 82 11 83 12
REMARK SMILES IDX 5 13 6 14 7 15 3 16 4 17 2 18 1 19 15 20 16 21 17 22 18 23
REMARK SMILES IDX 19 24 20 25 81 26 21 27 80 28 22 29 23 30 24 31 74 32 25 33
REMARK SMILES IDX 79 34 73 35 75 36 26 37 78 38 72 39 71 40 27 42 59 43 39 44
REMARK SMILES IDX 58 45 40 46 43 47 57 48 76 49 41 50 42 51 56 53 77 54 44 55
REMARK SMILES IDX 28 56 29 57 37 58 30 59 36 60 38 61 35 62 31 63 32 64 33 65
REMARK SMILES IDX 34 66 60 67 61 68 69 69 62 70 68 71 70 72 67 73 63 74 64 75
REMARK SMILES IDX 65 76 66 77 45 78 46 79 54 80 47 81 53 82 55 83 52 84 48 85
REMARK SMILES IDX 49 86 50 87 51 88
REMARK H PARENT 75 41 43 52
REMARK Flexibility Score: inf
ROOT
ATOM      1  C   UNL A   1      35.069  21.322  24.638  1.00  0.00     0.275 C 
ENDROOT
BRANCH   1   2
ATOM      2  O   UNL A   1      35.259  22.753  24.598  1.00  0.00    -0.458 OA
BRANCH   2   3
ATOM      3  C   UNL A   1      34.609  23.477  25.540  1.00  0.00     0.338 C 
ATOM      4  O   UNL A   1      35.001  23.706  26.674  1.00  0.00    -0.246 OA
BRANCH   3   5
ATOM      5  C   UNL A   1      33.323  24.021  25.027  1.00  0.00     0.064 A 
ATOM      6  C   UNL A   1      32.250  25.667  23.562  1.00  0.00     0.071 A 
ATOM      7  C   UNL A   1      33.402  25.014  24.020  1.00  0.00     0.036 A 
ATOM      8  C   UNL A   1      31.009  25.380  24.167  1.00  0.00    -0.032 A 
ATOM      9  C   UNL A   1      30.940  24.363  25.133  1.00  0.00     0.009 A 
ATOM     10  C   UNL A   1      29.731  26.112  23.845  1.00  0.00     0.046 C 
ATOM     11  C   UNL A   1      32.080  23.679  25.586  1.00  0.00    -0.036 A 
ATOM     12  C   UNL A   1      31.861  22.670  26.678  1.00  0.00     0.045 C 
BRANCH   6  13
ATOM     13  S   UNL A   1      32.296  26.919  22.272  1.00  0.00     0.181 S 
ATOM     14  O   UNL A   1      31.178  26.590  21.405  1.00  0.00    -0.223 OA
ATOM     15  O   UNL A   1      33.651  26.876  21.743  1.00  0.00    -0.223 OA
BRANCH  13  16
ATOM     16  C   UNL A   1      32.080  28.582  22.879  1.00  0.00     0.110 C 
ATOM     17  C   UNL A   1      32.341  28.707  24.379  1.00  0.00     0.025 C 
BRANCH  16  18
ATOM     18  C   UNL A   1      30.783  29.241  22.400  1.00  0.00     0.016 C 
ATOM     19  C   UNL A   1      29.954  29.790  23.555  1.00  0.00     0.005 C 
ENDBRANCH  16  18
ENDBRANCH  13  16
ENDBRANCH   6  13
ENDBRANCH   3   5
ENDBRANCH   2   3
ENDBRANCH   1   2
BRANCH   1  20
ATOM     20  C   UNL A   1      36.369  20.610  25.000  1.00  0.00     0.275 C 
BRANCH  20  21
ATOM     21  O   UNL A   1      37.451  21.554  24.980  1.00  0.00    -0.458 OA
BRANCH  21  22
ATOM     22  C   UNL A   1      38.559  21.178  25.658  1.00  0.00     0.338 C 
ATOM     23  O   UNL A   1      39.081  20.078  25.684  1.00  0.00    -0.246 OA
BRANCH  22  24
ATOM     24  C   UNL A   1      39.139  22.367  26.295  1.00  0.00     0.060 A 
ATOM     25  C   UNL A   1      38.546  23.594  26.026  1.00  0.00     0.016 A 
ATOM     26  C   UNL A   1      40.310  22.300  27.048  1.00  0.00     0.016 A 
ATOM     27  C   UNL A   1      39.172  24.762  26.441  1.00  0.00     0.010 A 
ATOM     28  C   UNL A   1      40.908  23.485  27.511  1.00  0.00     0.010 A 
ATOM     29  C   UNL A   1      40.369  24.738  27.171  1.00  0.00    -0.014 A 
BRANCH  29  30
ATOM     30  C   UNL A   1      41.076  26.034  27.438  1.00  0.00     0.031 A 
ATOM     31  C   UNL A   1      40.504  27.015  28.435  1.00  0.00     0.074 A 
ATOM     32  C   UNL A   1      42.321  26.256  26.959  1.00  0.00     0.049 A 
ATOM     33  N   UNL A   1      40.958  28.190  28.796  1.00  0.00    -0.248 NA
ATOM     34  C   UNL A   1      39.273  26.614  29.131  1.00  0.00     0.031 C 
ATOM     35  C   UNL A   1      43.074  25.324  26.118  1.00  0.00     0.029 A 
ATOM     36  N   UNL A   1      43.212  27.278  27.191  1.00  0.00    -0.354 N 
ATOM     37  C   UNL A   1      40.031  28.698  29.703  1.00  0.00     0.074 A 
ATOM     38  C   UNL A   1      39.006  27.689  29.858  1.00  0.00     0.031 C 
ATOM     39  C   UNL A   1      44.344  25.749  26.023  1.00  0.00     0.029 A 
ATOM     40  C   UNL A   1      44.466  27.055  26.662  1.00  0.00     0.049 A 
ATOM     41  H   UNL A   1      42.975  28.094  27.689  1.00  0.00     0.167 HD
ATOM     42  C   UNL A   1      40.026  29.903  30.329  1.00  0.00     0.034 A 
ATOM     43  C   UNL A   1      45.580  27.821  26.661  1.00  0.00     0.034 A 
ATOM     44  C   UNL A   1      41.074  30.889  30.203  1.00  0.00     0.049 A 
ATOM     45  C   UNL A   1      45.509  29.199  27.277  1.00  0.00     0.074 A 
ATOM     46  C   UNL A   1      41.124  32.165  30.738  1.00  0.00     0.029 A 
ATOM     47  N   UNL A   1      42.259  30.709  29.505  1.00  0.00    -0.354 N 
ATOM     48  N   UNL A   1      44.552  29.738  27.995  1.00  0.00    -0.248 NA
ATOM     49  C   UNL A   1      46.654  30.090  27.039  1.00  0.00     0.031 C 
ATOM     50  C   UNL A   1      42.300  32.784  30.298  1.00  0.00     0.029 A 
ATOM     51  C   UNL A   1      43.027  31.863  29.561  1.00  0.00     0.049 A 
ATOM     52  H   UNL A   1      42.518  29.882  29.038  1.00  0.00     0.167 HD
ATOM     53  C   UNL A   1      44.980  31.032  28.286  1.00  0.00     0.074 A 
ATOM     54  C   UNL A   1      46.298  31.176  27.708  1.00  0.00     0.031 C 
ATOM     55  C   UNL A   1      44.330  32.019  28.957  1.00  0.00     0.034 A 
BRANCH  42  56
ATOM     56  C   UNL A   1      38.779  30.273  31.100  1.00  0.00     0.023 A 
ATOM     57  C   UNL A   1      37.690  30.939  30.517  1.00  0.00     0.031 A 
ATOM     58  C   UNL A   1      38.715  29.980  32.476  1.00  0.00     0.131 A 
ATOM     59  C   UNL A   1      36.613  31.347  31.322  1.00  0.00     0.055 A 
ATOM     60  C   UNL A   1      37.606  30.316  33.252  1.00  0.00     0.041 A 
ATOM     61  F   UNL A   1      39.740  29.370  33.092  1.00  0.00    -0.206 F 
ATOM     62  C   UNL A   1      36.552  31.018  32.679  1.00  0.00     0.022 A 
BRANCH  59  63
ATOM     63  S   UNL A   1      35.364  32.457  30.612  1.00  0.00     0.124 S 
ATOM     64  O   UNL A   1      36.150  33.665  30.366  1.00  0.00    -0.237 OA
ATOM     65  O   UNL A   1      34.929  31.724  29.429  1.00  0.00    -0.237 OA
ATOM     66  O   UNL A   1      34.369  32.578  31.675  1.00  0.00    -0.744 OA
ENDBRANCH  59  63
ENDBRANCH  42  56
BRANCH  43  67
ATOM     67  C   UNL A   1      46.832  27.368  25.974  1.00  0.00     0.023 A 
ATOM     68  C   UNL A   1      47.127  27.762  24.656  1.00  0.00     0.031 A 
ATOM     69  C   UNL A   1      47.715  26.464  26.593  1.00  0.00     0.131 A 
ATOM     70  C   UNL A   1      48.248  27.227  23.997  1.00  0.00     0.055 A 
ATOM     71  C   UNL A   1      48.872  26.001  25.965  1.00  0.00     0.041 A 
ATOM     72  F   UNL A   1      47.470  26.013  27.835  1.00  0.00    -0.206 F 
ATOM     73  C   UNL A   1      49.136  26.372  24.652  1.00  0.00     0.022 A 
BRANCH  70  74
ATOM     74  S   UNL A   1      48.468  27.559  22.226  1.00  0.00     0.124 S 
ATOM     75  O   UNL A   1      49.651  28.412  22.231  1.00  0.00    -0.237 OA
ATOM     76  O   UNL A   1      48.643  26.218  21.683  1.00  0.00    -0.237 OA
ATOM     77  O   UNL A   1      47.222  28.224  21.849  1.00  0.00    -0.744 OA
ENDBRANCH  70  74
ENDBRANCH  43  67
BRANCH  55  78
ATOM     78  C   UNL A   1      45.044  33.343  29.104  1.00  0.00     0.023 A 
ATOM     79  C   UNL A   1      44.861  34.385  28.175  1.00  0.00     0.031 A 
ATOM     80  C   UNL A   1      45.920  33.567  30.180  1.00  0.00     0.131 A 
ATOM     81  C   UNL A   1      45.582  35.582  28.313  1.00  0.00     0.055 A 
ATOM     82  C   UNL A   1      46.589  34.783  30.344  1.00  0.00     0.041 A 
ATOM     83  F   UNL A   1      46.135  32.611  31.097  1.00  0.00    -0.206 F 
ATOM     84  C   UNL A   1      46.431  35.793  29.401  1.00  0.00     0.022 A 
BRANCH  81  85
ATOM     85  S   UNL A   1      45.461  36.831  27.002  1.00  0.00     0.124 S 
ATOM     86  O   UNL A   1      46.184  36.194  25.906  1.00  0.00    -0.237 OA
ATOM     87  O   UNL A   1      44.018  36.960  26.824  1.00  0.00    -0.237 OA
ATOM     88  O   UNL A   1      46.120  38.001  27.580  1.00  0.00    -0.744 OA
ENDBRANCH  81  85
ENDBRANCH  55  78
ENDBRANCH  29  30
ENDBRANCH  22  24
ENDBRANCH  21  22
ENDBRANCH  20  21
ENDBRANCH   1  20
TORSDOF 17
ENDMDL
MODEL 2
REMARK VINA RESULT:     -11.3      1.733      2.124
REMARK SMILES CC[C@@H](C)S(=O)(=O)c1cc(C(=O)OCCOC(=O)c2ccc(-c3c4nc(c(-c5cc(S(=O)(=O)[O-])ccc5F)c5ccc([nH]5)c(-c5cc(S(=O)(=O)[O-])ccc5F)c5nc(c(-c6cc(S(=O)(=O)[O-])ccc6F)c6ccc3[nH]6)C=C5)C=C4)cc2)c(C)cc1C
REMARK SMILES IDX 14 1 13 2 11 3 12 4 10 5 8 6 9 7 85 8 84 9 86 10 82 11 83 12
REMARK SMILES IDX 5 13 6 14 7 15 3 16 4 17 2 18 1 19 15 20 16 21 17 22 18 23
REMARK SMILES IDX 19 24 20 25 81 26 21 27 80 28 22 29 23 30 24 31 74 32 25 33
REMARK SMILES IDX 79 34 73 35 75 36 26 37 78 38 72 39 71 40 27 42 59 43 39 44
REMARK SMILES IDX 58 45 40 46 43 47 57 48 76 49 41 50 42 51 56 53 77 54 44 55
REMARK SMILES IDX 28 56 29 57 37 58 30 59 36 60 38 61 35 62 31 63 32 64 33 65
REMARK SMILES IDX 34 66 60 67 61 68 69 69 62 70 68 71 70 72 67 73 63 74 64 75
REMARK SMILES IDX 65 76 66 77 45 78 46 79 54 80 47 81 53 82 55 83 52 84 48 85
REMARK SMILES IDX 49 86 50 87 51 88
REMARK H PARENT 75 41 43 52
REMARK Flexibility Score: inf
ROOT
ATOM      1  C   UNL A   1      34.983  20.885  24.853  1.00  0.00     0.275 C 
ENDROOT
BRANCH   1   2
ATOM      2  O   UNL A   1      34.942  22.326  24.926  1.00  0.00    -0.458 OA
BRANCH   2   3
ATOM      3  C   UNL A   1      34.761  22.988  23.758  1.00  0.00     0.338 C 
ATOM      4  O   UNL A   1      35.491  22.940  22.780  1.00  0.00    -0.246 OA
BRANCH   3   5
ATOM      5  C   UNL A   1      33.512  23.794  23.770  1.00  0.00     0.064 A 
ATOM      6  C   UNL A   1      32.411  25.830  24.576  1.00  0.00     0.071 A 
ATOM      7  C   UNL A   1      33.567  25.055  24.412  1.00  0.00     0.036 A 
ATOM      8  C   UNL A   1      31.168  25.310  24.160  1.00  0.00    -0.032 A 
ATOM      9  C   UNL A   1      31.136  24.078  23.486  1.00  0.00     0.009 A 
ATOM     10  C   UNL A   1      29.849  25.998  24.402  1.00  0.00     0.046 C 
ATOM     11  C   UNL A   1      32.287  23.299  23.289  1.00  0.00    -0.036 A 
ATOM     12  C   UNL A   1      32.085  21.969  22.620  1.00  0.00     0.045 C 
BRANCH   6  13
ATOM     13  S   UNL A   1      32.433  27.445  25.365  1.00  0.00     0.181 S 
ATOM     14  O   UNL A   1      33.773  27.564  25.912  1.00  0.00    -0.223 OA
ATOM     15  O   UNL A   1      31.288  27.450  26.263  1.00  0.00    -0.223 OA
BRANCH  13  16
ATOM     16  C   UNL A   1      32.152  28.799  24.237  1.00  0.00     0.110 C 
ATOM     17  C   UNL A   1      30.774  29.436  24.402  1.00  0.00     0.025 C 
BRANCH  16  18
ATOM     18  C   UNL A   1      32.535  28.474  22.790  1.00  0.00     0.016 C 
ATOM     19  C   UNL A   1      34.043  28.504  22.573  1.00  0.00     0.005 C 
ENDBRANCH  16  18
ENDBRANCH  13  16
ENDBRANCH   6  13
ENDBRANCH   3   5
ENDBRANCH   2   3
ENDBRANCH   1   2
BRANCH   1  20
ATOM     20  C   UNL A   1      36.416  20.373  24.972  1.00  0.00     0.275 C 
BRANCH  20  21
ATOM     21  O   UNL A   1      37.289  21.471  25.281  1.00  0.00    -0.458 OA
BRANCH  21  22
ATOM     22  C   UNL A   1      38.509  21.125  25.750  1.00  0.00     0.338 C 
ATOM     23  O   UNL A   1      39.088  20.062  25.613  1.00  0.00    -0.246 OA
BRANCH  22  24
ATOM     24  C   UNL A   1      39.117  22.305  26.377  1.00  0.00     0.060 A 
ATOM     25  C   UNL A   1      38.575  23.546  26.071  1.00  0.00     0.016 A 
ATOM     26  C   UNL A   1      40.270  22.211  27.156  1.00  0.00     0.016 A 
ATOM     27  C   UNL A   1      39.234  24.699  26.477  1.00  0.00     0.010 A 
ATOM     28  C   UNL A   1      40.899  23.384  27.610  1.00  0.00     0.010 A 
ATOM     29  C   UNL A   1      40.413  24.649  27.234  1.00  0.00    -0.014 A 
BRANCH  29  30
ATOM     30  C   UNL A   1      41.160  25.923  27.492  1.00  0.00     0.031 A 
ATOM     31  C   UNL A   1      40.613  26.934  28.474  1.00  0.00     0.074 A 
ATOM     32  C   UNL A   1      42.414  26.099  27.019  1.00  0.00     0.049 A 
ATOM     33  N   UNL A   1      41.103  28.097  28.825  1.00  0.00    -0.248 NA
ATOM     34  C   UNL A   1      39.365  26.581  29.165  1.00  0.00     0.031 C 
ATOM     35  C   UNL A   1      43.143  25.134  26.195  1.00  0.00     0.029 A 
ATOM     36  N   UNL A   1      43.337  27.095  27.246  1.00  0.00    -0.354 N 
ATOM     37  C   UNL A   1      40.187  28.646  29.719  1.00  0.00     0.074 A 
ATOM     38  C   UNL A   1      39.128  27.672  29.878  1.00  0.00     0.031 C 
ATOM     39  C   UNL A   1      44.426  25.516  26.103  1.00  0.00     0.029 A 
ATOM     40  C   UNL A   1      44.587  26.825  26.729  1.00  0.00     0.049 A 
ATOM     41  H   UNL A   1      43.124  27.923  27.733  1.00  0.00     0.167 HD
ATOM     42  C   UNL A   1      40.216  29.857  30.331  1.00  0.00     0.034 A 
ATOM     43  C   UNL A   1      45.725  27.554  26.727  1.00  0.00     0.034 A 
ATOM     44  C   UNL A   1      41.297  30.807  30.202  1.00  0.00     0.049 A 
ATOM     45  C   UNL A   1      45.695  28.941  27.328  1.00  0.00     0.074 A 
ATOM     46  C   UNL A   1      41.385  32.087  30.724  1.00  0.00     0.029 A 
ATOM     47  N   UNL A   1      42.481  30.580  29.514  1.00  0.00    -0.354 N 
ATOM     48  N   UNL A   1      44.751  29.519  28.032  1.00  0.00    -0.248 NA
ATOM     49  C   UNL A   1      46.870  29.791  27.087  1.00  0.00     0.031 C 
ATOM     50  C   UNL A   1      42.584  32.662  30.285  1.00  0.00     0.029 A 
ATOM     51  C   UNL A   1      43.286  31.710  29.563  1.00  0.00     0.049 A 
ATOM     52  H   UNL A   1      42.716  29.740  29.059  1.00  0.00     0.167 HD
ATOM     53  C   UNL A   1      45.219  30.801  28.312  1.00  0.00     0.074 A 
ATOM     54  C   UNL A   1      46.545  30.895  27.742  1.00  0.00     0.031 C 
ATOM     55  C   UNL A   1      44.597  31.816  28.967  1.00  0.00     0.034 A 
BRANCH  42  56
ATOM     56  C   UNL A   1      38.978  30.276  31.089  1.00  0.00     0.023 A 
ATOM     57  C   UNL A   1      37.907  30.955  30.487  1.00  0.00     0.031 A 
ATOM     58  C   UNL A   1      38.902  30.017  32.472  1.00  0.00     0.131 A 
ATOM     59  C   UNL A   1      36.838  31.409  31.279  1.00  0.00     0.055 A 
ATOM     60  C   UNL A   1      37.800  30.399  33.236  1.00  0.00     0.041 A 
ATOM     61  F   UNL A   1      39.910  29.397  33.106  1.00  0.00    -0.206 F 
ATOM     62  C   UNL A   1      36.765  31.113  32.643  1.00  0.00     0.022 A 
BRANCH  59  63
ATOM     63  S   UNL A   1      35.620  32.533  30.538  1.00  0.00     0.124 S 
ATOM     64  O   UNL A   1      34.971  31.661  29.561  1.00  0.00    -0.237 OA
ATOM     65  O   UNL A   1      34.811  32.921  31.687  1.00  0.00    -0.237 OA
ATOM     66  O   UNL A   1      36.441  33.596  29.962  1.00  0.00    -0.744 OA
ENDBRANCH  59  63
ENDBRANCH  42  56
BRANCH  43  67
ATOM     67  C   UNL A   1      46.966  27.052  26.054  1.00  0.00     0.023 A 
ATOM     68  C   UNL A   1      47.961  26.363  26.773  1.00  0.00     0.031 A 
ATOM     69  C   UNL A   1      47.220  27.328  24.698  1.00  0.00     0.131 A 
ATOM     70  C   UNL A   1      49.166  26.010  26.141  1.00  0.00     0.055 A 
ATOM     71  C   UNL A   1      48.383  26.901  24.054  1.00  0.00     0.041 A 
ATOM     72  F   UNL A   1      46.333  28.021  23.965  1.00  0.00    -0.206 F 
ATOM     73  C   UNL A   1      49.371  26.250  24.781  1.00  0.00     0.022 A 
BRANCH  70  74
ATOM     74  S   UNL A   1      50.522  25.344  27.147  1.00  0.00     0.124 S 
ATOM     75  O   UNL A   1      50.915  26.515  27.924  1.00  0.00    -0.237 OA
ATOM     76  O   UNL A   1      49.860  24.274  27.884  1.00  0.00    -0.237 OA
ATOM     77  O   UNL A   1      51.497  24.901  26.152  1.00  0.00    -0.744 OA
ENDBRANCH  70  74
ENDBRANCH  43  67
BRANCH  55  78
ATOM     78  C   UNL A   1      45.353  33.118  29.104  1.00  0.00     0.023 A 
ATOM     79  C   UNL A   1      45.224  34.148  28.153  1.00  0.00     0.031 A 
ATOM     80  C   UNL A   1      46.214  33.333  30.194  1.00  0.00     0.131 A 
ATOM     81  C   UNL A   1      45.982  35.322  28.284  1.00  0.00     0.055 A 
ATOM     82  C   UNL A   1      46.921  34.528  30.350  1.00  0.00     0.041 A 
ATOM     83  F   UNL A   1      46.379  32.387  31.132  1.00  0.00    -0.206 F 
ATOM     84  C   UNL A   1      46.817  35.525  29.386  1.00  0.00     0.022 A 
BRANCH  81  85
ATOM     85  S   UNL A   1      45.930  36.550  26.948  1.00  0.00     0.124 S 
ATOM     86  O   UNL A   1      46.929  37.519  27.386  1.00  0.00    -0.237 OA
ATOM     87  O   UNL A   1      46.284  35.754  25.777  1.00  0.00    -0.237 OA
ATOM     88  O   UNL A   1      44.549  37.029  26.976  1.00  0.00    -0.744 OA
ENDBRANCH  81  85
ENDBRANCH  55  78
ENDBRANCH  29  30
ENDBRANCH  22  24
ENDBRANCH  21  22
ENDBRANCH  20  21
ENDBRANCH   1  20
TORSDOF 17
ENDMDL
MODEL 3
REMARK VINA RESULT:     -11.0      1.690      2.076
REMARK SMILES CC[C@@H](C)S(=O)(=O)c1cc(C(=O)OCCOC(=O)c2ccc(-c3c4nc(c(-c5cc(S(=O)(=O)[O-])ccc5F)c5ccc([nH]5)c(-c5cc(S(=O)(=O)[O-])ccc5F)c5nc(c(-c6cc(S(=O)(=O)[O-])ccc6F)c6ccc3[nH]6)C=C5)C=C4)cc2)c(C)cc1C
REMARK SMILES IDX 14 1 13 2 11 3 12 4 10 5 8 6 9 7 85 8 84 9 86 10 82 11 83 12
REMARK SMILES IDX 5 13 6 14 7 15 3 16 4 17 2 18 1 19 15 20 16 21 17 22 18 23
REMARK SMILES IDX 19 24 20 25 81 26 21 27 80 28 22 29 23 30 24 31 74 32 25 33
REMARK SMILES IDX 79 34 73 35 75 36 26 37 78 38 72 39 71 40 27 42 59 43 39 44
REMARK SMILES IDX 58 45 40 46 43 47 57 48 76 49 41 50 42 51 56 53 77 54 44 55
REMARK SMILES IDX 28 56 29 57 37 58 30 59 36 60 38 61 35 62 31 63 32 64 33 65
REMARK SMILES IDX 34 66 60 67 61 68 69 69 62 70 68 71 70 72 67 73 63 74 64 75
REMARK SMILES IDX 65 76 66 77 45 78 46 79 54 80 47 81 53 82 55 83 52 84 48 85
REMARK SMILES IDX 49 86 50 87 51 88
REMARK H PARENT 75 41 43 52
REMARK Flexibility Score: inf
ROOT
ATOM      1  C   UNL A   1      34.987  21.167  25.191  1.00  0.00     0.275 C 
ENDROOT
BRANCH   1   2
ATOM      2  O   UNL A   1      34.398  21.479  23.910  1.00  0.00    -0.458 OA
BRANCH   2   3
ATOM      3  C   UNL A   1      34.617  22.725  23.429  1.00  0.00     0.338 C 
ATOM      4  O   UNL A   1      35.654  23.136  22.931  1.00  0.00    -0.246 OA
BRANCH   3   5
ATOM      5  C   UNL A   1      33.405  23.580  23.542  1.00  0.00     0.064 A 
ATOM      6  C   UNL A   1      32.441  25.630  24.479  1.00  0.00     0.071 A 
ATOM      7  C   UNL A   1      33.551  24.815  24.221  1.00  0.00     0.036 A 
ATOM      8  C   UNL A   1      31.155  25.175  24.123  1.00  0.00    -0.032 A 
ATOM      9  C   UNL A   1      31.031  23.970  23.412  1.00  0.00     0.009 A 
ATOM     10  C   UNL A   1      29.883  25.906  24.467  1.00  0.00     0.046 C 
ATOM     11  C   UNL A   1      32.135  23.152  23.121  1.00  0.00    -0.036 A 
ATOM     12  C   UNL A   1      31.837  21.855  22.422  1.00  0.00     0.045 C 
BRANCH   6  13
ATOM     13  S   UNL A   1      32.578  27.214  25.318  1.00  0.00     0.181 S 
ATOM     14  O   UNL A   1      33.946  27.251  25.804  1.00  0.00    -0.223 OA
ATOM     15  O   UNL A   1      31.478  27.242  26.269  1.00  0.00    -0.223 OA
BRANCH  13  16
ATOM     16  C   UNL A   1      32.312  28.617  24.249  1.00  0.00     0.110 C 
ATOM     17  C   UNL A   1      31.008  29.355  24.547  1.00  0.00     0.025 C 
BRANCH  16  18
ATOM     18  C   UNL A   1      32.543  28.305  22.767  1.00  0.00     0.016 C 
ATOM     19  C   UNL A   1      34.024  28.269  22.410  1.00  0.00     0.005 C 
ENDBRANCH  16  18
ENDBRANCH  13  16
ENDBRANCH   6  13
ENDBRANCH   3   5
ENDBRANCH   2   3
ENDBRANCH   1   2
BRANCH   1  20
ATOM     20  C   UNL A   1      36.372  20.549  25.018  1.00  0.00     0.275 C 
BRANCH  20  21
ATOM     21  O   UNL A   1      37.369  21.578  25.123  1.00  0.00    -0.458 OA
BRANCH  21  22
ATOM     22  C   UNL A   1      38.518  21.209  25.733  1.00  0.00     0.338 C 
ATOM     23  O   UNL A   1      39.050  20.114  25.723  1.00  0.00    -0.246 OA
BRANCH  22  24
ATOM     24  C   UNL A   1      39.124  22.400  26.340  1.00  0.00     0.060 A 
ATOM     25  C   UNL A   1      38.501  23.622  26.119  1.00  0.00     0.016 A 
ATOM     26  C   UNL A   1      40.343  22.342  27.014  1.00  0.00     0.016 A 
ATOM     27  C   UNL A   1      39.139  24.794  26.502  1.00  0.00     0.010 A 
ATOM     28  C   UNL A   1      40.955  23.531  27.446  1.00  0.00     0.010 A 
ATOM     29  C   UNL A   1      40.381  24.780  27.152  1.00  0.00    -0.014 A 
BRANCH  29  30
ATOM     30  C   UNL A   1      41.089  26.082  27.383  1.00  0.00     0.031 A 
ATOM     31  C   UNL A   1      40.545  27.070  28.390  1.00  0.00     0.074 A 
ATOM     32  C   UNL A   1      42.315  26.307  26.859  1.00  0.00     0.049 A 
ATOM     33  N   UNL A   1      41.004  28.251  28.724  1.00  0.00    -0.248 NA
ATOM     34  C   UNL A   1      39.341  26.668  29.131  1.00  0.00     0.031 C 
ATOM     35  C   UNL A   1      43.045  25.371  26.002  1.00  0.00     0.029 A 
ATOM     36  N   UNL A   1      43.207  27.337  27.051  1.00  0.00    -0.354 N 
ATOM     37  C   UNL A   1      40.106  28.762  29.657  1.00  0.00     0.074 A 
ATOM     38  C   UNL A   1      39.093  27.748  29.857  1.00  0.00     0.031 C 
ATOM     39  C   UNL A   1      44.308  25.803  25.859  1.00  0.00     0.029 A 
ATOM     40  C   UNL A   1      44.444  27.116  26.481  1.00  0.00     0.049 A 
ATOM     41  H   UNL A   1      42.983  28.156  27.549  1.00  0.00     0.167 HD
ATOM     42  C   UNL A   1      40.115  29.973  30.272  1.00  0.00     0.034 A 
ATOM     43  C   UNL A   1      45.552  27.888  26.435  1.00  0.00     0.034 A 
ATOM     44  C   UNL A   1      41.152  30.963  30.101  1.00  0.00     0.049 A 
ATOM     45  C   UNL A   1      45.494  29.272  27.040  1.00  0.00     0.074 A 
ATOM     46  C   UNL A   1      41.213  32.245  30.622  1.00  0.00     0.029 A 
ATOM     47  N   UNL A   1      42.313  30.784  29.364  1.00  0.00    -0.354 N 
ATOM     48  N   UNL A   1      44.559  29.812  27.785  1.00  0.00    -0.248 NA
ATOM     49  C   UNL A   1      46.625  30.167  26.753  1.00  0.00     0.031 C 
ATOM     50  C   UNL A   1      42.369  32.866  30.136  1.00  0.00     0.029 A 
ATOM     51  C   UNL A   1      43.076  31.943  29.382  1.00  0.00     0.049 A 
ATOM     52  H   UNL A   1      42.562  29.954  28.897  1.00  0.00     0.167 HD
ATOM     53  C   UNL A   1      44.989  31.111  28.049  1.00  0.00     0.074 A 
ATOM     54  C   UNL A   1      46.285  31.257  27.425  1.00  0.00     0.031 C 
ATOM     55  C   UNL A   1      44.357  32.100  28.733  1.00  0.00     0.034 A 
BRANCH  42  56
ATOM     56  C   UNL A   1      38.894  30.342  31.082  1.00  0.00     0.023 A 
ATOM     57  C   UNL A   1      37.762  30.957  30.521  1.00  0.00     0.031 A 
ATOM     58  C   UNL A   1      38.896  30.104  32.470  1.00  0.00     0.131 A 
ATOM     59  C   UNL A   1      36.711  31.371  31.357  1.00  0.00     0.055 A 
ATOM     60  C   UNL A   1      37.813  30.444  33.280  1.00  0.00     0.041 A 
ATOM     61  F   UNL A   1      39.962  29.546  33.064  1.00  0.00    -0.206 F 
ATOM     62  C   UNL A   1      36.717  31.096  32.727  1.00  0.00     0.022 A 
BRANCH  59  63
ATOM     63  S   UNL A   1      35.404  32.419  30.658  1.00  0.00     0.124 S 
ATOM     64  O   UNL A   1      34.373  32.332  31.690  1.00  0.00    -0.237 OA
ATOM     65  O   UNL A   1      36.072  33.708  30.528  1.00  0.00    -0.237 OA
ATOM     66  O   UNL A   1      35.069  31.757  29.399  1.00  0.00    -0.744 OA
ENDBRANCH  59  63
ENDBRANCH  42  56
BRANCH  43  67
ATOM     67  C   UNL A   1      46.783  27.436  25.709  1.00  0.00     0.023 A 
ATOM     68  C   UNL A   1      47.045  27.844  24.388  1.00  0.00     0.031 A 
ATOM     69  C   UNL A   1      47.677  26.520  26.294  1.00  0.00     0.131 A 
ATOM     70  C   UNL A   1      48.145  27.309  23.693  1.00  0.00     0.055 A 
ATOM     71  C   UNL A   1      48.813  26.058  25.629  1.00  0.00     0.041 A 
ATOM     72  F   UNL A   1      47.462  26.056  27.536  1.00  0.00    -0.206 F 
ATOM     73  C   UNL A   1      49.045  26.442  24.315  1.00  0.00     0.022 A 
BRANCH  70  74
ATOM     74  S   UNL A   1      48.319  27.661  21.921  1.00  0.00     0.124 S 
ATOM     75  O   UNL A   1      48.567  26.329  21.379  1.00  0.00    -0.237 OA
ATOM     76  O   UNL A   1      47.027  28.257  21.599  1.00  0.00    -0.237 OA
ATOM     77  O   UNL A   1      49.456  28.577  21.867  1.00  0.00    -0.744 OA
ENDBRANCH  70  74
ENDBRANCH  43  67
BRANCH  55  78
ATOM     78  C   UNL A   1      45.067  33.430  28.843  1.00  0.00     0.023 A 
ATOM     79  C   UNL A   1      45.972  33.698  29.887  1.00  0.00     0.031 A 
ATOM     80  C   UNL A   1      44.836  34.444  27.897  1.00  0.00     0.131 A 
ATOM     81  C   UNL A   1      46.572  34.963  29.988  1.00  0.00     0.055 A 
ATOM     82  C   UNL A   1      45.481  35.680  27.970  1.00  0.00     0.041 A 
ATOM     83  F   UNL A   1      43.982  34.247  26.879  1.00  0.00    -0.206 F 
ATOM     84  C   UNL A   1      46.345  35.950  29.026  1.00  0.00     0.022 A 
BRANCH  81  85
ATOM     85  S   UNL A   1      47.590  35.334  31.445  1.00  0.00     0.124 S 
ATOM     86  O   UNL A   1      47.739  34.017  32.055  1.00  0.00    -0.237 OA
ATOM     87  O   UNL A   1      48.795  35.901  30.848  1.00  0.00    -0.237 OA
ATOM     88  O   UNL A   1      46.772  36.279  32.204  1.00  0.00    -0.744 OA
ENDBRANCH  81  85
ENDBRANCH  55  78
ENDBRANCH  29  30
ENDBRANCH  22  24
ENDBRANCH  21  22
ENDBRANCH  20  21
ENDBRANCH   1  20
TORSDOF 17
ENDMDL
