MODEL 1
REMARK VINA RESULT:     -14.3      0.000      0.000
REMARK SMILES O=C(OCCOC(=O)c1ccc(-c2c3nc(c(-c4cc(S(=O)(=O)[O-])ccc4F)c4ccc([nH]4)c(-c4cc(S(=O)(=O)[O-])ccc4F)c4nc(c(-c5cc(S(=O)(=O)[O-])ccc5F)c5ccc2[nH]5)C=C4)C=C3)cc1)C1=Cc2c(Cl)cc(Cl)cc2O[C@@H]1C(F)(F)F
REMARK SMILES IDX 5 1 4 2 3 3 2 4 1 5 72 6 73 7 83 8 74 9 82 10 75 11 81 12
REMARK SMILES IDX 76 13 77 14 80 15 78 16 79 17 84 18 85 19 86 20 87 21 6 22
REMARK SMILES IDX 7 23 8 24 9 25 10 26 71 27 11 28 70 29 12 30 13 31 14 32
REMARK SMILES IDX 64 33 15 34 69 35 63 36 65 37 16 38 68 39 62 40 61 41 17 43
REMARK SMILES IDX 49 44 29 45 48 46 30 47 33 48 47 49 66 50 31 51 32 52 46 54
REMARK SMILES IDX 67 55 34 56 18 57 19 58 27 59 20 60 26 61 28 62 25 63 21 64
REMARK SMILES IDX 22 65 23 66 24 67 50 68 51 69 59 70 52 71 58 72 60 73 57 74
REMARK SMILES IDX 53 75 54 76 55 77 56 78 35 79 36 80 44 81 37 82 43 83 45 84
REMARK SMILES IDX 42 85 38 86 39 87 40 88 41 89
REMARK H PARENT 65 42 33 53
REMARK Flexibility Score: inf
ROOT
ATOM      1  C   UNL A   1      38.125  19.649  24.952  1.00  0.00     0.275 C 
ENDROOT
BRANCH   1   2
ATOM      2  C   UNL A   1      37.333  21.523  24.216  1.00  0.00     0.275 C 
BRANCH   2   3
ATOM      3  O   UNL A   1      36.358  22.470  24.948  1.00  0.00    -0.459 OA
BRANCH   3   4
ATOM      4  C   UNL A   1      35.383  22.925  24.152  1.00  0.00     0.338 C 
ATOM      5  O   UNL A   1      35.462  23.436  23.065  1.00  0.00    -0.246 OA
BRANCH   4   6
ATOM      6  C   UNL A   1      34.374  22.980  25.189  1.00  0.00     0.087 C 
ATOM      7  C   UNL A   1      34.056  24.326  25.625  1.00  0.00     0.029 C 
ATOM      8  C   UNL A   1      33.171  21.764  24.316  1.00  0.00     0.316 C 
ATOM      9  C   UNL A   1      32.530  25.174  25.198  1.00  0.00     0.036 A 
ATOM     10  O   UNL A   1      31.550  22.671  23.754  1.00  0.00    -0.475 OA
ATOM     11  C   UNL A   1      32.391  26.505  25.495  1.00  0.00     0.053 A 
ATOM     12  C   UNL A   1      31.322  24.440  24.185  1.00  0.00     0.130 A 
ATOM     13  Cl  UNL A   1      33.493  27.377  26.477  1.00  0.00    -0.083 Cl
ATOM     14  C   UNL A   1      31.297  27.148  24.901  1.00  0.00     0.042 A 
ATOM     15  C   UNL A   1      30.278  25.137  23.644  1.00  0.00     0.067 A 
ATOM     16  C   UNL A   1      30.320  26.507  24.022  1.00  0.00     0.046 A 
ATOM     17  Cl  UNL A   1      29.122  27.577  23.361  1.00  0.00    -0.084 Cl
BRANCH   8  18
ATOM     18  C   UNL A   1      33.530  20.600  25.367  1.00  0.00     0.430 C 
ATOM     19  F   UNL A   1      32.513  19.751  25.519  1.00  0.00    -0.167 F 
ATOM     20  F   UNL A   1      34.509  19.801  24.835  1.00  0.00    -0.167 F 
ATOM     21  F   UNL A   1      34.063  20.949  26.553  1.00  0.00    -0.167 F 
ENDBRANCH   8  18
ENDBRANCH   4   6
ENDBRANCH   3   4
ENDBRANCH   2   3
ENDBRANCH   1   2
BRANCH   1  22
ATOM     22  O   UNL A   1      39.574  19.514  25.944  1.00  0.00    -0.458 OA
BRANCH  22  23
ATOM     23  C   UNL A   1      40.856  20.008  26.106  1.00  0.00     0.338 C 
ATOM     24  O   UNL A   1      41.872  19.717  25.499  1.00  0.00    -0.246 OA
BRANCH  23  25
ATOM     25  C   UNL A   1      40.733  21.282  26.900  1.00  0.00     0.060 A 
ATOM     26  C   UNL A   1      41.757  21.640  27.798  1.00  0.00     0.016 A 
ATOM     27  C   UNL A   1      39.835  22.257  26.475  1.00  0.00     0.016 A 
ATOM     28  C   UNL A   1      42.048  23.009  28.020  1.00  0.00     0.010 A 
ATOM     29  C   UNL A   1      40.118  23.608  26.713  1.00  0.00     0.010 A 
ATOM     30  C   UNL A   1      41.288  24.005  27.387  1.00  0.00    -0.014 A 
BRANCH  30  31
ATOM     31  C   UNL A   1      41.557  25.469  27.552  1.00  0.00     0.031 A 
ATOM     32  C   UNL A   1      42.887  25.944  27.052  1.00  0.00     0.074 A 
ATOM     33  C   UNL A   1      40.746  26.328  28.217  1.00  0.00     0.049 A 
ATOM     34  N   UNL A   1      43.480  27.094  27.219  1.00  0.00    -0.248 NA
ATOM     35  C   UNL A   1      43.668  24.957  26.292  1.00  0.00     0.031 C 
ATOM     36  C   UNL A   1      39.421  26.020  28.751  1.00  0.00     0.029 A 
ATOM     37  N   UNL A   1      40.932  27.650  28.583  1.00  0.00    -0.354 N 
ATOM     38  C   UNL A   1      44.713  26.963  26.596  1.00  0.00     0.074 A 
ATOM     39  C   UNL A   1      44.799  25.609  26.094  1.00  0.00     0.031 C 
ATOM     40  C   UNL A   1      38.925  27.103  29.384  1.00  0.00     0.029 A 
ATOM     41  C   UNL A   1      39.905  28.188  29.340  1.00  0.00     0.049 A 
ATOM     42  H   UNL A   1      41.731  28.165  28.328  1.00  0.00     0.167 HD
ATOM     43  C   UNL A   1      45.687  27.887  26.440  1.00  0.00     0.034 A 
ATOM     44  C   UNL A   1      39.782  29.399  29.940  1.00  0.00     0.034 A 
ATOM     45  C   UNL A   1      45.614  29.223  26.958  1.00  0.00     0.049 A 
ATOM     46  C   UNL A   1      40.932  30.389  29.820  1.00  0.00     0.074 A 
ATOM     47  C   UNL A   1      46.541  30.241  26.835  1.00  0.00     0.029 A 
ATOM     48  N   UNL A   1      44.563  29.723  27.714  1.00  0.00    -0.354 N 
ATOM     49  N   UNL A   1      42.065  30.268  29.163  1.00  0.00    -0.248 NA
ATOM     50  C   UNL A   1      40.793  31.677  30.523  1.00  0.00     0.031 C 
ATOM     51  C   UNL A   1      46.087  31.331  27.580  1.00  0.00     0.029 A 
ATOM     52  C   UNL A   1      44.838  31.024  28.098  1.00  0.00     0.049 A 
ATOM     53  H   UNL A   1      43.744  29.227  27.943  1.00  0.00     0.167 HD
ATOM     54  C   UNL A   1      42.744  31.475  29.344  1.00  0.00     0.074 A 
ATOM     55  C   UNL A   1      41.890  32.317  30.150  1.00  0.00     0.031 C 
ATOM     56  C   UNL A   1      43.965  31.854  28.890  1.00  0.00     0.034 A 
BRANCH  43  57
ATOM     57  C   UNL A   1      46.926  27.440  25.718  1.00  0.00     0.023 A 
ATOM     58  C   UNL A   1      47.177  27.838  24.394  1.00  0.00     0.031 A 
ATOM     59  C   UNL A   1      47.822  26.549  26.329  1.00  0.00     0.131 A 
ATOM     60  C   UNL A   1      48.252  27.276  23.693  1.00  0.00     0.055 A 
ATOM     61  C   UNL A   1      48.941  26.062  25.653  1.00  0.00     0.041 A 
ATOM     62  F   UNL A   1      47.606  26.112  27.579  1.00  0.00    -0.206 F 
ATOM     63  C   UNL A   1      49.152  26.414  24.323  1.00  0.00     0.022 A 
BRANCH  60  64
ATOM     64  S   UNL A   1      48.364  27.571  21.908  1.00  0.00     0.124 S 
ATOM     65  O   UNL A   1      48.557  26.214  21.399  1.00  0.00    -0.237 OA
ATOM     66  O   UNL A   1      47.078  28.187  21.605  1.00  0.00    -0.237 OA
ATOM     67  O   UNL A   1      49.525  28.449  21.780  1.00  0.00    -0.744 OA
ENDBRANCH  60  64
ENDBRANCH  43  57
BRANCH  44  68
ATOM     68  C   UNL A   1      38.583  29.782  30.771  1.00  0.00     0.023 A 
ATOM     69  C   UNL A   1      37.526  30.543  30.228  1.00  0.00     0.031 A 
ATOM     70  C   UNL A   1      38.553  29.545  32.157  1.00  0.00     0.131 A 
ATOM     71  C   UNL A   1      36.543  31.104  31.069  1.00  0.00     0.055 A 
ATOM     72  C   UNL A   1      37.536  30.047  32.980  1.00  0.00     0.041 A 
ATOM     73  F   UNL A   1      39.535  28.848  32.749  1.00  0.00    -0.206 F 
ATOM     74  C   UNL A   1      36.536  30.849  32.440  1.00  0.00     0.022 A 
BRANCH  71  75
ATOM     75  S   UNL A   1      35.366  32.304  30.373  1.00  0.00     0.124 S 
ATOM     76  O   UNL A   1      34.883  31.595  29.193  1.00  0.00    -0.237 OA
ATOM     77  O   UNL A   1      34.411  32.460  31.464  1.00  0.00    -0.237 OA
ATOM     78  O   UNL A   1      36.194  33.478  30.101  1.00  0.00    -0.744 OA
ENDBRANCH  71  75
ENDBRANCH  44  68
BRANCH  56  79
ATOM     79  C   UNL A   1      44.430  33.256  29.205  1.00  0.00     0.023 A 
ATOM     80  C   UNL A   1      44.121  34.345  28.373  1.00  0.00     0.031 A 
ATOM     81  C   UNL A   1      45.155  33.509  30.384  1.00  0.00     0.131 A 
ATOM     82  C   UNL A   1      44.567  35.632  28.712  1.00  0.00     0.055 A 
ATOM     83  C   UNL A   1      45.540  34.799  30.748  1.00  0.00     0.041 A 
ATOM     84  F   UNL A   1      45.477  32.506  31.217  1.00  0.00    -0.206 F 
ATOM     85  C   UNL A   1      45.254  35.868  29.906  1.00  0.00     0.022 A 
BRANCH  82  86
ATOM     86  S   UNL A   1      44.294  36.987  27.538  1.00  0.00     0.124 S 
ATOM     87  O   UNL A   1      43.901  38.080  28.422  1.00  0.00    -0.237 OA
ATOM     88  O   UNL A   1      45.601  37.119  26.903  1.00  0.00    -0.237 OA
ATOM     89  O   UNL A   1      43.233  36.481  26.669  1.00  0.00    -0.744 OA
ENDBRANCH  82  86
ENDBRANCH  56  79
ENDBRANCH  30  31
ENDBRANCH  23  25
ENDBRANCH  22  23
ENDBRANCH   1  22
TORSDOF 15
ENDMDL
MODEL 2
REMARK VINA RESULT:     -14.2      1.504      1.800
REMARK SMILES O=C(OCCOC(=O)c1ccc(-c2c3nc(c(-c4cc(S(=O)(=O)[O-])ccc4F)c4ccc([nH]4)c(-c4cc(S(=O)(=O)[O-])ccc4F)c4nc(c(-c5cc(S(=O)(=O)[O-])ccc5F)c5ccc2[nH]5)C=C4)C=C3)cc1)C1=Cc2c(Cl)cc(Cl)cc2O[C@@H]1C(F)(F)F
REMARK SMILES IDX 5 1 4 2 3 3 2 4 1 5 72 6 73 7 83 8 74 9 82 10 75 11 81 12
REMARK SMILES IDX 76 13 77 14 80 15 78 16 79 17 84 18 85 19 86 20 87 21 6 22
REMARK SMILES IDX 7 23 8 24 9 25 10 26 71 27 11 28 70 29 12 30 13 31 14 32
REMARK SMILES IDX 64 33 15 34 69 35 63 36 65 37 16 38 68 39 62 40 61 41 17 43
REMARK SMILES IDX 49 44 29 45 48 46 30 47 33 48 47 49 66 50 31 51 32 52 46 54
REMARK SMILES IDX 67 55 34 56 18 57 19 58 27 59 20 60 26 61 28 62 25 63 21 64
REMARK SMILES IDX 22 65 23 66 24 67 50 68 51 69 59 70 52 71 58 72 60 73 57 74
REMARK SMILES IDX 53 75 54 76 55 77 56 78 35 79 36 80 44 81 37 82 43 83 45 84
REMARK SMILES IDX 42 85 38 86 39 87 40 88 41 89
REMARK H PARENT 65 42 33 53
REMARK Flexibility Score: inf
ROOT
ATOM      1  C   UNL A   1      37.996  19.813  24.877  1.00  0.00     0.275 C 
ENDROOT
BRANCH   1   2
ATOM      2  C   UNL A   1      36.554  21.317  25.461  1.00  0.00     0.275 C 
BRANCH   2   3
ATOM      3  O   UNL A   1      36.458  22.764  24.932  1.00  0.00    -0.459 OA
BRANCH   3   4
ATOM      4  C   UNL A   1      35.604  22.885  23.908  1.00  0.00     0.338 C 
ATOM      5  O   UNL A   1      35.832  23.128  22.751  1.00  0.00    -0.246 OA
BRANCH   4   6
ATOM      6  C   UNL A   1      34.425  23.056  24.731  1.00  0.00     0.087 C 
ATOM      7  C   UNL A   1      34.248  24.408  25.227  1.00  0.00     0.029 C 
ATOM      8  C   UNL A   1      33.247  22.134  23.527  1.00  0.00     0.316 C 
ATOM      9  C   UNL A   1      33.004  25.541  24.598  1.00  0.00     0.036 A 
ATOM     10  O   UNL A   1      31.949  23.351  22.754  1.00  0.00    -0.475 OA
ATOM     11  C   UNL A   1      33.026  26.854  24.991  1.00  0.00     0.053 A 
ATOM     12  C   UNL A   1      31.928  25.101  23.304  1.00  0.00     0.130 A 
ATOM     13  Cl  UNL A   1      34.028  27.450  26.247  1.00  0.00    -0.083 Cl
ATOM     14  C   UNL A   1      32.199  27.719  24.262  1.00  0.00     0.042 A 
ATOM     15  C   UNL A   1      31.148  26.007  22.642  1.00  0.00     0.067 A 
ATOM     16  C   UNL A   1      31.334  27.321  23.153  1.00  0.00     0.046 A 
ATOM     17  Cl  UNL A   1      30.490  28.628  22.380  1.00  0.00    -0.084 Cl
BRANCH   8  18
ATOM     18  C   UNL A   1      33.185  20.861  24.509  1.00  0.00     0.430 C 
ATOM     19  F   UNL A   1      33.212  21.232  25.790  1.00  0.00    -0.167 F 
ATOM     20  F   UNL A   1      31.955  20.266  24.397  1.00  0.00    -0.167 F 
ATOM     21  F   UNL A   1      34.020  19.831  24.277  1.00  0.00    -0.167 F 
ENDBRANCH   8  18
ENDBRANCH   4   6
ENDBRANCH   3   4
ENDBRANCH   2   3
ENDBRANCH   1   2
BRANCH   1  22
ATOM     22  O   UNL A   1      39.433  19.412  25.812  1.00  0.00    -0.458 OA
BRANCH  22  23
ATOM     23  C   UNL A   1      40.709  19.847  26.126  1.00  0.00     0.338 C 
ATOM     24  O   UNL A   1      41.777  19.494  25.658  1.00  0.00    -0.246 OA
BRANCH  23  25
ATOM     25  C   UNL A   1      40.552  21.144  26.876  1.00  0.00     0.060 A 
ATOM     26  C   UNL A   1      41.480  21.481  27.880  1.00  0.00     0.016 A 
ATOM     27  C   UNL A   1      39.752  22.145  26.331  1.00  0.00     0.016 A 
ATOM     28  C   UNL A   1      41.804  22.842  28.108  1.00  0.00     0.010 A 
ATOM     29  C   UNL A   1      40.065  23.488  26.575  1.00  0.00     0.010 A 
ATOM     30  C   UNL A   1      41.165  23.853  27.372  1.00  0.00    -0.014 A 
BRANCH  30  31
ATOM     31  C   UNL A   1      41.478  25.307  27.539  1.00  0.00     0.031 A 
ATOM     32  C   UNL A   1      42.832  25.739  27.065  1.00  0.00     0.074 A 
ATOM     33  C   UNL A   1      40.681  26.194  28.185  1.00  0.00     0.049 A 
ATOM     34  N   UNL A   1      43.458  26.870  27.242  1.00  0.00    -0.248 NA
ATOM     35  C   UNL A   1      43.596  24.724  26.323  1.00  0.00     0.031 C 
ATOM     36  C   UNL A   1      39.336  25.931  28.693  1.00  0.00     0.029 A 
ATOM     37  N   UNL A   1      40.902  27.510  28.552  1.00  0.00    -0.354 N 
ATOM     38  C   UNL A   1      44.698  26.697  26.644  1.00  0.00     0.074 A 
ATOM     39  C   UNL A   1      44.751  25.340  26.148  1.00  0.00     0.031 C 
ATOM     40  C   UNL A   1      38.863  27.030  29.313  1.00  0.00     0.029 A 
ATOM     41  C   UNL A   1      39.877  28.084  29.287  1.00  0.00     0.049 A 
ATOM     42  H   UNL A   1      41.722  27.999  28.313  1.00  0.00     0.167 HD
ATOM     43  C   UNL A   1      45.704  27.589  26.506  1.00  0.00     0.034 A 
ATOM     44  C   UNL A   1      39.781  29.300  29.882  1.00  0.00     0.034 A 
ATOM     45  C   UNL A   1      45.664  28.929  27.019  1.00  0.00     0.049 A 
ATOM     46  C   UNL A   1      40.965  30.252  29.783  1.00  0.00     0.074 A 
ATOM     47  C   UNL A   1      46.625  29.916  26.913  1.00  0.00     0.029 A 
ATOM     48  N   UNL A   1      44.615  29.464  27.753  1.00  0.00    -0.354 N 
ATOM     49  N   UNL A   1      42.107  30.093  29.149  1.00  0.00    -0.248 NA
ATOM     50  C   UNL A   1      40.852  31.546  30.479  1.00  0.00     0.031 C 
ATOM     51  C   UNL A   1      46.191  31.022  27.646  1.00  0.00     0.029 A 
ATOM     52  C   UNL A   1      44.924  30.757  28.139  1.00  0.00     0.049 A 
ATOM     53  H   UNL A   1      43.775  28.995  27.966  1.00  0.00     0.167 HD
ATOM     54  C   UNL A   1      42.819  31.278  29.341  1.00  0.00     0.074 A 
ATOM     55  C   UNL A   1      41.977  32.149  30.128  1.00  0.00     0.031 C 
ATOM     56  C   UNL A   1      44.061  31.617  28.911  1.00  0.00     0.034 A 
BRANCH  43  57
ATOM     57  C   UNL A   1      46.943  27.101  25.810  1.00  0.00     0.023 A 
ATOM     58  C   UNL A   1      47.958  26.433  26.518  1.00  0.00     0.031 A 
ATOM     59  C   UNL A   1      47.147  27.373  24.448  1.00  0.00     0.131 A 
ATOM     60  C   UNL A   1      49.169  26.137  25.880  1.00  0.00     0.055 A 
ATOM     61  C   UNL A   1      48.321  26.994  23.797  1.00  0.00     0.041 A 
ATOM     62  F   UNL A   1      46.223  28.039  23.739  1.00  0.00    -0.206 F 
ATOM     63  C   UNL A   1      49.345  26.387  24.517  1.00  0.00     0.022 A 
BRANCH  60  64
ATOM     64  S   UNL A   1      50.558  25.563  26.892  1.00  0.00     0.124 S 
ATOM     65  O   UNL A   1      49.948  24.453  27.623  1.00  0.00    -0.237 OA
ATOM     66  O   UNL A   1      51.552  25.196  25.890  1.00  0.00    -0.237 OA
ATOM     67  O   UNL A   1      50.892  26.729  27.707  1.00  0.00    -0.744 OA
ENDBRANCH  60  64
ENDBRANCH  43  57
BRANCH  44  68
ATOM     68  C   UNL A   1      38.579  29.724  30.687  1.00  0.00     0.023 A 
ATOM     69  C   UNL A   1      37.546  30.495  30.114  1.00  0.00     0.031 A 
ATOM     70  C   UNL A   1      38.524  29.514  32.077  1.00  0.00     0.131 A 
ATOM     71  C   UNL A   1      36.563  31.092  30.929  1.00  0.00     0.055 A 
ATOM     72  C   UNL A   1      37.505  30.052  32.874  1.00  0.00     0.041 A 
ATOM     73  F   UNL A   1      39.482  28.808  32.697  1.00  0.00    -0.206 F 
ATOM     74  C   UNL A   1      36.530  30.864  32.305  1.00  0.00     0.022 A 
BRANCH  71  75
ATOM     75  S   UNL A   1      35.421  32.303  30.193  1.00  0.00     0.124 S 
ATOM     76  O   UNL A   1      34.404  32.420  31.232  1.00  0.00    -0.237 OA
ATOM     77  O   UNL A   1      36.286  33.463  30.008  1.00  0.00    -0.237 OA
ATOM     78  O   UNL A   1      34.982  31.654  28.959  1.00  0.00    -0.744 OA
ENDBRANCH  71  75
ENDBRANCH  44  68
BRANCH  56  79
ATOM     79  C   UNL A   1      44.565  33.004  29.232  1.00  0.00     0.023 A 
ATOM     80  C   UNL A   1      44.335  34.094  28.375  1.00  0.00     0.031 A 
ATOM     81  C   UNL A   1      45.244  33.244  30.440  1.00  0.00     0.131 A 
ATOM     82  C   UNL A   1      44.813  35.366  28.721  1.00  0.00     0.055 A 
ATOM     83  C   UNL A   1      45.662  34.523  30.808  1.00  0.00     0.041 A 
ATOM     84  F   UNL A   1      45.491  32.240  31.298  1.00  0.00    -0.206 F 
ATOM     85  C   UNL A   1      45.455  35.592  29.942  1.00  0.00     0.022 A 
BRANCH  82  86
ATOM     86  S   UNL A   1      44.645  36.717  27.522  1.00  0.00     0.124 S 
ATOM     87  O   UNL A   1      43.378  36.394  26.875  1.00  0.00    -0.237 OA
ATOM     88  O   UNL A   1      44.641  37.898  28.379  1.00  0.00    -0.237 OA
ATOM     89  O   UNL A   1      45.828  36.573  26.675  1.00  0.00    -0.744 OA
ENDBRANCH  82  86
ENDBRANCH  56  79
ENDBRANCH  30  31
ENDBRANCH  23  25
ENDBRANCH  22  23
ENDBRANCH   1  22
TORSDOF 15
ENDMDL
MODEL 3
REMARK VINA RESULT:     -14.1      5.257     10.644
REMARK SMILES O=C(OCCOC(=O)c1ccc(-c2c3nc(c(-c4cc(S(=O)(=O)[O-])ccc4F)c4ccc([nH]4)c(-c4cc(S(=O)(=O)[O-])ccc4F)c4nc(c(-c5cc(S(=O)(=O)[O-])ccc5F)c5ccc2[nH]5)C=C4)C=C3)cc1)C1=Cc2c(Cl)cc(Cl)cc2O[C@@H]1C(F)(F)F
REMARK SMILES IDX 5 1 4 2 3 3 2 4 1 5 72 6 73 7 83 8 74 9 82 10 75 11 81 12
REMARK SMILES IDX 76 13 77 14 80 15 78 16 79 17 84 18 85 19 86 20 87 21 6 22
REMARK SMILES IDX 7 23 8 24 9 25 10 26 71 27 11 28 70 29 12 30 13 31 14 32
REMARK SMILES IDX 64 33 15 34 69 35 63 36 65 37 16 38 68 39 62 40 61 41 17 43
REMARK SMILES IDX 49 44 29 45 48 46 30 47 33 48 47 49 66 50 31 51 32 52 46 54
REMARK SMILES IDX 67 55 34 56 18 57 19 58 27 59 20 60 26 61 28 62 25 63 21 64
REMARK SMILES IDX 22 65 23 66 24 67 50 68 51 69 59 70 52 71 58 72 60 73 57 74
REMARK SMILES IDX 53 75 54 76 55 77 56 78 35 79 36 80 44 81 37 82 43 83 45 84
REMARK SMILES IDX 42 85 38 86 39 87 40 88 41 89
REMARK H PARENT 65 42 33 53
REMARK Flexibility Score: inf
ROOT
ATOM      1  C   UNL A   1      31.717  31.901  26.707  1.00  0.00     0.275 C 
ENDROOT
BRANCH   1   2
ATOM      2  C   UNL A   1      31.783  29.781  27.133  1.00  0.00     0.275 C 
BRANCH   2   3
ATOM      3  O   UNL A   1      32.604  28.709  26.382  1.00  0.00    -0.459 OA
BRANCH   3   4
ATOM      4  C   UNL A   1      31.896  27.603  26.123  1.00  0.00     0.338 C 
ATOM      5  O   UNL A   1      31.247  26.921  26.872  1.00  0.00    -0.246 OA
BRANCH   4   6
ATOM      6  C   UNL A   1      32.529  27.331  24.850  1.00  0.00     0.087 C 
ATOM      7  C   UNL A   1      33.569  26.321  24.918  1.00  0.00     0.029 C 
ATOM      8  C   UNL A   1      30.883  27.189  23.871  1.00  0.00     0.316 C 
ATOM      9  C   UNL A   1      33.376  24.652  24.280  1.00  0.00     0.036 A 
ATOM     10  O   UNL A   1      30.596  25.373  23.251  1.00  0.00    -0.475 OA
ATOM     11  C   UNL A   1      34.336  23.711  24.550  1.00  0.00     0.053 A 
ATOM     12  C   UNL A   1      31.891  24.110  23.557  1.00  0.00     0.130 A 
ATOM     13  Cl  UNL A   1      35.851  24.080  25.261  1.00  0.00    -0.083 Cl
ATOM     14  C   UNL A   1      33.989  22.388  24.250  1.00  0.00     0.042 A 
ATOM     15  C   UNL A   1      31.627  22.795  23.291  1.00  0.00     0.067 A 
ATOM     16  C   UNL A   1      32.713  21.962  23.676  1.00  0.00     0.046 A 
ATOM     17  Cl  UNL A   1      32.531  20.243  23.496  1.00  0.00    -0.084 Cl
BRANCH   8  18
ATOM     18  C   UNL A   1      31.137  28.615  23.171  1.00  0.00     0.430 C 
ATOM     19  F   UNL A   1      30.428  28.739  22.048  1.00  0.00    -0.167 F 
ATOM     20  F   UNL A   1      30.614  29.604  23.964  1.00  0.00    -0.167 F 
ATOM     21  F   UNL A   1      32.406  29.030  23.001  1.00  0.00    -0.167 F 
ENDBRANCH   8  18
ENDBRANCH   4   6
ENDBRANCH   3   4
ENDBRANCH   2   3
ENDBRANCH   1   2
BRANCH   1  22
ATOM     22  O   UNL A   1      32.332  33.143  27.794  1.00  0.00    -0.458 OA
BRANCH  22  23
ATOM     23  C   UNL A   1      33.403  33.990  28.016  1.00  0.00     0.338 C 
ATOM     24  O   UNL A   1      33.408  35.112  28.492  1.00  0.00    -0.246 OA
BRANCH  23  25
ATOM     25  C   UNL A   1      34.647  33.144  27.946  1.00  0.00     0.060 A 
ATOM     26  C   UNL A   1      35.904  33.741  28.162  1.00  0.00     0.016 A 
ATOM     27  C   UNL A   1      34.528  31.761  28.052  1.00  0.00     0.016 A 
ATOM     28  C   UNL A   1      36.943  32.991  28.767  1.00  0.00     0.010 A 
ATOM     29  C   UNL A   1      35.565  31.021  28.634  1.00  0.00     0.010 A 
ATOM     30  C   UNL A   1      36.736  31.643  29.104  1.00  0.00    -0.014 A 
BRANCH  30  31
ATOM     31  C   UNL A   1      37.776  30.798  29.772  1.00  0.00     0.031 A 
ATOM     32  C   UNL A   1      38.043  31.114  31.212  1.00  0.00     0.074 A 
ATOM     33  C   UNL A   1      38.549  29.886  29.134  1.00  0.00     0.049 A 
ATOM     34  N   UNL A   1      38.998  30.696  31.997  1.00  0.00    -0.248 NA
ATOM     35  C   UNL A   1      37.115  32.072  31.833  1.00  0.00     0.031 C 
ATOM     36  C   UNL A   1      38.407  29.462  27.742  1.00  0.00     0.029 A 
ATOM     37  N   UNL A   1      39.640  29.156  29.573  1.00  0.00    -0.354 N 
ATOM     38  C   UNL A   1      38.793  31.354  33.202  1.00  0.00     0.074 A 
ATOM     39  C   UNL A   1      37.658  32.232  33.026  1.00  0.00     0.031 C 
ATOM     40  C   UNL A   1      39.373  28.570  27.439  1.00  0.00     0.029 A 
ATOM     41  C   UNL A   1      40.239  28.371  28.601  1.00  0.00     0.049 A 
ATOM     42  H   UNL A   1      39.966  29.193  30.501  1.00  0.00     0.167 HD
ATOM     43  C   UNL A   1      39.480  31.233  34.360  1.00  0.00     0.034 A 
ATOM     44  C   UNL A   1      41.358  27.605  28.641  1.00  0.00     0.034 A 
ATOM     45  C   UNL A   1      40.621  30.381  34.530  1.00  0.00     0.049 A 
ATOM     46  C   UNL A   1      42.159  27.556  29.934  1.00  0.00     0.074 A 
ATOM     47  C   UNL A   1      41.373  30.173  35.672  1.00  0.00     0.029 A 
ATOM     48  N   UNL A   1      41.191  29.609  33.527  1.00  0.00    -0.354 N 
ATOM     49  N   UNL A   1      41.907  28.133  31.088  1.00  0.00    -0.248 NA
ATOM     50  C   UNL A   1      43.397  26.755  29.933  1.00  0.00     0.031 C 
ATOM     51  C   UNL A   1      42.441  29.337  35.340  1.00  0.00     0.029 A 
ATOM     52  C   UNL A   1      42.308  28.955  34.014  1.00  0.00     0.049 A 
ATOM     53  H   UNL A   1      40.850  29.538  32.605  1.00  0.00     0.167 HD
ATOM     54  C   UNL A   1      42.929  27.731  31.950  1.00  0.00     0.074 A 
ATOM     55  C   UNL A   1      43.788  26.848  31.195  1.00  0.00     0.031 C 
ATOM     56  C   UNL A   1      43.144  28.064  33.248  1.00  0.00     0.034 A 
BRANCH  43  57
ATOM     57  C   UNL A   1      39.021  32.092  35.504  1.00  0.00     0.023 A 
ATOM     58  C   UNL A   1      39.465  33.419  35.639  1.00  0.00     0.031 A 
ATOM     59  C   UNL A   1      38.198  31.558  36.508  1.00  0.00     0.131 A 
ATOM     60  C   UNL A   1      39.153  34.140  36.798  1.00  0.00     0.055 A 
ATOM     61  C   UNL A   1      37.818  32.313  37.618  1.00  0.00     0.041 A 
ATOM     62  F   UNL A   1      37.778  30.285  36.443  1.00  0.00    -0.206 F 
ATOM     63  C   UNL A   1      38.309  33.606  37.774  1.00  0.00     0.022 A 
BRANCH  60  64
ATOM     64  S   UNL A   1      39.991  35.722  37.079  1.00  0.00     0.124 S 
ATOM     65  O   UNL A   1      39.652  36.453  35.859  1.00  0.00    -0.237 OA
ATOM     66  O   UNL A   1      39.362  36.202  38.304  1.00  0.00    -0.237 OA
ATOM     67  O   UNL A   1      41.397  35.347  37.203  1.00  0.00    -0.744 OA
ENDBRANCH  60  64
ENDBRANCH  43  57
BRANCH  44  68
ATOM     68  C   UNL A   1      41.875  26.851  27.442  1.00  0.00     0.023 A 
ATOM     69  C   UNL A   1      41.710  25.454  27.325  1.00  0.00     0.031 A 
ATOM     70  C   UNL A   1      42.688  27.480  26.482  1.00  0.00     0.131 A 
ATOM     71  C   UNL A   1      42.409  24.731  26.337  1.00  0.00     0.055 A 
ATOM     72  C   UNL A   1      43.326  26.766  25.458  1.00  0.00     0.041 A 
ATOM     73  F   UNL A   1      42.909  28.802  26.540  1.00  0.00    -0.206 F 
ATOM     74  C   UNL A   1      43.206  25.382  25.395  1.00  0.00     0.022 A 
BRANCH  71  75
ATOM     75  S   UNL A   1      42.393  22.913  26.396  1.00  0.00     0.124 S 
ATOM     76  O   UNL A   1      42.653  22.570  25.002  1.00  0.00    -0.237 OA
ATOM     77  O   UNL A   1      43.470  22.630  27.338  1.00  0.00    -0.237 OA
ATOM     78  O   UNL A   1      41.049  22.597  26.876  1.00  0.00    -0.744 OA
ENDBRANCH  71  75
ENDBRANCH  44  68
BRANCH  56  79
ATOM     79  C   UNL A   1      44.321  27.431  33.953  1.00  0.00     0.023 A 
ATOM     80  C   UNL A   1      44.224  26.177  34.578  1.00  0.00     0.031 A 
ATOM     81  C   UNL A   1      45.570  28.078  33.954  1.00  0.00     0.131 A 
ATOM     82  C   UNL A   1      45.347  25.624  35.211  1.00  0.00     0.055 A 
ATOM     83  C   UNL A   1      46.699  27.494  34.530  1.00  0.00     0.041 A 
ATOM     84  F   UNL A   1      45.721  29.278  33.370  1.00  0.00    -0.206 F 
ATOM     85  C   UNL A   1      46.589  26.265  35.171  1.00  0.00     0.022 A 
BRANCH  82  86
ATOM     86  S   UNL A   1      45.151  24.084  36.149  1.00  0.00     0.124 S 
ATOM     87  O   UNL A   1      43.771  23.720  35.851  1.00  0.00    -0.237 OA
ATOM     88  O   UNL A   1      46.177  23.228  35.563  1.00  0.00    -0.237 OA
ATOM     89  O   UNL A   1      45.401  24.490  37.531  1.00  0.00    -0.744 OA
ENDBRANCH  82  86
ENDBRANCH  56  79
ENDBRANCH  30  31
ENDBRANCH  23  25
ENDBRANCH  22  23
ENDBRANCH   1  22
TORSDOF 15
ENDMDL
