MODEL 1
REMARK VINA RESULT:     -10.9      0.000      0.000
REMARK SMILES CC(C)[C@H](CO)Nc1ccc(C(=O)OCCOC(=O)c2ccc(-c3c4nc(c(-c5cc(S(=O)(=O)[O-])ccc5F)c5ccc([nH]5)c(-c5cc(S(=O)(=O)[O-])ccc5F)c5nc(c(-c6cc(S(=O)(=O)[O-])ccc6F)c6ccc3[nH]6)C=C5)C=C4)cc2)cc1
REMARK SMILES IDX 15 1 14 2 12 3 13 4 11 5 8 6 9 7 84 8 10 9 83 10 7 11 4 13
REMARK SMILES IDX 2 14 1 15 3 16 5 17 6 18 16 20 17 21 18 22 19 23 20 24 21 25
REMARK SMILES IDX 82 26 22 27 81 28 23 29 24 30 25 31 75 32 26 33 80 34 74 35
REMARK SMILES IDX 76 36 27 37 79 38 73 39 72 40 28 42 60 43 40 44 59 45 41 46
REMARK SMILES IDX 44 47 58 48 77 49 42 50 43 51 57 53 78 54 45 55 29 56 30 57
REMARK SMILES IDX 38 58 31 59 37 60 39 61 36 62 32 63 33 64 34 65 35 66 61 67
REMARK SMILES IDX 62 68 70 69 63 70 69 71 71 72 68 73 64 74 65 75 66 76 67 77
REMARK SMILES IDX 46 78 47 79 55 80 48 81 54 82 56 83 53 84 49 85 50 86 51 87
REMARK SMILES IDX 52 88
REMARK H PARENT 7 12 6 19 76 41 44 52
REMARK Flexibility Score: inf
ROOT
ATOM      1  C   UNL A   1      34.397  20.715  25.079  1.00  0.00     0.275 C 
ENDROOT
BRANCH   1   2
ATOM      2  O   UNL A   1      34.228  22.146  25.153  1.00  0.00    -0.458 OA
BRANCH   2   3
ATOM      3  C   UNL A   1      33.368  22.565  26.115  1.00  0.00     0.338 C 
ATOM      4  O   UNL A   1      33.262  22.114  27.244  1.00  0.00    -0.246 OA
BRANCH   3   5
ATOM      5  C   UNL A   1      32.596  23.738  25.658  1.00  0.00     0.060 A 
ATOM      6  C   UNL A   1      31.304  26.026  24.644  1.00  0.00     0.034 A 
ATOM      7  C   UNL A   1      31.701  24.991  23.795  1.00  0.00     0.026 A 
ATOM      8  C   UNL A   1      31.553  25.891  26.014  1.00  0.00     0.026 A 
ATOM      9  C   UNL A   1      32.370  23.878  24.289  1.00  0.00     0.018 A 
ATOM     10  C   UNL A   1      32.171  24.740  26.530  1.00  0.00     0.018 A 
BRANCH   6  11
ATOM     11  N   UNL A   1      30.776  27.152  24.057  1.00  0.00    -0.380 N 
ATOM     12  H   UNL A   1      29.840  27.367  24.272  1.00  0.00     0.160 HD
BRANCH  11  13
ATOM     13  C   UNL A   1      31.469  28.063  23.144  1.00  0.00     0.107 C 
BRANCH  13  14
ATOM     14  C   UNL A   1      32.450  28.967  23.933  1.00  0.00     0.007 C 
ATOM     15  C   UNL A   1      31.817  29.558  25.194  1.00  0.00     0.009 C 
ATOM     16  C   UNL A   1      33.771  28.281  24.303  1.00  0.00     0.009 C 
ENDBRANCH  13  14
BRANCH  13  17
ATOM     17  C   UNL A   1      30.380  28.826  22.347  1.00  0.00     0.181 C 
BRANCH  17  18
ATOM     18  O   UNL A   1      30.989  29.790  21.484  1.00  0.00    -0.394 OA
ATOM     19  H   UNL A   1      31.939  29.833  21.668  1.00  0.00     0.210 HD
ENDBRANCH  17  18
ENDBRANCH  13  17
ENDBRANCH  11  13
ENDBRANCH   6  11
ENDBRANCH   3   5
ENDBRANCH   2   3
ENDBRANCH   1   2
BRANCH   1  20
ATOM     20  C   UNL A   1      35.880  20.340  25.033  1.00  0.00     0.275 C 
BRANCH  20  21
ATOM     21  O   UNL A   1      36.676  21.431  25.524  1.00  0.00    -0.458 OA
BRANCH  21  22
ATOM     22  C   UNL A   1      38.013  21.212  25.564  1.00  0.00     0.338 C 
ATOM     23  O   UNL A   1      38.594  20.220  25.158  1.00  0.00    -0.246 OA
BRANCH  22  24
ATOM     24  C   UNL A   1      38.706  22.372  26.181  1.00  0.00     0.060 A 
ATOM     25  C   UNL A   1      38.174  23.656  26.089  1.00  0.00     0.016 A 
ATOM     26  C   UNL A   1      39.952  22.196  26.780  1.00  0.00     0.016 A 
ATOM     27  C   UNL A   1      38.929  24.767  26.473  1.00  0.00     0.010 A 
ATOM     28  C   UNL A   1      40.654  23.303  27.281  1.00  0.00     0.010 A 
ATOM     29  C   UNL A   1      40.179  24.614  27.092  1.00  0.00    -0.014 A 
BRANCH  29  30
ATOM     30  C   UNL A   1      41.005  25.804  27.487  1.00  0.00     0.031 A 
ATOM     31  C   UNL A   1      40.438  26.849  28.425  1.00  0.00     0.074 A 
ATOM     32  C   UNL A   1      42.265  25.969  27.028  1.00  0.00     0.049 A 
ATOM     33  N   UNL A   1      40.892  28.044  28.716  1.00  0.00    -0.248 NA
ATOM     34  C   UNL A   1      39.178  26.513  29.103  1.00  0.00     0.031 C 
ATOM     35  C   UNL A   1      42.977  25.046  26.143  1.00  0.00     0.029 A 
ATOM     36  N   UNL A   1      43.181  26.972  27.254  1.00  0.00    -0.354 N 
ATOM     37  C   UNL A   1      39.934  28.630  29.540  1.00  0.00     0.074 A 
ATOM     38  C   UNL A   1      38.874  27.657  29.698  1.00  0.00     0.031 C 
ATOM     39  C   UNL A   1      44.229  25.489  25.954  1.00  0.00     0.029 A 
ATOM     40  C   UNL A   1      44.383  26.782  26.610  1.00  0.00     0.049 A 
ATOM     41  H   UNL A   1      42.994  27.753  27.822  1.00  0.00     0.167 HD
ATOM     42  C   UNL A   1      39.935  29.863  30.109  1.00  0.00     0.034 A 
ATOM     43  C   UNL A   1      45.474  27.569  26.511  1.00  0.00     0.034 A 
ATOM     44  C   UNL A   1      41.032  30.799  30.013  1.00  0.00     0.049 A 
ATOM     45  C   UNL A   1      45.461  28.927  27.160  1.00  0.00     0.074 A 
ATOM     46  C   UNL A   1      41.142  32.060  30.577  1.00  0.00     0.029 A 
ATOM     47  N   UNL A   1      42.218  30.569  29.332  1.00  0.00    -0.354 N 
ATOM     48  N   UNL A   1      44.507  29.501  27.856  1.00  0.00    -0.248 NA
ATOM     49  C   UNL A   1      46.664  29.752  26.990  1.00  0.00     0.031 C 
ATOM     50  C   UNL A   1      42.373  32.609  30.197  1.00  0.00     0.029 A 
ATOM     51  C   UNL A   1      43.059  31.667  29.449  1.00  0.00     0.049 A 
ATOM     52  H   UNL A   1      42.434  29.746  28.837  1.00  0.00     0.167 HD
ATOM     53  C   UNL A   1      44.998  30.756  28.203  1.00  0.00     0.074 A 
ATOM     54  C   UNL A   1      46.342  30.842  27.670  1.00  0.00     0.031 C 
ATOM     55  C   UNL A   1      44.386  31.753  28.890  1.00  0.00     0.034 A 
BRANCH  42  56
ATOM     56  C   UNL A   1      38.683  30.297  30.837  1.00  0.00     0.023 A 
ATOM     57  C   UNL A   1      37.624  30.954  30.189  1.00  0.00     0.031 A 
ATOM     58  C   UNL A   1      38.565  30.067  32.221  1.00  0.00     0.131 A 
ATOM     59  C   UNL A   1      36.529  31.421  30.934  1.00  0.00     0.055 A 
ATOM     60  C   UNL A   1      37.438  30.465  32.943  1.00  0.00     0.041 A 
ATOM     61  F   UNL A   1      39.550  29.458  32.899  1.00  0.00    -0.206 F 
ATOM     62  C   UNL A   1      36.418  31.160  32.302  1.00  0.00     0.022 A 
BRANCH  59  63
ATOM     63  S   UNL A   1      35.317  32.495  30.116  1.00  0.00     0.124 S 
ATOM     64  O   UNL A   1      34.888  31.657  28.998  1.00  0.00    -0.237 OA
ATOM     65  O   UNL A   1      34.330  32.713  31.165  1.00  0.00    -0.237 OA
ATOM     66  O   UNL A   1      36.099  33.671  29.739  1.00  0.00    -0.744 OA
ENDBRANCH  59  63
ENDBRANCH  42  56
BRANCH  43  67
ATOM     67  C   UNL A   1      46.647  27.131  25.700  1.00  0.00     0.023 A 
ATOM     68  C   UNL A   1      46.883  27.655  24.419  1.00  0.00     0.031 A 
ATOM     69  C   UNL A   1      47.536  26.156  26.188  1.00  0.00     0.131 A 
ATOM     70  C   UNL A   1      47.962  27.180  23.658  1.00  0.00     0.055 A 
ATOM     71  C   UNL A   1      48.639  25.727  25.450  1.00  0.00     0.041 A 
ATOM     72  F   UNL A   1      47.355  25.619  27.405  1.00  0.00    -0.206 F 
ATOM     73  C   UNL A   1      48.852  26.232  24.171  1.00  0.00     0.022 A 
BRANCH  70  74
ATOM     74  S   UNL A   1      48.151  27.769  21.952  1.00  0.00     0.124 S 
ATOM     75  O   UNL A   1      46.904  28.496  21.748  1.00  0.00    -0.237 OA
ATOM     76  O   UNL A   1      49.360  28.580  22.043  1.00  0.00    -0.237 OA
ATOM     77  O   UNL A   1      48.288  26.536  21.179  1.00  0.00    -0.744 OA
ENDBRANCH  70  74
ENDBRANCH  43  67
BRANCH  55  78
ATOM     78  C   UNL A   1      45.189  33.009  29.116  1.00  0.00     0.023 A 
ATOM     79  C   UNL A   1      45.306  33.996  28.121  1.00  0.00     0.031 A 
ATOM     80  C   UNL A   1      45.882  33.201  30.324  1.00  0.00     0.131 A 
ATOM     81  C   UNL A   1      46.145  35.101  28.327  1.00  0.00     0.055 A 
ATOM     82  C   UNL A   1      46.674  34.329  30.544  1.00  0.00     0.041 A 
ATOM     83  F   UNL A   1      45.807  32.289  31.307  1.00  0.00    -0.206 F 
ATOM     84  C   UNL A   1      46.821  35.280  29.537  1.00  0.00     0.022 A 
BRANCH  81  85
ATOM     85  S   UNL A   1      46.417  36.257  26.956  1.00  0.00     0.124 S 
ATOM     86  O   UNL A   1      45.974  35.475  25.806  1.00  0.00    -0.237 OA
ATOM     87  O   UNL A   1      45.570  37.386  27.325  1.00  0.00    -0.237 OA
ATOM     88  O   UNL A   1      47.854  36.519  27.009  1.00  0.00    -0.744 OA
ENDBRANCH  81  85
ENDBRANCH  55  78
ENDBRANCH  29  30
ENDBRANCH  22  24
ENDBRANCH  21  22
ENDBRANCH  20  21
ENDBRANCH   1  20
TORSDOF 19
ENDMDL
MODEL 2
REMARK VINA RESULT:     -10.8      5.124     10.236
REMARK SMILES CC(C)[C@H](CO)Nc1ccc(C(=O)OCCOC(=O)c2ccc(-c3c4nc(c(-c5cc(S(=O)(=O)[O-])ccc5F)c5ccc([nH]5)c(-c5cc(S(=O)(=O)[O-])ccc5F)c5nc(c(-c6cc(S(=O)(=O)[O-])ccc6F)c6ccc3[nH]6)C=C5)C=C4)cc2)cc1
REMARK SMILES IDX 15 1 14 2 12 3 13 4 11 5 8 6 9 7 84 8 10 9 83 10 7 11 4 13
REMARK SMILES IDX 2 14 1 15 3 16 5 17 6 18 16 20 17 21 18 22 19 23 20 24 21 25
REMARK SMILES IDX 82 26 22 27 81 28 23 29 24 30 25 31 75 32 26 33 80 34 74 35
REMARK SMILES IDX 76 36 27 37 79 38 73 39 72 40 28 42 60 43 40 44 59 45 41 46
REMARK SMILES IDX 44 47 58 48 77 49 42 50 43 51 57 53 78 54 45 55 29 56 30 57
REMARK SMILES IDX 38 58 31 59 37 60 39 61 36 62 32 63 33 64 34 65 35 66 61 67
REMARK SMILES IDX 62 68 70 69 63 70 69 71 71 72 68 73 64 74 65 75 66 76 67 77
REMARK SMILES IDX 46 78 47 79 55 80 48 81 54 82 56 83 53 84 49 85 50 86 51 87
REMARK SMILES IDX 52 88
REMARK H PARENT 7 12 6 19 76 41 44 52
REMARK Flexibility Score: inf
ROOT
ATOM      1  C   UNL A   1      31.019  29.211  24.902  1.00  0.00     0.275 C 
ENDROOT
BRANCH   1   2
ATOM      2  O   UNL A   1      30.570  29.405  23.546  1.00  0.00    -0.458 OA
BRANCH   2   3
ATOM      3  C   UNL A   1      29.685  28.475  23.105  1.00  0.00     0.338 C 
ATOM      4  O   UNL A   1      28.553  28.682  22.698  1.00  0.00    -0.246 OA
BRANCH   3   5
ATOM      5  C   UNL A   1      30.297  27.131  23.088  1.00  0.00     0.060 A 
ATOM      6  C   UNL A   1      31.419  24.561  22.824  1.00  0.00     0.034 A 
ATOM      7  C   UNL A   1      31.909  25.638  22.081  1.00  0.00     0.026 A 
ATOM      8  C   UNL A   1      30.365  24.796  23.713  1.00  0.00     0.026 A 
ATOM      9  C   UNL A   1      31.333  26.898  22.184  1.00  0.00     0.018 A 
ATOM     10  C   UNL A   1      29.820  26.081  23.871  1.00  0.00     0.018 A 
BRANCH   6  11
ATOM     11  N   UNL A   1      31.952  23.322  22.558  1.00  0.00    -0.380 N 
ATOM     12  H   UNL A   1      32.091  23.092  21.611  1.00  0.00     0.160 HD
BRANCH  11  13
ATOM     13  C   UNL A   1      32.331  22.309  23.544  1.00  0.00     0.107 C 
BRANCH  13  14
ATOM     14  C   UNL A   1      33.721  22.643  24.145  1.00  0.00     0.007 C 
ATOM     15  C   UNL A   1      34.748  23.017  23.075  1.00  0.00     0.009 C 
ATOM     16  C   UNL A   1      33.689  23.736  25.221  1.00  0.00     0.009 C 
ENDBRANCH  13  14
BRANCH  13  17
ATOM     17  C   UNL A   1      32.243  20.931  22.841  1.00  0.00     0.181 C 
BRANCH  17  18
ATOM     18  O   UNL A   1      31.656  21.077  21.545  1.00  0.00    -0.394 OA
ATOM     19  H   UNL A   1      30.915  21.700  21.595  1.00  0.00     0.210 HD
ENDBRANCH  17  18
ENDBRANCH  13  17
ENDBRANCH  11  13
ENDBRANCH   6  11
ENDBRANCH   3   5
ENDBRANCH   2   3
ENDBRANCH   1   2
BRANCH   1  20
ATOM     20  C   UNL A   1      31.444  30.539  25.535  1.00  0.00     0.275 C 
BRANCH  20  21
ATOM     21  O   UNL A   1      32.772  30.421  26.071  1.00  0.00    -0.458 OA
BRANCH  21  22
ATOM     22  C   UNL A   1      33.123  31.360  26.983  1.00  0.00     0.338 C 
ATOM     23  O   UNL A   1      32.448  32.312  27.336  1.00  0.00    -0.246 OA
BRANCH  22  24
ATOM     24  C   UNL A   1      34.477  31.074  27.522  1.00  0.00     0.060 A 
ATOM     25  C   UNL A   1      34.882  29.767  27.784  1.00  0.00     0.016 A 
ATOM     26  C   UNL A   1      35.325  32.127  27.861  1.00  0.00     0.016 A 
ATOM     27  C   UNL A   1      36.061  29.517  28.492  1.00  0.00     0.010 A 
ATOM     28  C   UNL A   1      36.568  31.865  28.457  1.00  0.00     0.010 A 
ATOM     29  C   UNL A   1      36.937  30.559  28.830  1.00  0.00    -0.014 A 
BRANCH  29  30
ATOM     30  C   UNL A   1      38.194  30.299  29.609  1.00  0.00     0.031 A 
ATOM     31  C   UNL A   1      39.301  29.456  29.012  1.00  0.00     0.074 A 
ATOM     32  C   UNL A   1      38.373  30.811  30.846  1.00  0.00     0.049 A 
ATOM     33  N   UNL A   1      40.357  28.936  29.588  1.00  0.00    -0.248 NA
ATOM     34  C   UNL A   1      39.188  29.134  27.582  1.00  0.00     0.031 C 
ATOM     35  C   UNL A   1      37.424  31.668  31.559  1.00  0.00     0.029 A 
ATOM     36  N   UNL A   1      39.427  30.695  31.725  1.00  0.00    -0.354 N 
ATOM     37  C   UNL A   1      40.984  28.160  28.616  1.00  0.00     0.074 A 
ATOM     38  C   UNL A   1      40.185  28.278  27.415  1.00  0.00     0.031 C 
ATOM     39  C   UNL A   1      37.961  32.049  32.728  1.00  0.00     0.029 A 
ATOM     40  C   UNL A   1      39.244  31.381  32.905  1.00  0.00     0.049 A 
ATOM     41  H   UNL A   1      40.236  30.171  31.528  1.00  0.00     0.167 HD
ATOM     42  C   UNL A   1      42.117  27.417  28.715  1.00  0.00     0.034 A 
ATOM     43  C   UNL A   1      39.991  31.435  34.027  1.00  0.00     0.034 A 
ATOM     44  C   UNL A   1      42.953  27.367  29.891  1.00  0.00     0.049 A 
ATOM     45  C   UNL A   1      41.250  30.614  34.112  1.00  0.00     0.074 A 
ATOM     46  C   UNL A   1      44.135  26.667  30.081  1.00  0.00     0.029 A 
ATOM     47  N   UNL A   1      42.715  28.061  31.069  1.00  0.00    -0.354 N 
ATOM     48  N   UNL A   1      41.776  29.813  33.215  1.00  0.00    -0.248 NA
ATOM     49  C   UNL A   1      42.004  30.690  35.370  1.00  0.00     0.031 C 
ATOM     50  C   UNL A   1      44.583  26.902  31.387  1.00  0.00     0.029 A 
ATOM     51  C   UNL A   1      43.717  27.796  31.992  1.00  0.00     0.049 A 
ATOM     52  H   UNL A   1      41.946  28.655  31.227  1.00  0.00     0.167 HD
ATOM     53  C   UNL A   1      42.921  29.287  33.805  1.00  0.00     0.074 A 
ATOM     54  C   UNL A   1      43.028  29.887  35.119  1.00  0.00     0.031 C 
ATOM     55  C   UNL A   1      43.799  28.379  33.310  1.00  0.00     0.034 A 
BRANCH  42  56
ATOM     56  C   UNL A   1      42.485  26.546  27.534  1.00  0.00     0.023 A 
ATOM     57  C   UNL A   1      42.044  25.218  27.411  1.00  0.00     0.031 A 
ATOM     58  C   UNL A   1      43.321  27.057  26.523  1.00  0.00     0.131 A 
ATOM     59  C   UNL A   1      42.498  24.426  26.344  1.00  0.00     0.055 A 
ATOM     60  C   UNL A   1      43.705  26.288  25.423  1.00  0.00     0.041 A 
ATOM     61  F   UNL A   1      43.788  28.314  26.593  1.00  0.00    -0.206 F 
ATOM     62  C   UNL A   1      43.306  24.959  25.337  1.00  0.00     0.022 A 
BRANCH  59  63
ATOM     63  S   UNL A   1      42.128  22.650  26.364  1.00  0.00     0.124 S 
ATOM     64  O   UNL A   1      42.736  22.208  25.110  1.00  0.00    -0.237 OA
ATOM     65  O   UNL A   1      42.788  22.204  27.584  1.00  0.00    -0.237 OA
ATOM     66  O   UNL A   1      40.667  22.603  26.389  1.00  0.00    -0.744 OA
ENDBRANCH  59  63
ENDBRANCH  42  56
BRANCH  43  67
ATOM     67  C   UNL A   1      39.533  32.237  35.198  1.00  0.00     0.023 A 
ATOM     68  C   UNL A   1      38.809  31.646  36.246  1.00  0.00     0.031 A 
ATOM     69  C   UNL A   1      39.788  33.619  35.270  1.00  0.00     0.131 A 
ATOM     70  C   UNL A   1      38.341  32.438  37.306  1.00  0.00     0.055 A 
ATOM     71  C   UNL A   1      39.368  34.392  36.352  1.00  0.00     0.041 A 
ATOM     72  F   UNL A   1      40.472  34.235  34.293  1.00  0.00    -0.206 F 
ATOM     73  C   UNL A   1      38.630  33.804  37.375  1.00  0.00     0.022 A 
BRANCH  70  74
ATOM     74  S   UNL A   1      37.285  31.672  38.567  1.00  0.00     0.124 S 
ATOM     75  O   UNL A   1      36.102  32.524  38.522  1.00  0.00    -0.237 OA
ATOM     76  O   UNL A   1      37.122  30.319  38.045  1.00  0.00    -0.237 OA
ATOM     77  O   UNL A   1      38.082  31.775  39.787  1.00  0.00    -0.744 OA
ENDBRANCH  70  74
ENDBRANCH  43  67
BRANCH  55  78
ATOM     78  C   UNL A   1      44.960  28.008  34.197  1.00  0.00     0.023 A 
ATOM     79  C   UNL A   1      44.890  26.915  35.079  1.00  0.00     0.031 A 
ATOM     80  C   UNL A   1      46.133  28.782  34.192  1.00  0.00     0.131 A 
ATOM     81  C   UNL A   1      45.950  26.662  35.964  1.00  0.00     0.055 A 
ATOM     82  C   UNL A   1      47.205  28.494  35.038  1.00  0.00     0.041 A 
ATOM     83  F   UNL A   1      46.251  29.838  33.371  1.00  0.00    -0.206 F 
ATOM     84  C   UNL A   1      47.112  27.438  35.940  1.00  0.00     0.022 A 
BRANCH  81  85
ATOM     85  S   UNL A   1      45.751  25.362  37.213  1.00  0.00     0.124 S 
ATOM     86  O   UNL A   1      47.116  25.197  37.701  1.00  0.00    -0.237 OA
ATOM     87  O   UNL A   1      44.808  25.967  38.147  1.00  0.00    -0.237 OA
ATOM     88  O   UNL A   1      45.226  24.230  36.450  1.00  0.00    -0.744 OA
ENDBRANCH  81  85
ENDBRANCH  55  78
ENDBRANCH  29  30
ENDBRANCH  22  24
ENDBRANCH  21  22
ENDBRANCH  20  21
ENDBRANCH   1  20
TORSDOF 19
ENDMDL
MODEL 3
REMARK VINA RESULT:     -10.7      1.747      2.119
REMARK SMILES CC(C)[C@H](CO)Nc1ccc(C(=O)OCCOC(=O)c2ccc(-c3c4nc(c(-c5cc(S(=O)(=O)[O-])ccc5F)c5ccc([nH]5)c(-c5cc(S(=O)(=O)[O-])ccc5F)c5nc(c(-c6cc(S(=O)(=O)[O-])ccc6F)c6ccc3[nH]6)C=C5)C=C4)cc2)cc1
REMARK SMILES IDX 15 1 14 2 12 3 13 4 11 5 8 6 9 7 84 8 10 9 83 10 7 11 4 13
REMARK SMILES IDX 2 14 1 15 3 16 5 17 6 18 16 20 17 21 18 22 19 23 20 24 21 25
REMARK SMILES IDX 82 26 22 27 81 28 23 29 24 30 25 31 75 32 26 33 80 34 74 35
REMARK SMILES IDX 76 36 27 37 79 38 73 39 72 40 28 42 60 43 40 44 59 45 41 46
REMARK SMILES IDX 44 47 58 48 77 49 42 50 43 51 57 53 78 54 45 55 29 56 30 57
REMARK SMILES IDX 38 58 31 59 37 60 39 61 36 62 32 63 33 64 34 65 35 66 61 67
REMARK SMILES IDX 62 68 70 69 63 70 69 71 71 72 68 73 64 74 65 75 66 76 67 77
REMARK SMILES IDX 46 78 47 79 55 80 48 81 54 82 56 83 53 84 49 85 50 86 51 87
REMARK SMILES IDX 52 88
REMARK H PARENT 7 12 6 19 76 41 44 52
REMARK Flexibility Score: inf
ROOT
ATOM      1  C   UNL A   1      34.658  20.896  24.719  1.00  0.00     0.275 C 
ENDROOT
BRANCH   1   2
ATOM      2  O   UNL A   1      34.089  21.588  25.849  1.00  0.00    -0.458 OA
BRANCH   2   3
ATOM      3  C   UNL A   1      32.902  22.197  25.600  1.00  0.00     0.338 C 
ATOM      4  O   UNL A   1      31.825  21.650  25.426  1.00  0.00    -0.246 OA
BRANCH   3   5
ATOM      5  C   UNL A   1      33.042  23.666  25.651  1.00  0.00     0.060 A 
ATOM      6  C   UNL A   1      33.483  26.436  25.905  1.00  0.00     0.034 A 
ATOM      7  C   UNL A   1      34.508  25.581  25.496  1.00  0.00     0.026 A 
ATOM      8  C   UNL A   1      32.227  25.882  26.172  1.00  0.00     0.026 A 
ATOM      9  C   UNL A   1      34.303  24.210  25.405  1.00  0.00     0.018 A 
ATOM     10  C   UNL A   1      31.992  24.506  26.020  1.00  0.00     0.018 A 
BRANCH   6  11
ATOM     11  N   UNL A   1      33.809  27.757  26.105  1.00  0.00    -0.380 N 
ATOM     12  H   UNL A   1      34.399  27.958  26.868  1.00  0.00     0.160 HD
BRANCH  11  13
ATOM     13  C   UNL A   1      33.368  28.894  25.296  1.00  0.00     0.107 C 
BRANCH  13  14
ATOM     14  C   UNL A   1      31.938  29.324  25.714  1.00  0.00     0.007 C 
ATOM     15  C   UNL A   1      31.926  30.639  26.497  1.00  0.00     0.009 C 
ATOM     16  C   UNL A   1      30.948  29.420  24.547  1.00  0.00     0.009 C 
ENDBRANCH  13  14
BRANCH  13  17
ATOM     17  C   UNL A   1      33.513  28.481  23.809  1.00  0.00     0.181 C 
BRANCH  17  18
ATOM     18  O   UNL A   1      34.725  29.013  23.268  1.00  0.00    -0.394 OA
ATOM     19  H   UNL A   1      34.819  29.940  23.535  1.00  0.00     0.210 HD
ENDBRANCH  17  18
ENDBRANCH  13  17
ENDBRANCH  11  13
ENDBRANCH   6  11
ENDBRANCH   3   5
ENDBRANCH   2   3
ENDBRANCH   1   2
BRANCH   1  20
ATOM     20  C   UNL A   1      36.076  20.411  25.028  1.00  0.00     0.275 C 
BRANCH  20  21
ATOM     21  O   UNL A   1      36.874  21.509  25.502  1.00  0.00    -0.458 OA
BRANCH  21  22
ATOM     22  C   UNL A   1      38.192  21.244  25.679  1.00  0.00     0.338 C 
ATOM     23  O   UNL A   1      38.768  20.214  25.373  1.00  0.00    -0.246 OA
BRANCH  22  24
ATOM     24  C   UNL A   1      38.870  22.406  26.308  1.00  0.00     0.060 A 
ATOM     25  C   UNL A   1      38.367  23.696  26.158  1.00  0.00     0.016 A 
ATOM     26  C   UNL A   1      40.078  22.223  26.979  1.00  0.00     0.016 A 
ATOM     27  C   UNL A   1      39.120  24.803  26.559  1.00  0.00     0.010 A 
ATOM     28  C   UNL A   1      40.771  23.329  27.494  1.00  0.00     0.010 A 
ATOM     29  C   UNL A   1      40.331  24.643  27.249  1.00  0.00    -0.014 A 
BRANCH  29  30
ATOM     30  C   UNL A   1      41.155  25.828  27.664  1.00  0.00     0.031 A 
ATOM     31  C   UNL A   1      40.552  26.909  28.537  1.00  0.00     0.074 A 
ATOM     32  C   UNL A   1      42.444  25.957  27.280  1.00  0.00     0.049 A 
ATOM     33  N   UNL A   1      41.012  28.102  28.824  1.00  0.00    -0.248 NA
ATOM     34  C   UNL A   1      39.246  26.615  29.144  1.00  0.00     0.031 C 
ATOM     35  C   UNL A   1      43.190  24.997  26.465  1.00  0.00     0.029 A 
ATOM     36  N   UNL A   1      43.364  26.949  27.535  1.00  0.00    -0.354 N 
ATOM     37  C   UNL A   1      40.017  28.729  29.571  1.00  0.00     0.074 A 
ATOM     38  C   UNL A   1      38.929  27.781  29.688  1.00  0.00     0.031 C 
ATOM     39  C   UNL A   1      44.461  25.411  26.343  1.00  0.00     0.029 A 
ATOM     40  C   UNL A   1      44.600  26.718  26.973  1.00  0.00     0.049 A 
ATOM     41  H   UNL A   1      43.158  27.748  28.070  1.00  0.00     0.167 HD
ATOM     42  C   UNL A   1      40.008  29.977  30.106  1.00  0.00     0.034 A 
ATOM     43  C   UNL A   1      45.710  27.482  26.921  1.00  0.00     0.034 A 
ATOM     44  C   UNL A   1      41.127  30.889  30.054  1.00  0.00     0.049 A 
ATOM     45  C   UNL A   1      45.685  28.858  27.532  1.00  0.00     0.074 A 
ATOM     46  C   UNL A   1      41.228  32.163  30.590  1.00  0.00     0.029 A 
ATOM     47  N   UNL A   1      42.349  30.619  29.454  1.00  0.00    -0.354 N 
ATOM     48  N   UNL A   1      44.702  29.468  28.152  1.00  0.00    -0.248 NA
ATOM     49  C   UNL A   1      46.913  29.655  27.416  1.00  0.00     0.031 C 
ATOM     50  C   UNL A   1      42.491  32.678  30.273  1.00  0.00     0.029 A 
ATOM     51  C   UNL A   1      43.202  31.704  29.594  1.00  0.00     0.049 A 
ATOM     52  H   UNL A   1      42.578  29.778  28.995  1.00  0.00     0.167 HD
ATOM     53  C   UNL A   1      45.196  30.723  28.496  1.00  0.00     0.074 A 
ATOM     54  C   UNL A   1      46.571  30.769  28.046  1.00  0.00     0.031 C 
ATOM     55  C   UNL A   1      44.563  31.750  29.117  1.00  0.00     0.034 A 
BRANCH  42  56
ATOM     56  C   UNL A   1      38.722  30.454  30.743  1.00  0.00     0.023 A 
ATOM     57  C   UNL A   1      37.738  31.151  30.023  1.00  0.00     0.031 A 
ATOM     58  C   UNL A   1      38.495  30.224  32.114  1.00  0.00     0.131 A 
ATOM     59  C   UNL A   1      36.609  31.656  30.689  1.00  0.00     0.055 A 
ATOM     60  C   UNL A   1      37.333  30.660  32.753  1.00  0.00     0.041 A 
ATOM     61  F   UNL A   1      39.405  29.578  32.858  1.00  0.00    -0.206 F 
ATOM     62  C   UNL A   1      36.389  31.395  32.044  1.00  0.00     0.022 A 
BRANCH  59  63
ATOM     63  S   UNL A   1      35.500  32.776  29.791  1.00  0.00     0.124 S 
ATOM     64  O   UNL A   1      36.153  34.067  30.000  1.00  0.00    -0.237 OA
ATOM     65  O   UNL A   1      35.550  32.248  28.434  1.00  0.00    -0.237 OA
ATOM     66  O   UNL A   1      34.220  32.616  30.478  1.00  0.00    -0.744 OA
ENDBRANCH  59  63
ENDBRANCH  42  56
BRANCH  43  67
ATOM     67  C   UNL A   1      46.923  27.000  26.197  1.00  0.00     0.023 A 
ATOM     68  C   UNL A   1      47.980  26.381  26.881  1.00  0.00     0.031 A 
ATOM     69  C   UNL A   1      47.052  27.182  24.808  1.00  0.00     0.131 A 
ATOM     70  C   UNL A   1      49.132  25.991  26.181  1.00  0.00     0.055 A 
ATOM     71  C   UNL A   1      48.176  26.744  24.108  1.00  0.00     0.041 A 
ATOM     72  F   UNL A   1      46.072  27.773  24.106  1.00  0.00    -0.206 F 
ATOM     73  C   UNL A   1      49.231  26.153  24.796  1.00  0.00     0.022 A 
BRANCH  70  74
ATOM     74  S   UNL A   1      50.539  25.329  27.117  1.00  0.00     0.124 S 
ATOM     75  O   UNL A   1      51.461  24.962  26.048  1.00  0.00    -0.237 OA
ATOM     76  O   UNL A   1      50.927  26.474  27.934  1.00  0.00    -0.237 OA
ATOM     77  O   UNL A   1      49.960  24.208  27.854  1.00  0.00    -0.744 OA
ENDBRANCH  70  74
ENDBRANCH  43  67
BRANCH  55  78
ATOM     78  C   UNL A   1      45.376  32.996  29.359  1.00  0.00     0.023 A 
ATOM     79  C   UNL A   1      45.417  34.041  28.419  1.00  0.00     0.031 A 
ATOM     80  C   UNL A   1      46.153  33.122  30.524  1.00  0.00     0.131 A 
ATOM     81  C   UNL A   1      46.265  35.138  28.630  1.00  0.00     0.055 A 
ATOM     82  C   UNL A   1      46.955  34.240  30.754  1.00  0.00     0.041 A 
ATOM     83  F   UNL A   1      46.152  32.152  31.454  1.00  0.00    -0.206 F 
ATOM     84  C   UNL A   1      47.026  35.250  29.798  1.00  0.00     0.022 A 
BRANCH  81  85
ATOM     85  S   UNL A   1      46.435  36.375  27.315  1.00  0.00     0.124 S 
ATOM     86  O   UNL A   1      47.430  37.283  27.876  1.00  0.00    -0.237 OA
ATOM     87  O   UNL A   1      46.874  35.569  26.181  1.00  0.00    -0.237 OA
ATOM     88  O   UNL A   1      45.088  36.932  27.192  1.00  0.00    -0.744 OA
ENDBRANCH  81  85
ENDBRANCH  55  78
ENDBRANCH  29  30
ENDBRANCH  22  24
ENDBRANCH  21  22
ENDBRANCH  20  21
ENDBRANCH   1  20
TORSDOF 19
ENDMDL
