MODEL 1
REMARK VINA RESULT:     -13.6      0.000      0.000
REMARK SMILES C[C@@H](CCC(=O)OCCOC(=O)c1ccc(-c2c3nc(c(-c4cc(S(=O)(=O)[O-])ccc4F)c4ccc([nH]4)c(-c4cc(S(=O)(=O)[O-])ccc4F)c4nc(c(-c5cc(S(=O)(=O)[O-])ccc5F)c5ccc2[nH]5)C=C4)C=C3)cc1)[C@@H]1CC[C@@H]2[C@H]3CC[C@@H]4CC(=O)CC[C@]4(C)[C@@H]3CC(=O)[C@]21C
REMARK SMILES IDX 8 1 7 2 5 3 6 4 4 5 3 6 2 7 1 8 76 9 77 10 95 11 78 12 79 13
REMARK SMILES IDX 93 14 96 15 80 16 92 17 94 18 81 19 91 20 82 21 89 22 83 23
REMARK SMILES IDX 88 24 90 25 84 26 87 27 85 28 86 29 9 30 10 31 11 32 12 33
REMARK SMILES IDX 13 34 14 35 75 36 15 37 74 38 16 39 17 40 18 41 68 42 19 43
REMARK SMILES IDX 73 44 67 45 69 46 20 47 72 48 66 49 65 50 21 52 53 53 33 54
REMARK SMILES IDX 52 55 34 56 37 57 51 58 70 59 35 60 36 61 50 63 71 64 38 65
REMARK SMILES IDX 22 66 23 67 31 68 24 69 30 70 32 71 29 72 25 73 26 74 27 75
REMARK SMILES IDX 28 76 54 77 55 78 63 79 56 80 62 81 64 82 61 83 57 84 58 85
REMARK SMILES IDX 59 86 60 87 39 88 40 89 48 90 41 91 47 92 49 93 46 94 42 95
REMARK SMILES IDX 43 96 44 97 45 98
REMARK H PARENT 69 51 37 62
REMARK Flexibility Score: inf
ROOT
ATOM      1  C   UNL A   1      42.378  21.022  26.938  1.00  0.00     0.274 C 
ENDROOT
BRANCH   1   2
ATOM      2  O   UNL A   1      40.965  21.316  26.950  1.00  0.00    -0.462 OA
BRANCH   2   3
ATOM      3  C   UNL A   1      40.119  20.591  26.198  1.00  0.00     0.305 C 
ATOM      4  O   UNL A   1      40.358  19.439  25.846  1.00  0.00    -0.252 OA
BRANCH   3   5
ATOM      5  C   UNL A   1      38.827  21.308  25.766  1.00  0.00     0.123 C 
BRANCH   5   6
ATOM      6  C   UNL A   1      37.726  20.851  24.755  1.00  0.00     0.015 C 
BRANCH   6   7
ATOM      7  C   UNL A   1      36.204  20.735  25.131  1.00  0.00    -0.010 C 
ATOM      8  C   UNL A   1      35.750  19.280  24.910  1.00  0.00     0.008 C 
BRANCH   7   9
ATOM      9  C   UNL A   1      35.195  21.725  24.449  1.00  0.00     0.005 C 
ATOM     10  C   UNL A   1      35.949  22.687  23.522  1.00  0.00     0.005 C 
ATOM     11  C   UNL A   1      34.238  22.722  25.209  1.00  0.00     0.032 C 
ATOM     12  C   UNL A   1      35.313  24.042  23.568  1.00  0.00     0.005 C 
ATOM     13  C   UNL A   1      33.947  23.653  23.998  1.00  0.00     0.006 C 
ATOM     14  C   UNL A   1      32.814  22.339  25.595  1.00  0.00     0.139 C 
ATOM     15  C   UNL A   1      34.909  23.315  26.453  1.00  0.00     0.020 C 
ATOM     16  C   UNL A   1      33.058  24.865  24.095  1.00  0.00    -0.003 C 
ATOM     17  C   UNL A   1      31.894  23.534  25.967  1.00  0.00     0.080 C 
ATOM     18  O   UNL A   1      32.415  21.176  25.591  1.00  0.00    -0.299 OA
ATOM     19  C   UNL A   1      32.757  25.364  22.658  1.00  0.00     0.004 C 
ATOM     20  C   UNL A   1      31.741  24.526  24.789  1.00  0.00     0.006 C 
ATOM     21  C   UNL A   1      31.716  26.463  22.574  1.00  0.00     0.005 C 
ATOM     22  C   UNL A   1      30.920  25.866  24.971  1.00  0.00    -0.025 C 
ATOM     23  C   UNL A   1      30.508  26.275  23.520  1.00  0.00     0.002 C 
ATOM     24  C   UNL A   1      31.662  27.065  25.663  1.00  0.00     0.015 C 
ATOM     25  C   UNL A   1      29.683  25.561  25.843  1.00  0.00     0.012 C 
ATOM     26  C   UNL A   1      29.641  27.526  23.507  1.00  0.00     0.079 C 
ATOM     27  C   UNL A   1      31.522  28.470  25.037  1.00  0.00     0.076 C 
ATOM     28  C   UNL A   1      30.411  28.705  24.032  1.00  0.00     0.133 C 
ATOM     29  O   UNL A   1      30.158  29.839  23.618  1.00  0.00    -0.300 OA
ENDBRANCH   7   9
ENDBRANCH   6   7
ENDBRANCH   5   6
ENDBRANCH   3   5
ENDBRANCH   2   3
ENDBRANCH   1   2
BRANCH   1  30
ATOM     30  C   UNL A   1      43.086  21.590  25.675  1.00  0.00     0.275 C 
BRANCH  30  31
ATOM     31  O   UNL A   1      42.535  22.767  25.020  1.00  0.00    -0.458 OA
BRANCH  31  32
ATOM     32  C   UNL A   1      43.224  23.924  25.089  1.00  0.00     0.338 C 
ATOM     33  O   UNL A   1      44.404  24.056  24.827  1.00  0.00    -0.246 OA
BRANCH  32  34
ATOM     34  C   UNL A   1      42.423  25.061  25.619  1.00  0.00     0.060 A 
ATOM     35  C   UNL A   1      41.295  24.713  26.370  1.00  0.00     0.016 A 
ATOM     36  C   UNL A   1      42.849  26.395  25.597  1.00  0.00     0.016 A 
ATOM     37  C   UNL A   1      40.682  25.645  27.206  1.00  0.00     0.010 A 
ATOM     38  C   UNL A   1      42.265  27.322  26.488  1.00  0.00     0.010 A 
ATOM     39  C   UNL A   1      41.238  26.925  27.363  1.00  0.00    -0.014 A 
BRANCH  39  40
ATOM     40  C   UNL A   1      40.917  27.668  28.624  1.00  0.00     0.031 A 
ATOM     41  C   UNL A   1      41.812  27.661  29.826  1.00  0.00     0.074 A 
ATOM     42  C   UNL A   1      39.795  28.423  28.634  1.00  0.00     0.049 A 
ATOM     43  N   UNL A   1      41.685  28.321  30.951  1.00  0.00    -0.248 NA
ATOM     44  C   UNL A   1      42.999  26.805  29.759  1.00  0.00     0.031 C 
ATOM     45  C   UNL A   1      38.850  28.528  27.516  1.00  0.00     0.029 A 
ATOM     46  N   UNL A   1      39.269  29.271  29.580  1.00  0.00    -0.354 N 
ATOM     47  C   UNL A   1      42.773  27.960  31.738  1.00  0.00     0.074 A 
ATOM     48  C   UNL A   1      43.534  26.997  30.959  1.00  0.00     0.031 C 
ATOM     49  C   UNL A   1      37.907  29.433  27.813  1.00  0.00     0.029 A 
ATOM     50  C   UNL A   1      38.122  29.919  29.170  1.00  0.00     0.049 A 
ATOM     51  H   UNL A   1      39.674  29.404  30.467  1.00  0.00     0.167 HD
ATOM     52  C   UNL A   1      43.099  28.389  32.986  1.00  0.00     0.034 A 
ATOM     53  C   UNL A   1      37.317  30.790  29.810  1.00  0.00     0.034 A 
ATOM     54  C   UNL A   1      42.314  29.337  33.751  1.00  0.00     0.049 A 
ATOM     55  C   UNL A   1      37.667  31.191  31.219  1.00  0.00     0.074 A 
ATOM     56  C   UNL A   1      42.567  29.845  35.016  1.00  0.00     0.029 A 
ATOM     57  N   UNL A   1      41.114  29.907  33.338  1.00  0.00    -0.354 N 
ATOM     58  N   UNL A   1      38.708  30.845  31.940  1.00  0.00    -0.248 NA
ATOM     59  C   UNL A   1      36.736  32.099  31.897  1.00  0.00     0.031 C 
ATOM     60  C   UNL A   1      41.483  30.645  35.399  1.00  0.00     0.029 A 
ATOM     61  C   UNL A   1      40.598  30.723  34.337  1.00  0.00     0.049 A 
ATOM     62  H   UNL A   1      40.691  29.754  32.462  1.00  0.00     0.167 HD
ATOM     63  C   UNL A   1      38.571  31.523  33.149  1.00  0.00     0.074 A 
ATOM     64  C   UNL A   1      37.360  32.311  33.047  1.00  0.00     0.031 C 
ATOM     65  C   UNL A   1      39.379  31.496  34.240  1.00  0.00     0.034 A 
BRANCH  52  66
ATOM     66  C   UNL A   1      44.326  27.781  33.633  1.00  0.00     0.023 A 
ATOM     67  C   UNL A   1      44.263  26.596  34.387  1.00  0.00     0.031 A 
ATOM     68  C   UNL A   1      45.577  28.417  33.519  1.00  0.00     0.131 A 
ATOM     69  C   UNL A   1      45.402  26.137  35.069  1.00  0.00     0.055 A 
ATOM     70  C   UNL A   1      46.727  27.903  34.124  1.00  0.00     0.041 A 
ATOM     71  F   UNL A   1      45.702  29.562  32.830  1.00  0.00    -0.206 F 
ATOM     72  C   UNL A   1      46.639  26.766  34.920  1.00  0.00     0.022 A 
BRANCH  69  73
ATOM     73  S   UNL A   1      45.200  24.812  36.292  1.00  0.00     0.124 S 
ATOM     74  O   UNL A   1      44.616  23.746  35.481  1.00  0.00    -0.237 OA
ATOM     75  O   UNL A   1      46.567  24.591  36.749  1.00  0.00    -0.237 OA
ATOM     76  O   UNL A   1      44.297  25.394  37.283  1.00  0.00    -0.744 OA
ENDBRANCH  69  73
ENDBRANCH  52  66
BRANCH  53  77
ATOM     77  C   UNL A   1      36.083  31.318  29.151  1.00  0.00     0.023 A 
ATOM     78  C   UNL A   1      35.727  32.674  29.246  1.00  0.00     0.031 A 
ATOM     79  C   UNL A   1      35.210  30.458  28.459  1.00  0.00     0.131 A 
ATOM     80  C   UNL A   1      34.511  33.118  28.701  1.00  0.00     0.055 A 
ATOM     81  C   UNL A   1      34.035  30.919  27.861  1.00  0.00     0.041 A 
ATOM     82  F   UNL A   1      35.492  29.151  28.343  1.00  0.00    -0.206 F 
ATOM     83  C   UNL A   1      33.673  32.255  27.993  1.00  0.00     0.022 A 
BRANCH  80  84
ATOM     84  S   UNL A   1      33.986  34.826  29.021  1.00  0.00     0.124 S 
ATOM     85  O   UNL A   1      34.920  35.582  28.195  1.00  0.00    -0.237 OA
ATOM     86  O   UNL A   1      32.599  34.807  28.568  1.00  0.00    -0.237 OA
ATOM     87  O   UNL A   1      34.167  34.974  30.463  1.00  0.00    -0.744 OA
ENDBRANCH  80  84
ENDBRANCH  53  77
BRANCH  65  88
ATOM     88  C   UNL A   1      38.994  32.397  35.394  1.00  0.00     0.023 A 
ATOM     89  C   UNL A   1      39.479  33.712  35.510  1.00  0.00     0.031 A 
ATOM     90  C   UNL A   1      38.162  31.910  36.421  1.00  0.00     0.131 A 
ATOM     91  C   UNL A   1      39.193  34.465  36.658  1.00  0.00     0.055 A 
ATOM     92  C   UNL A   1      37.819  32.694  37.524  1.00  0.00     0.041 A 
ATOM     93  F   UNL A   1      37.675  30.660  36.372  1.00  0.00    -0.206 F 
ATOM     94  C   UNL A   1      38.350  33.973  37.657  1.00  0.00     0.022 A 
BRANCH  91  95
ATOM     95  S   UNL A   1      40.048  36.050  36.896  1.00  0.00     0.124 S 
ATOM     96  O   UNL A   1      39.811  36.715  35.618  1.00  0.00    -0.237 OA
ATOM     97  O   UNL A   1      39.347  36.612  38.046  1.00  0.00    -0.237 OA
ATOM     98  O   UNL A   1      41.434  35.658  37.145  1.00  0.00    -0.744 OA
ENDBRANCH  91  95
ENDBRANCH  65  88
ENDBRANCH  39  40
ENDBRANCH  32  34
ENDBRANCH  31  32
ENDBRANCH  30  31
ENDBRANCH   1  30
TORSDOF 17
ENDMDL
MODEL 2
REMARK VINA RESULT:     -13.6      1.944      7.508
REMARK SMILES C[C@@H](CCC(=O)OCCOC(=O)c1ccc(-c2c3nc(c(-c4cc(S(=O)(=O)[O-])ccc4F)c4ccc([nH]4)c(-c4cc(S(=O)(=O)[O-])ccc4F)c4nc(c(-c5cc(S(=O)(=O)[O-])ccc5F)c5ccc2[nH]5)C=C4)C=C3)cc1)[C@@H]1CC[C@@H]2[C@H]3CC[C@@H]4CC(=O)CC[C@]4(C)[C@@H]3CC(=O)[C@]21C
REMARK SMILES IDX 8 1 7 2 5 3 6 4 4 5 3 6 2 7 1 8 76 9 77 10 95 11 78 12 79 13
REMARK SMILES IDX 93 14 96 15 80 16 92 17 94 18 81 19 91 20 82 21 89 22 83 23
REMARK SMILES IDX 88 24 90 25 84 26 87 27 85 28 86 29 9 30 10 31 11 32 12 33
REMARK SMILES IDX 13 34 14 35 75 36 15 37 74 38 16 39 17 40 18 41 68 42 19 43
REMARK SMILES IDX 73 44 67 45 69 46 20 47 72 48 66 49 65 50 21 52 53 53 33 54
REMARK SMILES IDX 52 55 34 56 37 57 51 58 70 59 35 60 36 61 50 63 71 64 38 65
REMARK SMILES IDX 22 66 23 67 31 68 24 69 30 70 32 71 29 72 25 73 26 74 27 75
REMARK SMILES IDX 28 76 54 77 55 78 63 79 56 80 62 81 64 82 61 83 57 84 58 85
REMARK SMILES IDX 59 86 60 87 39 88 40 89 48 90 41 91 47 92 49 93 46 94 42 95
REMARK SMILES IDX 43 96 44 97 45 98
REMARK H PARENT 69 51 37 62
REMARK Flexibility Score: inf
ROOT
ATOM      1  C   UNL A   1      42.392  21.116  27.609  1.00  0.00     0.274 C 
ENDROOT
BRANCH   1   2
ATOM      2  O   UNL A   1      40.983  21.410  27.504  1.00  0.00    -0.462 OA
BRANCH   2   3
ATOM      3  C   UNL A   1      40.257  20.886  26.502  1.00  0.00     0.305 C 
ATOM      4  O   UNL A   1      40.289  19.695  26.205  1.00  0.00    -0.252 OA
BRANCH   3   5
ATOM      5  C   UNL A   1      39.395  21.886  25.709  1.00  0.00     0.123 C 
BRANCH   5   6
ATOM      6  C   UNL A   1      37.892  22.269  25.896  1.00  0.00     0.015 C 
BRANCH   6   7
ATOM      7  C   UNL A   1      36.702  21.327  25.484  1.00  0.00    -0.010 C 
ATOM      8  C   UNL A   1      37.256  20.186  24.611  1.00  0.00     0.008 C 
BRANCH   7   9
ATOM      9  C   UNL A   1      35.449  21.974  24.796  1.00  0.00     0.005 C 
ATOM     10  C   UNL A   1      35.868  22.686  23.504  1.00  0.00     0.005 C 
ATOM     11  C   UNL A   1      34.505  23.056  25.448  1.00  0.00     0.032 C 
ATOM     12  C   UNL A   1      35.053  23.929  23.321  1.00  0.00     0.005 C 
ATOM     13  C   UNL A   1      33.862  23.558  24.124  1.00  0.00     0.006 C 
ATOM     14  C   UNL A   1      33.249  22.671  26.222  1.00  0.00     0.139 C 
ATOM     15  C   UNL A   1      35.292  24.049  26.311  1.00  0.00     0.020 C 
ATOM     16  C   UNL A   1      32.832  24.656  24.082  1.00  0.00    -0.003 C 
ATOM     17  C   UNL A   1      32.241  23.832  26.448  1.00  0.00     0.080 C 
ATOM     18  O   UNL A   1      33.037  21.527  26.617  1.00  0.00    -0.299 OA
ATOM     19  C   UNL A   1      32.204  24.680  22.664  1.00  0.00     0.004 C 
ATOM     20  C   UNL A   1      31.729  24.414  25.109  1.00  0.00     0.006 C 
ATOM     21  C   UNL A   1      31.011  25.603  22.516  1.00  0.00     0.005 C 
ATOM     22  C   UNL A   1      30.761  25.666  25.098  1.00  0.00    -0.025 C 
ATOM     23  C   UNL A   1      30.036  25.589  23.715  1.00  0.00     0.002 C 
ATOM     24  C   UNL A   1      31.426  27.079  25.264  1.00  0.00     0.015 C 
ATOM     25  C   UNL A   1      29.763  25.516  26.266  1.00  0.00     0.012 C 
ATOM     26  C   UNL A   1      29.002  26.694  23.554  1.00  0.00     0.079 C 
ATOM     27  C   UNL A   1      30.963  28.218  24.329  1.00  0.00     0.076 C 
ATOM     28  C   UNL A   1      29.666  28.042  23.563  1.00  0.00     0.133 C 
ATOM     29  O   UNL A   1      29.174  28.975  22.925  1.00  0.00    -0.300 OA
ENDBRANCH   7   9
ENDBRANCH   6   7
ENDBRANCH   5   6
ENDBRANCH   3   5
ENDBRANCH   2   3
ENDBRANCH   1   2
BRANCH   1  30
ATOM     30  C   UNL A   1      43.215  21.765  26.460  1.00  0.00     0.275 C 
BRANCH  30  31
ATOM     31  O   UNL A   1      43.569  23.174  26.548  1.00  0.00    -0.458 OA
BRANCH  31  32
ATOM     32  C   UNL A   1      43.239  23.984  25.521  1.00  0.00     0.338 C 
ATOM     33  O   UNL A   1      43.598  23.841  24.368  1.00  0.00    -0.246 OA
BRANCH  32  34
ATOM     34  C   UNL A   1      42.439  25.170  25.934  1.00  0.00     0.060 A 
ATOM     35  C   UNL A   1      41.263  24.894  26.641  1.00  0.00     0.016 A 
ATOM     36  C   UNL A   1      42.899  26.490  25.854  1.00  0.00     0.016 A 
ATOM     37  C   UNL A   1      40.629  25.890  27.382  1.00  0.00     0.010 A 
ATOM     38  C   UNL A   1      42.291  27.484  26.653  1.00  0.00     0.010 A 
ATOM     39  C   UNL A   1      41.208  27.164  27.491  1.00  0.00    -0.014 A 
BRANCH  39  40
ATOM     40  C   UNL A   1      40.837  27.992  28.684  1.00  0.00     0.031 A 
ATOM     41  C   UNL A   1      39.619  28.864  28.726  1.00  0.00     0.074 A 
ATOM     42  C   UNL A   1      41.616  27.884  29.785  1.00  0.00     0.049 A 
ATOM     43  N   UNL A   1      39.147  29.572  29.722  1.00  0.00    -0.248 NA
ATOM     44  C   UNL A   1      38.831  28.956  27.493  1.00  0.00     0.031 C 
ATOM     45  C   UNL A   1      42.820  27.050  29.875  1.00  0.00     0.029 A 
ATOM     46  N   UNL A   1      41.507  28.430  31.042  1.00  0.00    -0.354 N 
ATOM     47  C   UNL A   1      38.005  30.204  29.242  1.00  0.00     0.074 A 
ATOM     48  C   UNL A   1      37.878  29.808  27.850  1.00  0.00     0.031 C 
ATOM     49  C   UNL A   1      43.295  27.088  31.128  1.00  0.00     0.029 A 
ATOM     50  C   UNL A   1      42.487  28.009  31.917  1.00  0.00     0.049 A 
ATOM     51  H   UNL A   1      40.796  29.063  31.293  1.00  0.00     0.167 HD
ATOM     52  C   UNL A   1      37.152  31.033  29.901  1.00  0.00     0.034 A 
ATOM     53  C   UNL A   1      42.728  28.334  33.203  1.00  0.00     0.034 A 
ATOM     54  C   UNL A   1      37.310  31.429  31.286  1.00  0.00     0.049 A 
ATOM     55  C   UNL A   1      41.805  29.312  33.883  1.00  0.00     0.074 A 
ATOM     56  C   UNL A   1      36.493  32.252  32.047  1.00  0.00     0.029 A 
ATOM     57  N   UNL A   1      38.360  31.051  32.117  1.00  0.00    -0.354 N 
ATOM     58  N   UNL A   1      40.724  29.889  33.413  1.00  0.00    -0.248 NA
ATOM     59  C   UNL A   1      42.135  29.679  35.264  1.00  0.00     0.031 C 
ATOM     60  C   UNL A   1      37.094  32.441  33.297  1.00  0.00     0.029 A 
ATOM     61  C   UNL A   1      38.233  31.657  33.361  1.00  0.00     0.049 A 
ATOM     62  H   UNL A   1      39.089  30.441  31.859  1.00  0.00     0.167 HD
ATOM     63  C   UNL A   1      40.227  30.664  34.457  1.00  0.00     0.074 A 
ATOM     64  C   UNL A   1      41.114  30.461  35.583  1.00  0.00     0.031 C 
ATOM     65  C   UNL A   1      39.131  31.466  34.479  1.00  0.00     0.034 A 
BRANCH  52  66
ATOM     66  C   UNL A   1      36.007  31.627  29.107  1.00  0.00     0.023 A 
ATOM     67  C   UNL A   1      34.953  30.838  28.613  1.00  0.00     0.031 A 
ATOM     68  C   UNL A   1      35.987  33.003  28.811  1.00  0.00     0.131 A 
ATOM     69  C   UNL A   1      33.979  31.411  27.779  1.00  0.00     0.055 A 
ATOM     70  C   UNL A   1      34.963  33.584  28.058  1.00  0.00     0.041 A 
ATOM     71  F   UNL A   1      36.973  33.808  29.235  1.00  0.00    -0.206 F 
ATOM     72  C   UNL A   1      33.961  32.783  27.521  1.00  0.00     0.022 A 
BRANCH  69  73
ATOM     73  S   UNL A   1      32.842  30.308  26.894  1.00  0.00     0.124 S 
ATOM     74  O   UNL A   1      32.738  29.184  27.822  1.00  0.00    -0.237 OA
ATOM     75  O   UNL A   1      31.647  31.132  26.751  1.00  0.00    -0.237 OA
ATOM     76  O   UNL A   1      33.550  30.013  25.650  1.00  0.00    -0.744 OA
ENDBRANCH  69  73
ENDBRANCH  52  66
BRANCH  53  77
ATOM     77  C   UNL A   1      43.907  27.768  33.928  1.00  0.00     0.023 A 
ATOM     78  C   UNL A   1      43.807  26.579  34.670  1.00  0.00     0.031 A 
ATOM     79  C   UNL A   1      45.143  28.441  33.932  1.00  0.00     0.131 A 
ATOM     80  C   UNL A   1      44.905  26.127  35.420  1.00  0.00     0.055 A 
ATOM     81  C   UNL A   1      46.251  27.950  34.626  1.00  0.00     0.041 A 
ATOM     82  F   UNL A   1      45.297  29.587  33.250  1.00  0.00    -0.206 F 
ATOM     83  C   UNL A   1      46.131  26.794  35.387  1.00  0.00     0.022 A 
BRANCH  80  84
ATOM     84  S   UNL A   1      44.678  24.706  36.527  1.00  0.00     0.124 S 
ATOM     85  O   UNL A   1      43.390  24.188  36.083  1.00  0.00    -0.237 OA
ATOM     86  O   UNL A   1      45.843  23.886  36.211  1.00  0.00    -0.237 OA
ATOM     87  O   UNL A   1      44.684  25.308  37.859  1.00  0.00    -0.744 OA
ENDBRANCH  80  84
ENDBRANCH  53  77
BRANCH  65  88
ATOM     88  C   UNL A   1      38.809  32.143  35.794  1.00  0.00     0.023 A 
ATOM     89  C   UNL A   1      38.155  31.468  36.841  1.00  0.00     0.031 A 
ATOM     90  C   UNL A   1      39.123  33.502  35.983  1.00  0.00     0.131 A 
ATOM     91  C   UNL A   1      37.768  32.170  37.993  1.00  0.00     0.055 A 
ATOM     92  C   UNL A   1      38.804  34.174  37.164  1.00  0.00     0.041 A 
ATOM     93  F   UNL A   1      39.739  34.203  35.018  1.00  0.00    -0.206 F 
ATOM     94  C   UNL A   1      38.106  33.513  38.171  1.00  0.00     0.022 A 
BRANCH  91  95
ATOM     95  S   UNL A   1      36.698  31.339  39.201  1.00  0.00     0.124 S 
ATOM     96  O   UNL A   1      37.551  31.303  40.386  1.00  0.00    -0.237 OA
ATOM     97  O   UNL A   1      35.550  32.237  39.270  1.00  0.00    -0.237 OA
ATOM     98  O   UNL A   1      36.432  30.039  38.588  1.00  0.00    -0.744 OA
ENDBRANCH  91  95
ENDBRANCH  65  88
ENDBRANCH  39  40
ENDBRANCH  32  34
ENDBRANCH  31  32
ENDBRANCH  30  31
ENDBRANCH   1  30
TORSDOF 17
ENDMDL
MODEL 3
REMARK VINA RESULT:     -13.3      2.305      8.697
REMARK SMILES C[C@@H](CCC(=O)OCCOC(=O)c1ccc(-c2c3nc(c(-c4cc(S(=O)(=O)[O-])ccc4F)c4ccc([nH]4)c(-c4cc(S(=O)(=O)[O-])ccc4F)c4nc(c(-c5cc(S(=O)(=O)[O-])ccc5F)c5ccc2[nH]5)C=C4)C=C3)cc1)[C@@H]1CC[C@@H]2[C@H]3CC[C@@H]4CC(=O)CC[C@]4(C)[C@@H]3CC(=O)[C@]21C
REMARK SMILES IDX 8 1 7 2 5 3 6 4 4 5 3 6 2 7 1 8 76 9 77 10 95 11 78 12 79 13
REMARK SMILES IDX 93 14 96 15 80 16 92 17 94 18 81 19 91 20 82 21 89 22 83 23
REMARK SMILES IDX 88 24 90 25 84 26 87 27 85 28 86 29 9 30 10 31 11 32 12 33
REMARK SMILES IDX 13 34 14 35 75 36 15 37 74 38 16 39 17 40 18 41 68 42 19 43
REMARK SMILES IDX 73 44 67 45 69 46 20 47 72 48 66 49 65 50 21 52 53 53 33 54
REMARK SMILES IDX 52 55 34 56 37 57 51 58 70 59 35 60 36 61 50 63 71 64 38 65
REMARK SMILES IDX 22 66 23 67 31 68 24 69 30 70 32 71 29 72 25 73 26 74 27 75
REMARK SMILES IDX 28 76 54 77 55 78 63 79 56 80 62 81 64 82 61 83 57 84 58 85
REMARK SMILES IDX 59 86 60 87 39 88 40 89 48 90 41 91 47 92 49 93 46 94 42 95
REMARK SMILES IDX 43 96 44 97 45 98
REMARK H PARENT 69 51 37 62
REMARK Flexibility Score: inf
ROOT
ATOM      1  C   UNL A   1      31.126  31.783  26.112  1.00  0.00     0.274 C 
ENDROOT
BRANCH   1   2
ATOM      2  O   UNL A   1      31.745  30.481  26.026  1.00  0.00    -0.462 OA
BRANCH   2   3
ATOM      3  C   UNL A   1      31.790  29.833  24.850  1.00  0.00     0.305 C 
ATOM      4  O   UNL A   1      32.819  29.336  24.400  1.00  0.00    -0.252 OA
BRANCH   3   5
ATOM      5  C   UNL A   1      30.465  29.778  24.067  1.00  0.00     0.123 C 
BRANCH   5   6
ATOM      6  C   UNL A   1      30.076  28.903  22.832  1.00  0.00     0.015 C 
BRANCH   6   7
ATOM      7  C   UNL A   1      30.112  27.331  22.840  1.00  0.00    -0.010 C 
ATOM      8  C   UNL A   1      29.074  26.819  23.856  1.00  0.00     0.008 C 
BRANCH   7   9
ATOM      9  C   UNL A   1      31.493  26.623  23.075  1.00  0.00     0.005 C 
ATOM     10  C   UNL A   1      32.054  26.110  21.743  1.00  0.00     0.005 C 
ATOM     11  C   UNL A   1      31.733  25.375  24.009  1.00  0.00     0.032 C 
ATOM     12  C   UNL A   1      32.764  24.809  21.958  1.00  0.00     0.005 C 
ATOM     13  C   UNL A   1      33.098  24.950  23.397  1.00  0.00     0.006 C 
ATOM     14  C   UNL A   1      32.135  25.525  25.472  1.00  0.00     0.139 C 
ATOM     15  C   UNL A   1      30.559  24.391  23.952  1.00  0.00     0.020 C 
ATOM     16  C   UNL A   1      33.872  23.752  23.880  1.00  0.00    -0.003 C 
ATOM     17  C   UNL A   1      32.710  24.238  26.125  1.00  0.00     0.080 C 
ATOM     18  O   UNL A   1      32.035  26.587  26.082  1.00  0.00    -0.299 OA
ATOM     19  C   UNL A   1      35.294  23.811  23.265  1.00  0.00     0.004 C 
ATOM     20  C   UNL A   1      33.988  23.751  25.402  1.00  0.00     0.006 C 
ATOM     21  C   UNL A   1      36.262  22.779  23.808  1.00  0.00     0.005 C 
ATOM     22  C   UNL A   1      34.694  22.405  25.842  1.00  0.00    -0.025 C 
ATOM     23  C   UNL A   1      36.165  22.549  25.334  1.00  0.00     0.002 C 
ATOM     24  C   UNL A   1      34.078  21.068  25.294  1.00  0.00     0.015 C 
ATOM     25  C   UNL A   1      34.637  22.309  27.382  1.00  0.00     0.012 C 
ATOM     26  C   UNL A   1      37.023  21.356  25.733  1.00  0.00     0.079 C 
ATOM     27  C   UNL A   1      35.040  19.993  24.743  1.00  0.00     0.076 C 
ATOM     28  C   UNL A   1      36.515  20.101  25.081  1.00  0.00     0.133 C 
ATOM     29  O   UNL A   1      37.300  19.193  24.798  1.00  0.00    -0.300 OA
ENDBRANCH   7   9
ENDBRANCH   6   7
ENDBRANCH   5   6
ENDBRANCH   3   5
ENDBRANCH   2   3
ENDBRANCH   1   2
BRANCH   1  30
ATOM     30  C   UNL A   1      31.608  32.581  27.356  1.00  0.00     0.275 C 
BRANCH  30  31
ATOM     31  O   UNL A   1      32.728  33.500  27.222  1.00  0.00    -0.458 OA
BRANCH  31  32
ATOM     32  C   UNL A   1      33.588  33.622  28.255  1.00  0.00     0.338 C 
ATOM     33  O   UNL A   1      33.473  34.406  29.176  1.00  0.00    -0.246 OA
BRANCH  32  34
ATOM     34  C   UNL A   1      34.787  32.747  28.134  1.00  0.00     0.060 A 
ATOM     35  C   UNL A   1      36.023  33.388  28.278  1.00  0.00     0.016 A 
ATOM     36  C   UNL A   1      34.736  31.348  28.114  1.00  0.00     0.016 A 
ATOM     37  C   UNL A   1      37.177  32.653  28.545  1.00  0.00     0.010 A 
ATOM     38  C   UNL A   1      35.894  30.609  28.444  1.00  0.00     0.010 A 
ATOM     39  C   UNL A   1      37.099  31.267  28.751  1.00  0.00    -0.014 A 
BRANCH  39  40
ATOM     40  C   UNL A   1      38.188  30.625  29.555  1.00  0.00     0.031 A 
ATOM     41  C   UNL A   1      39.158  29.639  28.976  1.00  0.00     0.074 A 
ATOM     42  C   UNL A   1      38.324  31.014  30.843  1.00  0.00     0.049 A 
ATOM     43  N   UNL A   1      40.190  29.068  29.546  1.00  0.00    -0.248 NA
ATOM     44  C   UNL A   1      38.941  29.243  27.582  1.00  0.00     0.031 C 
ATOM     45  C   UNL A   1      37.453  31.984  31.518  1.00  0.00     0.029 A 
ATOM     46  N   UNL A   1      39.250  30.689  31.806  1.00  0.00    -0.354 N 
ATOM     47  C   UNL A   1      40.752  28.235  28.585  1.00  0.00     0.074 A 
ATOM     48  C   UNL A   1      39.918  28.362  27.402  1.00  0.00     0.031 C 
ATOM     49  C   UNL A   1      37.922  32.221  32.751  1.00  0.00     0.029 A 
ATOM     50  C   UNL A   1      39.077  31.367  32.995  1.00  0.00     0.049 A 
ATOM     51  H   UNL A   1      39.969  30.032  31.660  1.00  0.00     0.167 HD
ATOM     52  C   UNL A   1      41.852  27.442  28.686  1.00  0.00     0.034 A 
ATOM     53  C   UNL A   1      39.752  31.303  34.160  1.00  0.00     0.034 A 
ATOM     54  C   UNL A   1      42.657  27.316  29.884  1.00  0.00     0.049 A 
ATOM     55  C   UNL A   1      40.923  30.360  34.262  1.00  0.00     0.074 A 
ATOM     56  C   UNL A   1      43.796  26.552  30.082  1.00  0.00     0.029 A 
ATOM     57  N   UNL A   1      42.403  27.953  31.095  1.00  0.00    -0.354 N 
ATOM     58  N   UNL A   1      41.444  29.589  33.336  1.00  0.00    -0.248 NA
ATOM     59  C   UNL A   1      41.596  30.283  35.563  1.00  0.00     0.031 C 
ATOM     60  C   UNL A   1      44.174  26.656  31.426  1.00  0.00     0.029 A 
ATOM     61  C   UNL A   1      43.335  27.565  32.049  1.00  0.00     0.049 A 
ATOM     62  H   UNL A   1      41.667  28.588  31.253  1.00  0.00     0.167 HD
ATOM     63  C   UNL A   1      42.529  28.958  33.938  1.00  0.00     0.074 A 
ATOM     64  C   UNL A   1      42.597  29.457  35.297  1.00  0.00     0.031 C 
ATOM     65  C   UNL A   1      43.391  28.051  33.410  1.00  0.00     0.034 A 
BRANCH  52  66
ATOM     66  C   UNL A   1      42.208  26.590  27.485  1.00  0.00     0.023 A 
ATOM     67  C   UNL A   1      41.777  25.257  27.360  1.00  0.00     0.031 A 
ATOM     68  C   UNL A   1      43.021  27.112  26.461  1.00  0.00     0.131 A 
ATOM     69  C   UNL A   1      42.234  24.470  26.291  1.00  0.00     0.055 A 
ATOM     70  C   UNL A   1      43.395  26.350  25.352  1.00  0.00     0.041 A 
ATOM     71  F   UNL A   1      43.482  28.371  26.529  1.00  0.00    -0.206 F 
ATOM     72  C   UNL A   1      43.016  25.014  25.271  1.00  0.00     0.022 A 
BRANCH  69  73
ATOM     73  S   UNL A   1      41.936  22.680  26.347  1.00  0.00     0.124 S 
ATOM     74  O   UNL A   1      42.570  22.236  25.107  1.00  0.00    -0.237 OA
ATOM     75  O   UNL A   1      42.605  22.287  27.582  1.00  0.00    -0.237 OA
ATOM     76  O   UNL A   1      40.479  22.575  26.364  1.00  0.00    -0.744 OA
ENDBRANCH  69  73
ENDBRANCH  52  66
BRANCH  53  77
ATOM     77  C   UNL A   1      39.326  32.120  35.338  1.00  0.00     0.023 A 
ATOM     78  C   UNL A   1      38.628  31.544  36.413  1.00  0.00     0.031 A 
ATOM     79  C   UNL A   1      39.565  33.506  35.379  1.00  0.00     0.131 A 
ATOM     80  C   UNL A   1      38.155  32.356  37.456  1.00  0.00     0.055 A 
ATOM     81  C   UNL A   1      39.151  34.297  36.452  1.00  0.00     0.041 A 
ATOM     82  F   UNL A   1      40.218  34.115  34.377  1.00  0.00    -0.206 F 
ATOM     83  C   UNL A   1      38.428  33.725  37.492  1.00  0.00     0.022 A 
BRANCH  80  84
ATOM     84  S   UNL A   1      37.083  31.615  38.719  1.00  0.00     0.124 S 
ATOM     85  O   UNL A   1      37.915  31.721  39.912  1.00  0.00    -0.237 OA
ATOM     86  O   UNL A   1      35.913  32.485  38.674  1.00  0.00    -0.237 OA
ATOM     87  O   UNL A   1      36.866  30.256  38.227  1.00  0.00    -0.744 OA
ENDBRANCH  80  84
ENDBRANCH  53  77
BRANCH  65  88
ATOM     88  C   UNL A   1      44.520  27.584  34.305  1.00  0.00     0.023 A 
ATOM     89  C   UNL A   1      44.384  26.479  35.163  1.00  0.00     0.031 A 
ATOM     90  C   UNL A   1      45.738  28.290  34.329  1.00  0.00     0.131 A 
ATOM     91  C   UNL A   1      45.414  26.159  36.062  1.00  0.00     0.055 A 
ATOM     92  C   UNL A   1      46.788  27.918  35.170  1.00  0.00     0.041 A 
ATOM     93  F   UNL A   1      45.925  29.360  33.539  1.00  0.00    -0.206 F 
ATOM     94  C   UNL A   1      46.623  26.859  36.057  1.00  0.00     0.022 A 
BRANCH  91  95
ATOM     95  S   UNL A   1      45.102  24.900  37.332  1.00  0.00     0.124 S 
ATOM     96  O   UNL A   1      43.721  25.186  37.708  1.00  0.00    -0.237 OA
ATOM     97  O   UNL A   1      45.318  23.657  36.597  1.00  0.00    -0.237 OA
ATOM     98  O   UNL A   1      46.100  25.194  38.359  1.00  0.00    -0.744 OA
ENDBRANCH  91  95
ENDBRANCH  65  88
ENDBRANCH  39  40
ENDBRANCH  32  34
ENDBRANCH  31  32
ENDBRANCH  30  31
ENDBRANCH   1  30
TORSDOF 17
ENDMDL
