MODEL 1
REMARK VINA RESULT:     -10.8      0.000      0.000
REMARK SMILES O=C(CCc1nc(-c2ccccc2)c(-c2ccccc2)o1)OCCOC(=O)c1ccc(-c2c3nc(c(-c4cc(S(=O)(=O)[O-])ccc4F)c4ccc([nH]4)c(-c4cc(S(=O)(=O)[O-])ccc4F)c4nc(c(-c5cc(S(=O)(=O)[O-])ccc5F)c5ccc2[nH]5)C=C4)C=C3)cc1
REMARK SMILES IDX 23 1 22 2 2 3 1 4 3 5 4 6 5 7 6 8 21 9 7 10 14 11 8 12 9 13
REMARK SMILES IDX 13 14 10 15 12 16 11 17 15 18 16 19 20 20 17 21 19 22 18 23
REMARK SMILES IDX 24 24 25 25 26 26 27 27 28 28 29 29 90 30 30 31 89 32 31 33
REMARK SMILES IDX 32 34 33 35 83 36 34 37 88 38 82 39 84 40 35 41 87 42 81 43
REMARK SMILES IDX 80 44 36 46 68 47 48 48 67 49 49 50 52 51 66 52 85 53 50 54
REMARK SMILES IDX 51 55 65 57 86 58 53 59 37 60 38 61 46 62 39 63 45 64 47 65
REMARK SMILES IDX 44 66 40 67 41 68 42 69 43 70 69 71 70 72 78 73 71 74 77 75
REMARK SMILES IDX 79 76 76 77 72 78 73 79 74 80 75 81 54 82 55 83 63 84 56 85
REMARK SMILES IDX 62 86 64 87 61 88 57 89 58 90 59 91 60 92
REMARK H PARENT 84 45 52 56
REMARK Flexibility Score: inf
ROOT
ATOM      1  C   UNL A   1      34.083  34.468  29.829  1.00  0.00     0.274 C 
ENDROOT
BRANCH   1   2
ATOM      2  O   UNL A   1      32.901  35.233  30.158  1.00  0.00    -0.462 OA
BRANCH   2   3
ATOM      3  C   UNL A   1      32.818  36.252  31.043  1.00  0.00     0.306 C 
ATOM      4  O   UNL A   1      32.858  37.418  30.652  1.00  0.00    -0.252 OA
BRANCH   3   5
ATOM      5  C   UNL A   1      32.636  35.956  32.509  1.00  0.00     0.132 C 
BRANCH   5   6
ATOM      6  C   UNL A   1      33.793  36.519  33.324  1.00  0.00     0.109 C 
BRANCH   6   7
ATOM      7  C   UNL A   1      34.891  35.531  33.478  1.00  0.00     0.196 A 
ATOM      8  N   UNL A   1      35.163  34.756  34.508  1.00  0.00    -0.213 NA
ATOM      9  O   UNL A   1      35.803  35.467  32.458  1.00  0.00    -0.440 OA
ATOM     10  C   UNL A   1      36.336  34.136  34.148  1.00  0.00     0.117 A 
ATOM     11  C   UNL A   1      36.727  34.558  32.893  1.00  0.00     0.162 A 
BRANCH  10  12
ATOM     12  C   UNL A   1      37.028  33.172  34.972  1.00  0.00     0.004 A 
ATOM     13  C   UNL A   1      37.437  31.936  34.450  1.00  0.00     0.010 A 
ATOM     14  C   UNL A   1      37.265  33.460  36.319  1.00  0.00     0.010 A 
ATOM     15  C   UNL A   1      38.045  30.990  35.275  1.00  0.00     0.001 A 
ATOM     16  C   UNL A   1      37.866  32.509  37.146  1.00  0.00     0.001 A 
ATOM     17  C   UNL A   1      38.250  31.273  36.626  1.00  0.00     0.000 A 
ENDBRANCH  10  12
BRANCH  11  18
ATOM     18  C   UNL A   1      37.810  34.235  31.986  1.00  0.00     0.020 A 
ATOM     19  C   UNL A   1      37.559  33.715  30.712  1.00  0.00     0.012 A 
ATOM     20  C   UNL A   1      39.131  34.510  32.360  1.00  0.00     0.012 A 
ATOM     21  C   UNL A   1      38.605  33.510  29.811  1.00  0.00     0.001 A 
ATOM     22  C   UNL A   1      40.180  34.283  31.467  1.00  0.00     0.001 A 
ATOM     23  C   UNL A   1      39.915  33.795  30.189  1.00  0.00     0.000 A 
ENDBRANCH  11  18
ENDBRANCH   6   7
ENDBRANCH   5   6
ENDBRANCH   3   5
ENDBRANCH   2   3
ENDBRANCH   1   2
BRANCH   1  24
ATOM     24  C   UNL A   1      33.913  33.723  28.511  1.00  0.00     0.275 C 
BRANCH  24  25
ATOM     25  O   UNL A   1      35.019  32.830  28.346  1.00  0.00    -0.458 OA
BRANCH  25  26
ATOM     26  C   UNL A   1      34.675  31.521  28.248  1.00  0.00     0.338 C 
ATOM     27  O   UNL A   1      33.611  31.075  27.870  1.00  0.00    -0.246 OA
BRANCH  26  28
ATOM     28  C   UNL A   1      35.879  30.704  28.504  1.00  0.00     0.060 A 
ATOM     29  C   UNL A   1      35.881  29.891  29.642  1.00  0.00     0.016 A 
ATOM     30  C   UNL A   1      36.981  30.728  27.643  1.00  0.00     0.016 A 
ATOM     31  C   UNL A   1      37.013  29.145  29.956  1.00  0.00     0.010 A 
ATOM     32  C   UNL A   1      38.111  29.974  27.952  1.00  0.00     0.010 A 
ATOM     33  C   UNL A   1      38.145  29.216  29.134  1.00  0.00    -0.014 A 
BRANCH  33  34
ATOM     34  C   UNL A   1      39.430  28.657  29.605  1.00  0.00     0.031 A 
ATOM     35  C   UNL A   1      40.079  29.290  30.804  1.00  0.00     0.074 A 
ATOM     36  C   UNL A   1      39.995  27.611  28.980  1.00  0.00     0.049 A 
ATOM     37  N   UNL A   1      41.208  28.994  31.389  1.00  0.00    -0.248 NA
ATOM     38  C   UNL A   1      39.356  30.416  31.417  1.00  0.00     0.031 C 
ATOM     39  C   UNL A   1      39.435  26.917  27.820  1.00  0.00     0.029 A 
ATOM     40  N   UNL A   1      41.171  26.957  29.230  1.00  0.00    -0.354 N 
ATOM     41  C   UNL A   1      41.330  29.892  32.445  1.00  0.00     0.074 A 
ATOM     42  C   UNL A   1      40.186  30.776  32.383  1.00  0.00     0.031 C 
ATOM     43  C   UNL A   1      40.277  25.936  27.453  1.00  0.00     0.029 A 
ATOM     44  C   UNL A   1      41.443  25.951  28.334  1.00  0.00     0.049 A 
ATOM     45  H   UNL A   1      41.765  27.184  29.981  1.00  0.00     0.167 HD
ATOM     46  C   UNL A   1      42.300  29.961  33.389  1.00  0.00     0.034 A 
ATOM     47  C   UNL A   1      42.522  25.150  28.232  1.00  0.00     0.034 A 
ATOM     48  C   UNL A   1      43.442  29.084  33.417  1.00  0.00     0.049 A 
ATOM     49  C   UNL A   1      43.629  25.295  29.248  1.00  0.00     0.074 A 
ATOM     50  C   UNL A   1      44.481  29.045  34.328  1.00  0.00     0.029 A 
ATOM     51  N   UNL A   1      43.704  28.096  32.473  1.00  0.00    -0.354 N 
ATOM     52  N   UNL A   1      43.720  26.124  30.263  1.00  0.00    -0.248 NA
ATOM     53  C   UNL A   1      44.775  24.387  29.110  1.00  0.00     0.031 C 
ATOM     54  C   UNL A   1      45.403  28.082  33.900  1.00  0.00     0.029 A 
ATOM     55  C   UNL A   1      44.905  27.467  32.762  1.00  0.00     0.049 A 
ATOM     56  H   UNL A   1      43.121  27.875  31.712  1.00  0.00     0.167 HD
ATOM     57  C   UNL A   1      44.918  25.818  30.901  1.00  0.00     0.074 A 
ATOM     58  C   UNL A   1      45.509  24.719  30.163  1.00  0.00     0.031 C 
ATOM     59  C   UNL A   1      45.480  26.383  32.001  1.00  0.00     0.034 A 
BRANCH  46  60
ATOM     60  C   UNL A   1      42.175  31.052  34.424  1.00  0.00     0.023 A 
ATOM     61  C   UNL A   1      42.533  32.382  34.140  1.00  0.00     0.031 A 
ATOM     62  C   UNL A   1      41.743  30.749  35.727  1.00  0.00     0.131 A 
ATOM     63  C   UNL A   1      42.527  33.343  35.163  1.00  0.00     0.055 A 
ATOM     64  C   UNL A   1      41.663  31.727  36.720  1.00  0.00     0.041 A 
ATOM     65  F   UNL A   1      41.413  29.493  36.063  1.00  0.00    -0.206 F 
ATOM     66  C   UNL A   1      42.071  33.030  36.446  1.00  0.00     0.022 A 
BRANCH  63  67
ATOM     67  S   UNL A   1      43.260  34.968  34.832  1.00  0.00     0.124 S 
ATOM     68  O   UNL A   1      43.283  35.559  36.168  1.00  0.00    -0.237 OA
ATOM     69  O   UNL A   1      44.556  34.621  34.264  1.00  0.00    -0.237 OA
ATOM     70  O   UNL A   1      42.317  35.587  33.902  1.00  0.00    -0.744 OA
ENDBRANCH  63  67
ENDBRANCH  46  60
BRANCH  47  71
ATOM     71  C   UNL A   1      42.628  24.162  27.122  1.00  0.00     0.023 A 
ATOM     72  C   UNL A   1      42.036  22.893  27.219  1.00  0.00     0.031 A 
ATOM     73  C   UNL A   1      43.367  24.458  25.964  1.00  0.00     0.131 A 
ATOM     74  C   UNL A   1      42.231  21.952  26.197  1.00  0.00     0.055 A 
ATOM     75  C   UNL A   1      43.518  23.535  24.928  1.00  0.00     0.041 A 
ATOM     76  F   UNL A   1      43.951  25.660  25.819  1.00  0.00    -0.206 F 
ATOM     77  C   UNL A   1      42.958  22.267  25.048  1.00  0.00     0.022 A 
BRANCH  74  78
ATOM     78  S   UNL A   1      41.583  20.273  26.428  1.00  0.00     0.124 S 
ATOM     79  O   UNL A   1      40.150  20.479  26.247  1.00  0.00    -0.237 OA
ATOM     80  O   UNL A   1      42.264  19.537  25.369  1.00  0.00    -0.237 OA
ATOM     81  O   UNL A   1      41.997  19.931  27.788  1.00  0.00    -0.744 OA
ENDBRANCH  74  78
ENDBRANCH  47  71
BRANCH  59  82
ATOM     82  C   UNL A   1      46.780  25.791  32.485  1.00  0.00     0.023 A 
ATOM     83  C   UNL A   1      48.006  26.100  31.871  1.00  0.00     0.031 A 
ATOM     84  C   UNL A   1      46.787  24.899  33.572  1.00  0.00     0.131 A 
ATOM     85  C   UNL A   1      49.183  25.480  32.316  1.00  0.00     0.055 A 
ATOM     86  C   UNL A   1      47.970  24.331  34.047  1.00  0.00     0.041 A 
ATOM     87  F   UNL A   1      45.643  24.570  34.193  1.00  0.00    -0.206 F 
ATOM     88  C   UNL A   1      49.175  24.611  33.410  1.00  0.00     0.022 A 
BRANCH  85  89
ATOM     89  S   UNL A   1      50.718  25.762  31.392  1.00  0.00     0.124 S 
ATOM     90  O   UNL A   1      51.667  24.919  32.114  1.00  0.00    -0.237 OA
ATOM     91  O   UNL A   1      50.362  25.316  30.049  1.00  0.00    -0.237 OA
ATOM     92  O   UNL A   1      50.941  27.201  31.528  1.00  0.00    -0.744 OA
ENDBRANCH  85  89
ENDBRANCH  59  82
ENDBRANCH  33  34
ENDBRANCH  26  28
ENDBRANCH  25  26
ENDBRANCH  24  25
ENDBRANCH   1  24
TORSDOF 18
ENDMDL
MODEL 2
REMARK VINA RESULT:     -10.7      2.082      2.482
REMARK SMILES O=C(CCc1nc(-c2ccccc2)c(-c2ccccc2)o1)OCCOC(=O)c1ccc(-c2c3nc(c(-c4cc(S(=O)(=O)[O-])ccc4F)c4ccc([nH]4)c(-c4cc(S(=O)(=O)[O-])ccc4F)c4nc(c(-c5cc(S(=O)(=O)[O-])ccc5F)c5ccc2[nH]5)C=C4)C=C3)cc1
REMARK SMILES IDX 23 1 22 2 2 3 1 4 3 5 4 6 5 7 6 8 21 9 7 10 14 11 8 12 9 13
REMARK SMILES IDX 13 14 10 15 12 16 11 17 15 18 16 19 20 20 17 21 19 22 18 23
REMARK SMILES IDX 24 24 25 25 26 26 27 27 28 28 29 29 90 30 30 31 89 32 31 33
REMARK SMILES IDX 32 34 33 35 83 36 34 37 88 38 82 39 84 40 35 41 87 42 81 43
REMARK SMILES IDX 80 44 36 46 68 47 48 48 67 49 49 50 52 51 66 52 85 53 50 54
REMARK SMILES IDX 51 55 65 57 86 58 53 59 37 60 38 61 46 62 39 63 45 64 47 65
REMARK SMILES IDX 44 66 40 67 41 68 42 69 43 70 69 71 70 72 78 73 71 74 77 75
REMARK SMILES IDX 79 76 76 77 72 78 73 79 74 80 75 81 54 82 55 83 63 84 56 85
REMARK SMILES IDX 62 86 64 87 61 88 57 89 58 90 59 91 60 92
REMARK H PARENT 84 45 52 56
REMARK Flexibility Score: inf
ROOT
ATOM      1  C   UNL A   1      34.089  34.942  29.255  1.00  0.00     0.274 C 
ENDROOT
BRANCH   1   2
ATOM      2  O   UNL A   1      32.904  35.414  29.936  1.00  0.00    -0.462 OA
BRANCH   2   3
ATOM      3  C   UNL A   1      32.860  36.265  30.986  1.00  0.00     0.306 C 
ATOM      4  O   UNL A   1      32.900  37.481  30.802  1.00  0.00    -0.252 OA
BRANCH   3   5
ATOM      5  C   UNL A   1      32.721  35.720  32.385  1.00  0.00     0.132 C 
BRANCH   5   6
ATOM      6  C   UNL A   1      33.985  35.978  33.195  1.00  0.00     0.109 C 
BRANCH   6   7
ATOM      7  C   UNL A   1      35.028  34.956  32.931  1.00  0.00     0.196 A 
ATOM      8  N   UNL A   1      34.975  33.655  33.132  1.00  0.00    -0.213 NA
ATOM      9  O   UNL A   1      36.244  35.419  32.504  1.00  0.00    -0.440 OA
ATOM     10  C   UNL A   1      36.243  33.226  32.817  1.00  0.00     0.117 A 
ATOM     11  C   UNL A   1      37.020  34.297  32.423  1.00  0.00     0.162 A 
BRANCH  10  12
ATOM     12  C   UNL A   1      36.669  31.847  32.878  1.00  0.00     0.004 A 
ATOM     13  C   UNL A   1      36.281  30.926  31.895  1.00  0.00     0.010 A 
ATOM     14  C   UNL A   1      37.454  31.414  33.952  1.00  0.00     0.010 A 
ATOM     15  C   UNL A   1      36.646  29.584  32.003  1.00  0.00     0.001 A 
ATOM     16  C   UNL A   1      37.811  30.069  34.063  1.00  0.00     0.001 A 
ATOM     17  C   UNL A   1      37.402  29.154  33.093  1.00  0.00     0.000 A 
ENDBRANCH  10  12
BRANCH  11  18
ATOM     18  C   UNL A   1      38.375  34.466  31.939  1.00  0.00     0.020 A 
ATOM     19  C   UNL A   1      39.459  34.521  32.823  1.00  0.00     0.012 A 
ATOM     20  C   UNL A   1      38.619  34.507  30.561  1.00  0.00     0.012 A 
ATOM     21  C   UNL A   1      40.767  34.577  32.338  1.00  0.00     0.001 A 
ATOM     22  C   UNL A   1      39.926  34.586  30.076  1.00  0.00     0.001 A 
ATOM     23  C   UNL A   1      40.999  34.609  30.964  1.00  0.00     0.000 A 
ENDBRANCH  11  18
ENDBRANCH   6   7
ENDBRANCH   5   6
ENDBRANCH   3   5
ENDBRANCH   2   3
ENDBRANCH   1   2
BRANCH   1  24
ATOM     24  C   UNL A   1      33.768  33.784  28.320  1.00  0.00     0.275 C 
BRANCH  24  25
ATOM     25  O   UNL A   1      34.976  33.066  28.051  1.00  0.00    -0.458 OA
BRANCH  25  26
ATOM     26  C   UNL A   1      34.809  31.731  27.874  1.00  0.00     0.338 C 
ATOM     27  O   UNL A   1      33.826  31.174  27.430  1.00  0.00    -0.246 OA
BRANCH  26  28
ATOM     28  C   UNL A   1      36.099  31.062  28.137  1.00  0.00     0.060 A 
ATOM     29  C   UNL A   1      36.102  29.666  28.217  1.00  0.00     0.016 A 
ATOM     30  C   UNL A   1      37.285  31.788  28.297  1.00  0.00     0.016 A 
ATOM     31  C   UNL A   1      37.283  28.993  28.519  1.00  0.00     0.010 A 
ATOM     32  C   UNL A   1      38.469  31.114  28.589  1.00  0.00     0.010 A 
ATOM     33  C   UNL A   1      38.460  29.718  28.745  1.00  0.00    -0.014 A 
BRANCH  33  34
ATOM     34  C   UNL A   1      39.635  29.043  29.335  1.00  0.00     0.031 A 
ATOM     35  C   UNL A   1      40.279  29.669  30.540  1.00  0.00     0.074 A 
ATOM     36  C   UNL A   1      40.107  27.901  28.808  1.00  0.00     0.049 A 
ATOM     37  N   UNL A   1      41.326  29.280  31.218  1.00  0.00    -0.248 NA
ATOM     38  C   UNL A   1      39.661  30.908  31.039  1.00  0.00     0.031 C 
ATOM     39  C   UNL A   1      39.542  27.206  27.652  1.00  0.00     0.029 A 
ATOM     40  N   UNL A   1      41.177  27.130  29.176  1.00  0.00    -0.354 N 
ATOM     41  C   UNL A   1      41.488  30.221  32.229  1.00  0.00     0.074 A 
ATOM     42  C   UNL A   1      40.466  31.228  32.040  1.00  0.00     0.031 C 
ATOM     43  C   UNL A   1      40.280  26.112  27.399  1.00  0.00     0.029 A 
ATOM     44  C   UNL A   1      41.382  26.045  28.357  1.00  0.00     0.049 A 
ATOM     45  H   UNL A   1      41.746  27.332  29.953  1.00  0.00     0.167 HD
ATOM     46  C   UNL A   1      42.398  30.234  33.234  1.00  0.00     0.034 A 
ATOM     47  C   UNL A   1      42.360  25.118  28.375  1.00  0.00     0.034 A 
ATOM     48  C   UNL A   1      43.422  29.233  33.389  1.00  0.00     0.049 A 
ATOM     49  C   UNL A   1      43.410  25.196  29.456  1.00  0.00     0.074 A 
ATOM     50  C   UNL A   1      44.389  29.130  34.372  1.00  0.00     0.029 A 
ATOM     51  N   UNL A   1      43.621  28.164  32.522  1.00  0.00    -0.354 N 
ATOM     52  N   UNL A   1      43.536  26.071  30.428  1.00  0.00    -0.248 NA
ATOM     53  C   UNL A   1      44.444  24.153  29.449  1.00  0.00     0.031 C 
ATOM     54  C   UNL A   1      45.212  28.040  34.063  1.00  0.00     0.029 A 
ATOM     55  C   UNL A   1      44.716  27.419  32.928  1.00  0.00     0.049 A 
ATOM     56  H   UNL A   1      43.065  27.967  31.734  1.00  0.00     0.167 HD
ATOM     57  C   UNL A   1      44.646  25.666  31.164  1.00  0.00     0.074 A 
ATOM     58  C   UNL A   1      45.145  24.461  30.530  1.00  0.00     0.031 C 
ATOM     59  C   UNL A   1      45.202  26.229  32.268  1.00  0.00     0.034 A 
BRANCH  46  60
ATOM     60  C   UNL A   1      42.342  31.395  34.196  1.00  0.00     0.023 A 
ATOM     61  C   UNL A   1      41.351  31.480  35.192  1.00  0.00     0.031 A 
ATOM     62  C   UNL A   1      43.258  32.456  34.085  1.00  0.00     0.131 A 
ATOM     63  C   UNL A   1      41.252  32.635  35.983  1.00  0.00     0.055 A 
ATOM     64  C   UNL A   1      43.202  33.567  34.929  1.00  0.00     0.041 A 
ATOM     65  F   UNL A   1      44.208  32.442  33.138  1.00  0.00    -0.206 F 
ATOM     66  C   UNL A   1      42.186  33.669  35.875  1.00  0.00     0.022 A 
BRANCH  63  67
ATOM     67  S   UNL A   1      39.801  32.832  37.053  1.00  0.00     0.124 S 
ATOM     68  O   UNL A   1      40.421  33.162  38.334  1.00  0.00    -0.237 OA
ATOM     69  O   UNL A   1      39.069  33.909  36.399  1.00  0.00    -0.237 OA
ATOM     70  O   UNL A   1      39.157  31.520  37.002  1.00  0.00    -0.744 OA
ENDBRANCH  63  67
ENDBRANCH  46  60
BRANCH  47  71
ATOM     71  C   UNL A   1      42.415  24.057  27.330  1.00  0.00     0.023 A 
ATOM     72  C   UNL A   1      41.752  22.832  27.503  1.00  0.00     0.031 A 
ATOM     73  C   UNL A   1      43.174  24.238  26.161  1.00  0.00     0.131 A 
ATOM     74  C   UNL A   1      41.898  21.819  26.544  1.00  0.00     0.055 A 
ATOM     75  C   UNL A   1      43.278  23.244  25.188  1.00  0.00     0.041 A 
ATOM     76  F   UNL A   1      43.826  25.393  25.946  1.00  0.00    -0.206 F 
ATOM     77  C   UNL A   1      42.647  22.019  25.383  1.00  0.00     0.022 A 
BRANCH  74  78
ATOM     78  S   UNL A   1      41.156  20.196  26.875  1.00  0.00     0.124 S 
ATOM     79  O   UNL A   1      42.263  19.295  26.575  1.00  0.00    -0.237 OA
ATOM     80  O   UNL A   1      40.787  20.314  28.282  1.00  0.00    -0.237 OA
ATOM     81  O   UNL A   1      40.033  20.138  25.941  1.00  0.00    -0.744 OA
ENDBRANCH  74  78
ENDBRANCH  47  71
BRANCH  59  82
ATOM     82  C   UNL A   1      46.388  25.520  32.873  1.00  0.00     0.023 A 
ATOM     83  C   UNL A   1      46.230  24.505  33.833  1.00  0.00     0.031 A 
ATOM     84  C   UNL A   1      47.692  25.871  32.486  1.00  0.00     0.131 A 
ATOM     85  C   UNL A   1      47.362  23.913  34.413  1.00  0.00     0.055 A 
ATOM     86  C   UNL A   1      48.813  25.236  33.024  1.00  0.00     0.041 A 
ATOM     87  F   UNL A   1      47.899  26.833  31.574  1.00  0.00    -0.206 F 
ATOM     88  C   UNL A   1      48.651  24.260  34.003  1.00  0.00     0.022 A 
BRANCH  85  89
ATOM     89  S   UNL A   1      47.128  22.736  35.773  1.00  0.00     0.124 S 
ATOM     90  O   UNL A   1      47.397  21.459  35.120  1.00  0.00    -0.237 OA
ATOM     91  O   UNL A   1      48.124  23.178  36.744  1.00  0.00    -0.237 OA
ATOM     92  O   UNL A   1      45.737  22.946  36.173  1.00  0.00    -0.744 OA
ENDBRANCH  85  89
ENDBRANCH  59  82
ENDBRANCH  33  34
ENDBRANCH  26  28
ENDBRANCH  25  26
ENDBRANCH  24  25
ENDBRANCH   1  24
TORSDOF 18
ENDMDL
MODEL 3
REMARK VINA RESULT:     -10.5      5.713     10.115
REMARK SMILES O=C(CCc1nc(-c2ccccc2)c(-c2ccccc2)o1)OCCOC(=O)c1ccc(-c2c3nc(c(-c4cc(S(=O)(=O)[O-])ccc4F)c4ccc([nH]4)c(-c4cc(S(=O)(=O)[O-])ccc4F)c4nc(c(-c5cc(S(=O)(=O)[O-])ccc5F)c5ccc2[nH]5)C=C4)C=C3)cc1
REMARK SMILES IDX 23 1 22 2 2 3 1 4 3 5 4 6 5 7 6 8 21 9 7 10 14 11 8 12 9 13
REMARK SMILES IDX 13 14 10 15 12 16 11 17 15 18 16 19 20 20 17 21 19 22 18 23
REMARK SMILES IDX 24 24 25 25 26 26 27 27 28 28 29 29 90 30 30 31 89 32 31 33
REMARK SMILES IDX 32 34 33 35 83 36 34 37 88 38 82 39 84 40 35 41 87 42 81 43
REMARK SMILES IDX 80 44 36 46 68 47 48 48 67 49 49 50 52 51 66 52 85 53 50 54
REMARK SMILES IDX 51 55 65 57 86 58 53 59 37 60 38 61 46 62 39 63 45 64 47 65
REMARK SMILES IDX 44 66 40 67 41 68 42 69 43 70 69 71 70 72 78 73 71 74 77 75
REMARK SMILES IDX 79 76 76 77 72 78 73 79 74 80 75 81 54 82 55 83 63 84 56 85
REMARK SMILES IDX 62 86 64 87 61 88 57 89 58 90 59 91 60 92
REMARK H PARENT 84 45 52 56
REMARK Flexibility Score: inf
ROOT
ATOM      1  C   UNL A   1      35.568  21.542  25.217  1.00  0.00     0.274 C 
ENDROOT
BRANCH   1   2
ATOM      2  O   UNL A   1      34.302  20.855  25.094  1.00  0.00    -0.462 OA
BRANCH   2   3
ATOM      3  C   UNL A   1      33.117  21.402  24.743  1.00  0.00     0.306 C 
ATOM      4  O   UNL A   1      32.101  21.148  25.390  1.00  0.00    -0.252 OA
BRANCH   3   5
ATOM      5  C   UNL A   1      33.048  22.356  23.579  1.00  0.00     0.132 C 
BRANCH   5   6
ATOM      6  C   UNL A   1      31.602  22.698  23.242  1.00  0.00     0.109 C 
BRANCH   6   7
ATOM      7  C   UNL A   1      31.283  24.114  23.555  1.00  0.00     0.196 A 
ATOM      8  N   UNL A   1      30.440  24.922  22.945  1.00  0.00    -0.213 NA
ATOM      9  O   UNL A   1      32.016  24.700  24.553  1.00  0.00    -0.440 OA
ATOM     10  C   UNL A   1      30.628  26.127  23.580  1.00  0.00     0.117 A 
ATOM     11  C   UNL A   1      31.582  25.996  24.570  1.00  0.00     0.162 A 
BRANCH  10  12
ATOM     12  C   UNL A   1      29.905  27.335  23.255  1.00  0.00     0.004 A 
ATOM     13  C   UNL A   1      28.523  27.431  23.474  1.00  0.00     0.010 A 
ATOM     14  C   UNL A   1      30.586  28.414  22.683  1.00  0.00     0.010 A 
ATOM     15  C   UNL A   1      27.829  28.580  23.094  1.00  0.00     0.001 A 
ATOM     16  C   UNL A   1      29.888  29.559  22.294  1.00  0.00     0.001 A 
ATOM     17  C   UNL A   1      28.511  29.639  22.494  1.00  0.00     0.000 A 
ENDBRANCH  10  12
BRANCH  11  18
ATOM     18  C   UNL A   1      32.151  26.868  25.578  1.00  0.00     0.020 A 
ATOM     19  C   UNL A   1      33.489  27.271  25.515  1.00  0.00     0.012 A 
ATOM     20  C   UNL A   1      31.335  27.375  26.596  1.00  0.00     0.012 A 
ATOM     21  C   UNL A   1      33.995  28.195  26.431  1.00  0.00     0.001 A 
ATOM     22  C   UNL A   1      31.847  28.282  27.527  1.00  0.00     0.001 A 
ATOM     23  C   UNL A   1      33.173  28.701  27.436  1.00  0.00     0.000 A 
ENDBRANCH  11  18
ENDBRANCH   6   7
ENDBRANCH   5   6
ENDBRANCH   3   5
ENDBRANCH   2   3
ENDBRANCH   1   2
BRANCH   1  24
ATOM     24  C   UNL A   1      36.735  20.564  25.202  1.00  0.00     0.275 C 
BRANCH  24  25
ATOM     25  O   UNL A   1      37.945  21.299  24.996  1.00  0.00    -0.458 OA
BRANCH  25  26
ATOM     26  C   UNL A   1      38.958  20.960  25.832  1.00  0.00     0.338 C 
ATOM     27  O   UNL A   1      39.431  19.852  25.991  1.00  0.00    -0.246 OA
BRANCH  26  28
ATOM     28  C   UNL A   1      39.531  22.199  26.396  1.00  0.00     0.060 A 
ATOM     29  C   UNL A   1      38.910  23.408  26.070  1.00  0.00     0.016 A 
ATOM     30  C   UNL A   1      40.651  22.176  27.235  1.00  0.00     0.016 A 
ATOM     31  C   UNL A   1      39.445  24.607  26.532  1.00  0.00     0.010 A 
ATOM     32  C   UNL A   1      41.182  23.375  27.704  1.00  0.00     0.010 A 
ATOM     33  C   UNL A   1      40.606  24.596  27.316  1.00  0.00    -0.014 A 
BRANCH  33  34
ATOM     34  C   UNL A   1      41.331  25.859  27.571  1.00  0.00     0.031 A 
ATOM     35  C   UNL A   1      40.628  26.931  28.355  1.00  0.00     0.074 A 
ATOM     36  C   UNL A   1      42.582  26.037  27.117  1.00  0.00     0.049 A 
ATOM     37  N   UNL A   1      41.043  28.124  28.687  1.00  0.00    -0.248 NA
ATOM     38  C   UNL A   1      39.267  26.614  28.817  1.00  0.00     0.031 C 
ATOM     39  C   UNL A   1      43.355  25.050  26.362  1.00  0.00     0.029 A 
ATOM     40  N   UNL A   1      43.419  27.115  27.219  1.00  0.00    -0.354 N 
ATOM     41  C   UNL A   1      39.999  28.698  29.405  1.00  0.00     0.074 A 
ATOM     42  C   UNL A   1      38.913  27.743  29.410  1.00  0.00     0.031 C 
ATOM     43  C   UNL A   1      44.554  25.577  26.061  1.00  0.00     0.029 A 
ATOM     44  C   UNL A   1      44.622  26.942  26.577  1.00  0.00     0.049 A 
ATOM     45  H   UNL A   1      43.182  27.937  27.706  1.00  0.00     0.167 HD
ATOM     46  C   UNL A   1      39.959  29.907  30.016  1.00  0.00     0.034 A 
ATOM     47  C   UNL A   1      45.649  27.800  26.415  1.00  0.00     0.034 A 
ATOM     48  C   UNL A   1      41.045  30.852  29.978  1.00  0.00     0.049 A 
ATOM     49  C   UNL A   1      45.551  29.171  27.039  1.00  0.00     0.074 A 
ATOM     50  C   UNL A   1      41.129  32.099  30.570  1.00  0.00     0.029 A 
ATOM     51  N   UNL A   1      42.239  30.658  29.291  1.00  0.00    -0.354 N 
ATOM     52  N   UNL A   1      44.573  29.694  27.744  1.00  0.00    -0.248 NA
ATOM     53  C   UNL A   1      46.701  30.064  26.854  1.00  0.00     0.031 C 
ATOM     54  C   UNL A   1      42.341  32.685  30.187  1.00  0.00     0.029 A 
ATOM     55  C   UNL A   1      43.048  31.775  29.416  1.00  0.00     0.049 A 
ATOM     56  H   UNL A   1      42.474  29.845  28.789  1.00  0.00     0.167 HD
ATOM     57  C   UNL A   1      45.004  30.965  28.110  1.00  0.00     0.074 A 
ATOM     58  C   UNL A   1      46.335  31.125  27.558  1.00  0.00     0.031 C 
ATOM     59  C   UNL A   1      44.366  31.915  28.842  1.00  0.00     0.034 A 
BRANCH  46  60
ATOM     60  C   UNL A   1      38.679  30.275  30.727  1.00  0.00     0.023 A 
ATOM     61  C   UNL A   1      37.638  30.953  30.068  1.00  0.00     0.031 A 
ATOM     62  C   UNL A   1      38.519  29.990  32.094  1.00  0.00     0.131 A 
ATOM     63  C   UNL A   1      36.519  31.392  30.793  1.00  0.00     0.055 A 
ATOM     64  C   UNL A   1      37.367  30.360  32.792  1.00  0.00     0.041 A 
ATOM     65  F   UNL A   1      39.489  29.368  32.782  1.00  0.00    -0.206 F 
ATOM     66  C   UNL A   1      36.365  31.079  32.145  1.00  0.00     0.022 A 
BRANCH  63  67
ATOM     67  S   UNL A   1      35.338  32.502  29.979  1.00  0.00     0.124 S 
ATOM     68  O   UNL A   1      36.189  33.640  29.639  1.00  0.00    -0.237 OA
ATOM     69  O   UNL A   1      34.869  31.698  28.857  1.00  0.00    -0.237 OA
ATOM     70  O   UNL A   1      34.343  32.766  31.017  1.00  0.00    -0.744 OA
ENDBRANCH  63  67
ENDBRANCH  46  60
BRANCH  47  71
ATOM     71  C   UNL A   1      46.841  27.408  25.613  1.00  0.00     0.023 A 
ATOM     72  C   UNL A   1      46.999  27.841  24.287  1.00  0.00     0.031 A 
ATOM     73  C   UNL A   1      47.819  26.553  26.149  1.00  0.00     0.131 A 
ATOM     74  C   UNL A   1      48.085  27.380  23.527  1.00  0.00     0.055 A 
ATOM     75  C   UNL A   1      48.923  26.135  25.404  1.00  0.00     0.041 A 
ATOM     76  F   UNL A   1      47.717  26.113  27.414  1.00  0.00    -0.206 F 
ATOM     77  C   UNL A   1      49.054  26.540  24.080  1.00  0.00     0.022 A 
BRANCH  74  78
ATOM     78  S   UNL A   1      48.172  27.834  21.772  1.00  0.00     0.124 S 
ATOM     79  O   UNL A   1      49.314  28.742  21.757  1.00  0.00    -0.237 OA
ATOM     80  O   UNL A   1      48.374  26.538  21.134  1.00  0.00    -0.237 OA
ATOM     81  O   UNL A   1      46.875  28.458  21.517  1.00  0.00    -0.744 OA
ENDBRANCH  74  78
ENDBRANCH  47  71
BRANCH  59  82
ATOM     82  C   UNL A   1      45.124  33.191  29.114  1.00  0.00     0.023 A 
ATOM     83  C   UNL A   1      44.993  34.318  28.285  1.00  0.00     0.031 A 
ATOM     84  C   UNL A   1      45.993  33.274  30.215  1.00  0.00     0.131 A 
ATOM     85  C   UNL A   1      45.761  35.464  28.541  1.00  0.00     0.055 A 
ATOM     86  C   UNL A   1      46.711  34.437  30.498  1.00  0.00     0.041 A 
ATOM     87  F   UNL A   1      46.155  32.225  31.038  1.00  0.00    -0.206 F 
ATOM     88  C   UNL A   1      46.606  35.536  29.651  1.00  0.00     0.022 A 
BRANCH  85  89
ATOM     89  S   UNL A   1      45.703  36.834  27.354  1.00  0.00     0.124 S 
ATOM     90  O   UNL A   1      46.142  37.962  28.170  1.00  0.00    -0.237 OA
ATOM     91  O   UNL A   1      46.635  36.393  26.321  1.00  0.00    -0.237 OA
ATOM     92  O   UNL A   1      44.300  36.874  26.945  1.00  0.00    -0.744 OA
ENDBRANCH  85  89
ENDBRANCH  59  82
ENDBRANCH  33  34
ENDBRANCH  26  28
ENDBRANCH  25  26
ENDBRANCH  24  25
ENDBRANCH   1  24
TORSDOF 18
ENDMDL
