MODEL 1
REMARK VINA RESULT:     -10.9      0.000      0.000
REMARK SMILES CC(C)([NH2+]C[C@@H]1COc2ccccc21)C(=O)OCCOC(=O)c1ccc(-c2c3nc(c(-c4cc(S(=O)(=O)[O-])ccc4F)c4ccc([nH]4)c(-c4cc(S(=O)(=O)[O-])ccc4F)c4nc(c(-c5cc(S(=O)(=O)[O-])ccc5F)c5ccc2[nH]5)C=C4)C=C3)cc1
REMARK SMILES IDX 18 1 17 2 15 3 16 4 2 5 1 6 3 7 4 8 5 11 6 12 7 13 14 14
REMARK SMILES IDX 8 15 9 16 13 17 10 18 12 19 11 20 19 21 20 22 21 23 22 24
REMARK SMILES IDX 23 25 24 26 85 27 25 28 84 29 26 30 27 31 28 32 78 33 29 34
REMARK SMILES IDX 83 35 77 36 79 37 30 38 82 39 76 40 75 41 31 43 63 44 43 45
REMARK SMILES IDX 62 46 44 47 47 48 61 49 80 50 45 51 46 52 60 54 81 55 48 56
REMARK SMILES IDX 32 57 33 58 41 59 34 60 40 61 42 62 39 63 35 64 36 65 37 66
REMARK SMILES IDX 38 67 64 68 65 69 73 70 66 71 72 72 74 73 71 74 67 75 68 76
REMARK SMILES IDX 69 77 70 78 49 79 50 80 58 81 51 82 57 83 59 84 56 85 52 86
REMARK SMILES IDX 53 87 54 88 55 89
REMARK H PARENT 4 9 4 10 79 42 47 53
REMARK Flexibility Score: inf
ROOT
ATOM      1  C   UNL A   1      42.100  19.365  26.353  1.00  0.00     0.274 C 
ENDROOT
BRANCH   1   2
ATOM      2  O   UNL A   1      42.810  19.479  25.105  1.00  0.00    -0.457 OA
BRANCH   2   3
ATOM      3  C   UNL A   1      44.079  18.987  25.061  1.00  0.00     0.367 C 
ATOM      4  O   UNL A   1      44.486  18.094  25.798  1.00  0.00    -0.245 OA
BRANCH   3   5
ATOM      5  C   UNL A   1      44.999  19.734  24.053  1.00  0.00     0.188 C 
ATOM      6  C   UNL A   1      44.917  19.035  22.676  1.00  0.00     0.092 C 
ATOM      7  C   UNL A   1      46.431  19.527  24.562  1.00  0.00     0.092 C 
BRANCH   5   8
ATOM      8  N   UNL A   1      44.567  21.126  23.767  1.00  0.00    -0.332 N 
ATOM      9  H   UNL A   1      43.561  21.149  23.936  1.00  0.00     0.347 HD
ATOM     10  H   UNL A   1      44.923  21.263  22.822  1.00  0.00     0.347 HD
BRANCH   8  11
ATOM     11  C   UNL A   1      45.121  22.281  24.466  1.00  0.00     0.273 C 
BRANCH  11  12
ATOM     12  C   UNL A   1      45.100  22.290  25.991  1.00  0.00     0.116 C 
ATOM     13  C   UNL A   1      43.690  22.512  26.554  1.00  0.00     0.244 C 
ATOM     14  C   UNL A   1      45.793  23.368  26.749  1.00  0.00     0.006 A 
ATOM     15  O   UNL A   1      43.834  22.975  27.919  1.00  0.00    -0.492 OA
ATOM     16  C   UNL A   1      45.039  23.637  27.887  1.00  0.00     0.123 A 
ATOM     17  C   UNL A   1      47.020  23.983  26.566  1.00  0.00     0.008 A 
ATOM     18  C   UNL A   1      45.491  24.470  28.889  1.00  0.00     0.047 A 
ATOM     19  C   UNL A   1      47.483  24.857  27.554  1.00  0.00     0.001 A 
ATOM     20  C   UNL A   1      46.730  25.087  28.715  1.00  0.00     0.004 A 
ENDBRANCH  11  12
ENDBRANCH   8  11
ENDBRANCH   5   8
ENDBRANCH   3   5
ENDBRANCH   2   3
ENDBRANCH   1   2
BRANCH   1  21
ATOM     21  C   UNL A   1      40.650  19.795  26.156  1.00  0.00     0.275 C 
BRANCH  21  22
ATOM     22  O   UNL A   1      40.431  20.984  26.926  1.00  0.00    -0.458 OA
BRANCH  22  23
ATOM     23  C   UNL A   1      39.456  21.811  26.489  1.00  0.00     0.338 C 
ATOM     24  O   UNL A   1      38.487  21.511  25.808  1.00  0.00    -0.246 OA
BRANCH  23  25
ATOM     25  C   UNL A   1      39.744  23.173  26.979  1.00  0.00     0.060 A 
ATOM     26  C   UNL A   1      39.232  24.274  26.295  1.00  0.00     0.016 A 
ATOM     27  C   UNL A   1      40.584  23.370  28.071  1.00  0.00     0.016 A 
ATOM     28  C   UNL A   1      39.620  25.566  26.634  1.00  0.00     0.010 A 
ATOM     29  C   UNL A   1      40.890  24.676  28.479  1.00  0.00     0.010 A 
ATOM     30  C   UNL A   1      40.446  25.790  27.740  1.00  0.00    -0.014 A 
BRANCH  30  31
ATOM     31  C   UNL A   1      40.905  27.172  28.068  1.00  0.00     0.031 A 
ATOM     32  C   UNL A   1      42.312  27.592  27.721  1.00  0.00     0.074 A 
ATOM     33  C   UNL A   1      40.069  28.067  28.634  1.00  0.00     0.049 A 
ATOM     34  N   UNL A   1      42.970  28.668  28.070  1.00  0.00    -0.248 NA
ATOM     35  C   UNL A   1      43.086  26.661  26.888  1.00  0.00     0.031 C 
ATOM     36  C   UNL A   1      38.665  27.823  28.975  1.00  0.00     0.029 A 
ATOM     37  N   UNL A   1      40.272  29.374  29.007  1.00  0.00    -0.354 N 
ATOM     38  C   UNL A   1      44.255  28.511  27.560  1.00  0.00     0.074 A 
ATOM     39  C   UNL A   1      44.282  27.229  26.886  1.00  0.00     0.031 C 
ATOM     40  C   UNL A   1      38.125  28.953  29.458  1.00  0.00     0.029 A 
ATOM     41  C   UNL A   1      39.159  29.976  29.547  1.00  0.00     0.049 A 
ATOM     42  H   UNL A   1      41.135  29.836  28.899  1.00  0.00     0.167 HD
ATOM     43  C   UNL A   1      45.313  29.355  27.648  1.00  0.00     0.034 A 
ATOM     44  C   UNL A   1      38.995  31.200  30.088  1.00  0.00     0.034 A 
ATOM     45  C   UNL A   1      45.255  30.656  28.272  1.00  0.00     0.049 A 
ATOM     46  C   UNL A   1      40.181  32.124  30.171  1.00  0.00     0.074 A 
ATOM     47  C   UNL A   1      46.267  31.586  28.432  1.00  0.00     0.029 A 
ATOM     48  N   UNL A   1      44.111  31.222  28.822  1.00  0.00    -0.354 N 
ATOM     49  N   UNL A   1      41.418  31.920  29.776  1.00  0.00    -0.248 NA
ATOM     50  C   UNL A   1      39.952  33.438  30.784  1.00  0.00     0.031 C 
ATOM     51  C   UNL A   1      45.747  32.694  29.113  1.00  0.00     0.029 A 
ATOM     52  C   UNL A   1      44.394  32.483  29.325  1.00  0.00     0.049 A 
ATOM     53  H   UNL A   1      43.227  30.789  28.852  1.00  0.00     0.167 HD
ATOM     54  C   UNL A   1      42.111  33.084  30.091  1.00  0.00     0.074 A 
ATOM     55  C   UNL A   1      41.148  33.996  30.676  1.00  0.00     0.031 C 
ATOM     56  C   UNL A   1      43.427  33.373  29.923  1.00  0.00     0.034 A 
BRANCH  43  57
ATOM     57  C   UNL A   1      46.637  28.859  27.113  1.00  0.00     0.023 A 
ATOM     58  C   UNL A   1      46.854  28.631  25.742  1.00  0.00     0.031 A 
ATOM     59  C   UNL A   1      47.684  28.556  28.002  1.00  0.00     0.131 A 
ATOM     60  C   UNL A   1      48.052  28.041  25.314  1.00  0.00     0.055 A 
ATOM     61  C   UNL A   1      48.905  28.046  27.560  1.00  0.00     0.041 A 
ATOM     62  F   UNL A   1      47.529  28.733  29.325  1.00  0.00    -0.206 F 
ATOM     63  C   UNL A   1      49.089  27.769  26.209  1.00  0.00     0.022 A 
BRANCH  60  64
ATOM     64  S   UNL A   1      48.180  27.491  23.589  1.00  0.00     0.124 S 
ATOM     65  O   UNL A   1      49.535  27.913  23.244  1.00  0.00    -0.237 OA
ATOM     66  O   UNL A   1      47.968  26.053  23.700  1.00  0.00    -0.237 OA
ATOM     67  O   UNL A   1      47.115  28.229  22.913  1.00  0.00    -0.744 OA
ENDBRANCH  60  64
ENDBRANCH  43  57
BRANCH  44  68
ATOM     68  C   UNL A   1      37.675  31.608  30.650  1.00  0.00     0.023 A 
ATOM     69  C   UNL A   1      36.734  32.299  29.868  1.00  0.00     0.031 A 
ATOM     70  C   UNL A   1      37.350  31.345  31.993  1.00  0.00     0.131 A 
ATOM     71  C   UNL A   1      35.531  32.734  30.445  1.00  0.00     0.055 A 
ATOM     72  C   UNL A   1      36.130  31.734  32.547  1.00  0.00     0.041 A 
ATOM     73  F   UNL A   1      38.214  30.690  32.785  1.00  0.00    -0.206 F 
ATOM     74  C   UNL A   1      35.215  32.443  31.774  1.00  0.00     0.022 A 
BRANCH  71  75
ATOM     75  S   UNL A   1      34.406  33.753  29.449  1.00  0.00     0.124 S 
ATOM     76  O   UNL A   1      35.328  34.696  28.828  1.00  0.00    -0.237 OA
ATOM     77  O   UNL A   1      33.807  32.762  28.561  1.00  0.00    -0.237 OA
ATOM     78  O   UNL A   1      33.499  34.326  30.441  1.00  0.00    -0.744 OA
ENDBRANCH  71  75
ENDBRANCH  44  68
BRANCH  56  79
ATOM     79  C   UNL A   1      43.876  34.746  30.353  1.00  0.00     0.023 A 
ATOM     80  C   UNL A   1      44.188  35.032  31.693  1.00  0.00     0.031 A 
ATOM     81  C   UNL A   1      43.944  35.793  29.417  1.00  0.00     0.131 A 
ATOM     82  C   UNL A   1      44.488  36.349  32.075  1.00  0.00     0.055 A 
ATOM     83  C   UNL A   1      44.298  37.090  29.793  1.00  0.00     0.041 A 
ATOM     84  F   UNL A   1      43.656  35.574  28.124  1.00  0.00    -0.206 F 
ATOM     85  C   UNL A   1      44.556  37.377  31.131  1.00  0.00     0.022 A 
BRANCH  82  86
ATOM     86  S   UNL A   1      44.675  36.723  33.840  1.00  0.00     0.124 S 
ATOM     87  O   UNL A   1      45.559  37.884  33.815  1.00  0.00    -0.237 OA
ATOM     88  O   UNL A   1      43.298  36.980  34.250  1.00  0.00    -0.237 OA
ATOM     89  O   UNL A   1      45.268  35.505  34.388  1.00  0.00    -0.744 OA
ENDBRANCH  82  86
ENDBRANCH  56  79
ENDBRANCH  30  31
ENDBRANCH  23  25
ENDBRANCH  22  23
ENDBRANCH  21  22
ENDBRANCH   1  21
TORSDOF 17
ENDMDL
MODEL 2
REMARK VINA RESULT:     -10.2      3.822     10.117
REMARK SMILES CC(C)([NH2+]C[C@@H]1COc2ccccc21)C(=O)OCCOC(=O)c1ccc(-c2c3nc(c(-c4cc(S(=O)(=O)[O-])ccc4F)c4ccc([nH]4)c(-c4cc(S(=O)(=O)[O-])ccc4F)c4nc(c(-c5cc(S(=O)(=O)[O-])ccc5F)c5ccc2[nH]5)C=C4)C=C3)cc1
REMARK SMILES IDX 18 1 17 2 15 3 16 4 2 5 1 6 3 7 4 8 5 11 6 12 7 13 14 14
REMARK SMILES IDX 8 15 9 16 13 17 10 18 12 19 11 20 19 21 20 22 21 23 22 24
REMARK SMILES IDX 23 25 24 26 85 27 25 28 84 29 26 30 27 31 28 32 78 33 29 34
REMARK SMILES IDX 83 35 77 36 79 37 30 38 82 39 76 40 75 41 31 43 63 44 43 45
REMARK SMILES IDX 62 46 44 47 47 48 61 49 80 50 45 51 46 52 60 54 81 55 48 56
REMARK SMILES IDX 32 57 33 58 41 59 34 60 40 61 42 62 39 63 35 64 36 65 37 66
REMARK SMILES IDX 38 67 64 68 65 69 73 70 66 71 72 72 74 73 71 74 67 75 68 76
REMARK SMILES IDX 69 77 70 78 49 79 50 80 58 81 51 82 57 83 59 84 56 85 52 86
REMARK SMILES IDX 53 87 54 88 55 89
REMARK H PARENT 4 9 4 10 79 42 47 53
REMARK Flexibility Score: inf
ROOT
ATOM      1  C   UNL A   1      34.880  20.441  25.205  1.00  0.00     0.274 C 
ENDROOT
BRANCH   1   2
ATOM      2  O   UNL A   1      34.057  21.544  24.778  1.00  0.00    -0.457 OA
BRANCH   2   3
ATOM      3  C   UNL A   1      32.937  21.806  25.505  1.00  0.00     0.367 C 
ATOM      4  O   UNL A   1      31.888  21.178  25.385  1.00  0.00    -0.245 OA
BRANCH   3   5
ATOM      5  C   UNL A   1      33.078  23.044  26.436  1.00  0.00     0.188 C 
ATOM      6  C   UNL A   1      34.486  23.657  26.258  1.00  0.00     0.092 C 
ATOM      7  C   UNL A   1      33.019  22.499  27.869  1.00  0.00     0.092 C 
BRANCH   5   8
ATOM      8  N   UNL A   1      32.162  24.160  26.089  1.00  0.00    -0.332 N 
ATOM      9  H   UNL A   1      32.149  24.777  26.902  1.00  0.00     0.347 HD
ATOM     10  H   UNL A   1      31.315  23.658  25.824  1.00  0.00     0.347 HD
BRANCH   8  11
ATOM     11  C   UNL A   1      32.373  25.021  24.931  1.00  0.00     0.273 C 
BRANCH  11  12
ATOM     12  C   UNL A   1      31.515  26.275  24.789  1.00  0.00     0.116 C 
ATOM     13  C   UNL A   1      31.638  26.911  23.398  1.00  0.00     0.244 C 
ATOM     14  C   UNL A   1      31.817  27.490  25.595  1.00  0.00     0.006 A 
ATOM     15  O   UNL A   1      31.205  28.289  23.510  1.00  0.00    -0.492 OA
ATOM     16  C   UNL A   1      31.526  28.601  24.810  1.00  0.00     0.123 A 
ATOM     17  C   UNL A   1      32.183  27.652  26.920  1.00  0.00     0.008 A 
ATOM     18  C   UNL A   1      31.538  29.884  25.316  1.00  0.00     0.047 A 
ATOM     19  C   UNL A   1      32.233  28.946  27.447  1.00  0.00     0.001 A 
ATOM     20  C   UNL A   1      31.897  30.053  26.654  1.00  0.00     0.004 A 
ENDBRANCH  11  12
ENDBRANCH   8  11
ENDBRANCH   5   8
ENDBRANCH   3   5
ENDBRANCH   2   3
ENDBRANCH   1   2
BRANCH   1  21
ATOM     21  C   UNL A   1      36.309  20.649  24.713  1.00  0.00     0.275 C 
BRANCH  21  22
ATOM     22  O   UNL A   1      37.054  21.272  25.768  1.00  0.00    -0.458 OA
BRANCH  22  23
ATOM     23  C   UNL A   1      38.389  21.061  25.766  1.00  0.00     0.338 C 
ATOM     24  O   UNL A   1      38.975  20.062  25.375  1.00  0.00    -0.246 OA
BRANCH  23  25
ATOM     25  C   UNL A   1      39.052  22.257  26.318  1.00  0.00     0.060 A 
ATOM     26  C   UNL A   1      38.537  23.522  26.040  1.00  0.00     0.016 A 
ATOM     27  C   UNL A   1      40.231  22.139  27.049  1.00  0.00     0.016 A 
ATOM     28  C   UNL A   1      39.231  24.670  26.407  1.00  0.00     0.010 A 
ATOM     29  C   UNL A   1      40.875  23.296  27.511  1.00  0.00     0.010 A 
ATOM     30  C   UNL A   1      40.405  24.577  27.160  1.00  0.00    -0.014 A 
BRANCH  30  31
ATOM     31  C   UNL A   1      41.177  25.807  27.505  1.00  0.00     0.031 A 
ATOM     32  C   UNL A   1      40.562  26.844  28.413  1.00  0.00     0.074 A 
ATOM     33  C   UNL A   1      42.434  25.990  27.051  1.00  0.00     0.049 A 
ATOM     34  N   UNL A   1      40.975  28.053  28.696  1.00  0.00    -0.248 NA
ATOM     35  C   UNL A   1      39.301  26.473  29.069  1.00  0.00     0.031 C 
ATOM     36  C   UNL A   1      43.180  25.049  26.210  1.00  0.00     0.029 A 
ATOM     37  N   UNL A   1      43.318  27.024  27.246  1.00  0.00    -0.354 N 
ATOM     38  C   UNL A   1      39.990  28.612  29.505  1.00  0.00     0.074 A 
ATOM     39  C   UNL A   1      38.957  27.608  29.657  1.00  0.00     0.031 C 
ATOM     40  C   UNL A   1      44.419  25.525  26.007  1.00  0.00     0.029 A 
ATOM     41  C   UNL A   1      44.531  26.842  26.622  1.00  0.00     0.049 A 
ATOM     42  H   UNL A   1      43.103  27.821  27.782  1.00  0.00     0.167 HD
ATOM     43  C   UNL A   1      39.951  29.846  30.066  1.00  0.00     0.034 A 
ATOM     44  C   UNL A   1      45.601  27.657  26.522  1.00  0.00     0.034 A 
ATOM     45  C   UNL A   1      41.016  30.815  29.954  1.00  0.00     0.049 A 
ATOM     46  C   UNL A   1      45.538  29.021  27.156  1.00  0.00     0.074 A 
ATOM     47  C   UNL A   1      41.075  32.100  30.467  1.00  0.00     0.029 A 
ATOM     48  N   UNL A   1      42.221  30.597  29.298  1.00  0.00    -0.354 N 
ATOM     49  N   UNL A   1      44.557  29.575  27.832  1.00  0.00    -0.248 NA
ATOM     50  C   UNL A   1      46.723  29.874  27.004  1.00  0.00     0.031 C 
ATOM     51  C   UNL A   1      42.297  32.671  30.088  1.00  0.00     0.029 A 
ATOM     52  C   UNL A   1      43.027  31.722  29.390  1.00  0.00     0.049 A 
ATOM     53  H   UNL A   1      42.468  29.764  28.835  1.00  0.00     0.167 HD
ATOM     54  C   UNL A   1      45.011  30.841  28.187  1.00  0.00     0.074 A 
ATOM     55  C   UNL A   1      46.365  30.954  27.681  1.00  0.00     0.031 C 
ATOM     56  C   UNL A   1      44.367  31.827  28.862  1.00  0.00     0.034 A 
BRANCH  43  57
ATOM     57  C   UNL A   1      38.683  30.234  30.791  1.00  0.00     0.023 A 
ATOM     58  C   UNL A   1      37.626  30.902  30.148  1.00  0.00     0.031 A 
ATOM     59  C   UNL A   1      38.555  29.977  32.168  1.00  0.00     0.131 A 
ATOM     60  C   UNL A   1      36.531  31.361  30.897  1.00  0.00     0.055 A 
ATOM     61  C   UNL A   1      37.426  30.363  32.891  1.00  0.00     0.041 A 
ATOM     62  F   UNL A   1      39.541  29.360  32.842  1.00  0.00    -0.206 F 
ATOM     63  C   UNL A   1      36.412  31.075  32.259  1.00  0.00     0.022 A 
BRANCH  60  64
ATOM     64  S   UNL A   1      35.337  32.470  30.098  1.00  0.00     0.124 S 
ATOM     65  O   UNL A   1      36.161  33.645  29.827  1.00  0.00    -0.237 OA
ATOM     66  O   UNL A   1      34.920  31.698  28.934  1.00  0.00    -0.237 OA
ATOM     67  O   UNL A   1      34.309  32.662  31.121  1.00  0.00    -0.744 OA
ENDBRANCH  60  64
ENDBRANCH  43  57
BRANCH  44  68
ATOM     68  C   UNL A   1      46.802  27.236  25.744  1.00  0.00     0.023 A 
ATOM     69  C   UNL A   1      47.034  27.723  24.447  1.00  0.00     0.031 A 
ATOM     70  C   UNL A   1      47.715  26.306  26.273  1.00  0.00     0.131 A 
ATOM     71  C   UNL A   1      48.133  27.252  23.710  1.00  0.00     0.055 A 
ATOM     72  C   UNL A   1      48.834  25.881  25.556  1.00  0.00     0.041 A 
ATOM     73  F   UNL A   1      47.538  25.807  27.507  1.00  0.00    -0.206 F 
ATOM     74  C   UNL A   1      49.043  26.347  24.262  1.00  0.00     0.022 A 
BRANCH  71  75
ATOM     75  S   UNL A   1      48.321  27.789  21.987  1.00  0.00     0.124 S 
ATOM     76  O   UNL A   1      48.332  26.515  21.278  1.00  0.00    -0.237 OA
ATOM     77  O   UNL A   1      47.136  28.618  21.798  1.00  0.00    -0.237 OA
ATOM     78  O   UNL A   1      49.590  28.512  21.992  1.00  0.00    -0.744 OA
ENDBRANCH  71  75
ENDBRANCH  44  68
BRANCH  56  79
ATOM     79  C   UNL A   1      45.145  33.094  29.111  1.00  0.00     0.023 A 
ATOM     80  C   UNL A   1      45.142  34.153  28.187  1.00  0.00     0.031 A 
ATOM     81  C   UNL A   1      45.940  33.221  30.264  1.00  0.00     0.131 A 
ATOM     82  C   UNL A   1      45.971  35.265  28.396  1.00  0.00     0.055 A 
ATOM     83  C   UNL A   1      46.720  34.356  30.495  1.00  0.00     0.041 A 
ATOM     84  F   UNL A   1      45.980  32.238  31.178  1.00  0.00    -0.206 F 
ATOM     85  C   UNL A   1      46.751  35.378  29.550  1.00  0.00     0.022 A 
BRANCH  82  86
ATOM     86  S   UNL A   1      46.105  36.512  27.085  1.00  0.00     0.124 S 
ATOM     87  O   UNL A   1      47.134  37.401  27.612  1.00  0.00    -0.237 OA
ATOM     88  O   UNL A   1      46.488  35.707  25.930  1.00  0.00    -0.237 OA
ATOM     89  O   UNL A   1      44.763  37.088  27.021  1.00  0.00    -0.744 OA
ENDBRANCH  82  86
ENDBRANCH  56  79
ENDBRANCH  30  31
ENDBRANCH  23  25
ENDBRANCH  22  23
ENDBRANCH  21  22
ENDBRANCH   1  21
TORSDOF 17
ENDMDL
MODEL 3
REMARK VINA RESULT:     -10.2      5.567      9.139
REMARK SMILES CC(C)([NH2+]C[C@@H]1COc2ccccc21)C(=O)OCCOC(=O)c1ccc(-c2c3nc(c(-c4cc(S(=O)(=O)[O-])ccc4F)c4ccc([nH]4)c(-c4cc(S(=O)(=O)[O-])ccc4F)c4nc(c(-c5cc(S(=O)(=O)[O-])ccc5F)c5ccc2[nH]5)C=C4)C=C3)cc1
REMARK SMILES IDX 18 1 17 2 15 3 16 4 2 5 1 6 3 7 4 8 5 11 6 12 7 13 14 14
REMARK SMILES IDX 8 15 9 16 13 17 10 18 12 19 11 20 19 21 20 22 21 23 22 24
REMARK SMILES IDX 23 25 24 26 85 27 25 28 84 29 26 30 27 31 28 32 78 33 29 34
REMARK SMILES IDX 83 35 77 36 79 37 30 38 82 39 76 40 75 41 31 43 63 44 43 45
REMARK SMILES IDX 62 46 44 47 47 48 61 49 80 50 45 51 46 52 60 54 81 55 48 56
REMARK SMILES IDX 32 57 33 58 41 59 34 60 40 61 42 62 39 63 35 64 36 65 37 66
REMARK SMILES IDX 38 67 64 68 65 69 73 70 66 71 72 72 74 73 71 74 67 75 68 76
REMARK SMILES IDX 69 77 70 78 49 79 50 80 58 81 51 82 57 83 59 84 56 85 52 86
REMARK SMILES IDX 53 87 54 88 55 89
REMARK H PARENT 4 9 4 10 79 42 47 53
REMARK Flexibility Score: inf
ROOT
ATOM      1  C   UNL A   1      31.286  29.107  24.513  1.00  0.00     0.274 C 
ENDROOT
BRANCH   1   2
ATOM      2  O   UNL A   1      31.881  27.935  25.103  1.00  0.00    -0.457 OA
BRANCH   2   3
ATOM      3  C   UNL A   1      31.359  26.727  24.756  1.00  0.00     0.367 C 
ATOM      4  O   UNL A   1      30.230  26.584  24.294  1.00  0.00    -0.245 OA
BRANCH   3   5
ATOM      5  C   UNL A   1      32.291  25.528  25.094  1.00  0.00     0.188 C 
ATOM      6  C   UNL A   1      31.619  24.650  26.175  1.00  0.00     0.092 C 
ATOM      7  C   UNL A   1      33.539  26.139  25.743  1.00  0.00     0.092 C 
BRANCH   5   8
ATOM      8  N   UNL A   1      32.496  24.593  23.959  1.00  0.00    -0.332 N 
ATOM      9  H   UNL A   1      33.505  24.455  23.886  1.00  0.00     0.347 HD
ATOM     10  H   UNL A   1      31.996  25.066  23.207  1.00  0.00     0.347 HD
BRANCH   8  11
ATOM     11  C   UNL A   1      31.902  23.260  23.919  1.00  0.00     0.273 C 
BRANCH  11  12
ATOM     12  C   UNL A   1      32.828  22.048  23.970  1.00  0.00     0.116 C 
ATOM     13  C   UNL A   1      32.616  21.206  25.235  1.00  0.00     0.244 C 
ATOM     14  C   UNL A   1      34.301  22.228  24.091  1.00  0.00     0.006 A 
ATOM     15  O   UNL A   1      33.807  20.405  25.429  1.00  0.00    -0.492 OA
ATOM     16  C   UNL A   1      34.791  21.189  24.875  1.00  0.00     0.123 A 
ATOM     17  C   UNL A   1      35.175  23.117  23.489  1.00  0.00     0.008 A 
ATOM     18  C   UNL A   1      36.142  20.968  25.043  1.00  0.00     0.047 A 
ATOM     19  C   UNL A   1      36.548  22.932  23.672  1.00  0.00     0.001 A 
ATOM     20  C   UNL A   1      37.029  21.855  24.431  1.00  0.00     0.004 A 
ENDBRANCH  11  12
ENDBRANCH   8  11
ENDBRANCH   5   8
ENDBRANCH   3   5
ENDBRANCH   2   3
ENDBRANCH   1   2
BRANCH   1  21
ATOM     21  C   UNL A   1      31.413  30.283  25.476  1.00  0.00     0.275 C 
BRANCH  21  22
ATOM     22  O   UNL A   1      32.703  30.209  26.098  1.00  0.00    -0.458 OA
BRANCH  22  23
ATOM     23  C   UNL A   1      33.020  31.214  26.943  1.00  0.00     0.338 C 
ATOM     24  O   UNL A   1      32.355  32.212  27.183  1.00  0.00    -0.246 OA
BRANCH  23  25
ATOM     25  C   UNL A   1      34.328  30.915  27.556  1.00  0.00     0.060 A 
ATOM     26  C   UNL A   1      34.618  29.614  27.963  1.00  0.00     0.016 A 
ATOM     27  C   UNL A   1      35.245  31.934  27.801  1.00  0.00     0.016 A 
ATOM     28  C   UNL A   1      35.771  29.335  28.689  1.00  0.00     0.010 A 
ATOM     29  C   UNL A   1      36.456  31.632  28.440  1.00  0.00     0.010 A 
ATOM     30  C   UNL A   1      36.717  30.337  28.929  1.00  0.00    -0.014 A 
BRANCH  30  31
ATOM     31  C   UNL A   1      37.925  30.048  29.756  1.00  0.00     0.031 A 
ATOM     32  C   UNL A   1      39.033  29.198  29.186  1.00  0.00     0.074 A 
ATOM     33  C   UNL A   1      38.063  30.569  30.993  1.00  0.00     0.049 A 
ATOM     34  N   UNL A   1      40.076  28.679  29.782  1.00  0.00    -0.248 NA
ATOM     35  C   UNL A   1      38.937  28.870  27.756  1.00  0.00     0.031 C 
ATOM     36  C   UNL A   1      37.100  31.454  31.655  1.00  0.00     0.029 A 
ATOM     37  N   UNL A   1      39.077  30.445  31.911  1.00  0.00    -0.354 N 
ATOM     38  C   UNL A   1      40.721  27.907  28.820  1.00  0.00     0.074 A 
ATOM     39  C   UNL A   1      39.942  28.022  27.604  1.00  0.00     0.031 C 
ATOM     40  C   UNL A   1      37.593  31.831  32.845  1.00  0.00     0.029 A 
ATOM     41  C   UNL A   1      38.860  31.147  33.076  1.00  0.00     0.049 A 
ATOM     42  H   UNL A   1      39.884  29.904  31.752  1.00  0.00     0.167 HD
ATOM     43  C   UNL A   1      41.854  27.172  28.940  1.00  0.00     0.034 A 
ATOM     44  C   UNL A   1      39.579  31.207  34.214  1.00  0.00     0.034 A 
ATOM     45  C   UNL A   1      42.652  27.114  30.142  1.00  0.00     0.049 A 
ATOM     46  C   UNL A   1      40.836  30.386  34.325  1.00  0.00     0.074 A 
ATOM     47  C   UNL A   1      43.808  26.390  30.381  1.00  0.00     0.029 A 
ATOM     48  N   UNL A   1      42.388  27.828  31.305  1.00  0.00    -0.354 N 
ATOM     49  N   UNL A   1      41.379  29.580  33.441  1.00  0.00    -0.248 NA
ATOM     50  C   UNL A   1      41.572  30.474  35.592  1.00  0.00     0.031 C 
ATOM     51  C   UNL A   1      44.219  26.634  31.697  1.00  0.00     0.029 A 
ATOM     52  C   UNL A   1      43.355  27.558  32.263  1.00  0.00     0.049 A 
ATOM     53  H   UNL A   1      41.625  28.437  31.431  1.00  0.00     0.167 HD
ATOM     54  C   UNL A   1      42.521  29.069  34.047  1.00  0.00     0.074 A 
ATOM     55  C   UNL A   1      42.608  29.684  35.357  1.00  0.00     0.031 C 
ATOM     56  C   UNL A   1      43.416  28.165  33.571  1.00  0.00     0.034 A 
BRANCH  43  57
ATOM     57  C   UNL A   1      42.251  26.319  27.757  1.00  0.00     0.023 A 
ATOM     58  C   UNL A   1      41.771  25.009  27.582  1.00  0.00     0.031 A 
ATOM     59  C   UNL A   1      43.173  26.811  26.816  1.00  0.00     0.131 A 
ATOM     60  C   UNL A   1      42.276  24.212  26.543  1.00  0.00     0.055 A 
ATOM     61  C   UNL A   1      43.610  26.041  25.736  1.00  0.00     0.041 A 
ATOM     62  F   UNL A   1      43.684  28.047  26.941  1.00  0.00    -0.206 F 
ATOM     63  C   UNL A   1      43.174  24.726  25.605  1.00  0.00     0.022 A 
BRANCH  60  64
ATOM     64  S   UNL A   1      41.861  22.445  26.524  1.00  0.00     0.124 S 
ATOM     65  O   UNL A   1      42.364  22.010  27.825  1.00  0.00    -0.237 OA
ATOM     66  O   UNL A   1      40.412  22.463  26.373  1.00  0.00    -0.237 OA
ATOM     67  O   UNL A   1      42.603  21.931  25.374  1.00  0.00    -0.744 OA
ENDBRANCH  60  64
ENDBRANCH  43  57
BRANCH  44  68
ATOM     68  C   UNL A   1      39.102  32.025  35.367  1.00  0.00     0.023 A 
ATOM     69  C   UNL A   1      38.472  31.428  36.471  1.00  0.00     0.031 A 
ATOM     70  C   UNL A   1      39.235  33.425  35.362  1.00  0.00     0.131 A 
ATOM     71  C   UNL A   1      37.968  32.230  37.507  1.00  0.00     0.055 A 
ATOM     72  C   UNL A   1      38.779  34.214  36.419  1.00  0.00     0.041 A 
ATOM     73  F   UNL A   1      39.827  34.047  34.330  1.00  0.00    -0.206 F 
ATOM     74  C   UNL A   1      38.131  33.617  37.495  1.00  0.00     0.022 A 
BRANCH  71  75
ATOM     75  S   UNL A   1      37.030  31.439  38.844  1.00  0.00     0.124 S 
ATOM     76  O   UNL A   1      35.817  32.248  38.876  1.00  0.00    -0.237 OA
ATOM     77  O   UNL A   1      36.879  30.078  38.343  1.00  0.00    -0.237 OA
ATOM     78  O   UNL A   1      37.906  31.581  40.005  1.00  0.00    -0.744 OA
ENDBRANCH  71  75
ENDBRANCH  44  68
BRANCH  56  79
ATOM     79  C   UNL A   1      44.576  27.825  34.473  1.00  0.00     0.023 A 
ATOM     80  C   UNL A   1      44.442  26.906  35.528  1.00  0.00     0.031 A 
ATOM     81  C   UNL A   1      45.815  28.466  34.303  1.00  0.00     0.131 A 
ATOM     82  C   UNL A   1      45.508  26.704  36.418  1.00  0.00     0.055 A 
ATOM     83  C   UNL A   1      46.891  28.219  35.158  1.00  0.00     0.041 A 
ATOM     84  F   UNL A   1      45.996  29.353  33.312  1.00  0.00    -0.206 F 
ATOM     85  C   UNL A   1      46.735  27.346  36.232  1.00  0.00     0.022 A 
BRANCH  82  86
ATOM     86  S   UNL A   1      45.234  25.678  37.889  1.00  0.00     0.124 S 
ATOM     87  O   UNL A   1      46.575  25.595  38.458  1.00  0.00    -0.237 OA
ATOM     88  O   UNL A   1      44.269  26.470  38.643  1.00  0.00    -0.237 OA
ATOM     89  O   UNL A   1      44.716  24.425  37.341  1.00  0.00    -0.744 OA
ENDBRANCH  82  86
ENDBRANCH  56  79
ENDBRANCH  30  31
ENDBRANCH  23  25
ENDBRANCH  22  23
ENDBRANCH  21  22
ENDBRANCH   1  21
TORSDOF 17
ENDMDL
