MODEL 1
REMARK VINA RESULT:     -12.9      0.000      0.000
REMARK SMILES O=C1C[C@@H](C(=O)OCCOC(=O)c2ccc(-c3c4nc(c(-c5cc(S(=O)(=O)[O-])ccc5F)c5ccc([nH]5)c(-c5cc(S(=O)(=O)[O-])ccc5F)c5nc(c(-c6cc(S(=O)(=O)[O-])ccc6F)c6ccc3[nH]6)C=C5)C=C4)cc2)C2(CC[NH+](Cc3c[nH]nc3-c3ccc(Cl)cc3)CC2)N1
REMARK SMILES IDX 8 1 7 2 5 3 6 4 4 5 1 6 2 7 3 8 95 9 76 10 77 12 94 13 78 14
REMARK SMILES IDX 93 15 79 16 80 18 81 19 82 20 85 21 83 22 84 23 86 25 87 26
REMARK SMILES IDX 92 27 88 28 91 29 89 30 90 31 9 32 10 33 11 34 12 35 13 36
REMARK SMILES IDX 14 37 75 38 15 39 74 40 16 41 17 42 18 43 68 44 19 45 73 46
REMARK SMILES IDX 67 47 69 48 20 49 72 50 66 51 65 52 21 54 53 55 33 56 52 57
REMARK SMILES IDX 34 58 37 59 51 60 70 61 35 62 36 63 50 65 71 66 38 67 22 68
REMARK SMILES IDX 23 69 31 70 24 71 30 72 32 73 29 74 25 75 26 76 27 77 28 78
REMARK SMILES IDX 54 79 55 80 63 81 56 82 62 83 64 84 61 85 57 86 58 87 59 88
REMARK SMILES IDX 60 89 39 90 40 91 48 92 41 93 47 94 49 95 46 96 42 97 43 98
REMARK SMILES IDX 44 99 45 100
REMARK H PARENT 95 11 79 17 83 24 69 53 37 64
REMARK Flexibility Score: inf
ROOT
ATOM      1  C   UNL A   1      31.569  29.323  24.100  1.00  0.00     0.274 C 
ENDROOT
BRANCH   1   2
ATOM      2  O   UNL A   1      30.423  28.470  23.905  1.00  0.00    -0.462 OA
BRANCH   2   3
ATOM      3  C   UNL A   1      30.619  27.417  23.082  1.00  0.00     0.311 C 
ATOM      4  O   UNL A   1      30.653  27.503  21.857  1.00  0.00    -0.252 OA
BRANCH   3   5
ATOM      5  C   UNL A   1      30.731  26.065  23.765  1.00  0.00     0.134 C 
ATOM      6  O   UNL A   1      30.773  26.764  27.255  1.00  0.00    -0.275 OA
ATOM      7  C   UNL A   1      30.953  26.391  26.115  1.00  0.00     0.221 C 
ATOM      8  C   UNL A   1      29.900  26.190  25.058  1.00  0.00     0.117 C 
ATOM      9  N   UNL A   1      32.167  26.030  25.580  1.00  0.00    -0.349 N 
ATOM     10  C   UNL A   1      32.077  25.465  24.238  1.00  0.00     0.064 C 
ATOM     11  H   UNL A   1      33.019  26.142  26.059  1.00  0.00     0.164 HD
ATOM     12  C   UNL A   1      33.358  25.815  23.465  1.00  0.00     0.091 C 
ATOM     13  C   UNL A   1      31.927  23.915  24.393  1.00  0.00     0.091 C 
ATOM     14  C   UNL A   1      33.660  24.907  22.282  1.00  0.00     0.264 C 
ATOM     15  C   UNL A   1      32.439  23.061  23.226  1.00  0.00     0.264 C 
ATOM     16  N   UNL A   1      33.687  23.508  22.638  1.00  0.00    -0.331 N 
ATOM     17  H   UNL A   1      33.712  22.997  21.755  1.00  0.00     0.348 HD
BRANCH  16  18
ATOM     18  C   UNL A   1      34.955  22.957  23.128  1.00  0.00     0.303 C 
BRANCH  18  19
ATOM     19  C   UNL A   1      35.036  22.795  24.614  1.00  0.00     0.052 A 
ATOM     20  C   UNL A   1      35.218  23.814  25.532  1.00  0.00     0.115 A 
ATOM     21  C   UNL A   1      34.817  21.636  25.435  1.00  0.00     0.101 A 
ATOM     22  N   UNL A   1      35.268  23.235  26.756  1.00  0.00    -0.285 N 
ATOM     23  N   UNL A   1      35.019  21.923  26.734  1.00  0.00    -0.175 NA
ATOM     24  H   UNL A   1      35.468  23.733  27.581  1.00  0.00     0.189 HD
BRANCH  21  25
ATOM     25  C   UNL A   1      34.379  20.284  25.076  1.00  0.00     0.003 A 
ATOM     26  C   UNL A   1      33.026  19.948  25.245  1.00  0.00     0.012 A 
ATOM     27  C   UNL A   1      35.260  19.298  24.626  1.00  0.00     0.012 A 
ATOM     28  C   UNL A   1      32.567  18.659  24.960  1.00  0.00     0.021 A 
ATOM     29  C   UNL A   1      34.805  18.006  24.336  1.00  0.00     0.021 A 
ATOM     30  C   UNL A   1      33.460  17.693  24.505  1.00  0.00     0.041 A 
ATOM     31  Cl  UNL A   1      32.903  16.099  24.174  1.00  0.00    -0.084 Cl
ENDBRANCH  21  25
ENDBRANCH  18  19
ENDBRANCH  16  18
ENDBRANCH   3   5
ENDBRANCH   2   3
ENDBRANCH   1   2
BRANCH   1  32
ATOM     32  C   UNL A   1      31.717  29.732  25.567  1.00  0.00     0.275 C 
BRANCH  32  33
ATOM     33  O   UNL A   1      33.027  30.281  25.811  1.00  0.00    -0.458 OA
BRANCH  33  34
ATOM     34  C   UNL A   1      33.101  31.200  26.802  1.00  0.00     0.338 C 
ATOM     35  O   UNL A   1      32.285  32.074  27.048  1.00  0.00    -0.246 OA
BRANCH  34  36
ATOM     36  C   UNL A   1      34.311  30.994  27.626  1.00  0.00     0.060 A 
ATOM     37  C   UNL A   1      35.175  32.056  27.901  1.00  0.00     0.016 A 
ATOM     38  C   UNL A   1      34.672  29.696  27.985  1.00  0.00     0.016 A 
ATOM     39  C   UNL A   1      36.430  31.816  28.456  1.00  0.00     0.010 A 
ATOM     40  C   UNL A   1      35.885  29.472  28.644  1.00  0.00     0.010 A 
ATOM     41  C   UNL A   1      36.787  30.525  28.871  1.00  0.00    -0.014 A 
BRANCH  41  42
ATOM     42  C   UNL A   1      38.070  30.277  29.586  1.00  0.00     0.031 A 
ATOM     43  C   UNL A   1      39.099  29.334  29.023  1.00  0.00     0.074 A 
ATOM     44  C   UNL A   1      38.279  30.854  30.785  1.00  0.00     0.049 A 
ATOM     45  N   UNL A   1      40.159  28.824  29.598  1.00  0.00    -0.248 NA
ATOM     46  C   UNL A   1      38.895  28.892  27.636  1.00  0.00     0.031 C 
ATOM     47  C   UNL A   1      37.373  31.803  31.438  1.00  0.00     0.029 A 
ATOM     48  N   UNL A   1      39.307  30.708  31.686  1.00  0.00    -0.354 N 
ATOM     49  C   UNL A   1      40.724  27.961  28.664  1.00  0.00     0.074 A 
ATOM     50  C   UNL A   1      39.876  28.012  27.489  1.00  0.00     0.031 C 
ATOM     51  C   UNL A   1      37.882  32.154  32.627  1.00  0.00     0.029 A 
ATOM     52  C   UNL A   1      39.098  31.386  32.864  1.00  0.00     0.049 A 
ATOM     53  H   UNL A   1      40.112  30.171  31.505  1.00  0.00     0.167 HD
ATOM     54  C   UNL A   1      41.841  27.197  28.783  1.00  0.00     0.034 A 
ATOM     55  C   UNL A   1      39.764  31.352  34.034  1.00  0.00     0.034 A 
ATOM     56  C   UNL A   1      42.681  27.178  29.960  1.00  0.00     0.049 A 
ATOM     57  C   UNL A   1      40.966  30.464  34.165  1.00  0.00     0.074 A 
ATOM     58  C   UNL A   1      43.866  26.488  30.164  1.00  0.00     0.029 A 
ATOM     59  N   UNL A   1      42.425  27.869  31.139  1.00  0.00    -0.354 N 
ATOM     60  N   UNL A   1      41.485  29.645  33.281  1.00  0.00    -0.248 NA
ATOM     61  C   UNL A   1      41.669  30.495  35.452  1.00  0.00     0.031 C 
ATOM     62  C   UNL A   1      44.281  26.700  31.484  1.00  0.00     0.029 A 
ATOM     63  C   UNL A   1      43.403  27.589  32.084  1.00  0.00     0.049 A 
ATOM     64  H   UNL A   1      41.658  28.470  31.283  1.00  0.00     0.167 HD
ATOM     65  C   UNL A   1      42.587  29.068  33.904  1.00  0.00     0.074 A 
ATOM     66  C   UNL A   1      42.666  29.650  35.229  1.00  0.00     0.031 C 
ATOM     67  C   UNL A   1      43.455  28.145  33.418  1.00  0.00     0.034 A 
BRANCH  54  68
ATOM     68  C   UNL A   1      42.179  26.271  27.635  1.00  0.00     0.023 A 
ATOM     69  C   UNL A   1      41.681  24.958  27.556  1.00  0.00     0.031 A 
ATOM     70  C   UNL A   1      43.044  26.704  26.612  1.00  0.00     0.131 A 
ATOM     71  C   UNL A   1      42.114  24.102  26.531  1.00  0.00     0.055 A 
ATOM     72  C   UNL A   1      43.405  25.874  25.548  1.00  0.00     0.041 A 
ATOM     73  F   UNL A   1      43.568  27.939  26.637  1.00  0.00    -0.206 F 
ATOM     74  C   UNL A   1      42.954  24.559  25.513  1.00  0.00     0.022 A 
BRANCH  71  75
ATOM     75  S   UNL A   1      41.695  22.340  26.636  1.00  0.00     0.124 S 
ATOM     76  O   UNL A   1      40.240  22.387  26.762  1.00  0.00    -0.237 OA
ATOM     77  O   UNL A   1      42.211  21.819  25.377  1.00  0.00    -0.237 OA
ATOM     78  O   UNL A   1      42.399  21.890  27.836  1.00  0.00    -0.744 OA
ENDBRANCH  71  75
ENDBRANCH  54  68
BRANCH  55  79
ATOM     79  C   UNL A   1      39.246  32.134  35.191  1.00  0.00     0.023 A 
ATOM     80  C   UNL A   1      38.587  31.503  36.254  1.00  0.00     0.031 A 
ATOM     81  C   UNL A   1      39.436  33.527  35.257  1.00  0.00     0.131 A 
ATOM     82  C   UNL A   1      38.125  32.268  37.337  1.00  0.00     0.055 A 
ATOM     83  C   UNL A   1      39.018  34.276  36.356  1.00  0.00     0.041 A 
ATOM     84  F   UNL A   1      40.072  34.173  34.266  1.00  0.00    -0.206 F 
ATOM     85  C   UNL A   1      38.352  33.647  37.402  1.00  0.00     0.022 A 
BRANCH  82  86
ATOM     86  S   UNL A   1      37.190  31.440  38.649  1.00  0.00     0.124 S 
ATOM     87  O   UNL A   1      38.088  31.579  39.789  1.00  0.00    -0.237 OA
ATOM     88  O   UNL A   1      35.965  32.234  38.697  1.00  0.00    -0.237 OA
ATOM     89  O   UNL A   1      37.027  30.079  38.144  1.00  0.00    -0.744 OA
ENDBRANCH  82  86
ENDBRANCH  55  79
BRANCH  67  90
ATOM     90  C   UNL A   1      44.587  27.734  34.330  1.00  0.00     0.023 A 
ATOM     91  C   UNL A   1      44.472  26.636  35.202  1.00  0.00     0.031 A 
ATOM     92  C   UNL A   1      45.782  28.474  34.352  1.00  0.00     0.131 A 
ATOM     93  C   UNL A   1      45.510  26.345  36.100  1.00  0.00     0.055 A 
ATOM     94  C   UNL A   1      46.836  28.143  35.205  1.00  0.00     0.041 A 
ATOM     95  F   UNL A   1      45.943  29.536  33.546  1.00  0.00    -0.206 F 
ATOM     96  C   UNL A   1      46.698  27.082  36.096  1.00  0.00     0.022 A 
BRANCH  93  97
ATOM     97  S   UNL A   1      45.251  25.052  37.346  1.00  0.00     0.124 S 
ATOM     98  O   UNL A   1      45.553  23.841  36.591  1.00  0.00    -0.237 OA
ATOM     99  O   UNL A   1      46.213  25.417  38.380  1.00  0.00    -0.237 OA
ATOM    100  O   UNL A   1      43.847  25.214  37.721  1.00  0.00    -0.744 OA
ENDBRANCH  93  97
ENDBRANCH  67  90
ENDBRANCH  41  42
ENDBRANCH  34  36
ENDBRANCH  33  34
ENDBRANCH  32  33
ENDBRANCH   1  32
TORSDOF 17
ENDMDL
MODEL 2
REMARK VINA RESULT:     -12.4      1.655      2.100
REMARK SMILES O=C1C[C@@H](C(=O)OCCOC(=O)c2ccc(-c3c4nc(c(-c5cc(S(=O)(=O)[O-])ccc5F)c5ccc([nH]5)c(-c5cc(S(=O)(=O)[O-])ccc5F)c5nc(c(-c6cc(S(=O)(=O)[O-])ccc6F)c6ccc3[nH]6)C=C5)C=C4)cc2)C2(CC[NH+](Cc3c[nH]nc3-c3ccc(Cl)cc3)CC2)N1
REMARK SMILES IDX 8 1 7 2 5 3 6 4 4 5 1 6 2 7 3 8 95 9 76 10 77 12 94 13 78 14
REMARK SMILES IDX 93 15 79 16 80 18 81 19 82 20 85 21 83 22 84 23 86 25 87 26
REMARK SMILES IDX 92 27 88 28 91 29 89 30 90 31 9 32 10 33 11 34 12 35 13 36
REMARK SMILES IDX 14 37 75 38 15 39 74 40 16 41 17 42 18 43 68 44 19 45 73 46
REMARK SMILES IDX 67 47 69 48 20 49 72 50 66 51 65 52 21 54 53 55 33 56 52 57
REMARK SMILES IDX 34 58 37 59 51 60 70 61 35 62 36 63 50 65 71 66 38 67 22 68
REMARK SMILES IDX 23 69 31 70 24 71 30 72 32 73 29 74 25 75 26 76 27 77 28 78
REMARK SMILES IDX 54 79 55 80 63 81 56 82 62 83 64 84 61 85 57 86 58 87 59 88
REMARK SMILES IDX 60 89 39 90 40 91 48 92 41 93 47 94 49 95 46 96 42 97 43 98
REMARK SMILES IDX 44 99 45 100
REMARK H PARENT 95 11 79 17 83 24 69 53 37 64
REMARK Flexibility Score: inf
ROOT
ATOM      1  C   UNL A   1      31.934  28.763  26.350  1.00  0.00     0.274 C 
ENDROOT
BRANCH   1   2
ATOM      2  O   UNL A   1      31.150  28.568  25.155  1.00  0.00    -0.462 OA
BRANCH   2   3
ATOM      3  C   UNL A   1      31.861  28.329  24.031  1.00  0.00     0.311 C 
ATOM      4  O   UNL A   1      32.731  29.080  23.599  1.00  0.00    -0.252 OA
BRANCH   3   5
ATOM      5  C   UNL A   1      31.469  27.078  23.264  1.00  0.00     0.134 C 
ATOM      6  O   UNL A   1      28.069  26.462  24.121  1.00  0.00    -0.275 OA
ATOM      7  C   UNL A   1      29.259  26.439  23.884  1.00  0.00     0.221 C 
ATOM      8  C   UNL A   1      29.990  27.283  22.875  1.00  0.00     0.117 C 
ATOM      9  N   UNL A   1      30.168  25.589  24.468  1.00  0.00    -0.349 N 
ATOM     10  C   UNL A   1      31.503  25.660  23.884  1.00  0.00     0.064 C 
ATOM     11  H   UNL A   1      29.939  24.988  25.212  1.00  0.00     0.164 HD
ATOM     12  C   UNL A   1      32.540  25.353  24.975  1.00  0.00     0.091 C 
ATOM     13  C   UNL A   1      31.568  24.595  22.739  1.00  0.00     0.091 C 
ATOM     14  C   UNL A   1      33.892  24.882  24.460  1.00  0.00     0.264 C 
ATOM     15  C   UNL A   1      32.956  24.029  22.414  1.00  0.00     0.264 C 
ATOM     16  N   UNL A   1      33.793  23.753  23.565  1.00  0.00    -0.331 N 
ATOM     17  H   UNL A   1      34.718  23.647  23.148  1.00  0.00     0.348 HD
BRANCH  16  18
ATOM     18  C   UNL A   1      33.781  22.414  24.164  1.00  0.00     0.303 C 
BRANCH  18  19
ATOM     19  C   UNL A   1      35.134  21.857  24.483  1.00  0.00     0.052 A 
ATOM     20  C   UNL A   1      36.287  22.594  24.684  1.00  0.00     0.115 A 
ATOM     21  C   UNL A   1      35.535  20.511  24.786  1.00  0.00     0.101 A 
ATOM     22  N   UNL A   1      37.285  21.706  24.910  1.00  0.00    -0.285 N 
ATOM     23  N   UNL A   1      36.864  20.441  24.989  1.00  0.00    -0.175 NA
ATOM     24  H   UNL A   1      38.229  21.968  25.008  1.00  0.00     0.189 HD
BRANCH  21  25
ATOM     25  C   UNL A   1      34.737  19.293  24.946  1.00  0.00     0.003 A 
ATOM     26  C   UNL A   1      35.278  18.072  24.513  1.00  0.00     0.012 A 
ATOM     27  C   UNL A   1      33.437  19.302  25.459  1.00  0.00     0.012 A 
ATOM     28  C   UNL A   1      34.539  16.889  24.602  1.00  0.00     0.021 A 
ATOM     29  C   UNL A   1      32.694  18.120  25.554  1.00  0.00     0.021 A 
ATOM     30  C   UNL A   1      33.249  16.919  25.124  1.00  0.00     0.041 A 
ATOM     31  Cl  UNL A   1      32.327  15.468  25.216  1.00  0.00    -0.084 Cl
ENDBRANCH  21  25
ENDBRANCH  18  19
ENDBRANCH  16  18
ENDBRANCH   3   5
ENDBRANCH   2   3
ENDBRANCH   1   2
BRANCH   1  32
ATOM     32  C   UNL A   1      31.790  30.189  26.885  1.00  0.00     0.275 C 
BRANCH  32  33
ATOM     33  O   UNL A   1      32.836  31.034  26.368  1.00  0.00    -0.458 OA
BRANCH  33  34
ATOM     34  C   UNL A   1      33.311  31.968  27.224  1.00  0.00     0.338 C 
ATOM     35  O   UNL A   1      32.746  32.992  27.573  1.00  0.00    -0.246 OA
BRANCH  34  36
ATOM     36  C   UNL A   1      34.634  31.575  27.755  1.00  0.00     0.060 A 
ATOM     37  C   UNL A   1      34.860  30.278  28.219  1.00  0.00     0.016 A 
ATOM     38  C   UNL A   1      35.604  32.558  27.946  1.00  0.00     0.016 A 
ATOM     39  C   UNL A   1      36.013  29.980  28.943  1.00  0.00     0.010 A 
ATOM     40  C   UNL A   1      36.810  32.228  28.575  1.00  0.00     0.010 A 
ATOM     41  C   UNL A   1      37.021  30.942  29.097  1.00  0.00    -0.014 A 
BRANCH  41  42
ATOM     42  C   UNL A   1      38.314  30.597  29.753  1.00  0.00     0.031 A 
ATOM     43  C   UNL A   1      39.256  29.604  29.128  1.00  0.00     0.074 A 
ATOM     44  C   UNL A   1      38.608  31.132  30.953  1.00  0.00     0.049 A 
ATOM     45  N   UNL A   1      40.304  29.015  29.647  1.00  0.00    -0.248 NA
ATOM     46  C   UNL A   1      38.968  29.207  27.743  1.00  0.00     0.031 C 
ATOM     47  C   UNL A   1      37.792  32.121  31.662  1.00  0.00     0.029 A 
ATOM     48  N   UNL A   1      39.660  30.902  31.806  1.00  0.00    -0.354 N 
ATOM     49  C   UNL A   1      40.774  28.140  28.673  1.00  0.00     0.074 A 
ATOM     50  C   UNL A   1      39.884  28.271  27.536  1.00  0.00     0.031 C 
ATOM     51  C   UNL A   1      38.370  32.413  32.835  1.00  0.00     0.029 A 
ATOM     52  C   UNL A   1      39.544  31.565  33.006  1.00  0.00     0.049 A 
ATOM     53  H   UNL A   1      40.422  30.319  31.581  1.00  0.00     0.167 HD
ATOM     54  C   UNL A   1      41.844  27.305  28.729  1.00  0.00     0.034 A 
ATOM     55  C   UNL A   1      40.253  31.463  34.145  1.00  0.00     0.034 A 
ATOM     56  C   UNL A   1      42.729  27.206  29.869  1.00  0.00     0.049 A 
ATOM     57  C   UNL A   1      41.401  30.498  34.208  1.00  0.00     0.074 A 
ATOM     58  C   UNL A   1      43.874  26.438  30.009  1.00  0.00     0.029 A 
ATOM     59  N   UNL A   1      42.565  27.885  31.071  1.00  0.00    -0.354 N 
ATOM     60  N   UNL A   1      41.830  29.668  33.287  1.00  0.00    -0.248 NA
ATOM     61  C   UNL A   1      42.157  30.455  35.464  1.00  0.00     0.031 C 
ATOM     62  C   UNL A   1      44.356  26.595  31.314  1.00  0.00     0.029 A 
ATOM     63  C   UNL A   1      43.562  27.523  31.969  1.00  0.00     0.049 A 
ATOM     64  H   UNL A   1      41.846  28.530  31.260  1.00  0.00     0.167 HD
ATOM     65  C   UNL A   1      42.917  29.009  33.850  1.00  0.00     0.074 A 
ATOM     66  C   UNL A   1      43.088  29.554  35.183  1.00  0.00     0.031 C 
ATOM     67  C   UNL A   1      43.704  28.044  33.310  1.00  0.00     0.034 A 
BRANCH  54  68
ATOM     68  C   UNL A   1      42.075  26.385  27.550  1.00  0.00     0.023 A 
ATOM     69  C   UNL A   1      41.541  25.085  27.494  1.00  0.00     0.031 A 
ATOM     70  C   UNL A   1      42.873  26.811  26.471  1.00  0.00     0.131 A 
ATOM     71  C   UNL A   1      41.877  24.233  26.431  1.00  0.00     0.055 A 
ATOM     72  C   UNL A   1      43.136  25.987  25.375  1.00  0.00     0.041 A 
ATOM     73  F   UNL A   1      43.427  28.033  26.471  1.00  0.00    -0.206 F 
ATOM     74  C   UNL A   1      42.652  24.682  25.359  1.00  0.00     0.022 A 
BRANCH  71  75
ATOM     75  S   UNL A   1      41.424  22.480  26.547  1.00  0.00     0.124 S 
ATOM     76  O   UNL A   1      41.866  22.147  27.900  1.00  0.00    -0.237 OA
ATOM     77  O   UNL A   1      39.982  22.514  26.336  1.00  0.00    -0.237 OA
ATOM     78  O   UNL A   1      42.198  21.852  25.478  1.00  0.00    -0.744 OA
ENDBRANCH  71  75
ENDBRANCH  54  68
BRANCH  55  79
ATOM     79  C   UNL A   1      39.835  32.249  35.339  1.00  0.00     0.023 A 
ATOM     80  C   UNL A   1      40.318  33.546  35.558  1.00  0.00     0.031 A 
ATOM     81  C   UNL A   1      38.917  31.715  36.263  1.00  0.00     0.131 A 
ATOM     82  C   UNL A   1      39.891  34.264  36.685  1.00  0.00     0.055 A 
ATOM     83  C   UNL A   1      38.460  32.450  37.356  1.00  0.00     0.041 A 
ATOM     84  F   UNL A   1      38.419  30.479  36.089  1.00  0.00    -0.206 F 
ATOM     85  C   UNL A   1      38.953  33.732  37.575  1.00  0.00     0.022 A 
BRANCH  82  86
ATOM     86  S   UNL A   1      40.607  35.900  36.995  1.00  0.00     0.124 S 
ATOM     87  O   UNL A   1      42.008  35.680  36.656  1.00  0.00    -0.237 OA
ATOM     88  O   UNL A   1      39.849  36.742  36.074  1.00  0.00    -0.237 OA
ATOM     89  O   UNL A   1      40.335  36.129  38.412  1.00  0.00    -0.744 OA
ENDBRANCH  82  86
ENDBRANCH  55  79
BRANCH  67  90
ATOM     90  C   UNL A   1      44.844  27.542  34.165  1.00  0.00     0.023 A 
ATOM     91  C   UNL A   1      44.681  26.465  35.054  1.00  0.00     0.031 A 
ATOM     92  C   UNL A   1      46.098  28.175  34.114  1.00  0.00     0.131 A 
ATOM     93  C   UNL A   1      45.738  26.090  35.899  1.00  0.00     0.055 A 
ATOM     94  C   UNL A   1      47.164  27.760  34.914  1.00  0.00     0.041 A 
ATOM     95  F   UNL A   1      46.307  29.213  33.289  1.00  0.00    -0.206 F 
ATOM     96  C   UNL A   1      46.983  26.721  35.823  1.00  0.00     0.022 A 
BRANCH  93  97
ATOM     97  S   UNL A   1      45.435  24.833  37.171  1.00  0.00     0.124 S 
ATOM     98  O   UNL A   1      45.319  25.647  38.377  1.00  0.00    -0.237 OA
ATOM     99  O   UNL A   1      44.204  24.205  36.703  1.00  0.00    -0.237 OA
ATOM    100  O   UNL A   1      46.626  23.987  37.108  1.00  0.00    -0.744 OA
ENDBRANCH  93  97
ENDBRANCH  67  90
ENDBRANCH  41  42
ENDBRANCH  34  36
ENDBRANCH  33  34
ENDBRANCH  32  33
ENDBRANCH   1  32
TORSDOF 17
ENDMDL
MODEL 3
REMARK VINA RESULT:     -12.3      1.251      2.174
REMARK SMILES O=C1C[C@@H](C(=O)OCCOC(=O)c2ccc(-c3c4nc(c(-c5cc(S(=O)(=O)[O-])ccc5F)c5ccc([nH]5)c(-c5cc(S(=O)(=O)[O-])ccc5F)c5nc(c(-c6cc(S(=O)(=O)[O-])ccc6F)c6ccc3[nH]6)C=C5)C=C4)cc2)C2(CC[NH+](Cc3c[nH]nc3-c3ccc(Cl)cc3)CC2)N1
REMARK SMILES IDX 8 1 7 2 5 3 6 4 4 5 1 6 2 7 3 8 95 9 76 10 77 12 94 13 78 14
REMARK SMILES IDX 93 15 79 16 80 18 81 19 82 20 85 21 83 22 84 23 86 25 87 26
REMARK SMILES IDX 92 27 88 28 91 29 89 30 90 31 9 32 10 33 11 34 12 35 13 36
REMARK SMILES IDX 14 37 75 38 15 39 74 40 16 41 17 42 18 43 68 44 19 45 73 46
REMARK SMILES IDX 67 47 69 48 20 49 72 50 66 51 65 52 21 54 53 55 33 56 52 57
REMARK SMILES IDX 34 58 37 59 51 60 70 61 35 62 36 63 50 65 71 66 38 67 22 68
REMARK SMILES IDX 23 69 31 70 24 71 30 72 32 73 29 74 25 75 26 76 27 77 28 78
REMARK SMILES IDX 54 79 55 80 63 81 56 82 62 83 64 84 61 85 57 86 58 87 59 88
REMARK SMILES IDX 60 89 39 90 40 91 48 92 41 93 47 94 49 95 46 96 42 97 43 98
REMARK SMILES IDX 44 99 45 100
REMARK H PARENT 95 11 79 17 83 24 69 53 37 64
REMARK Flexibility Score: inf
ROOT
ATOM      1  C   UNL A   1      31.690  29.151  27.233  1.00  0.00     0.274 C 
ENDROOT
BRANCH   1   2
ATOM      2  O   UNL A   1      31.497  28.284  26.096  1.00  0.00    -0.462 OA
BRANCH   2   3
ATOM      3  C   UNL A   1      31.841  26.992  26.289  1.00  0.00     0.311 C 
ATOM      4  O   UNL A   1      31.127  26.172  26.860  1.00  0.00    -0.252 OA
BRANCH   3   5
ATOM      5  C   UNL A   1      33.231  26.607  25.813  1.00  0.00     0.134 C 
ATOM      6  O   UNL A   1      33.570  28.074  22.587  1.00  0.00    -0.275 OA
ATOM      7  C   UNL A   1      33.533  27.373  23.577  1.00  0.00     0.221 C 
ATOM      8  C   UNL A   1      33.735  27.818  25.001  1.00  0.00     0.117 C 
ATOM      9  N   UNL A   1      33.342  26.011  23.579  1.00  0.00    -0.349 N 
ATOM     10  C   UNL A   1      33.504  25.394  24.891  1.00  0.00     0.064 C 
ATOM     11  H   UNL A   1      33.118  25.500  22.769  1.00  0.00     0.164 HD
ATOM     12  C   UNL A   1      32.579  24.171  24.982  1.00  0.00     0.091 C 
ATOM     13  C   UNL A   1      35.004  24.969  25.025  1.00  0.00     0.091 C 
ATOM     14  C   UNL A   1      32.980  23.142  26.028  1.00  0.00     0.264 C 
ATOM     15  C   UNL A   1      35.296  23.789  25.961  1.00  0.00     0.264 C 
ATOM     16  N   UNL A   1      34.346  22.696  25.887  1.00  0.00    -0.331 N 
ATOM     17  H   UNL A   1      34.553  22.163  26.733  1.00  0.00     0.348 HD
BRANCH  16  18
ATOM     18  C   UNL A   1      34.602  21.574  24.977  1.00  0.00     0.303 C 
BRANCH  18  19
ATOM     19  C   UNL A   1      33.561  21.373  23.921  1.00  0.00     0.052 A 
ATOM     20  C   UNL A   1      33.207  22.288  22.946  1.00  0.00     0.115 A 
ATOM     21  C   UNL A   1      32.805  20.201  23.574  1.00  0.00     0.101 A 
ATOM     22  N   UNL A   1      32.208  21.726  22.223  1.00  0.00    -0.285 N 
ATOM     23  N   UNL A   1      31.948  20.462  22.570  1.00  0.00    -0.175 NA
ATOM     24  H   UNL A   1      31.722  22.202  21.512  1.00  0.00     0.189 HD
BRANCH  21  25
ATOM     25  C   UNL A   1      32.875  18.834  24.097  1.00  0.00     0.003 A 
ATOM     26  C   UNL A   1      33.253  17.799  23.227  1.00  0.00     0.012 A 
ATOM     27  C   UNL A   1      32.527  18.508  25.410  1.00  0.00     0.012 A 
ATOM     28  C   UNL A   1      33.291  16.472  23.665  1.00  0.00     0.021 A 
ATOM     29  C   UNL A   1      32.567  17.181  25.855  1.00  0.00     0.021 A 
ATOM     30  C   UNL A   1      32.949  16.169  24.979  1.00  0.00     0.041 A 
ATOM     31  Cl  UNL A   1      32.974  14.535  25.518  1.00  0.00    -0.084 Cl
ENDBRANCH  21  25
ENDBRANCH  18  19
ENDBRANCH  16  18
ENDBRANCH   3   5
ENDBRANCH   2   3
ENDBRANCH   1   2
BRANCH   1  32
ATOM     32  C   UNL A   1      31.766  30.619  26.808  1.00  0.00     0.275 C 
BRANCH  32  33
ATOM     33  O   UNL A   1      33.127  30.993  26.518  1.00  0.00    -0.458 OA
BRANCH  33  34
ATOM     34  C   UNL A   1      33.659  31.938  27.328  1.00  0.00     0.338 C 
ATOM     35  O   UNL A   1      33.146  32.999  27.646  1.00  0.00    -0.246 OA
BRANCH  34  36
ATOM     36  C   UNL A   1      34.973  31.507  27.850  1.00  0.00     0.060 A 
ATOM     37  C   UNL A   1      35.167  30.203  28.307  1.00  0.00     0.016 A 
ATOM     38  C   UNL A   1      35.971  32.463  28.039  1.00  0.00     0.016 A 
ATOM     39  C   UNL A   1      36.315  29.870  29.024  1.00  0.00     0.010 A 
ATOM     40  C   UNL A   1      37.170  32.098  28.661  1.00  0.00     0.010 A 
ATOM     41  C   UNL A   1      37.349  30.804  29.177  1.00  0.00    -0.014 A 
BRANCH  41  42
ATOM     42  C   UNL A   1      38.636  30.422  29.824  1.00  0.00     0.031 A 
ATOM     43  C   UNL A   1      39.544  29.400  29.195  1.00  0.00     0.074 A 
ATOM     44  C   UNL A   1      38.955  30.950  31.022  1.00  0.00     0.049 A 
ATOM     45  N   UNL A   1      40.577  28.780  29.708  1.00  0.00    -0.248 NA
ATOM     46  C   UNL A   1      39.234  29.009  27.813  1.00  0.00     0.031 C 
ATOM     47  C   UNL A   1      38.173  31.964  31.734  1.00  0.00     0.029 A 
ATOM     48  N   UNL A   1      40.005  30.690  31.868  1.00  0.00    -0.354 N 
ATOM     49  C   UNL A   1      41.014  27.890  28.732  1.00  0.00     0.074 A 
ATOM     50  C   UNL A   1      40.120  28.046  27.601  1.00  0.00     0.031 C 
ATOM     51  C   UNL A   1      38.768  32.240  32.903  1.00  0.00     0.029 A 
ATOM     52  C   UNL A   1      39.917  31.358  33.067  1.00  0.00     0.049 A 
ATOM     53  H   UNL A   1      40.747  30.084  31.638  1.00  0.00     0.167 HD
ATOM     54  C   UNL A   1      42.059  27.023  28.783  1.00  0.00     0.034 A 
ATOM     55  C   UNL A   1      40.631  31.236  34.202  1.00  0.00     0.034 A 
ATOM     56  C   UNL A   1      42.948  26.900  29.917  1.00  0.00     0.049 A 
ATOM     57  C   UNL A   1      41.750  30.237  34.258  1.00  0.00     0.074 A 
ATOM     58  C   UNL A   1      44.071  26.098  30.050  1.00  0.00     0.029 A 
ATOM     59  N   UNL A   1      42.813  27.585  31.119  1.00  0.00    -0.354 N 
ATOM     60  N   UNL A   1      42.147  29.394  33.336  1.00  0.00    -0.248 NA
ATOM     61  C   UNL A   1      42.513  30.175  35.509  1.00  0.00     0.031 C 
ATOM     62  C   UNL A   1      44.566  26.242  31.352  1.00  0.00     0.029 A 
ATOM     63  C   UNL A   1      43.804  27.195  32.010  1.00  0.00     0.049 A 
ATOM     64  H   UNL A   1      42.114  28.252  31.311  1.00  0.00     0.167 HD
ATOM     65  C   UNL A   1      43.218  28.703  33.893  1.00  0.00     0.074 A 
ATOM     66  C   UNL A   1      43.414  29.245  35.223  1.00  0.00     0.031 C 
ATOM     67  C   UNL A   1      43.972  27.714  33.349  1.00  0.00     0.034 A 
BRANCH  54  68
ATOM     68  C   UNL A   1      42.253  26.095  27.603  1.00  0.00     0.023 A 
ATOM     69  C   UNL A   1      41.653  24.825  27.539  1.00  0.00     0.031 A 
ATOM     70  C   UNL A   1      43.085  26.480  26.534  1.00  0.00     0.131 A 
ATOM     71  C   UNL A   1      41.955  23.958  26.477  1.00  0.00     0.055 A 
ATOM     72  C   UNL A   1      43.315  25.645  25.439  1.00  0.00     0.041 A 
ATOM     73  F   UNL A   1      43.702  27.672  26.543  1.00  0.00    -0.206 F 
ATOM     74  C   UNL A   1      42.764  24.368  25.415  1.00  0.00     0.022 A 
BRANCH  71  75
ATOM     75  S   UNL A   1      41.410  22.231  26.585  1.00  0.00     0.124 S 
ATOM     76  O   UNL A   1      40.000  22.340  26.213  1.00  0.00    -0.237 OA
ATOM     77  O   UNL A   1      42.275  21.567  25.618  1.00  0.00    -0.237 OA
ATOM     78  O   UNL A   1      41.649  21.881  27.983  1.00  0.00    -0.744 OA
ENDBRANCH  71  75
ENDBRANCH  54  68
BRANCH  55  79
ATOM     79  C   UNL A   1      40.245  32.036  35.396  1.00  0.00     0.023 A 
ATOM     80  C   UNL A   1      39.226  31.608  36.258  1.00  0.00     0.031 A 
ATOM     81  C   UNL A   1      40.918  33.233  35.706  1.00  0.00     0.131 A 
ATOM     82  C   UNL A   1      38.898  32.379  37.383  1.00  0.00     0.055 A 
ATOM     83  C   UNL A   1      40.620  33.971  36.851  1.00  0.00     0.041 A 
ATOM     84  F   UNL A   1      41.908  33.679  34.915  1.00  0.00    -0.206 F 
ATOM     85  C   UNL A   1      39.599  33.548  37.694  1.00  0.00     0.022 A 
BRANCH  82  86
ATOM     86  S   UNL A   1      37.511  31.850  38.424  1.00  0.00     0.124 S 
ATOM     87  O   UNL A   1      36.500  32.851  38.105  1.00  0.00    -0.237 OA
ATOM     88  O   UNL A   1      37.257  30.501  37.927  1.00  0.00    -0.237 OA
ATOM     89  O   UNL A   1      38.055  31.919  39.778  1.00  0.00    -0.744 OA
ENDBRANCH  82  86
ENDBRANCH  55  79
BRANCH  67  90
ATOM     90  C   UNL A   1      45.101  27.180  34.197  1.00  0.00     0.023 A 
ATOM     91  C   UNL A   1      44.959  26.010  34.966  1.00  0.00     0.031 A 
ATOM     92  C   UNL A   1      46.324  27.871  34.264  1.00  0.00     0.131 A 
ATOM     93  C   UNL A   1      46.001  25.600  35.813  1.00  0.00     0.055 A 
ATOM     94  C   UNL A   1      47.378  27.425  35.063  1.00  0.00     0.041 A 
ATOM     95  F   UNL A   1      46.512  28.997  33.558  1.00  0.00    -0.206 F 
ATOM     96  C   UNL A   1      47.215  26.291  35.854  1.00  0.00     0.022 A 
BRANCH  93  97
ATOM     97  S   UNL A   1      45.713  24.206  36.938  1.00  0.00     0.124 S 
ATOM     98  O   UNL A   1      45.163  24.875  38.112  1.00  0.00    -0.237 OA
ATOM     99  O   UNL A   1      44.781  23.379  36.179  1.00  0.00    -0.237 OA
ATOM    100  O   UNL A   1      47.045  23.631  37.120  1.00  0.00    -0.744 OA
ENDBRANCH  93  97
ENDBRANCH  67  90
ENDBRANCH  41  42
ENDBRANCH  34  36
ENDBRANCH  33  34
ENDBRANCH  32  33
ENDBRANCH   1  32
TORSDOF 17
ENDMDL
