MODEL 1
REMARK VINA RESULT:     -11.6      0.000      0.000
REMARK SMILES O=C(OCCOC(=O)c1ccc(S(=O)(=O)Cc2ncccn2)c(F)c1)c1ccc(-c2c3nc(c(-c4cc(S(=O)(=O)[O-])ccc4F)c4ccc([nH]4)c(-c4cc(S(=O)(=O)[O-])ccc4F)c4nc(c(-c5cc(S(=O)(=O)[O-])ccc5F)c5ccc2[nH]5)C=C4)C=C3)cc1
REMARK SMILES IDX 4 1 3 2 2 3 1 4 26 5 27 6 88 7 28 8 87 9 29 10 30 11 31 12
REMARK SMILES IDX 81 13 32 14 86 15 80 16 82 17 33 18 85 19 79 20 78 21 34 23
REMARK SMILES IDX 66 24 46 25 65 26 47 27 50 28 64 29 83 30 48 31 49 32 63 34
REMARK SMILES IDX 84 35 51 36 35 37 36 38 44 39 37 40 43 41 45 42 42 43 38 44
REMARK SMILES IDX 39 45 40 46 41 47 67 48 68 49 76 50 69 51 75 52 77 53 74 54
REMARK SMILES IDX 70 55 71 56 72 57 73 58 52 59 53 60 61 61 54 62 60 63 62 64
REMARK SMILES IDX 59 65 55 66 56 67 57 68 58 69 5 70 6 71 7 72 8 73 9 74 10 75
REMARK SMILES IDX 25 76 11 77 23 78 12 79 24 80 13 81 14 82 15 83 16 84 17 85
REMARK SMILES IDX 18 86 22 87 19 88 21 89 20 90
REMARK H PARENT 82 22 50 33
REMARK Flexibility Score: inf
ROOT
ATOM      1  C   UNL A   1      31.555  32.114  26.867  1.00  0.00     0.275 C 
ENDROOT
BRANCH   1   2
ATOM      2  O   UNL A   1      32.408  33.270  26.858  1.00  0.00    -0.458 OA
BRANCH   2   3
ATOM      3  C   UNL A   1      33.014  33.850  27.923  1.00  0.00     0.338 C 
ATOM      4  O   UNL A   1      32.661  34.978  28.263  1.00  0.00    -0.246 OA
BRANCH   3   5
ATOM      5  C   UNL A   1      34.262  33.287  28.534  1.00  0.00     0.060 A 
ATOM      6  C   UNL A   1      35.572  33.531  28.116  1.00  0.00     0.016 A 
ATOM      7  C   UNL A   1      34.073  32.415  29.621  1.00  0.00     0.016 A 
ATOM      8  C   UNL A   1      36.664  32.978  28.797  1.00  0.00     0.010 A 
ATOM      9  C   UNL A   1      35.159  31.880  30.320  1.00  0.00     0.010 A 
ATOM     10  C   UNL A   1      36.467  32.155  29.907  1.00  0.00    -0.014 A 
BRANCH  10  11
ATOM     11  C   UNL A   1      37.606  31.438  30.526  1.00  0.00     0.031 A 
ATOM     12  C   UNL A   1      38.030  31.846  31.909  1.00  0.00     0.074 A 
ATOM     13  C   UNL A   1      38.235  30.435  29.885  1.00  0.00     0.049 A 
ATOM     14  N   UNL A   1      39.039  31.432  32.625  1.00  0.00    -0.248 NA
ATOM     15  C   UNL A   1      37.189  32.855  32.576  1.00  0.00     0.031 C 
ATOM     16  C   UNL A   1      37.869  29.907  28.570  1.00  0.00     0.029 A 
ATOM     17  N   UNL A   1      39.332  29.694  30.245  1.00  0.00    -0.354 N 
ATOM     18  C   UNL A   1      38.942  32.110  33.833  1.00  0.00     0.074 A 
ATOM     19  C   UNL A   1      37.819  33.014  33.728  1.00  0.00     0.031 C 
ATOM     20  C   UNL A   1      38.764  28.971  28.207  1.00  0.00     0.029 A 
ATOM     21  C   UNL A   1      39.766  28.837  29.259  1.00  0.00     0.049 A 
ATOM     22  H   UNL A   1      39.767  29.768  31.125  1.00  0.00     0.167 HD
ATOM     23  C   UNL A   1      39.695  31.962  34.947  1.00  0.00     0.034 A 
ATOM     24  C   UNL A   1      40.862  28.054  29.207  1.00  0.00     0.034 A 
ATOM     25  C   UNL A   1      40.816  31.069  35.037  1.00  0.00     0.049 A 
ATOM     26  C   UNL A   1      41.778  28.014  30.404  1.00  0.00     0.074 A 
ATOM     27  C   UNL A   1      41.659  30.843  36.110  1.00  0.00     0.029 A 
ATOM     28  N   UNL A   1      41.256  30.254  34.002  1.00  0.00    -0.354 N 
ATOM     29  N   UNL A   1      41.679  28.664  31.540  1.00  0.00    -0.248 NA
ATOM     30  C   UNL A   1      42.942  27.121  30.320  1.00  0.00     0.031 C 
ATOM     31  C   UNL A   1      42.631  29.918  35.711  1.00  0.00     0.029 A 
ATOM     32  C   UNL A   1      42.365  29.532  34.405  1.00  0.00     0.049 A 
ATOM     33  H   UNL A   1      40.839  30.198  33.111  1.00  0.00     0.167 HD
ATOM     34  C   UNL A   1      42.744  28.229  32.321  1.00  0.00     0.074 A 
ATOM     35  C   UNL A   1      43.479  27.268  31.524  1.00  0.00     0.031 C 
ATOM     36  C   UNL A   1      43.076  28.578  33.590  1.00  0.00     0.034 A 
BRANCH  23  37
ATOM     37  C   UNL A   1      39.312  32.798  36.137  1.00  0.00     0.023 A 
ATOM     38  C   UNL A   1      39.844  34.088  36.312  1.00  0.00     0.031 A 
ATOM     39  C   UNL A   1      38.465  32.286  37.132  1.00  0.00     0.131 A 
ATOM     40  C   UNL A   1      39.578  34.798  37.489  1.00  0.00     0.055 A 
ATOM     41  C   UNL A   1      38.150  33.025  38.273  1.00  0.00     0.041 A 
ATOM     42  F   UNL A   1      37.953  31.050  37.023  1.00  0.00    -0.206 F 
ATOM     43  C   UNL A   1      38.717  34.284  38.463  1.00  0.00     0.022 A 
BRANCH  40  44
ATOM     44  S   UNL A   1      40.446  36.363  37.780  1.00  0.00     0.124 S 
ATOM     45  O   UNL A   1      39.423  37.140  38.476  1.00  0.00    -0.237 OA
ATOM     46  O   UNL A   1      41.590  35.953  38.585  1.00  0.00    -0.237 OA
ATOM     47  O   UNL A   1      40.769  36.829  36.434  1.00  0.00    -0.744 OA
ENDBRANCH  40  44
ENDBRANCH  23  37
BRANCH  24  48
ATOM     48  C   UNL A   1      41.175  27.271  27.981  1.00  0.00     0.023 A 
ATOM     49  C   UNL A   1      40.971  25.883  27.927  1.00  0.00     0.031 A 
ATOM     50  C   UNL A   1      41.722  27.903  26.850  1.00  0.00     0.131 A 
ATOM     51  C   UNL A   1      41.340  25.166  26.778  1.00  0.00     0.055 A 
ATOM     52  C   UNL A   1      42.061  27.190  25.699  1.00  0.00     0.041 A 
ATOM     53  F   UNL A   1      41.929  29.228  26.850  1.00  0.00    -0.206 F 
ATOM     54  C   UNL A   1      41.879  25.812  25.661  1.00  0.00     0.022 A 
BRANCH  51  55
ATOM     55  S   UNL A   1      41.138  23.363  26.770  1.00  0.00     0.124 S 
ATOM     56  O   UNL A   1      39.712  23.223  26.495  1.00  0.00    -0.237 OA
ATOM     57  O   UNL A   1      42.041  22.960  25.697  1.00  0.00    -0.237 OA
ATOM     58  O   UNL A   1      41.557  22.966  28.113  1.00  0.00    -0.744 OA
ENDBRANCH  51  55
ENDBRANCH  24  48
BRANCH  36  59
ATOM     59  C   UNL A   1      44.249  27.873  34.211  1.00  0.00     0.023 A 
ATOM     60  C   UNL A   1      44.106  26.628  34.843  1.00  0.00     0.031 A 
ATOM     61  C   UNL A   1      45.530  28.443  34.131  1.00  0.00     0.131 A 
ATOM     62  C   UNL A   1      45.230  26.002  35.399  1.00  0.00     0.055 A 
ATOM     63  C   UNL A   1      46.652  27.796  34.647  1.00  0.00     0.041 A 
ATOM     64  F   UNL A   1      45.713  29.632  33.533  1.00  0.00    -0.206 F 
ATOM     65  C   UNL A   1      46.503  26.570  35.290  1.00  0.00     0.022 A 
BRANCH  62  66
ATOM     66  S   UNL A   1      45.008  24.441  36.293  1.00  0.00     0.124 S 
ATOM     67  O   UNL A   1      46.026  23.595  35.680  1.00  0.00    -0.237 OA
ATOM     68  O   UNL A   1      45.252  24.831  37.679  1.00  0.00    -0.237 OA
ATOM     69  O   UNL A   1      43.627  24.068  35.993  1.00  0.00    -0.744 OA
ENDBRANCH  62  66
ENDBRANCH  36  59
ENDBRANCH  10  11
ENDBRANCH   3   5
ENDBRANCH   2   3
ENDBRANCH   1   2
BRANCH   1  70
ATOM     70  C   UNL A   1      32.307  30.813  26.577  1.00  0.00     0.275 C 
BRANCH  70  71
ATOM     71  O   UNL A   1      31.673  30.025  25.559  1.00  0.00    -0.458 OA
BRANCH  71  72
ATOM     72  C   UNL A   1      32.481  29.130  24.936  1.00  0.00     0.338 C 
ATOM     73  O   UNL A   1      33.416  29.363  24.190  1.00  0.00    -0.246 OA
BRANCH  72  74
ATOM     74  C   UNL A   1      32.162  27.783  25.432  1.00  0.00     0.063 A 
ATOM     75  C   UNL A   1      33.160  26.895  25.841  1.00  0.00     0.017 A 
ATOM     76  C   UNL A   1      30.821  27.403  25.443  1.00  0.00     0.056 A 
ATOM     77  C   UNL A   1      32.797  25.610  26.262  1.00  0.00     0.024 A 
ATOM     78  C   UNL A   1      30.483  26.097  25.781  1.00  0.00     0.142 A 
ATOM     79  C   UNL A   1      31.454  25.209  26.217  1.00  0.00     0.103 A 
ATOM     80  F   UNL A   1      29.208  25.723  25.611  1.00  0.00    -0.206 F 
BRANCH  79  81
ATOM     81  S   UNL A   1      31.065  23.551  26.697  1.00  0.00     0.188 S 
ATOM     82  O   UNL A   1      32.193  23.149  27.517  1.00  0.00    -0.223 OA
ATOM     83  O   UNL A   1      29.727  23.593  27.267  1.00  0.00    -0.223 OA
BRANCH  81  84
ATOM     84  C   UNL A   1      31.050  22.452  25.331  1.00  0.00     0.219 C 
BRANCH  84  85
ATOM     85  C   UNL A   1      32.252  21.565  25.292  1.00  0.00     0.143 A 
ATOM     86  N   UNL A   1      32.127  20.242  25.504  1.00  0.00    -0.240 NA
ATOM     87  N   UNL A   1      33.383  22.128  24.815  1.00  0.00    -0.240 NA
ATOM     88  C   UNL A   1      33.185  19.461  25.227  1.00  0.00     0.115 A 
ATOM     89  C   UNL A   1      34.420  21.306  24.565  1.00  0.00     0.115 A 
ATOM     90  C   UNL A   1      34.372  19.945  24.743  1.00  0.00     0.040 A 
ENDBRANCH  84  85
ENDBRANCH  81  84
ENDBRANCH  79  81
ENDBRANCH  72  74
ENDBRANCH  71  72
ENDBRANCH  70  71
ENDBRANCH   1  70
TORSDOF 17
ENDMDL
MODEL 2
REMARK VINA RESULT:     -11.5      5.530      8.638
REMARK SMILES O=C(OCCOC(=O)c1ccc(S(=O)(=O)Cc2ncccn2)c(F)c1)c1ccc(-c2c3nc(c(-c4cc(S(=O)(=O)[O-])ccc4F)c4ccc([nH]4)c(-c4cc(S(=O)(=O)[O-])ccc4F)c4nc(c(-c5cc(S(=O)(=O)[O-])ccc5F)c5ccc2[nH]5)C=C4)C=C3)cc1
REMARK SMILES IDX 4 1 3 2 2 3 1 4 26 5 27 6 88 7 28 8 87 9 29 10 30 11 31 12
REMARK SMILES IDX 81 13 32 14 86 15 80 16 82 17 33 18 85 19 79 20 78 21 34 23
REMARK SMILES IDX 66 24 46 25 65 26 47 27 50 28 64 29 83 30 48 31 49 32 63 34
REMARK SMILES IDX 84 35 51 36 35 37 36 38 44 39 37 40 43 41 45 42 42 43 38 44
REMARK SMILES IDX 39 45 40 46 41 47 67 48 68 49 76 50 69 51 75 52 77 53 74 54
REMARK SMILES IDX 70 55 71 56 72 57 73 58 52 59 53 60 61 61 54 62 60 63 62 64
REMARK SMILES IDX 59 65 55 66 56 67 57 68 58 69 5 70 6 71 7 72 8 73 9 74 10 75
REMARK SMILES IDX 25 76 11 77 23 78 12 79 24 80 13 81 14 82 15 83 16 84 17 85
REMARK SMILES IDX 18 86 22 87 19 88 21 89 20 90
REMARK H PARENT 82 22 50 33
REMARK Flexibility Score: inf
ROOT
ATOM      1  C   UNL A   1      35.753  20.723  25.078  1.00  0.00     0.275 C 
ENDROOT
BRANCH   1   2
ATOM      2  O   UNL A   1      36.733  21.464  25.825  1.00  0.00    -0.458 OA
BRANCH   2   3
ATOM      3  C   UNL A   1      38.082  21.359  25.737  1.00  0.00     0.338 C 
ATOM      4  O   UNL A   1      38.576  20.253  25.526  1.00  0.00    -0.246 OA
BRANCH   3   5
ATOM      5  C   UNL A   1      38.996  22.474  26.143  1.00  0.00     0.060 A 
ATOM      6  C   UNL A   1      40.151  22.359  26.920  1.00  0.00     0.016 A 
ATOM      7  C   UNL A   1      38.627  23.760  25.705  1.00  0.00     0.016 A 
ATOM      8  C   UNL A   1      40.950  23.475  27.199  1.00  0.00     0.010 A 
ATOM      9  C   UNL A   1      39.434  24.872  25.959  1.00  0.00     0.010 A 
ATOM     10  C   UNL A   1      40.603  24.737  26.716  1.00  0.00    -0.014 A 
BRANCH  10  11
ATOM     11  C   UNL A   1      41.351  25.942  27.144  1.00  0.00     0.031 A 
ATOM     12  C   UNL A   1      40.614  26.988  27.932  1.00  0.00     0.074 A 
ATOM     13  C   UNL A   1      42.658  26.093  26.859  1.00  0.00     0.049 A 
ATOM     14  N   UNL A   1      41.021  28.156  28.347  1.00  0.00    -0.248 NA
ATOM     15  C   UNL A   1      39.229  26.661  28.311  1.00  0.00     0.031 C 
ATOM     16  C   UNL A   1      43.493  25.116  26.161  1.00  0.00     0.029 A 
ATOM     17  N   UNL A   1      43.510  27.141  27.102  1.00  0.00    -0.354 N 
ATOM     18  C   UNL A   1      39.953  28.694  29.053  1.00  0.00     0.074 A 
ATOM     19  C   UNL A   1      38.857  27.757  28.952  1.00  0.00     0.031 C 
ATOM     20  C   UNL A   1      44.720  25.635  25.978  1.00  0.00     0.029 A 
ATOM     21  C   UNL A   1      44.755  26.982  26.539  1.00  0.00     0.049 A 
ATOM     22  H   UNL A   1      43.254  27.932  27.631  1.00  0.00     0.167 HD
ATOM     23  C   UNL A   1      39.904  29.847  29.761  1.00  0.00     0.034 A 
ATOM     24  C   UNL A   1      45.794  27.838  26.467  1.00  0.00     0.034 A 
ATOM     25  C   UNL A   1      40.995  30.776  29.845  1.00  0.00     0.049 A 
ATOM     26  C   UNL A   1      45.668  29.184  27.134  1.00  0.00     0.074 A 
ATOM     27  C   UNL A   1      41.055  31.980  30.523  1.00  0.00     0.029 A 
ATOM     28  N   UNL A   1      42.223  30.604  29.221  1.00  0.00    -0.354 N 
ATOM     29  N   UNL A   1      44.651  29.684  27.796  1.00  0.00    -0.248 NA
ATOM     30  C   UNL A   1      46.836  30.073  27.062  1.00  0.00     0.031 C 
ATOM     31  C   UNL A   1      42.309  32.553  30.277  1.00  0.00     0.029 A 
ATOM     32  C   UNL A   1      43.045  31.684  29.486  1.00  0.00     0.049 A 
ATOM     33  H   UNL A   1      42.473  29.826  28.669  1.00  0.00     0.167 HD
ATOM     34  C   UNL A   1      45.069  30.929  28.253  1.00  0.00     0.074 A 
ATOM     35  C   UNL A   1      46.428  31.109  27.784  1.00  0.00     0.031 C 
ATOM     36  C   UNL A   1      44.398  31.835  29.008  1.00  0.00     0.034 A 
BRANCH  23  37
ATOM     37  C   UNL A   1      38.617  30.140  30.481  1.00  0.00     0.023 A 
ATOM     38  C   UNL A   1      37.614  30.918  29.876  1.00  0.00     0.031 A 
ATOM     39  C   UNL A   1      38.415  29.700  31.799  1.00  0.00     0.131 A 
ATOM     40  C   UNL A   1      36.481  31.289  30.611  1.00  0.00     0.055 A 
ATOM     41  C   UNL A   1      37.253  30.019  32.504  1.00  0.00     0.041 A 
ATOM     42  F   UNL A   1      39.354  28.977  32.429  1.00  0.00    -0.206 F 
ATOM     43  C   UNL A   1      36.283  30.827  31.915  1.00  0.00     0.022 A 
BRANCH  40  44
ATOM     44  S   UNL A   1      35.310  32.463  29.877  1.00  0.00     0.124 S 
ATOM     45  O   UNL A   1      34.394  32.698  30.990  1.00  0.00    -0.237 OA
ATOM     46  O   UNL A   1      36.166  33.585  29.509  1.00  0.00    -0.237 OA
ATOM     47  O   UNL A   1      34.743  31.721  28.753  1.00  0.00    -0.744 OA
ENDBRANCH  40  44
ENDBRANCH  23  37
BRANCH  24  48
ATOM     48  C   UNL A   1      47.026  27.471  25.717  1.00  0.00     0.023 A 
ATOM     49  C   UNL A   1      47.167  27.766  24.352  1.00  0.00     0.031 A 
ATOM     50  C   UNL A   1      48.072  26.781  26.357  1.00  0.00     0.131 A 
ATOM     51  C   UNL A   1      48.315  27.346  23.661  1.00  0.00     0.055 A 
ATOM     52  C   UNL A   1      49.224  26.391  25.672  1.00  0.00     0.041 A 
ATOM     53  F   UNL A   1      47.988  26.483  27.661  1.00  0.00    -0.206 F 
ATOM     54  C   UNL A   1      49.347  26.665  24.314  1.00  0.00     0.022 A 
BRANCH  51  55
ATOM     55  S   UNL A   1      48.431  27.673  21.880  1.00  0.00     0.124 S 
ATOM     56  O   UNL A   1      49.573  28.578  21.815  1.00  0.00    -0.237 OA
ATOM     57  O   UNL A   1      48.642  26.334  21.339  1.00  0.00    -0.237 OA
ATOM     58  O   UNL A   1      47.138  28.273  21.558  1.00  0.00    -0.744 OA
ENDBRANCH  51  55
ENDBRANCH  24  48
BRANCH  36  59
ATOM     59  C   UNL A   1      45.145  33.072  29.420  1.00  0.00     0.023 A 
ATOM     60  C   UNL A   1      45.122  34.239  28.639  1.00  0.00     0.031 A 
ATOM     61  C   UNL A   1      45.858  33.088  30.631  1.00  0.00     0.131 A 
ATOM     62  C   UNL A   1      45.826  35.372  29.068  1.00  0.00     0.055 A 
ATOM     63  C   UNL A   1      46.520  34.232  31.074  1.00  0.00     0.041 A 
ATOM     64  F   UNL A   1      45.905  31.996  31.410  1.00  0.00    -0.206 F 
ATOM     65  C   UNL A   1      46.509  35.382  30.288  1.00  0.00     0.022 A 
BRANCH  62  66
ATOM     66  S   UNL A   1      45.860  36.835  27.999  1.00  0.00     0.124 S 
ATOM     67  O   UNL A   1      45.389  37.880  28.902  1.00  0.00    -0.237 OA
ATOM     68  O   UNL A   1      47.265  36.913  27.611  1.00  0.00    -0.237 OA
ATOM     69  O   UNL A   1      44.941  36.490  26.916  1.00  0.00    -0.744 OA
ENDBRANCH  62  66
ENDBRANCH  36  59
ENDBRANCH  10  11
ENDBRANCH   3   5
ENDBRANCH   2   3
ENDBRANCH   1   2
BRANCH   1  70
ATOM     70  C   UNL A   1      34.412  21.451  24.966  1.00  0.00     0.275 C 
BRANCH  70  71
ATOM     71  O   UNL A   1      34.171  21.964  23.648  1.00  0.00    -0.458 OA
BRANCH  71  72
ATOM     72  C   UNL A   1      34.895  23.063  23.316  1.00  0.00     0.338 C 
ATOM     73  O   UNL A   1      36.006  23.102  22.816  1.00  0.00    -0.246 OA
BRANCH  72  74
ATOM     74  C   UNL A   1      34.053  24.254  23.501  1.00  0.00     0.063 A 
ATOM     75  C   UNL A   1      34.064  24.984  24.692  1.00  0.00     0.017 A 
ATOM     76  C   UNL A   1      33.206  24.612  22.453  1.00  0.00     0.056 A 
ATOM     77  C   UNL A   1      33.209  26.084  24.824  1.00  0.00     0.024 A 
ATOM     78  C   UNL A   1      32.300  25.652  22.630  1.00  0.00     0.142 A 
ATOM     79  C   UNL A   1      32.314  26.407  23.793  1.00  0.00     0.103 A 
ATOM     80  F   UNL A   1      31.388  25.850  21.670  1.00  0.00    -0.206 F 
BRANCH  79  81
ATOM     81  S   UNL A   1      31.209  27.765  24.045  1.00  0.00     0.188 S 
ATOM     82  O   UNL A   1      29.889  27.176  23.907  1.00  0.00    -0.223 OA
ATOM     83  O   UNL A   1      31.602  28.386  25.300  1.00  0.00    -0.223 OA
BRANCH  81  84
ATOM     84  C   UNL A   1      31.332  28.964  22.771  1.00  0.00     0.219 C 
BRANCH  84  85
ATOM     85  C   UNL A   1      30.098  29.795  22.640  1.00  0.00     0.143 A 
ATOM     86  N   UNL A   1      29.239  29.580  21.627  1.00  0.00    -0.240 NA
ATOM     87  N   UNL A   1      29.802  30.581  23.698  1.00  0.00    -0.240 NA
ATOM     88  C   UNL A   1      28.040  30.184  21.684  1.00  0.00     0.115 A 
ATOM     89  C   UNL A   1      28.594  31.175  23.704  1.00  0.00     0.115 A 
ATOM     90  C   UNL A   1      27.656  30.999  22.717  1.00  0.00     0.040 A 
ENDBRANCH  84  85
ENDBRANCH  81  84
ENDBRANCH  79  81
ENDBRANCH  72  74
ENDBRANCH  71  72
ENDBRANCH  70  71
ENDBRANCH   1  70
TORSDOF 17
ENDMDL
MODEL 3
REMARK VINA RESULT:     -11.5      2.351      8.002
REMARK SMILES O=C(OCCOC(=O)c1ccc(S(=O)(=O)Cc2ncccn2)c(F)c1)c1ccc(-c2c3nc(c(-c4cc(S(=O)(=O)[O-])ccc4F)c4ccc([nH]4)c(-c4cc(S(=O)(=O)[O-])ccc4F)c4nc(c(-c5cc(S(=O)(=O)[O-])ccc5F)c5ccc2[nH]5)C=C4)C=C3)cc1
REMARK SMILES IDX 4 1 3 2 2 3 1 4 26 5 27 6 88 7 28 8 87 9 29 10 30 11 31 12
REMARK SMILES IDX 81 13 32 14 86 15 80 16 82 17 33 18 85 19 79 20 78 21 34 23
REMARK SMILES IDX 66 24 46 25 65 26 47 27 50 28 64 29 83 30 48 31 49 32 63 34
REMARK SMILES IDX 84 35 51 36 35 37 36 38 44 39 37 40 43 41 45 42 42 43 38 44
REMARK SMILES IDX 39 45 40 46 41 47 67 48 68 49 76 50 69 51 75 52 77 53 74 54
REMARK SMILES IDX 70 55 71 56 72 57 73 58 52 59 53 60 61 61 54 62 60 63 62 64
REMARK SMILES IDX 59 65 55 66 56 67 57 68 58 69 5 70 6 71 7 72 8 73 9 74 10 75
REMARK SMILES IDX 25 76 11 77 23 78 12 79 24 80 13 81 14 82 15 83 16 84 17 85
REMARK SMILES IDX 18 86 22 87 19 88 21 89 20 90
REMARK H PARENT 82 22 50 33
REMARK Flexibility Score: inf
ROOT
ATOM      1  C   UNL A   1      31.810  29.378  24.770  1.00  0.00     0.275 C 
ENDROOT
BRANCH   1   2
ATOM      2  O   UNL A   1      33.001  29.924  25.361  1.00  0.00    -0.458 OA
BRANCH   2   3
ATOM      3  C   UNL A   1      33.096  30.623  26.519  1.00  0.00     0.338 C 
ATOM      4  O   UNL A   1      32.245  31.475  26.767  1.00  0.00    -0.246 OA
BRANCH   3   5
ATOM      5  C   UNL A   1      34.326  30.585  27.374  1.00  0.00     0.060 A 
ATOM      6  C   UNL A   1      35.194  31.649  27.626  1.00  0.00     0.016 A 
ATOM      7  C   UNL A   1      34.629  29.340  27.957  1.00  0.00     0.016 A 
ATOM      8  C   UNL A   1      36.294  31.500  28.481  1.00  0.00     0.010 A 
ATOM      9  C   UNL A   1      35.709  29.192  28.831  1.00  0.00     0.010 A 
ATOM     10  C   UNL A   1      36.555  30.275  29.096  1.00  0.00    -0.014 A 
BRANCH  10  11
ATOM     11  C   UNL A   1      37.804  30.068  29.866  1.00  0.00     0.031 A 
ATOM     12  C   UNL A   1      38.846  29.152  29.289  1.00  0.00     0.074 A 
ATOM     13  C   UNL A   1      38.016  30.694  31.038  1.00  0.00     0.049 A 
ATOM     14  N   UNL A   1      39.976  28.749  29.804  1.00  0.00    -0.248 NA
ATOM     15  C   UNL A   1      38.578  28.630  27.938  1.00  0.00     0.031 C 
ATOM     16  C   UNL A   1      37.107  31.656  31.663  1.00  0.00     0.029 A 
ATOM     17  N   UNL A   1      39.056  30.597  31.928  1.00  0.00    -0.354 N 
ATOM     18  C   UNL A   1      40.562  27.946  28.835  1.00  0.00     0.074 A 
ATOM     19  C   UNL A   1      39.634  27.861  27.730  1.00  0.00     0.031 C 
ATOM     20  C   UNL A   1      37.600  32.013  32.863  1.00  0.00     0.029 A 
ATOM     21  C   UNL A   1      38.853  31.302  33.092  1.00  0.00     0.049 A 
ATOM     22  H   UNL A   1      39.870  30.073  31.750  1.00  0.00     0.167 HD
ATOM     23  C   UNL A   1      41.784  27.366  28.845  1.00  0.00     0.034 A 
ATOM     24  C   UNL A   1      39.587  31.346  34.222  1.00  0.00     0.034 A 
ATOM     25  C   UNL A   1      42.694  27.446  29.954  1.00  0.00     0.049 A 
ATOM     26  C   UNL A   1      40.878  30.569  34.275  1.00  0.00     0.074 A 
ATOM     27  C   UNL A   1      43.953  26.890  30.081  1.00  0.00     0.029 A 
ATOM     28  N   UNL A   1      42.433  28.128  31.135  1.00  0.00    -0.354 N 
ATOM     29  N   UNL A   1      41.421  29.808  33.353  1.00  0.00    -0.248 NA
ATOM     30  C   UNL A   1      41.665  30.672  35.512  1.00  0.00     0.031 C 
ATOM     31  C   UNL A   1      44.439  27.205  31.356  1.00  0.00     0.029 A 
ATOM     32  C   UNL A   1      43.502  27.997  32.003  1.00  0.00     0.049 A 
ATOM     33  H   UNL A   1      41.608  28.631  31.327  1.00  0.00     0.167 HD
ATOM     34  C   UNL A   1      42.631  29.374  33.883  1.00  0.00     0.074 A 
ATOM     35  C   UNL A   1      42.736  29.951  35.208  1.00  0.00     0.031 C 
ATOM     36  C   UNL A   1      43.581  28.586  33.318  1.00  0.00     0.034 A 
BRANCH  23  37
ATOM     37  C   UNL A   1      42.176  26.596  27.614  1.00  0.00     0.023 A 
ATOM     38  C   UNL A   1      41.886  25.226  27.499  1.00  0.00     0.031 A 
ATOM     39  C   UNL A   1      42.898  27.214  26.581  1.00  0.00     0.131 A 
ATOM     40  C   UNL A   1      42.374  24.500  26.404  1.00  0.00     0.055 A 
ATOM     41  C   UNL A   1      43.325  26.499  25.461  1.00  0.00     0.041 A 
ATOM     42  F   UNL A   1      43.222  28.515  26.657  1.00  0.00    -0.206 F 
ATOM     43  C   UNL A   1      43.073  25.132  25.373  1.00  0.00     0.022 A 
BRANCH  40  44
ATOM     44  S   UNL A   1      42.166  22.698  26.389  1.00  0.00     0.124 S 
ATOM     45  O   UNL A   1      42.654  22.358  25.055  1.00  0.00    -0.237 OA
ATOM     46  O   UNL A   1      43.004  22.267  27.502  1.00  0.00    -0.237 OA
ATOM     47  O   UNL A   1      40.730  22.519  26.589  1.00  0.00    -0.744 OA
ENDBRANCH  40  44
ENDBRANCH  23  37
BRANCH  24  48
ATOM     48  C   UNL A   1      39.115  32.120  35.402  1.00  0.00     0.023 A 
ATOM     49  C   UNL A   1      38.448  31.496  36.468  1.00  0.00     0.031 A 
ATOM     50  C   UNL A   1      39.295  33.514  35.460  1.00  0.00     0.131 A 
ATOM     51  C   UNL A   1      37.957  32.268  37.533  1.00  0.00     0.055 A 
ATOM     52  C   UNL A   1      38.831  34.274  36.535  1.00  0.00     0.041 A 
ATOM     53  F   UNL A   1      39.934  34.155  34.470  1.00  0.00    -0.206 F 
ATOM     54  C   UNL A   1      38.149  33.653  37.576  1.00  0.00     0.022 A 
BRANCH  51  55
ATOM     55  S   UNL A   1      37.029  31.442  38.856  1.00  0.00     0.124 S 
ATOM     56  O   UNL A   1      35.790  32.212  38.878  1.00  0.00    -0.237 OA
ATOM     57  O   UNL A   1      36.928  30.078  38.349  1.00  0.00    -0.237 OA
ATOM     58  O   UNL A   1      37.887  31.604  40.028  1.00  0.00    -0.744 OA
ENDBRANCH  51  55
ENDBRANCH  24  48
BRANCH  36  59
ATOM     59  C   UNL A   1      44.836  28.350  34.110  1.00  0.00     0.023 A 
ATOM     60  C   UNL A   1      44.971  27.242  34.961  1.00  0.00     0.031 A 
ATOM     61  C   UNL A   1      45.923  29.231  33.976  1.00  0.00     0.131 A 
ATOM     62  C   UNL A   1      46.164  27.057  35.672  1.00  0.00     0.055 A 
ATOM     63  C   UNL A   1      47.124  29.018  34.652  1.00  0.00     0.041 A 
ATOM     64  F   UNL A   1      45.839  30.302  33.171  1.00  0.00    -0.206 F 
ATOM     65  C   UNL A   1      47.247  27.928  35.509  1.00  0.00     0.022 A 
BRANCH  62  66
ATOM     66  S   UNL A   1      46.281  25.674  36.837  1.00  0.00     0.124 S 
ATOM     67  O   UNL A   1      47.534  25.045  36.433  1.00  0.00    -0.237 OA
ATOM     68  O   UNL A   1      46.295  26.349  38.131  1.00  0.00    -0.237 OA
ATOM     69  O   UNL A   1      45.077  24.892  36.563  1.00  0.00    -0.744 OA
ENDBRANCH  62  66
ENDBRANCH  36  59
ENDBRANCH  10  11
ENDBRANCH   3   5
ENDBRANCH   2   3
ENDBRANCH   1   2
BRANCH   1  70
ATOM     70  C   UNL A   1      32.064  28.722  23.412  1.00  0.00     0.275 C 
BRANCH  70  71
ATOM     71  O   UNL A   1      32.118  27.290  23.492  1.00  0.00    -0.458 OA
BRANCH  71  72
ATOM     72  C   UNL A   1      33.139  26.712  22.810  1.00  0.00     0.338 C 
ATOM     73  O   UNL A   1      33.941  27.253  22.068  1.00  0.00    -0.246 OA
BRANCH  72  74
ATOM     74  C   UNL A   1      33.252  25.309  23.233  1.00  0.00     0.063 A 
ATOM     75  C   UNL A   1      32.550  24.288  22.588  1.00  0.00     0.017 A 
ATOM     76  C   UNL A   1      34.059  25.032  24.335  1.00  0.00     0.056 A 
ATOM     77  C   UNL A   1      32.664  22.977  23.062  1.00  0.00     0.024 A 
ATOM     78  C   UNL A   1      34.096  23.741  24.850  1.00  0.00     0.142 A 
ATOM     79  C   UNL A   1      33.430  22.708  24.208  1.00  0.00     0.103 A 
ATOM     80  F   UNL A   1      34.741  23.553  26.008  1.00  0.00    -0.206 F 
BRANCH  79  81
ATOM     81  S   UNL A   1      33.482  21.043  24.802  1.00  0.00     0.188 S 
ATOM     82  O   UNL A   1      34.867  20.647  24.619  1.00  0.00    -0.223 OA
ATOM     83  O   UNL A   1      32.900  21.064  26.134  1.00  0.00    -0.223 OA
BRANCH  81  84
ATOM     84  C   UNL A   1      32.538  19.954  23.803  1.00  0.00     0.219 C 
BRANCH  84  85
ATOM     85  C   UNL A   1      32.757  18.518  24.149  1.00  0.00     0.143 A 
ATOM     86  N   UNL A   1      33.658  17.785  23.469  1.00  0.00    -0.240 NA
ATOM     87  N   UNL A   1      32.184  18.095  25.297  1.00  0.00    -0.240 NA
ATOM     88  C   UNL A   1      33.987  16.580  23.965  1.00  0.00     0.115 A 
ATOM     89  C   UNL A   1      32.537  16.876  25.747  1.00  0.00     0.115 A 
ATOM     90  C   UNL A   1      33.455  16.070  25.120  1.00  0.00     0.040 A 
ENDBRANCH  84  85
ENDBRANCH  81  84
ENDBRANCH  79  81
ENDBRANCH  72  74
ENDBRANCH  71  72
ENDBRANCH  70  71
ENDBRANCH   1  70
TORSDOF 17
ENDMDL
