MODEL 1
REMARK VINA RESULT:     -13.3      0.000      0.000
REMARK SMILES Cc1ccc([C@H]2CC(c3cccs3)=NN2C(=O)CCC(=O)OCCOC(=O)c2ccc(-c3c4nc(c(-c5cc(S(=O)(=O)[O-])ccc5F)c5ccc([nH]5)c(-c5cc(S(=O)(=O)[O-])ccc5F)c5nc(c(-c6cc(S(=O)(=O)[O-])ccc6F)c6ccc3[nH]6)C=C5)C=C4)cc2)o1
REMARK SMILES IDX 23 1 22 2 20 3 21 4 19 5 18 6 16 7 17 8 15 9 6 10 7 11 8 12
REMARK SMILES IDX 14 13 5 14 1 15 2 16 3 17 91 18 4 19 9 20 10 21 13 22 11 23
REMARK SMILES IDX 12 24 24 25 25 26 26 27 27 28 28 29 29 30 90 31 30 32 89 33
REMARK SMILES IDX 31 34 32 35 33 36 83 37 34 38 88 39 82 40 84 41 35 42 87 43
REMARK SMILES IDX 81 44 80 45 36 47 68 48 48 49 67 50 49 51 52 52 66 53 85 54
REMARK SMILES IDX 50 55 51 56 65 58 86 59 53 60 37 61 38 62 46 63 39 64 45 65
REMARK SMILES IDX 47 66 44 67 40 68 41 69 42 70 43 71 69 72 70 73 78 74 71 75
REMARK SMILES IDX 77 76 79 77 76 78 72 79 73 80 74 81 75 82 54 83 55 84 63 85
REMARK SMILES IDX 56 86 62 87 64 88 61 89 57 90 58 91 59 92 60 93
REMARK H PARENT 84 46 52 57
REMARK Flexibility Score: inf
ROOT
ATOM      1  C   UNL A   1      31.477  30.979  26.584  1.00  0.00     0.274 C 
ENDROOT
BRANCH   1   2
ATOM      2  O   UNL A   1      32.283  29.906  25.721  1.00  0.00    -0.462 OA
BRANCH   2   3
ATOM      3  C   UNL A   1      33.467  29.141  25.839  1.00  0.00     0.306 C 
ATOM      4  O   UNL A   1      33.885  28.807  26.948  1.00  0.00    -0.252 OA
BRANCH   3   5
ATOM      5  C   UNL A   1      34.084  28.333  24.450  1.00  0.00     0.132 C 
BRANCH   5   6
ATOM      6  C   UNL A   1      33.911  28.626  22.926  1.00  0.00     0.114 C 
BRANCH   6   7
ATOM      7  C   UNL A   1      33.314  27.427  22.342  1.00  0.00     0.243 C 
ATOM      8  O   UNL A   1      33.907  26.695  21.547  1.00  0.00    -0.273 OA
BRANCH   7   9
ATOM      9  N   UNL A   1      31.979  27.452  22.592  1.00  0.00    -0.222 N 
ATOM     10  C   UNL A   1      31.096  26.337  23.137  1.00  0.00     0.183 C 
ATOM     11  C   UNL A   1      29.734  27.128  22.853  1.00  0.00     0.095 C 
ATOM     12  C   UNL A   1      30.142  28.585  22.765  1.00  0.00     0.081 C 
ATOM     13  N   UNL A   1      31.389  28.712  22.467  1.00  0.00    -0.173 NA
BRANCH  10  14
ATOM     14  C   UNL A   1      31.558  25.454  24.676  1.00  0.00     0.129 A 
ATOM     15  C   UNL A   1      30.254  22.642  26.593  1.00  0.00     0.087 C 
ATOM     16  C   UNL A   1      31.133  23.735  26.133  1.00  0.00     0.101 A 
ATOM     17  C   UNL A   1      31.867  24.591  26.871  1.00  0.00     0.045 A 
ATOM     18  O   UNL A   1      31.143  24.134  24.814  1.00  0.00    -0.464 OA
ATOM     19  C   UNL A   1      32.142  25.637  25.974  1.00  0.00     0.048 A 
ENDBRANCH  10  14
BRANCH  12  20
ATOM     20  C   UNL A   1      29.305  29.753  23.036  1.00  0.00     0.050 A 
ATOM     21  C   UNL A   1      29.614  30.907  23.750  1.00  0.00     0.022 A 
ATOM     22  S   UNL A   1      27.783  29.931  22.267  1.00  0.00    -0.142 S 
ATOM     23  C   UNL A   1      28.589  31.904  23.704  1.00  0.00     0.012 A 
ATOM     24  C   UNL A   1      27.544  31.512  22.901  1.00  0.00     0.065 A 
ENDBRANCH  12  20
ENDBRANCH   7   9
ENDBRANCH   6   7
ENDBRANCH   5   6
ENDBRANCH   3   5
ENDBRANCH   2   3
ENDBRANCH   1   2
BRANCH   1  25
ATOM     25  C   UNL A   1      31.728  32.746  26.490  1.00  0.00     0.275 C 
BRANCH  25  26
ATOM     26  O   UNL A   1      32.147  33.749  27.583  1.00  0.00    -0.458 OA
BRANCH  26  27
ATOM     27  C   UNL A   1      33.351  34.323  28.014  1.00  0.00     0.338 C 
ATOM     28  O   UNL A   1      33.476  35.508  28.284  1.00  0.00    -0.246 OA
BRANCH  27  29
ATOM     29  C   UNL A   1      34.533  33.306  28.274  1.00  0.00     0.060 A 
ATOM     30  C   UNL A   1      35.910  33.659  28.196  1.00  0.00     0.016 A 
ATOM     31  C   UNL A   1      34.282  32.012  28.729  1.00  0.00     0.016 A 
ATOM     32  C   UNL A   1      36.937  32.908  28.849  1.00  0.00     0.010 A 
ATOM     33  C   UNL A   1      35.326  31.212  29.290  1.00  0.00     0.010 A 
ATOM     34  C   UNL A   1      36.651  31.680  29.450  1.00  0.00    -0.014 A 
BRANCH  34  35
ATOM     35  C   UNL A   1      37.715  30.795  30.074  1.00  0.00     0.031 A 
ATOM     36  C   UNL A   1      38.051  31.052  31.523  1.00  0.00     0.074 A 
ATOM     37  C   UNL A   1      38.427  29.833  29.432  1.00  0.00     0.049 A 
ATOM     38  N   UNL A   1      39.045  30.611  32.251  1.00  0.00    -0.248 NA
ATOM     39  C   UNL A   1      37.128  31.945  32.234  1.00  0.00     0.031 C 
ATOM     40  C   UNL A   1      38.187  29.333  28.080  1.00  0.00     0.029 A 
ATOM     41  N   UNL A   1      39.538  29.104  29.835  1.00  0.00    -0.354 N 
ATOM     42  C   UNL A   1      38.877  31.189  33.507  1.00  0.00     0.074 A 
ATOM     43  C   UNL A   1      37.705  32.036  33.421  1.00  0.00     0.031 C 
ATOM     44  C   UNL A   1      39.148  28.451  27.742  1.00  0.00     0.029 A 
ATOM     45  C   UNL A   1      40.094  28.311  28.846  1.00  0.00     0.049 A 
ATOM     46  H   UNL A   1      39.901  29.149  30.749  1.00  0.00     0.167 HD
ATOM     47  C   UNL A   1      39.619  31.033  34.631  1.00  0.00     0.034 A 
ATOM     48  C   UNL A   1      41.231  27.571  28.809  1.00  0.00     0.034 A 
ATOM     49  C   UNL A   1      40.799  30.210  34.724  1.00  0.00     0.049 A 
ATOM     50  C   UNL A   1      42.122  27.512  30.035  1.00  0.00     0.074 A 
ATOM     51  C   UNL A   1      41.617  30.001  35.822  1.00  0.00     0.029 A 
ATOM     52  N   UNL A   1      41.342  29.471  33.682  1.00  0.00    -0.354 N 
ATOM     53  N   UNL A   1      41.955  28.081  31.205  1.00  0.00    -0.248 NA
ATOM     54  C   UNL A   1      43.350  26.704  29.937  1.00  0.00     0.031 C 
ATOM     55  C   UNL A   1      42.695  29.205  35.424  1.00  0.00     0.029 A 
ATOM     56  C   UNL A   1      42.504  28.837  34.104  1.00  0.00     0.049 A 
ATOM     57  H   UNL A   1      40.961  29.406  32.778  1.00  0.00     0.167 HD
ATOM     58  C   UNL A   1      43.030  27.662  31.992  1.00  0.00     0.074 A 
ATOM     59  C   UNL A   1      43.835  26.789  31.167  1.00  0.00     0.031 C 
ATOM     60  C   UNL A   1      43.313  27.966  33.284  1.00  0.00     0.034 A 
BRANCH  47  61
ATOM     61  C   UNL A   1      39.199  31.836  35.839  1.00  0.00     0.023 A 
ATOM     62  C   UNL A   1      38.483  31.252  36.899  1.00  0.00     0.031 A 
ATOM     63  C   UNL A   1      39.469  33.214  35.906  1.00  0.00     0.131 A 
ATOM     64  C   UNL A   1      37.985  32.058  37.932  1.00  0.00     0.055 A 
ATOM     65  C   UNL A   1      39.051  33.994  36.985  1.00  0.00     0.041 A 
ATOM     66  F   UNL A   1      40.127  33.830  34.911  1.00  0.00    -0.206 F 
ATOM     67  C   UNL A   1      38.287  33.420  37.997  1.00  0.00     0.022 A 
BRANCH  64  68
ATOM     68  S   UNL A   1      36.794  31.334  39.092  1.00  0.00     0.124 S 
ATOM     69  O   UNL A   1      36.455  30.082  38.421  1.00  0.00    -0.237 OA
ATOM     70  O   UNL A   1      37.579  31.213  40.316  1.00  0.00    -0.237 OA
ATOM     71  O   UNL A   1      35.717  32.321  39.137  1.00  0.00    -0.744 OA
ENDBRANCH  64  68
ENDBRANCH  47  61
BRANCH  48  72
ATOM     72  C   UNL A   1      41.659  26.851  27.559  1.00  0.00     0.023 A 
ATOM     73  C   UNL A   1      41.545  25.454  27.433  1.00  0.00     0.031 A 
ATOM     74  C   UNL A   1      42.292  27.545  26.509  1.00  0.00     0.131 A 
ATOM     75  C   UNL A   1      42.092  24.795  26.315  1.00  0.00     0.055 A 
ATOM     76  C   UNL A   1      42.785  26.892  25.375  1.00  0.00     0.041 A 
ATOM     77  F   UNL A   1      42.452  28.876  26.575  1.00  0.00    -0.206 F 
ATOM     78  C   UNL A   1      42.697  25.507  25.278  1.00  0.00     0.022 A 
BRANCH  75  79
ATOM     79  S   UNL A   1      42.093  22.977  26.275  1.00  0.00     0.124 S 
ATOM     80  O   UNL A   1      40.665  22.681  26.250  1.00  0.00    -0.237 OA
ATOM     81  O   UNL A   1      42.829  22.704  25.046  1.00  0.00    -0.237 OA
ATOM     82  O   UNL A   1      42.786  22.609  27.508  1.00  0.00    -0.744 OA
ENDBRANCH  75  79
ENDBRANCH  48  72
BRANCH  60  83
ATOM     83  C   UNL A   1      44.515  27.302  33.918  1.00  0.00     0.023 A 
ATOM     84  C   UNL A   1      44.429  26.057  34.566  1.00  0.00     0.031 A 
ATOM     85  C   UNL A   1      45.776  27.928  33.864  1.00  0.00     0.131 A 
ATOM     86  C   UNL A   1      45.568  25.504  35.176  1.00  0.00     0.055 A 
ATOM     87  C   UNL A   1      46.916  27.343  34.416  1.00  0.00     0.041 A 
ATOM     88  F   UNL A   1      45.920  29.120  33.264  1.00  0.00    -0.206 F 
ATOM     89  C   UNL A   1      46.814  26.128  35.087  1.00  0.00     0.022 A 
BRANCH  86  90
ATOM     90  S   UNL A   1      45.382  23.997  36.170  1.00  0.00     0.124 S 
ATOM     91  O   UNL A   1      46.712  23.406  36.078  1.00  0.00    -0.237 OA
ATOM     92  O   UNL A   1      45.010  24.529  37.478  1.00  0.00    -0.237 OA
ATOM     93  O   UNL A   1      44.325  23.259  35.481  1.00  0.00    -0.744 OA
ENDBRANCH  86  90
ENDBRANCH  60  83
ENDBRANCH  34  35
ENDBRANCH  27  29
ENDBRANCH  26  27
ENDBRANCH  25  26
ENDBRANCH   1  25
TORSDOF 19
ENDMDL
MODEL 2
REMARK VINA RESULT:     -13.0      2.945      8.690
REMARK SMILES Cc1ccc([C@H]2CC(c3cccs3)=NN2C(=O)CCC(=O)OCCOC(=O)c2ccc(-c3c4nc(c(-c5cc(S(=O)(=O)[O-])ccc5F)c5ccc([nH]5)c(-c5cc(S(=O)(=O)[O-])ccc5F)c5nc(c(-c6cc(S(=O)(=O)[O-])ccc6F)c6ccc3[nH]6)C=C5)C=C4)cc2)o1
REMARK SMILES IDX 23 1 22 2 20 3 21 4 19 5 18 6 16 7 17 8 15 9 6 10 7 11 8 12
REMARK SMILES IDX 14 13 5 14 1 15 2 16 3 17 91 18 4 19 9 20 10 21 13 22 11 23
REMARK SMILES IDX 12 24 24 25 25 26 26 27 27 28 28 29 29 30 90 31 30 32 89 33
REMARK SMILES IDX 31 34 32 35 33 36 83 37 34 38 88 39 82 40 84 41 35 42 87 43
REMARK SMILES IDX 81 44 80 45 36 47 68 48 48 49 67 50 49 51 52 52 66 53 85 54
REMARK SMILES IDX 50 55 51 56 65 58 86 59 53 60 37 61 38 62 46 63 39 64 45 65
REMARK SMILES IDX 47 66 44 67 40 68 41 69 42 70 43 71 69 72 70 73 78 74 71 75
REMARK SMILES IDX 77 76 79 77 76 78 72 79 73 80 74 81 75 82 54 83 55 84 63 85
REMARK SMILES IDX 56 86 62 87 64 88 61 89 57 90 58 91 59 92 60 93
REMARK H PARENT 84 46 52 57
REMARK Flexibility Score: inf
ROOT
ATOM      1  C   UNL A   1      30.652  27.741  24.317  1.00  0.00     0.274 C 
ENDROOT
BRANCH   1   2
ATOM      2  O   UNL A   1      31.426  26.353  24.182  1.00  0.00    -0.462 OA
BRANCH   2   3
ATOM      3  C   UNL A   1      31.188  24.987  24.465  1.00  0.00     0.306 C 
ATOM      4  O   UNL A   1      30.580  24.659  25.484  1.00  0.00    -0.252 OA
BRANCH   3   5
ATOM      5  C   UNL A   1      31.370  23.827  23.206  1.00  0.00     0.132 C 
BRANCH   5   6
ATOM      6  C   UNL A   1      32.645  23.174  22.585  1.00  0.00     0.114 C 
BRANCH   6   7
ATOM      7  C   UNL A   1      32.571  21.748  22.898  1.00  0.00     0.243 C 
ATOM      8  O   UNL A   1      31.758  20.983  22.377  1.00  0.00    -0.273 OA
BRANCH   7   9
ATOM      9  N   UNL A   1      33.311  21.520  24.014  1.00  0.00    -0.222 N 
ATOM     10  C   UNL A   1      33.206  20.364  25.001  1.00  0.00     0.183 C 
ATOM     11  C   UNL A   1      34.208  21.030  26.056  1.00  0.00     0.095 C 
ATOM     12  C   UNL A   1      35.016  22.026  25.249  1.00  0.00     0.081 C 
ATOM     13  N   UNL A   1      34.396  22.385  24.178  1.00  0.00    -0.173 NA
BRANCH  10  14
ATOM     14  C   UNL A   1      33.225  18.630  24.405  1.00  0.00     0.129 A 
ATOM     15  C   UNL A   1      32.293  15.372  25.749  1.00  0.00     0.087 C 
ATOM     16  C   UNL A   1      32.726  16.429  24.814  1.00  0.00     0.101 A 
ATOM     17  C   UNL A   1      33.651  16.360  23.836  1.00  0.00     0.045 A 
ATOM     18  O   UNL A   1      32.328  17.738  24.983  1.00  0.00    -0.464 OA
ATOM     19  C   UNL A   1      33.946  17.709  23.574  1.00  0.00     0.048 A 
ENDBRANCH  10  14
BRANCH  12  20
ATOM     20  C   UNL A   1      36.361  22.517  25.545  1.00  0.00     0.050 A 
ATOM     21  C   UNL A   1      36.748  23.722  26.123  1.00  0.00     0.022 A 
ATOM     22  S   UNL A   1      37.721  21.485  25.378  1.00  0.00    -0.142 S 
ATOM     23  C   UNL A   1      38.153  23.812  26.380  1.00  0.00     0.012 A 
ATOM     24  C   UNL A   1      38.800  22.644  26.047  1.00  0.00     0.065 A 
ENDBRANCH  12  20
ENDBRANCH   7   9
ENDBRANCH   6   7
ENDBRANCH   5   6
ENDBRANCH   3   5
ENDBRANCH   2   3
ENDBRANCH   1   2
BRANCH   1  25
ATOM     25  C   UNL A   1      31.405  29.270  24.855  1.00  0.00     0.275 C 
BRANCH  25  26
ATOM     26  O   UNL A   1      32.092  29.624  26.189  1.00  0.00    -0.458 OA
BRANCH  26  27
ATOM     27  C   UNL A   1      32.606  30.786  26.780  1.00  0.00     0.338 C 
ATOM     28  O   UNL A   1      31.940  31.788  26.991  1.00  0.00    -0.246 OA
BRANCH  27  29
ATOM     29  C   UNL A   1      34.096  30.682  27.299  1.00  0.00     0.060 A 
ATOM     30  C   UNL A   1      34.897  31.811  27.630  1.00  0.00     0.016 A 
ATOM     31  C   UNL A   1      34.672  29.446  27.589  1.00  0.00     0.016 A 
ATOM     32  C   UNL A   1      36.030  31.724  28.499  1.00  0.00     0.010 A 
ATOM     33  C   UNL A   1      35.865  29.353  28.371  1.00  0.00     0.010 A 
ATOM     34  C   UNL A   1      36.512  30.483  28.922  1.00  0.00    -0.014 A 
BRANCH  34  35
ATOM     35  C   UNL A   1      37.764  30.325  29.765  1.00  0.00     0.031 A 
ATOM     36  C   UNL A   1      38.848  29.429  29.213  1.00  0.00     0.074 A 
ATOM     37  C   UNL A   1      37.973  30.869  30.991  1.00  0.00     0.049 A 
ATOM     38  N   UNL A   1      39.916  28.942  29.790  1.00  0.00    -0.248 NA
ATOM     39  C   UNL A   1      38.680  29.030  27.810  1.00  0.00     0.031 C 
ATOM     40  C   UNL A   1      37.127  31.857  31.657  1.00  0.00     0.029 A 
ATOM     41  N   UNL A   1      38.975  30.646  31.926  1.00  0.00    -0.354 N 
ATOM     42  C   UNL A   1      40.543  28.160  28.823  1.00  0.00     0.074 A 
ATOM     43  C   UNL A   1      39.710  28.217  27.640  1.00  0.00     0.031 C 
ATOM     44  C   UNL A   1      37.592  32.095  32.899  1.00  0.00     0.029 A 
ATOM     45  C   UNL A   1      38.777  31.277  33.142  1.00  0.00     0.049 A 
ATOM     46  H   UNL A   1      39.762  30.084  31.739  1.00  0.00     0.167 HD
ATOM     47  C   UNL A   1      41.702  27.460  28.901  1.00  0.00     0.034 A 
ATOM     48  C   UNL A   1      39.444  31.202  34.321  1.00  0.00     0.034 A 
ATOM     49  C   UNL A   1      42.529  27.378  30.079  1.00  0.00     0.049 A 
ATOM     50  C   UNL A   1      40.666  30.310  34.432  1.00  0.00     0.074 A 
ATOM     51  C   UNL A   1      43.715  26.685  30.249  1.00  0.00     0.029 A 
ATOM     52  N   UNL A   1      42.255  27.993  31.293  1.00  0.00    -0.354 N 
ATOM     53  N   UNL A   1      41.230  29.565  33.512  1.00  0.00    -0.248 NA
ATOM     54  C   UNL A   1      41.346  30.257  35.738  1.00  0.00     0.031 C 
ATOM     55  C   UNL A   1      44.115  26.814  31.583  1.00  0.00     0.029 A 
ATOM     56  C   UNL A   1      43.231  27.664  32.224  1.00  0.00     0.049 A 
ATOM     57  H   UNL A   1      41.482  28.577  31.467  1.00  0.00     0.167 HD
ATOM     58  C   UNL A   1      42.352  28.994  34.115  1.00  0.00     0.074 A 
ATOM     59  C   UNL A   1      42.390  29.485  35.475  1.00  0.00     0.031 C 
ATOM     60  C   UNL A   1      43.272  28.150  33.584  1.00  0.00     0.034 A 
BRANCH  47  61
ATOM     61  C   UNL A   1      42.102  26.669  27.679  1.00  0.00     0.023 A 
ATOM     62  C   UNL A   1      41.998  25.267  27.643  1.00  0.00     0.031 A 
ATOM     63  C   UNL A   1      42.647  27.319  26.558  1.00  0.00     0.131 A 
ATOM     64  C   UNL A   1      42.515  24.558  26.549  1.00  0.00     0.055 A 
ATOM     65  C   UNL A   1      43.074  26.613  25.433  1.00  0.00     0.041 A 
ATOM     66  F   UNL A   1      42.795  28.653  26.547  1.00  0.00    -0.206 F 
ATOM     67  C   UNL A   1      43.027  25.222  25.432  1.00  0.00     0.022 A 
BRANCH  64  68
ATOM     68  S   UNL A   1      42.666  22.755  26.685  1.00  0.00     0.124 S 
ATOM     69  O   UNL A   1      42.179  22.320  25.378  1.00  0.00    -0.237 OA
ATOM     70  O   UNL A   1      44.093  22.577  26.928  1.00  0.00    -0.237 OA
ATOM     71  O   UNL A   1      41.794  22.424  27.810  1.00  0.00    -0.744 OA
ENDBRANCH  64  68
ENDBRANCH  47  61
BRANCH  48  72
ATOM     72  C   UNL A   1      38.966  31.942  35.542  1.00  0.00     0.023 A 
ATOM     73  C   UNL A   1      38.349  31.275  36.617  1.00  0.00     0.031 A 
ATOM     74  C   UNL A   1      39.025  33.347  35.601  1.00  0.00     0.131 A 
ATOM     75  C   UNL A   1      37.779  32.011  37.675  1.00  0.00     0.055 A 
ATOM     76  C   UNL A   1      38.507  34.071  36.680  1.00  0.00     0.041 A 
ATOM     77  F   UNL A   1      39.583  34.046  34.599  1.00  0.00    -0.206 F 
ATOM     78  C   UNL A   1      37.868  33.403  37.719  1.00  0.00     0.022 A 
BRANCH  75  79
ATOM     79  S   UNL A   1      36.827  31.131  38.950  1.00  0.00     0.124 S 
ATOM     80  O   UNL A   1      35.608  31.927  39.012  1.00  0.00    -0.237 OA
ATOM     81  O   UNL A   1      36.699  29.801  38.365  1.00  0.00    -0.237 OA
ATOM     82  O   UNL A   1      37.685  31.209  40.131  1.00  0.00    -0.744 OA
ENDBRANCH  75  79
ENDBRANCH  48  72
BRANCH  60  83
ATOM     83  C   UNL A   1      44.443  27.745  34.451  1.00  0.00     0.023 A 
ATOM     84  C   UNL A   1      45.621  28.509  34.526  1.00  0.00     0.031 A 
ATOM     85  C   UNL A   1      44.372  26.571  35.227  1.00  0.00     0.131 A 
ATOM     86  C   UNL A   1      46.697  28.065  35.314  1.00  0.00     0.055 A 
ATOM     87  C   UNL A   1      45.419  26.170  36.058  1.00  0.00     0.041 A 
ATOM     88  F   UNL A   1      43.275  25.797  35.194  1.00  0.00    -0.206 F 
ATOM     89  C   UNL A   1      46.595  26.912  36.097  1.00  0.00     0.022 A 
BRANCH  86  90
ATOM     90  S   UNL A   1      48.269  28.967  35.234  1.00  0.00     0.124 S 
ATOM     91  O   UNL A   1      49.129  28.017  34.536  1.00  0.00    -0.237 OA
ATOM     92  O   UNL A   1      47.905  30.166  34.486  1.00  0.00    -0.237 OA
ATOM     93  O   UNL A   1      48.607  29.193  36.638  1.00  0.00    -0.744 OA
ENDBRANCH  86  90
ENDBRANCH  60  83
ENDBRANCH  34  35
ENDBRANCH  27  29
ENDBRANCH  26  27
ENDBRANCH  25  26
ENDBRANCH   1  25
TORSDOF 19
ENDMDL
MODEL 3
REMARK VINA RESULT:     -12.9      2.972      8.680
REMARK SMILES Cc1ccc([C@H]2CC(c3cccs3)=NN2C(=O)CCC(=O)OCCOC(=O)c2ccc(-c3c4nc(c(-c5cc(S(=O)(=O)[O-])ccc5F)c5ccc([nH]5)c(-c5cc(S(=O)(=O)[O-])ccc5F)c5nc(c(-c6cc(S(=O)(=O)[O-])ccc6F)c6ccc3[nH]6)C=C5)C=C4)cc2)o1
REMARK SMILES IDX 23 1 22 2 20 3 21 4 19 5 18 6 16 7 17 8 15 9 6 10 7 11 8 12
REMARK SMILES IDX 14 13 5 14 1 15 2 16 3 17 91 18 4 19 9 20 10 21 13 22 11 23
REMARK SMILES IDX 12 24 24 25 25 26 26 27 27 28 28 29 29 30 90 31 30 32 89 33
REMARK SMILES IDX 31 34 32 35 33 36 83 37 34 38 88 39 82 40 84 41 35 42 87 43
REMARK SMILES IDX 81 44 80 45 36 47 68 48 48 49 67 50 49 51 52 52 66 53 85 54
REMARK SMILES IDX 50 55 51 56 65 58 86 59 53 60 37 61 38 62 46 63 39 64 45 65
REMARK SMILES IDX 47 66 44 67 40 68 41 69 42 70 43 71 69 72 70 73 78 74 71 75
REMARK SMILES IDX 77 76 79 77 76 78 72 79 73 80 74 81 75 82 54 83 55 84 63 85
REMARK SMILES IDX 56 86 62 87 64 88 61 89 57 90 58 91 59 92 60 93
REMARK H PARENT 84 46 52 57
REMARK Flexibility Score: inf
ROOT
ATOM      1  C   UNL A   1      30.978  27.494  24.876  1.00  0.00     0.274 C 
ENDROOT
BRANCH   1   2
ATOM      2  O   UNL A   1      31.861  26.502  23.992  1.00  0.00    -0.462 OA
BRANCH   2   3
ATOM      3  C   UNL A   1      32.438  25.216  24.119  1.00  0.00     0.306 C 
ATOM      4  O   UNL A   1      32.908  24.848  25.196  1.00  0.00    -0.252 OA
BRANCH   3   5
ATOM      5  C   UNL A   1      32.114  24.030  22.915  1.00  0.00     0.132 C 
BRANCH   5   6
ATOM      6  C   UNL A   1      33.046  22.987  22.219  1.00  0.00     0.114 C 
BRANCH   6   7
ATOM      7  C   UNL A   1      32.675  21.681  22.758  1.00  0.00     0.243 C 
ATOM      8  O   UNL A   1      31.701  21.037  22.362  1.00  0.00    -0.273 OA
BRANCH   7   9
ATOM      9  N   UNL A   1      33.380  21.477  23.902  1.00  0.00    -0.222 N 
ATOM     10  C   UNL A   1      33.212  20.369  24.933  1.00  0.00     0.183 C 
ATOM     11  C   UNL A   1      34.209  21.047  25.985  1.00  0.00     0.095 C 
ATOM     12  C   UNL A   1      35.069  21.981  25.158  1.00  0.00     0.081 C 
ATOM     13  N   UNL A   1      34.488  22.313  24.057  1.00  0.00    -0.173 NA
BRANCH  10  14
ATOM     14  C   UNL A   1      33.189  18.611  24.413  1.00  0.00     0.129 A 
ATOM     15  C   UNL A   1      32.295  15.423  25.937  1.00  0.00     0.087 C 
ATOM     16  C   UNL A   1      32.691  16.434  24.938  1.00  0.00     0.101 A 
ATOM     17  C   UNL A   1      33.567  16.314  23.922  1.00  0.00     0.045 A 
ATOM     18  O   UNL A   1      32.313  17.753  25.070  1.00  0.00    -0.464 OA
ATOM     19  C   UNL A   1      33.861  17.648  23.588  1.00  0.00     0.048 A 
ENDBRANCH  10  14
BRANCH  12  20
ATOM     20  C   UNL A   1      36.423  22.441  25.467  1.00  0.00     0.050 A 
ATOM     21  C   UNL A   1      36.836  23.660  25.994  1.00  0.00     0.022 A 
ATOM     22  S   UNL A   1      37.749  21.356  25.392  1.00  0.00    -0.142 S 
ATOM     23  C   UNL A   1      38.235  23.716  26.287  1.00  0.00     0.012 A 
ATOM     24  C   UNL A   1      38.849  22.511  26.033  1.00  0.00     0.065 A 
ENDBRANCH  12  20
ENDBRANCH   7   9
ENDBRANCH   6   7
ENDBRANCH   5   6
ENDBRANCH   3   5
ENDBRANCH   2   3
ENDBRANCH   1   2
BRANCH   1  25
ATOM     25  C   UNL A   1      31.412  29.193  25.226  1.00  0.00     0.275 C 
BRANCH  25  26
ATOM     26  O   UNL A   1      31.884  29.846  26.540  1.00  0.00    -0.458 OA
BRANCH  26  27
ATOM     27  C   UNL A   1      32.490  31.057  26.900  1.00  0.00     0.338 C 
ATOM     28  O   UNL A   1      31.893  32.122  26.954  1.00  0.00    -0.246 OA
BRANCH  27  29
ATOM     29  C   UNL A   1      33.992  30.948  27.382  1.00  0.00     0.060 A 
ATOM     30  C   UNL A   1      34.803  32.075  27.699  1.00  0.00     0.016 A 
ATOM     31  C   UNL A   1      34.574  29.710  27.650  1.00  0.00     0.016 A 
ATOM     32  C   UNL A   1      35.957  31.981  28.538  1.00  0.00     0.010 A 
ATOM     33  C   UNL A   1      35.786  29.612  28.401  1.00  0.00     0.010 A 
ATOM     34  C   UNL A   1      36.448  30.738  28.942  1.00  0.00    -0.014 A 
BRANCH  34  35
ATOM     35  C   UNL A   1      37.721  30.573  29.752  1.00  0.00     0.031 A 
ATOM     36  C   UNL A   1      38.772  29.648  29.188  1.00  0.00     0.074 A 
ATOM     37  C   UNL A   1      37.974  31.137  30.961  1.00  0.00     0.049 A 
ATOM     38  N   UNL A   1      39.848  29.152  29.744  1.00  0.00    -0.248 NA
ATOM     39  C   UNL A   1      38.558  29.225  27.799  1.00  0.00     0.031 C 
ATOM     40  C   UNL A   1      37.165  32.153  31.631  1.00  0.00     0.029 A 
ATOM     41  N   UNL A   1      38.998  30.914  31.871  1.00  0.00    -0.354 N 
ATOM     42  C   UNL A   1      40.433  28.341  28.776  1.00  0.00     0.074 A 
ATOM     43  C   UNL A   1      39.568  28.390  27.615  1.00  0.00     0.031 C 
ATOM     44  C   UNL A   1      37.669  32.406  32.854  1.00  0.00     0.029 A 
ATOM     45  C   UNL A   1      38.846  31.571  33.081  1.00  0.00     0.049 A 
ATOM     46  H   UNL A   1      39.770  30.335  31.674  1.00  0.00     0.167 HD
ATOM     47  C   UNL A   1      41.581  27.622  28.835  1.00  0.00     0.034 A 
ATOM     48  C   UNL A   1      39.545  31.507  34.241  1.00  0.00     0.034 A 
ATOM     49  C   UNL A   1      42.440  27.548  29.991  1.00  0.00     0.049 A 
ATOM     50  C   UNL A   1      40.754  30.596  34.336  1.00  0.00     0.074 A 
ATOM     51  C   UNL A   1      43.619  26.837  30.141  1.00  0.00     0.029 A 
ATOM     52  N   UNL A   1      42.212  28.191  31.199  1.00  0.00    -0.354 N 
ATOM     53  N   UNL A   1      41.278  29.823  33.415  1.00  0.00    -0.248 NA
ATOM     54  C   UNL A   1      41.470  30.556  35.623  1.00  0.00     0.031 C 
ATOM     55  C   UNL A   1      44.058  26.985  31.460  1.00  0.00     0.029 A 
ATOM     56  C   UNL A   1      43.208  27.862  32.109  1.00  0.00     0.049 A 
ATOM     57  H   UNL A   1      41.455  28.792  31.384  1.00  0.00     0.167 HD
ATOM     58  C   UNL A   1      42.407  29.244  33.997  1.00  0.00     0.074 A 
ATOM     59  C   UNL A   1      42.492  29.761  35.345  1.00  0.00     0.031 C 
ATOM     60  C   UNL A   1      43.297  28.374  33.457  1.00  0.00     0.034 A 
BRANCH  47  61
ATOM     61  C   UNL A   1      41.933  26.800  27.618  1.00  0.00     0.023 A 
ATOM     62  C   UNL A   1      41.882  25.395  27.638  1.00  0.00     0.031 A 
ATOM     63  C   UNL A   1      42.379  27.427  26.441  1.00  0.00     0.131 A 
ATOM     64  C   UNL A   1      42.355  24.665  26.538  1.00  0.00     0.055 A 
ATOM     65  C   UNL A   1      42.760  26.695  25.317  1.00  0.00     0.041 A 
ATOM     66  F   UNL A   1      42.473  28.765  26.373  1.00  0.00    -0.206 F 
ATOM     67  C   UNL A   1      42.768  25.304  25.368  1.00  0.00     0.022 A 
BRANCH  64  68
ATOM     68  S   UNL A   1      42.585  22.876  26.728  1.00  0.00     0.124 S 
ATOM     69  O   UNL A   1      44.013  22.794  27.028  1.00  0.00    -0.237 OA
ATOM     70  O   UNL A   1      41.681  22.556  27.826  1.00  0.00    -0.237 OA
ATOM     71  O   UNL A   1      42.198  22.341  25.424  1.00  0.00    -0.744 OA
ENDBRANCH  64  68
ENDBRANCH  47  61
BRANCH  48  72
ATOM     72  C   UNL A   1      39.115  32.279  35.460  1.00  0.00     0.023 A 
ATOM     73  C   UNL A   1      39.544  33.600  35.690  1.00  0.00     0.031 A 
ATOM     74  C   UNL A   1      38.352  31.663  36.471  1.00  0.00     0.131 A 
ATOM     75  C   UNL A   1      39.249  34.241  36.909  1.00  0.00     0.055 A 
ATOM     76  C   UNL A   1      38.014  32.322  37.657  1.00  0.00     0.041 A 
ATOM     77  F   UNL A   1      37.929  30.397  36.325  1.00  0.00    -0.206 F 
ATOM     78  C   UNL A   1      38.474  33.615  37.887  1.00  0.00     0.022 A 
BRANCH  75  79
ATOM     79  S   UNL A   1      39.975  35.873  37.247  1.00  0.00     0.124 S 
ATOM     80  O   UNL A   1      41.374  35.532  37.477  1.00  0.00    -0.237 OA
ATOM     81  O   UNL A   1      39.683  36.594  36.014  1.00  0.00    -0.237 OA
ATOM     82  O   UNL A   1      39.243  36.335  38.425  1.00  0.00    -0.744 OA
ENDBRANCH  75  79
ENDBRANCH  48  72
BRANCH  60  83
ATOM     83  C   UNL A   1      44.484  27.964  34.299  1.00  0.00     0.023 A 
ATOM     84  C   UNL A   1      44.479  26.801  35.089  1.00  0.00     0.031 A 
ATOM     85  C   UNL A   1      45.650  28.755  34.304  1.00  0.00     0.131 A 
ATOM     86  C   UNL A   1      45.593  26.489  35.886  1.00  0.00     0.055 A 
ATOM     87  C   UNL A   1      46.778  28.406  35.048  1.00  0.00     0.041 A 
ATOM     88  F   UNL A   1      45.714  29.881  33.574  1.00  0.00    -0.206 F 
ATOM     89  C   UNL A   1      46.750  27.273  35.854  1.00  0.00     0.022 A 
BRANCH  86  90
ATOM     90  S   UNL A   1      45.480  25.093  37.039  1.00  0.00     0.124 S 
ATOM     91  O   UNL A   1      46.869  24.654  37.123  1.00  0.00    -0.237 OA
ATOM     92  O   UNL A   1      44.936  25.722  38.239  1.00  0.00    -0.237 OA
ATOM     93  O   UNL A   1      44.576  24.163  36.365  1.00  0.00    -0.744 OA
ENDBRANCH  86  90
ENDBRANCH  60  83
ENDBRANCH  34  35
ENDBRANCH  27  29
ENDBRANCH  26  27
ENDBRANCH  25  26
ENDBRANCH   1  25
TORSDOF 19
ENDMDL
