MODEL 1
REMARK VINA RESULT:     -10.7      0.000      0.000
REMARK SMILES CCN(CC(C)(C)O)C(=O)[C@H]1CC=CC[C@H]1C(=O)OCCOC(=O)c1ccc(-c2c3nc(c(-c4cc(S(=O)(=O)[O-])ccc4F)c4ccc([nH]4)c(-c4cc(S(=O)(=O)[O-])ccc4F)c4nc(c(-c5cc(S(=O)(=O)[O-])ccc5F)c5ccc2[nH]5)C=C4)C=C3)cc1
REMARK SMILES IDX 20 1 19 2 17 3 18 4 16 5 11 6 12 7 13 8 15 9 14 10 9 11
REMARK SMILES IDX 10 12 3 13 2 14 1 15 4 16 5 17 6 18 7 19 8 20 21 22 22 23
REMARK SMILES IDX 23 24 24 25 25 26 26 27 87 28 27 29 86 30 28 31 29 32 30 33
REMARK SMILES IDX 80 34 31 35 85 36 79 37 81 38 32 39 84 40 78 41 77 42 33 44
REMARK SMILES IDX 65 45 45 46 64 47 46 48 49 49 63 50 82 51 47 52 48 53 62 55
REMARK SMILES IDX 83 56 50 57 34 58 35 59 43 60 36 61 42 62 44 63 41 64 37 65
REMARK SMILES IDX 38 66 39 67 40 68 66 69 67 70 75 71 68 72 74 73 76 74 73 75
REMARK SMILES IDX 69 76 70 77 71 78 72 79 51 80 52 81 60 82 53 83 59 84 61 85
REMARK SMILES IDX 58 86 54 87 55 88 56 89 57 90
REMARK H PARENT 8 21 81 43 49 54
REMARK Flexibility Score: inf
ROOT
ATOM      1  C   UNL A   1      31.664  28.378  26.202  1.00  0.00     0.274 C 
ENDROOT
BRANCH   1   2
ATOM      2  O   UNL A   1      31.985  27.283  25.324  1.00  0.00    -0.462 OA
BRANCH   2   3
ATOM      3  C   UNL A   1      33.276  26.913  25.209  1.00  0.00     0.310 C 
ATOM      4  O   UNL A   1      34.078  26.969  26.135  1.00  0.00    -0.252 OA
BRANCH   3   5
ATOM      5  C   UNL A   1      33.618  26.292  23.848  1.00  0.00     0.115 C 
ATOM      6  C   UNL A   1      33.823  24.758  23.720  1.00  0.00     0.097 C 
ATOM      7  C   UNL A   1      33.547  24.116  22.352  1.00  0.00     0.041 C 
ATOM      8  C   UNL A   1      32.668  24.890  21.424  1.00  0.00    -0.030 C 
ATOM      9  C   UNL A   1      32.756  26.989  22.774  1.00  0.00     0.043 C 
ATOM     10  C   UNL A   1      32.328  26.168  21.609  1.00  0.00    -0.030 C 
BRANCH   6  11
ATOM     11  C   UNL A   1      33.531  23.888  24.954  1.00  0.00     0.226 C 
ATOM     12  O   UNL A   1      34.359  23.951  25.877  1.00  0.00    -0.275 OA
BRANCH  11  13
ATOM     13  N   UNL A   1      32.386  23.122  25.120  1.00  0.00    -0.340 N 
BRANCH  13  14
ATOM     14  C   UNL A   1      31.113  23.818  24.874  1.00  0.00     0.116 C 
ATOM     15  C   UNL A   1      30.433  24.349  26.132  1.00  0.00     0.027 C 
ENDBRANCH  13  14
BRANCH  13  16
ATOM     16  C   UNL A   1      32.299  21.792  25.748  1.00  0.00     0.154 C 
BRANCH  16  17
ATOM     17  C   UNL A   1      32.735  20.562  24.900  1.00  0.00     0.077 C 
ATOM     18  C   UNL A   1      32.358  20.711  23.435  1.00  0.00     0.043 C 
ATOM     19  C   UNL A   1      34.257  20.400  25.021  1.00  0.00     0.043 C 
BRANCH  17  20
ATOM     20  O   UNL A   1      32.155  19.354  25.402  1.00  0.00    -0.389 OA
ATOM     21  H   UNL A   1      31.826  18.821  24.661  1.00  0.00     0.211 HD
ENDBRANCH  17  20
ENDBRANCH  16  17
ENDBRANCH  13  16
ENDBRANCH  11  13
ENDBRANCH   6  11
ENDBRANCH   3   5
ENDBRANCH   2   3
ENDBRANCH   1   2
BRANCH   1  22
ATOM     22  C   UNL A   1      31.820  29.674  25.417  1.00  0.00     0.275 C 
BRANCH  22  23
ATOM     23  O   UNL A   1      33.078  30.267  25.786  1.00  0.00    -0.458 OA
BRANCH  23  24
ATOM     24  C   UNL A   1      33.020  31.177  26.785  1.00  0.00     0.338 C 
ATOM     25  O   UNL A   1      32.171  32.030  26.966  1.00  0.00    -0.246 OA
BRANCH  24  26
ATOM     26  C   UNL A   1      34.192  31.015  27.659  1.00  0.00     0.060 A 
ATOM     27  C   UNL A   1      35.010  32.104  27.966  1.00  0.00     0.016 A 
ATOM     28  C   UNL A   1      34.535  29.736  28.091  1.00  0.00     0.016 A 
ATOM     29  C   UNL A   1      36.228  31.900  28.608  1.00  0.00     0.010 A 
ATOM     30  C   UNL A   1      35.697  29.553  28.842  1.00  0.00     0.010 A 
ATOM     31  C   UNL A   1      36.575  30.625  29.077  1.00  0.00    -0.014 A 
BRANCH  31  32
ATOM     32  C   UNL A   1      37.854  30.396  29.802  1.00  0.00     0.031 A 
ATOM     33  C   UNL A   1      38.923  29.539  29.179  1.00  0.00     0.074 A 
ATOM     34  C   UNL A   1      38.043  30.930  31.025  1.00  0.00     0.049 A 
ATOM     35  N   UNL A   1      39.988  29.012  29.724  1.00  0.00    -0.248 NA
ATOM     36  C   UNL A   1      38.753  29.212  27.754  1.00  0.00     0.031 C 
ATOM     37  C   UNL A   1      37.104  31.817  31.719  1.00  0.00     0.029 A 
ATOM     38  N   UNL A   1      39.085  30.801  31.908  1.00  0.00    -0.354 N 
ATOM     39  C   UNL A   1      40.584  28.243  28.728  1.00  0.00     0.074 A 
ATOM     40  C   UNL A   1      39.755  28.371  27.548  1.00  0.00     0.031 C 
ATOM     41  C   UNL A   1      37.623  32.170  32.903  1.00  0.00     0.029 A 
ATOM     42  C   UNL A   1      38.879  31.460  33.099  1.00  0.00     0.049 A 
ATOM     43  H   UNL A   1      39.901  30.285  31.709  1.00  0.00     0.167 HD
ATOM     44  C   UNL A   1      41.713  27.495  28.803  1.00  0.00     0.034 A 
ATOM     45  C   UNL A   1      39.590  31.448  34.243  1.00  0.00     0.034 A 
ATOM     46  C   UNL A   1      42.539  27.415  29.984  1.00  0.00     0.049 A 
ATOM     47  C   UNL A   1      40.820  30.587  34.315  1.00  0.00     0.074 A 
ATOM     48  C   UNL A   1      43.706  26.696  30.180  1.00  0.00     0.029 A 
ATOM     49  N   UNL A   1      42.286  28.085  31.175  1.00  0.00    -0.354 N 
ATOM     50  N   UNL A   1      41.333  29.803  33.394  1.00  0.00    -0.248 NA
ATOM     51  C   UNL A   1      41.557  30.594  35.584  1.00  0.00     0.031 C 
ATOM     52  C   UNL A   1      44.130  26.894  31.500  1.00  0.00     0.029 A 
ATOM     53  C   UNL A   1      43.262  27.784  32.113  1.00  0.00     0.049 A 
ATOM     54  H   UNL A   1      41.523  28.688  31.332  1.00  0.00     0.167 HD
ATOM     55  C   UNL A   1      42.459  29.227  33.972  1.00  0.00     0.074 A 
ATOM     56  C   UNL A   1      42.561  29.774  35.312  1.00  0.00     0.031 C 
ATOM     57  C   UNL A   1      43.328  28.326  33.449  1.00  0.00     0.034 A 
BRANCH  44  58
ATOM     58  C   UNL A   1      42.074  26.658  27.597  1.00  0.00     0.023 A 
ATOM     59  C   UNL A   1      41.718  25.303  27.492  1.00  0.00     0.031 A 
ATOM     60  C   UNL A   1      42.829  27.223  26.552  1.00  0.00     0.131 A 
ATOM     61  C   UNL A   1      42.175  24.541  26.404  1.00  0.00     0.055 A 
ATOM     62  C   UNL A   1      43.219  26.478  25.437  1.00  0.00     0.041 A 
ATOM     63  F   UNL A   1      43.217  28.507  26.607  1.00  0.00    -0.206 F 
ATOM     64  C   UNL A   1      42.904  25.125  25.366  1.00  0.00     0.022 A 
BRANCH  61  65
ATOM     65  S   UNL A   1      41.919  22.744  26.431  1.00  0.00     0.124 S 
ATOM     66  O   UNL A   1      40.461  22.654  26.468  1.00  0.00    -0.237 OA
ATOM     67  O   UNL A   1      42.555  22.317  25.191  1.00  0.00    -0.237 OA
ATOM     68  O   UNL A   1      42.593  22.320  27.657  1.00  0.00    -0.744 OA
ENDBRANCH  61  65
ENDBRANCH  44  58
BRANCH  45  69
ATOM     69  C   UNL A   1      39.111  32.211  35.429  1.00  0.00     0.023 A 
ATOM     70  C   UNL A   1      38.443  31.569  36.482  1.00  0.00     0.031 A 
ATOM     71  C   UNL A   1      39.312  33.601  35.522  1.00  0.00     0.131 A 
ATOM     72  C   UNL A   1      37.980  32.320  37.575  1.00  0.00     0.055 A 
ATOM     73  C   UNL A   1      38.892  34.335  36.631  1.00  0.00     0.041 A 
ATOM     74  F   UNL A   1      39.948  34.261  34.542  1.00  0.00    -0.206 F 
ATOM     75  C   UNL A   1      38.213  33.695  37.663  1.00  0.00     0.022 A 
BRANCH  72  76
ATOM     76  S   UNL A   1      37.014  31.481  38.860  1.00  0.00     0.124 S 
ATOM     77  O   UNL A   1      37.888  31.606  40.021  1.00  0.00    -0.237 OA
ATOM     78  O   UNL A   1      35.791  32.277  38.888  1.00  0.00    -0.237 OA
ATOM     79  O   UNL A   1      36.859  30.124  38.339  1.00  0.00    -0.744 OA
ENDBRANCH  72  76
ENDBRANCH  45  69
BRANCH  57  80
ATOM     80  C   UNL A   1      44.473  27.911  34.334  1.00  0.00     0.023 A 
ATOM     81  C   UNL A   1      44.390  26.775  35.157  1.00  0.00     0.031 A 
ATOM     82  C   UNL A   1      45.645  28.684  34.380  1.00  0.00     0.131 A 
ATOM     83  C   UNL A   1      45.440  26.474  36.035  1.00  0.00     0.055 A 
ATOM     84  C   UNL A   1      46.709  28.350  35.219  1.00  0.00     0.041 A 
ATOM     85  F   UNL A   1      45.771  29.781  33.615  1.00  0.00    -0.206 F 
ATOM     86  C   UNL A   1      46.605  27.247  36.062  1.00  0.00     0.022 A 
BRANCH  83  87
ATOM     87  S   UNL A   1      45.230  25.106  37.208  1.00  0.00     0.124 S 
ATOM     88  O   UNL A   1      44.471  25.742  38.281  1.00  0.00    -0.237 OA
ATOM     89  O   UNL A   1      44.507  24.120  36.413  1.00  0.00    -0.237 OA
ATOM     90  O   UNL A   1      46.602  24.737  37.554  1.00  0.00    -0.744 OA
ENDBRANCH  83  87
ENDBRANCH  57  80
ENDBRANCH  31  32
ENDBRANCH  24  26
ENDBRANCH  23  24
ENDBRANCH  22  23
ENDBRANCH   1  22
TORSDOF 20
ENDMDL
MODEL 2
REMARK VINA RESULT:     -10.6      1.607      2.059
REMARK SMILES CCN(CC(C)(C)O)C(=O)[C@H]1CC=CC[C@H]1C(=O)OCCOC(=O)c1ccc(-c2c3nc(c(-c4cc(S(=O)(=O)[O-])ccc4F)c4ccc([nH]4)c(-c4cc(S(=O)(=O)[O-])ccc4F)c4nc(c(-c5cc(S(=O)(=O)[O-])ccc5F)c5ccc2[nH]5)C=C4)C=C3)cc1
REMARK SMILES IDX 20 1 19 2 17 3 18 4 16 5 11 6 12 7 13 8 15 9 14 10 9 11
REMARK SMILES IDX 10 12 3 13 2 14 1 15 4 16 5 17 6 18 7 19 8 20 21 22 22 23
REMARK SMILES IDX 23 24 24 25 25 26 26 27 87 28 27 29 86 30 28 31 29 32 30 33
REMARK SMILES IDX 80 34 31 35 85 36 79 37 81 38 32 39 84 40 78 41 77 42 33 44
REMARK SMILES IDX 65 45 45 46 64 47 46 48 49 49 63 50 82 51 47 52 48 53 62 55
REMARK SMILES IDX 83 56 50 57 34 58 35 59 43 60 36 61 42 62 44 63 41 64 37 65
REMARK SMILES IDX 38 66 39 67 40 68 66 69 67 70 75 71 68 72 74 73 76 74 73 75
REMARK SMILES IDX 69 76 70 77 71 78 72 79 51 80 52 81 60 82 53 83 59 84 61 85
REMARK SMILES IDX 58 86 54 87 55 88 56 89 57 90
REMARK H PARENT 8 21 81 43 49 54
REMARK Flexibility Score: inf
ROOT
ATOM      1  C   UNL A   1      31.792  28.523  27.347  1.00  0.00     0.274 C 
ENDROOT
BRANCH   1   2
ATOM      2  O   UNL A   1      32.659  27.490  26.843  1.00  0.00    -0.462 OA
BRANCH   2   3
ATOM      3  C   UNL A   1      32.108  26.478  26.144  1.00  0.00     0.310 C 
ATOM      4  O   UNL A   1      31.282  25.704  26.616  1.00  0.00    -0.252 OA
BRANCH   3   5
ATOM      5  C   UNL A   1      32.511  26.465  24.663  1.00  0.00     0.115 C 
ATOM      6  C   UNL A   1      33.678  25.560  24.181  1.00  0.00     0.097 C 
ATOM      7  C   UNL A   1      33.657  25.096  22.717  1.00  0.00     0.041 C 
ATOM      8  C   UNL A   1      32.331  25.131  22.030  1.00  0.00    -0.030 C 
ATOM      9  C   UNL A   1      31.221  26.477  23.817  1.00  0.00     0.043 C 
ATOM     10  C   UNL A   1      31.255  25.754  22.517  1.00  0.00    -0.030 C 
BRANCH   6  11
ATOM     11  C   UNL A   1      34.304  24.590  25.197  1.00  0.00     0.226 C 
ATOM     12  O   UNL A   1      35.343  24.978  25.755  1.00  0.00    -0.275 OA
BRANCH  11  13
ATOM     13  N   UNL A   1      33.743  23.378  25.571  1.00  0.00    -0.340 N 
BRANCH  13  14
ATOM     14  C   UNL A   1      33.491  23.209  27.011  1.00  0.00     0.116 C 
ATOM     15  C   UNL A   1      34.063  21.926  27.604  1.00  0.00     0.027 C 
ENDBRANCH  13  14
BRANCH  13  16
ATOM     16  C   UNL A   1      33.613  22.172  24.735  1.00  0.00     0.154 C 
BRANCH  16  17
ATOM     17  C   UNL A   1      32.179  21.728  24.323  1.00  0.00     0.077 C 
ATOM     18  C   UNL A   1      31.133  22.777  24.666  1.00  0.00     0.043 C 
ATOM     19  C   UNL A   1      32.164  21.468  22.810  1.00  0.00     0.043 C 
BRANCH  17  20
ATOM     20  O   UNL A   1      31.817  20.496  24.952  1.00  0.00    -0.389 OA
ATOM     21  H   UNL A   1      31.989  20.556  25.905  1.00  0.00     0.211 HD
ENDBRANCH  17  20
ENDBRANCH  16  17
ENDBRANCH  13  16
ENDBRANCH  11  13
ENDBRANCH   6  11
ENDBRANCH   3   5
ENDBRANCH   2   3
ENDBRANCH   1   2
BRANCH   1  22
ATOM     22  C   UNL A   1      31.741  29.642  26.314  1.00  0.00     0.275 C 
BRANCH  22  23
ATOM     23  O   UNL A   1      33.071  30.166  26.161  1.00  0.00    -0.458 OA
BRANCH  23  24
ATOM     24  C   UNL A   1      33.404  31.163  27.012  1.00  0.00     0.338 C 
ATOM     25  O   UNL A   1      32.760  32.161  27.278  1.00  0.00    -0.246 OA
BRANCH  24  26
ATOM     26  C   UNL A   1      34.730  30.888  27.589  1.00  0.00     0.060 A 
ATOM     27  C   UNL A   1      35.130  29.582  27.870  1.00  0.00     0.016 A 
ATOM     28  C   UNL A   1      35.539  31.964  27.949  1.00  0.00     0.016 A 
ATOM     29  C   UNL A   1      36.285  29.352  28.612  1.00  0.00     0.010 A 
ATOM     30  C   UNL A   1      36.758  31.722  28.585  1.00  0.00     0.010 A 
ATOM     31  C   UNL A   1      37.128  30.418  28.956  1.00  0.00    -0.014 A 
BRANCH  31  32
ATOM     32  C   UNL A   1      38.388  30.187  29.712  1.00  0.00     0.031 A 
ATOM     33  C   UNL A   1      39.461  29.308  29.127  1.00  0.00     0.074 A 
ATOM     34  C   UNL A   1      38.556  30.740  30.930  1.00  0.00     0.049 A 
ATOM     35  N   UNL A   1      40.508  28.779  29.704  1.00  0.00    -0.248 NA
ATOM     36  C   UNL A   1      39.318  28.959  27.704  1.00  0.00     0.031 C 
ATOM     37  C   UNL A   1      37.612  31.647  31.588  1.00  0.00     0.029 A 
ATOM     38  N   UNL A   1      39.577  30.614  31.838  1.00  0.00    -0.354 N 
ATOM     39  C   UNL A   1      41.117  27.987  28.734  1.00  0.00     0.074 A 
ATOM     40  C   UNL A   1      40.315  28.104  27.534  1.00  0.00     0.031 C 
ATOM     41  C   UNL A   1      38.109  32.015  32.777  1.00  0.00     0.029 A 
ATOM     42  C   UNL A   1      39.353  31.295  33.012  1.00  0.00     0.049 A 
ATOM     43  H   UNL A   1      40.391  30.086  31.665  1.00  0.00     0.167 HD
ATOM     44  C   UNL A   1      42.236  27.228  28.846  1.00  0.00     0.034 A 
ATOM     45  C   UNL A   1      40.039  31.294  34.172  1.00  0.00     0.034 A 
ATOM     46  C   UNL A   1      43.035  27.159  30.047  1.00  0.00     0.049 A 
ATOM     47  C   UNL A   1      41.258  30.422  34.285  1.00  0.00     0.074 A 
ATOM     48  C   UNL A   1      44.189  26.431  30.280  1.00  0.00     0.029 A 
ATOM     49  N   UNL A   1      42.763  27.852  31.221  1.00  0.00    -0.354 N 
ATOM     50  N   UNL A   1      41.782  29.617  33.389  1.00  0.00    -0.248 NA
ATOM     51  C   UNL A   1      41.967  30.443  35.570  1.00  0.00     0.031 C 
ATOM     52  C   UNL A   1      44.587  26.647  31.605  1.00  0.00     0.029 A 
ATOM     53  C   UNL A   1      43.716  27.557  32.184  1.00  0.00     0.049 A 
ATOM     54  H   UNL A   1      42.004  28.465  31.351  1.00  0.00     0.167 HD
ATOM     55  C   UNL A   1      42.888  29.039  34.001  1.00  0.00     0.074 A 
ATOM     56  C   UNL A   1      42.967  29.607  35.333  1.00  0.00     0.031 C 
ATOM     57  C   UNL A   1      43.758  28.120  33.513  1.00  0.00     0.034 A 
BRANCH  44  58
ATOM     58  C   UNL A   1      42.613  26.368  27.663  1.00  0.00     0.023 A 
ATOM     59  C   UNL A   1      42.139  25.053  27.511  1.00  0.00     0.031 A 
ATOM     60  C   UNL A   1      43.502  26.863  26.691  1.00  0.00     0.131 A 
ATOM     61  C   UNL A   1      42.610  24.258  26.453  1.00  0.00     0.055 A 
ATOM     62  C   UNL A   1      43.910  26.090  25.601  1.00  0.00     0.041 A 
ATOM     63  F   UNL A   1      44.005  28.103  26.794  1.00  0.00    -0.206 F 
ATOM     64  C   UNL A   1      43.475  24.774  25.486  1.00  0.00     0.022 A 
BRANCH  61  65
ATOM     65  S   UNL A   1      42.182  22.494  26.435  1.00  0.00     0.124 S 
ATOM     66  O   UNL A   1      42.662  22.059  27.745  1.00  0.00    -0.237 OA
ATOM     67  O   UNL A   1      40.735  22.522  26.261  1.00  0.00    -0.237 OA
ATOM     68  O   UNL A   1      42.938  21.969  25.298  1.00  0.00    -0.744 OA
ENDBRANCH  61  65
ENDBRANCH  44  58
BRANCH  45  69
ATOM     69  C   UNL A   1      39.543  32.082  35.334  1.00  0.00     0.023 A 
ATOM     70  C   UNL A   1      39.949  33.410  35.536  1.00  0.00     0.031 A 
ATOM     71  C   UNL A   1      38.655  31.513  36.267  1.00  0.00     0.131 A 
ATOM     72  C   UNL A   1      39.485  34.119  36.656  1.00  0.00     0.055 A 
ATOM     73  C   UNL A   1      38.160  32.237  37.352  1.00  0.00     0.041 A 
ATOM     74  F   UNL A   1      38.234  30.247  36.117  1.00  0.00    -0.206 F 
ATOM     75  C   UNL A   1      38.582  33.546  37.556  1.00  0.00     0.022 A 
BRANCH  72  76
ATOM     76  S   UNL A   1      40.124  35.789  36.954  1.00  0.00     0.124 S 
ATOM     77  O   UNL A   1      39.453  36.149  38.199  1.00  0.00    -0.237 OA
ATOM     78  O   UNL A   1      41.561  35.552  37.045  1.00  0.00    -0.237 OA
ATOM     79  O   UNL A   1      39.692  36.535  35.774  1.00  0.00    -0.744 OA
ENDBRANCH  72  76
ENDBRANCH  45  69
BRANCH  57  80
ATOM     80  C   UNL A   1      44.879  27.708  34.428  1.00  0.00     0.023 A 
ATOM     81  C   UNL A   1      44.782  26.562  35.237  1.00  0.00     0.031 A 
ATOM     82  C   UNL A   1      46.042  28.492  34.519  1.00  0.00     0.131 A 
ATOM     83  C   UNL A   1      45.807  26.264  36.146  1.00  0.00     0.055 A 
ATOM     84  C   UNL A   1      47.082  28.160  35.388  1.00  0.00     0.041 A 
ATOM     85  F   UNL A   1      46.180  29.597  33.769  1.00  0.00    -0.206 F 
ATOM     86  C   UNL A   1      46.963  27.048  36.217  1.00  0.00     0.022 A 
BRANCH  83  87
ATOM     87  S   UNL A   1      45.574  24.882  37.298  1.00  0.00     0.124 S 
ATOM     88  O   UNL A   1      44.735  23.977  36.520  1.00  0.00    -0.237 OA
ATOM     89  O   UNL A   1      46.943  24.438  37.535  1.00  0.00    -0.237 OA
ATOM     90  O   UNL A   1      44.917  25.502  38.448  1.00  0.00    -0.744 OA
ENDBRANCH  83  87
ENDBRANCH  57  80
ENDBRANCH  31  32
ENDBRANCH  24  26
ENDBRANCH  23  24
ENDBRANCH  22  23
ENDBRANCH   1  22
TORSDOF 20
ENDMDL
MODEL 3
REMARK VINA RESULT:     -10.4      1.218      1.979
REMARK SMILES CCN(CC(C)(C)O)C(=O)[C@H]1CC=CC[C@H]1C(=O)OCCOC(=O)c1ccc(-c2c3nc(c(-c4cc(S(=O)(=O)[O-])ccc4F)c4ccc([nH]4)c(-c4cc(S(=O)(=O)[O-])ccc4F)c4nc(c(-c5cc(S(=O)(=O)[O-])ccc5F)c5ccc2[nH]5)C=C4)C=C3)cc1
REMARK SMILES IDX 20 1 19 2 17 3 18 4 16 5 11 6 12 7 13 8 15 9 14 10 9 11
REMARK SMILES IDX 10 12 3 13 2 14 1 15 4 16 5 17 6 18 7 19 8 20 21 22 22 23
REMARK SMILES IDX 23 24 24 25 25 26 26 27 87 28 27 29 86 30 28 31 29 32 30 33
REMARK SMILES IDX 80 34 31 35 85 36 79 37 81 38 32 39 84 40 78 41 77 42 33 44
REMARK SMILES IDX 65 45 45 46 64 47 46 48 49 49 63 50 82 51 47 52 48 53 62 55
REMARK SMILES IDX 83 56 50 57 34 58 35 59 43 60 36 61 42 62 44 63 41 64 37 65
REMARK SMILES IDX 38 66 39 67 40 68 66 69 67 70 75 71 68 72 74 73 76 74 73 75
REMARK SMILES IDX 69 76 70 77 71 78 72 79 51 80 52 81 60 82 53 83 59 84 61 85
REMARK SMILES IDX 58 86 54 87 55 88 56 89 57 90
REMARK H PARENT 8 21 81 43 49 54
REMARK Flexibility Score: inf
ROOT
ATOM      1  C   UNL A   1      32.282  28.644  23.391  1.00  0.00     0.274 C 
ENDROOT
BRANCH   1   2
ATOM      2  O   UNL A   1      32.332  27.216  23.568  1.00  0.00    -0.462 OA
BRANCH   2   3
ATOM      3  C   UNL A   1      31.527  26.450  22.807  1.00  0.00     0.310 C 
ATOM      4  O   UNL A   1      31.468  26.539  21.585  1.00  0.00    -0.252 OA
BRANCH   3   5
ATOM      5  C   UNL A   1      30.785  25.364  23.598  1.00  0.00     0.115 C 
ATOM      6  C   UNL A   1      31.483  24.012  23.909  1.00  0.00     0.097 C 
ATOM      7  C   UNL A   1      31.018  23.242  25.154  1.00  0.00     0.041 C 
ATOM      8  C   UNL A   1      30.312  24.041  26.200  1.00  0.00    -0.030 C 
ATOM      9  C   UNL A   1      30.015  26.049  24.746  1.00  0.00     0.043 C 
ATOM     10  C   UNL A   1      29.859  25.283  26.012  1.00  0.00    -0.030 C 
BRANCH   6  11
ATOM     11  C   UNL A   1      32.966  23.863  23.529  1.00  0.00     0.226 C 
ATOM     12  O   UNL A   1      33.214  23.777  22.316  1.00  0.00    -0.275 OA
BRANCH  11  13
ATOM     13  N   UNL A   1      34.015  23.901  24.436  1.00  0.00    -0.340 N 
BRANCH  13  14
ATOM     14  C   UNL A   1      34.429  25.242  24.877  1.00  0.00     0.116 C 
ATOM     15  C   UNL A   1      33.710  25.743  26.126  1.00  0.00     0.027 C 
ENDBRANCH  13  14
BRANCH  13  16
ATOM     16  C   UNL A   1      34.905  22.785  24.801  1.00  0.00     0.154 C 
BRANCH  16  17
ATOM     17  C   UNL A   1      36.356  22.803  24.238  1.00  0.00     0.077 C 
ATOM     18  C   UNL A   1      37.275  23.701  25.052  1.00  0.00     0.043 C 
ATOM     19  C   UNL A   1      36.903  21.369  24.251  1.00  0.00     0.043 C 
BRANCH  17  20
ATOM     20  O   UNL A   1      36.380  23.237  22.876  1.00  0.00    -0.389 OA
ATOM     21  H   UNL A   1      35.471  23.357  22.559  1.00  0.00     0.211 HD
ENDBRANCH  17  20
ENDBRANCH  16  17
ENDBRANCH  13  16
ENDBRANCH  11  13
ENDBRANCH   6  11
ENDBRANCH   3   5
ENDBRANCH   2   3
ENDBRANCH   1   2
BRANCH   1  22
ATOM     22  C   UNL A   1      31.924  29.275  24.730  1.00  0.00     0.275 C 
BRANCH  22  23
ATOM     23  O   UNL A   1      33.124  29.831  25.294  1.00  0.00    -0.458 OA
BRANCH  23  24
ATOM     24  C   UNL A   1      32.942  30.654  26.352  1.00  0.00     0.338 C 
ATOM     25  O   UNL A   1      32.002  31.400  26.561  1.00  0.00    -0.246 OA
BRANCH  24  26
ATOM     26  C   UNL A   1      34.098  30.549  27.256  1.00  0.00     0.060 A 
ATOM     27  C   UNL A   1      34.820  31.684  27.626  1.00  0.00     0.016 A 
ATOM     28  C   UNL A   1      34.525  29.284  27.653  1.00  0.00     0.016 A 
ATOM     29  C   UNL A   1      36.032  31.550  28.298  1.00  0.00     0.010 A 
ATOM     30  C   UNL A   1      35.676  29.162  28.433  1.00  0.00     0.010 A 
ATOM     31  C   UNL A   1      36.462  30.289  28.733  1.00  0.00    -0.014 A 
BRANCH  31  32
ATOM     32  C   UNL A   1      37.734  30.131  29.489  1.00  0.00     0.031 A 
ATOM     33  C   UNL A   1      38.853  29.310  28.905  1.00  0.00     0.074 A 
ATOM     34  C   UNL A   1      37.872  30.696  30.704  1.00  0.00     0.049 A 
ATOM     35  N   UNL A   1      39.928  28.842  29.483  1.00  0.00    -0.248 NA
ATOM     36  C   UNL A   1      38.728  28.950  27.483  1.00  0.00     0.031 C 
ATOM     37  C   UNL A   1      36.880  31.552  31.361  1.00  0.00     0.029 A 
ATOM     38  N   UNL A   1      38.899  30.629  31.612  1.00  0.00    -0.354 N 
ATOM     39  C   UNL A   1      40.579  28.082  28.515  1.00  0.00     0.074 A 
ATOM     40  C   UNL A   1      39.772  28.150  27.315  1.00  0.00     0.031 C 
ATOM     41  C   UNL A   1      37.357  31.950  32.548  1.00  0.00     0.029 A 
ATOM     42  C   UNL A   1      38.639  31.300  32.784  1.00  0.00     0.049 A 
ATOM     43  H   UNL A   1      39.741  30.147  31.440  1.00  0.00     0.167 HD
ATOM     44  C   UNL A   1      41.739  27.386  28.628  1.00  0.00     0.034 A 
ATOM     45  C   UNL A   1      39.324  31.341  33.943  1.00  0.00     0.034 A 
ATOM     46  C   UNL A   1      42.542  27.365  29.828  1.00  0.00     0.049 A 
ATOM     47  C   UNL A   1      40.590  30.538  34.058  1.00  0.00     0.074 A 
ATOM     48  C   UNL A   1      43.734  26.703  30.062  1.00  0.00     0.029 A 
ATOM     49  N   UNL A   1      42.232  28.046  31.000  1.00  0.00    -0.354 N 
ATOM     50  N   UNL A   1      41.157  29.761  33.164  1.00  0.00    -0.248 NA
ATOM     51  C   UNL A   1      41.298  30.602  35.342  1.00  0.00     0.031 C 
ATOM     52  C   UNL A   1      44.120  26.944  31.386  1.00  0.00     0.029 A 
ATOM     53  C   UNL A   1      43.201  27.807  31.963  1.00  0.00     0.049 A 
ATOM     54  H   UNL A   1      41.441  28.617  31.129  1.00  0.00     0.167 HD
ATOM     55  C   UNL A   1      42.294  29.246  33.776  1.00  0.00     0.074 A 
ATOM     56  C   UNL A   1      42.343  29.822  35.107  1.00  0.00     0.031 C 
ATOM     57  C   UNL A   1      43.213  28.375  33.290  1.00  0.00     0.034 A 
BRANCH  44  58
ATOM     58  C   UNL A   1      42.162  26.544  27.447  1.00  0.00     0.023 A 
ATOM     59  C   UNL A   1      41.796  25.193  27.320  1.00  0.00     0.031 A 
ATOM     60  C   UNL A   1      42.987  27.098  26.450  1.00  0.00     0.131 A 
ATOM     61  C   UNL A   1      42.310  24.425  26.262  1.00  0.00     0.055 A 
ATOM     62  C   UNL A   1      43.435  26.348  25.361  1.00  0.00     0.041 A 
ATOM     63  F   UNL A   1      43.387  28.377  26.528  1.00  0.00    -0.206 F 
ATOM     64  C   UNL A   1      43.108  24.998  25.271  1.00  0.00     0.022 A 
BRANCH  61  65
ATOM     65  S   UNL A   1      42.029  22.632  26.273  1.00  0.00     0.124 S 
ATOM     66  O   UNL A   1      40.571  22.561  26.317  1.00  0.00    -0.237 OA
ATOM     67  O   UNL A   1      42.652  22.208  25.025  1.00  0.00    -0.237 OA
ATOM     68  O   UNL A   1      42.704  22.186  27.491  1.00  0.00    -0.744 OA
ENDBRANCH  61  65
ENDBRANCH  44  58
BRANCH  45  69
ATOM     69  C   UNL A   1      38.787  32.105  35.104  1.00  0.00     0.023 A 
ATOM     70  C   UNL A   1      38.301  31.445  36.243  1.00  0.00     0.031 A 
ATOM     71  C   UNL A   1      38.747  33.511  35.087  1.00  0.00     0.131 A 
ATOM     72  C   UNL A   1      37.776  32.192  37.310  1.00  0.00     0.055 A 
ATOM     73  C   UNL A   1      38.268  34.250  36.169  1.00  0.00     0.041 A 
ATOM     74  F   UNL A   1      39.203  34.190  34.022  1.00  0.00    -0.206 F 
ATOM     75  C   UNL A   1      37.770  33.589  37.286  1.00  0.00     0.022 A 
BRANCH  72  76
ATOM     76  S   UNL A   1      37.044  31.306  38.713  1.00  0.00     0.124 S 
ATOM     77  O   UNL A   1      37.007  29.935  38.216  1.00  0.00    -0.237 OA
ATOM     78  O   UNL A   1      38.004  31.578  39.777  1.00  0.00    -0.237 OA
ATOM     79  O   UNL A   1      35.739  31.945  38.877  1.00  0.00    -0.744 OA
ENDBRANCH  72  76
ENDBRANCH  45  69
BRANCH  57  80
ATOM     80  C   UNL A   1      44.356  28.029  34.206  1.00  0.00     0.023 A 
ATOM     81  C   UNL A   1      44.293  26.923  35.072  1.00  0.00     0.031 A 
ATOM     82  C   UNL A   1      45.505  28.837  34.239  1.00  0.00     0.131 A 
ATOM     83  C   UNL A   1      45.338  26.688  35.976  1.00  0.00     0.055 A 
ATOM     84  C   UNL A   1      46.565  28.567  35.105  1.00  0.00     0.041 A 
ATOM     85  F   UNL A   1      45.611  29.906  33.433  1.00  0.00    -0.206 F 
ATOM     86  C   UNL A   1      46.480  27.495  35.989  1.00  0.00     0.022 A 
BRANCH  83  87
ATOM     87  S   UNL A   1      45.149  25.361  37.198  1.00  0.00     0.124 S 
ATOM     88  O   UNL A   1      43.760  24.959  36.997  1.00  0.00    -0.237 OA
ATOM     89  O   UNL A   1      46.160  24.398  36.775  1.00  0.00    -0.237 OA
ATOM     90  O   UNL A   1      45.422  26.026  38.471  1.00  0.00    -0.744 OA
ENDBRANCH  83  87
ENDBRANCH  57  80
ENDBRANCH  31  32
ENDBRANCH  24  26
ENDBRANCH  23  24
ENDBRANCH  22  23
ENDBRANCH   1  22
TORSDOF 20
ENDMDL
