MODEL 1
REMARK VINA RESULT:     -11.6      0.000      0.000
REMARK SMILES CCN(c1cccc(C)c1)c1nc(OCC(=O)OCCOC(=O)c2ccc(-c3c4nc(c(-c5cc(S(=O)(=O)[O-])ccc5F)c5ccc([nH]5)c(-c5cc(S(=O)(=O)[O-])ccc5F)c5nc(c(-c6cc(S(=O)(=O)[O-])ccc6F)c6ccc3[nH]6)C=C5)C=C4)cc2)cc(-c2ccc(C)cc2)n1
REMARK SMILES IDX 19 1 18 2 16 3 17 4 15 5 14 6 13 7 11 8 12 9 96 10 88 11
REMARK SMILES IDX 87 12 3 13 2 14 1 15 4 16 5 17 10 18 6 19 8 20 7 21 9 22
REMARK SMILES IDX 89 23 90 24 95 25 91 26 94 27 92 28 93 29 20 30 21 31 22 32
REMARK SMILES IDX 23 33 24 34 25 35 86 36 26 37 85 38 27 39 28 40 29 41 79 42
REMARK SMILES IDX 30 43 84 44 78 45 80 46 31 47 83 48 77 49 76 50 32 52 64 53
REMARK SMILES IDX 44 54 63 55 45 56 48 57 62 58 81 59 46 60 47 61 61 63 82 64
REMARK SMILES IDX 49 65 33 66 34 67 42 68 35 69 41 70 43 71 40 72 36 73 37 74
REMARK SMILES IDX 38 75 39 76 65 77 66 78 74 79 67 80 73 81 75 82 72 83 68 84
REMARK SMILES IDX 69 85 70 86 71 87 50 88 51 89 59 90 52 91 58 92 60 93 57 94
REMARK SMILES IDX 53 95 54 96 55 97 56 98
REMARK H PARENT 80 51 48 62
REMARK Flexibility Score: inf
ROOT
ATOM      1  C   UNL A   1      40.994  22.531  26.761  1.00  0.00     0.274 C 
ENDROOT
BRANCH   1   2
ATOM      2  O   UNL A   1      39.641  22.729  27.157  1.00  0.00    -0.460 OA
BRANCH   2   3
ATOM      3  C   UNL A   1      39.059  23.888  26.770  1.00  0.00     0.344 C 
ATOM      4  O   UNL A   1      39.530  25.005  26.959  1.00  0.00    -0.248 OA
BRANCH   3   5
ATOM      5  C   UNL A   1      37.809  23.622  25.909  1.00  0.00     0.353 C 
BRANCH   5   6
ATOM      6  O   UNL A   1      37.557  22.529  25.043  1.00  0.00    -0.466 OA
BRANCH   6   7
ATOM      7  C   UNL A   1      36.249  22.146  24.966  1.00  0.00     0.219 A 
ATOM      8  C   UNL A   1      34.093  22.785  24.552  1.00  0.00     0.233 A 
ATOM      9  N   UNL A   1      35.375  23.132  24.778  1.00  0.00    -0.177 NA
ATOM     10  N   UNL A   1      33.647  21.525  24.634  1.00  0.00    -0.212 NA
ATOM     11  C   UNL A   1      34.561  20.549  24.765  1.00  0.00     0.080 A 
ATOM     12  C   UNL A   1      35.912  20.823  24.895  1.00  0.00     0.097 A 
BRANCH   8  13
ATOM     13  N   UNL A   1      33.252  23.764  24.006  1.00  0.00    -0.311 N 
BRANCH  13  14
ATOM     14  C   UNL A   1      32.277  23.328  23.006  1.00  0.00     0.122 C 
ATOM     15  C   UNL A   1      30.831  23.670  23.356  1.00  0.00     0.028 C 
ENDBRANCH  13  14
BRANCH  13  16
ATOM     16  C   UNL A   1      33.290  25.097  24.448  1.00  0.00     0.044 A 
ATOM     17  C   UNL A   1      33.157  25.454  25.793  1.00  0.00     0.026 A 
ATOM     18  C   UNL A   1      33.576  26.126  23.525  1.00  0.00     0.029 A 
ATOM     19  C   UNL A   1      33.339  26.781  26.199  1.00  0.00     0.002 A 
ATOM     20  C   UNL A   1      33.758  27.458  23.916  1.00  0.00    -0.049 A 
ATOM     21  C   UNL A   1      33.643  27.777  25.268  1.00  0.00     0.003 A 
ATOM     22  C   UNL A   1      34.122  28.485  22.887  1.00  0.00     0.044 C 
ENDBRANCH  13  16
ENDBRANCH   8  13
BRANCH  11  23
ATOM     23  C   UNL A   1      34.045  19.174  24.690  1.00  0.00     0.000 A 
ATOM     24  C   UNL A   1      32.718  18.872  25.031  1.00  0.00     0.010 A 
ATOM     25  C   UNL A   1      34.901  18.105  24.396  1.00  0.00     0.010 A 
ATOM     26  C   UNL A   1      32.321  17.557  25.291  1.00  0.00     0.004 A 
ATOM     27  C   UNL A   1      34.483  16.783  24.573  1.00  0.00     0.004 A 
ATOM     28  C   UNL A   1      33.216  16.505  25.093  1.00  0.00    -0.051 A 
ATOM     29  C   UNL A   1      32.825  15.102  25.451  1.00  0.00     0.044 C 
ENDBRANCH  11  23
ENDBRANCH   6   7
ENDBRANCH   5   6
ENDBRANCH   3   5
ENDBRANCH   2   3
ENDBRANCH   1   2
BRANCH   1  30
ATOM     30  C   UNL A   1      41.899  22.556  28.002  1.00  0.00     0.275 C 
BRANCH  30  31
ATOM     31  O   UNL A   1      42.279  23.859  28.565  1.00  0.00    -0.458 OA
BRANCH  31  32
ATOM     32  C   UNL A   1      43.201  24.813  28.240  1.00  0.00     0.338 C 
ATOM     33  O   UNL A   1      44.197  24.624  27.597  1.00  0.00    -0.246 OA
BRANCH  32  34
ATOM     34  C   UNL A   1      42.828  26.178  28.542  1.00  0.00     0.060 A 
ATOM     35  C   UNL A   1      42.237  26.976  27.547  1.00  0.00     0.016 A 
ATOM     36  C   UNL A   1      43.013  26.595  29.840  1.00  0.00     0.016 A 
ATOM     37  C   UNL A   1      41.788  28.233  27.896  1.00  0.00     0.010 A 
ATOM     38  C   UNL A   1      42.316  27.681  30.242  1.00  0.00     0.010 A 
ATOM     39  C   UNL A   1      41.848  28.550  29.249  1.00  0.00    -0.014 A 
BRANCH  39  40
ATOM     40  C   UNL A   1      41.835  29.896  29.754  1.00  0.00     0.031 A 
ATOM     41  C   UNL A   1      40.555  30.569  29.957  1.00  0.00     0.074 A 
ATOM     42  C   UNL A   1      43.052  30.223  30.256  1.00  0.00     0.049 A 
ATOM     43  N   UNL A   1      40.401  31.841  29.959  1.00  0.00    -0.248 NA
ATOM     44  C   UNL A   1      39.297  29.839  30.138  1.00  0.00     0.031 C 
ATOM     45  C   UNL A   1      43.439  31.209  31.243  1.00  0.00     0.029 A 
ATOM     46  N   UNL A   1      44.278  29.615  29.973  1.00  0.00    -0.354 N 
ATOM     47  C   UNL A   1      39.200  32.067  30.597  1.00  0.00     0.074 A 
ATOM     48  C   UNL A   1      38.466  30.832  30.479  1.00  0.00     0.031 C 
ATOM     49  C   UNL A   1      44.781  31.364  31.185  1.00  0.00     0.029 A 
ATOM     50  C   UNL A   1      45.274  30.567  30.063  1.00  0.00     0.049 A 
ATOM     51  H   UNL A   1      44.411  28.667  29.747  1.00  0.00     0.167 HD
ATOM     52  C   UNL A   1      39.090  33.160  31.407  1.00  0.00     0.034 A 
ATOM     53  C   UNL A   1      45.836  31.051  28.912  1.00  0.00     0.034 A 
ATOM     54  C   UNL A   1      40.386  33.848  31.484  1.00  0.00     0.049 A 
ATOM     55  C   UNL A   1      45.356  32.474  28.691  1.00  0.00     0.074 A 
ATOM     56  C   UNL A   1      41.374  33.852  32.457  1.00  0.00     0.029 A 
ATOM     57  N   UNL A   1      40.976  34.347  30.328  1.00  0.00    -0.354 N 
ATOM     58  N   UNL A   1      44.209  32.933  29.121  1.00  0.00    -0.248 NA
ATOM     59  C   UNL A   1      46.183  33.506  28.081  1.00  0.00     0.031 C 
ATOM     60  C   UNL A   1      42.584  34.286  31.848  1.00  0.00     0.029 A 
ATOM     61  C   UNL A   1      42.332  34.540  30.509  1.00  0.00     0.049 A 
ATOM     62  H   UNL A   1      40.492  34.537  29.492  1.00  0.00     0.167 HD
ATOM     63  C   UNL A   1      44.173  34.292  28.967  1.00  0.00     0.074 A 
ATOM     64  C   UNL A   1      45.425  34.598  28.287  1.00  0.00     0.031 C 
ATOM     65  C   UNL A   1      43.148  35.074  29.430  1.00  0.00     0.034 A 
BRANCH  52  66
ATOM     66  C   UNL A   1      37.981  33.405  32.405  1.00  0.00     0.023 A 
ATOM     67  C   UNL A   1      36.792  34.016  31.955  1.00  0.00     0.031 A 
ATOM     68  C   UNL A   1      37.998  33.059  33.771  1.00  0.00     0.131 A 
ATOM     69  C   UNL A   1      35.737  34.328  32.830  1.00  0.00     0.055 A 
ATOM     70  C   UNL A   1      36.961  33.402  34.655  1.00  0.00     0.041 A 
ATOM     71  F   UNL A   1      38.987  32.328  34.302  1.00  0.00    -0.206 F 
ATOM     72  C   UNL A   1      35.824  34.045  34.187  1.00  0.00     0.022 A 
BRANCH  69  73
ATOM     73  S   UNL A   1      34.239  35.083  32.145  1.00  0.00     0.124 S 
ATOM     74  O   UNL A   1      34.417  34.873  30.712  1.00  0.00    -0.237 OA
ATOM     75  O   UNL A   1      33.179  34.309  32.784  1.00  0.00    -0.237 OA
ATOM     76  O   UNL A   1      34.332  36.476  32.583  1.00  0.00    -0.744 OA
ENDBRANCH  69  73
ENDBRANCH  52  66
BRANCH  53  77
ATOM     77  C   UNL A   1      46.046  30.004  27.851  1.00  0.00     0.023 A 
ATOM     78  C   UNL A   1      47.108  29.088  28.043  1.00  0.00     0.031 A 
ATOM     79  C   UNL A   1      45.070  29.653  26.906  1.00  0.00     0.131 A 
ATOM     80  C   UNL A   1      47.094  27.821  27.428  1.00  0.00     0.055 A 
ATOM     81  C   UNL A   1      45.087  28.405  26.256  1.00  0.00     0.041 A 
ATOM     82  F   UNL A   1      44.021  30.456  26.674  1.00  0.00    -0.206 F 
ATOM     83  C   UNL A   1      46.080  27.466  26.542  1.00  0.00     0.022 A 
BRANCH  80  84
ATOM     84  S   UNL A   1      48.325  26.593  27.964  1.00  0.00     0.124 S 
ATOM     85  O   UNL A   1      47.487  25.544  28.536  1.00  0.00    -0.237 OA
ATOM     86  O   UNL A   1      48.982  26.267  26.699  1.00  0.00    -0.237 OA
ATOM     87  O   UNL A   1      49.152  27.312  28.926  1.00  0.00    -0.744 OA
ENDBRANCH  80  84
ENDBRANCH  53  77
BRANCH  65  88
ATOM     88  C   UNL A   1      42.882  36.484  28.967  1.00  0.00     0.023 A 
ATOM     89  C   UNL A   1      43.508  37.584  29.554  1.00  0.00     0.031 A 
ATOM     90  C   UNL A   1      42.065  36.768  27.843  1.00  0.00     0.131 A 
ATOM     91  C   UNL A   1      43.217  38.888  29.140  1.00  0.00     0.055 A 
ATOM     92  C   UNL A   1      41.882  38.060  27.348  1.00  0.00     0.041 A 
ATOM     93  F   UNL A   1      41.419  35.807  27.167  1.00  0.00    -0.206 F 
ATOM     94  C   UNL A   1      42.436  39.138  28.018  1.00  0.00     0.022 A 
BRANCH  91  95
ATOM     95  S   UNL A   1      43.789  40.234  30.199  1.00  0.00     0.124 S 
ATOM     96  O   UNL A   1      43.411  39.748  31.524  1.00  0.00    -0.237 OA
ATOM     97  O   UNL A   1      45.222  40.265  29.925  1.00  0.00    -0.237 OA
ATOM     98  O   UNL A   1      43.033  41.390  29.723  1.00  0.00    -0.744 OA
ENDBRANCH  91  95
ENDBRANCH  65  88
ENDBRANCH  39  40
ENDBRANCH  32  34
ENDBRANCH  31  32
ENDBRANCH  30  31
ENDBRANCH   1  30
TORSDOF 20
ENDMDL
MODEL 2
REMARK VINA RESULT:     -11.5      3.923      9.849
REMARK SMILES CCN(c1cccc(C)c1)c1nc(OCC(=O)OCCOC(=O)c2ccc(-c3c4nc(c(-c5cc(S(=O)(=O)[O-])ccc5F)c5ccc([nH]5)c(-c5cc(S(=O)(=O)[O-])ccc5F)c5nc(c(-c6cc(S(=O)(=O)[O-])ccc6F)c6ccc3[nH]6)C=C5)C=C4)cc2)cc(-c2ccc(C)cc2)n1
REMARK SMILES IDX 19 1 18 2 16 3 17 4 15 5 14 6 13 7 11 8 12 9 96 10 88 11
REMARK SMILES IDX 87 12 3 13 2 14 1 15 4 16 5 17 10 18 6 19 8 20 7 21 9 22
REMARK SMILES IDX 89 23 90 24 95 25 91 26 94 27 92 28 93 29 20 30 21 31 22 32
REMARK SMILES IDX 23 33 24 34 25 35 86 36 26 37 85 38 27 39 28 40 29 41 79 42
REMARK SMILES IDX 30 43 84 44 78 45 80 46 31 47 83 48 77 49 76 50 32 52 64 53
REMARK SMILES IDX 44 54 63 55 45 56 48 57 62 58 81 59 46 60 47 61 61 63 82 64
REMARK SMILES IDX 49 65 33 66 34 67 42 68 35 69 41 70 43 71 40 72 36 73 37 74
REMARK SMILES IDX 38 75 39 76 65 77 66 78 74 79 67 80 73 81 75 82 72 83 68 84
REMARK SMILES IDX 69 85 70 86 71 87 50 88 51 89 59 90 52 91 58 92 60 93 57 94
REMARK SMILES IDX 53 95 54 96 55 97 56 98
REMARK H PARENT 80 51 48 62
REMARK Flexibility Score: inf
ROOT
ATOM      1  C   UNL A   1      34.370  32.350  28.108  1.00  0.00     0.274 C 
ENDROOT
BRANCH   1   2
ATOM      2  O   UNL A   1      34.383  31.096  27.436  1.00  0.00    -0.460 OA
BRANCH   2   3
ATOM      3  C   UNL A   1      33.180  30.515  27.211  1.00  0.00     0.344 C 
ATOM      4  O   UNL A   1      32.161  31.120  26.893  1.00  0.00    -0.248 OA
BRANCH   3   5
ATOM      5  C   UNL A   1      33.291  28.979  27.237  1.00  0.00     0.353 C 
BRANCH   5   6
ATOM      6  O   UNL A   1      32.271  28.029  27.495  1.00  0.00    -0.466 OA
BRANCH   6   7
ATOM      7  C   UNL A   1      31.937  27.240  26.433  1.00  0.00     0.219 A 
ATOM      8  C   UNL A   1      31.165  27.159  24.283  1.00  0.00     0.233 A 
ATOM      9  N   UNL A   1      31.376  27.873  25.405  1.00  0.00    -0.177 NA
ATOM     10  N   UNL A   1      31.371  25.839  24.200  1.00  0.00    -0.212 NA
ATOM     11  C   UNL A   1      31.993  25.242  25.232  1.00  0.00     0.080 A 
ATOM     12  C   UNL A   1      32.341  25.935  26.378  1.00  0.00     0.097 A 
BRANCH   8  13
ATOM     13  N   UNL A   1      30.918  27.877  23.105  1.00  0.00    -0.311 N 
BRANCH  13  14
ATOM     14  C   UNL A   1      31.922  27.789  22.044  1.00  0.00     0.122 C 
ATOM     15  C   UNL A   1      33.363  27.848  22.543  1.00  0.00     0.028 C 
ENDBRANCH  13  14
BRANCH  13  16
ATOM     16  C   UNL A   1      29.725  28.596  22.915  1.00  0.00     0.044 A 
ATOM     17  C   UNL A   1      28.465  28.059  23.192  1.00  0.00     0.026 A 
ATOM     18  C   UNL A   1      29.787  29.952  22.529  1.00  0.00     0.029 A 
ATOM     19  C   UNL A   1      27.318  28.859  23.119  1.00  0.00     0.002 A 
ATOM     20  C   UNL A   1      28.649  30.764  22.449  1.00  0.00    -0.049 A 
ATOM     21  C   UNL A   1      27.410  30.204  22.755  1.00  0.00     0.003 A 
ATOM     22  C   UNL A   1      28.799  32.212  22.093  1.00  0.00     0.044 C 
ENDBRANCH  13  16
ENDBRANCH   8  13
BRANCH  11  23
ATOM     23  C   UNL A   1      32.346  23.828  25.035  1.00  0.00     0.000 A 
ATOM     24  C   UNL A   1      33.141  23.416  23.954  1.00  0.00     0.010 A 
ATOM     25  C   UNL A   1      31.790  22.834  25.851  1.00  0.00     0.010 A 
ATOM     26  C   UNL A   1      33.193  22.074  23.568  1.00  0.00     0.004 A 
ATOM     27  C   UNL A   1      31.912  21.482  25.516  1.00  0.00     0.004 A 
ATOM     28  C   UNL A   1      32.550  21.100  24.333  1.00  0.00    -0.051 A 
ATOM     29  C   UNL A   1      32.530  19.671  23.878  1.00  0.00     0.044 C 
ENDBRANCH  11  23
ENDBRANCH   6   7
ENDBRANCH   5   6
ENDBRANCH   3   5
ENDBRANCH   2   3
ENDBRANCH   1   2
BRANCH   1  30
ATOM     30  C   UNL A   1      35.471  32.368  29.178  1.00  0.00     0.275 C 
BRANCH  30  31
ATOM     31  O   UNL A   1      36.617  31.462  29.019  1.00  0.00    -0.458 OA
BRANCH  31  32
ATOM     32  C   UNL A   1      36.976  30.264  29.567  1.00  0.00     0.338 C 
ATOM     33  O   UNL A   1      36.262  29.562  30.230  1.00  0.00    -0.246 OA
BRANCH  32  34
ATOM     34  C   UNL A   1      38.255  29.735  29.143  1.00  0.00     0.060 A 
ATOM     35  C   UNL A   1      38.542  29.623  27.771  1.00  0.00     0.016 A 
ATOM     36  C   UNL A   1      39.159  29.437  30.135  1.00  0.00     0.016 A 
ATOM     37  C   UNL A   1      39.809  29.225  27.398  1.00  0.00     0.010 A 
ATOM     38  C   UNL A   1      40.459  29.342  29.775  1.00  0.00     0.010 A 
ATOM     39  C   UNL A   1      40.736  29.090  28.426  1.00  0.00    -0.014 A 
BRANCH  39  40
ATOM     40  C   UNL A   1      41.938  28.308  28.320  1.00  0.00     0.031 A 
ATOM     41  C   UNL A   1      41.867  26.864  28.522  1.00  0.00     0.074 A 
ATOM     42  C   UNL A   1      42.923  29.033  27.735  1.00  0.00     0.049 A 
ATOM     43  N   UNL A   1      42.856  26.138  28.896  1.00  0.00    -0.248 NA
ATOM     44  C   UNL A   1      40.628  26.100  28.357  1.00  0.00     0.031 C 
ATOM     45  C   UNL A   1      44.104  28.620  27.008  1.00  0.00     0.029 A 
ATOM     46  N   UNL A   1      43.008  30.425  27.635  1.00  0.00    -0.354 N 
ATOM     47  C   UNL A   1      42.519  24.848  28.551  1.00  0.00     0.074 A 
ATOM     48  C   UNL A   1      41.081  24.844  28.443  1.00  0.00     0.031 C 
ATOM     49  C   UNL A   1      44.925  29.688  26.886  1.00  0.00     0.029 A 
ATOM     50  C   UNL A   1      44.339  30.788  27.648  1.00  0.00     0.049 A 
ATOM     51  H   UNL A   1      42.245  31.043  27.566  1.00  0.00     0.167 HD
ATOM     52  C   UNL A   1      43.504  24.016  28.103  1.00  0.00     0.034 A 
ATOM     53  C   UNL A   1      44.861  31.357  28.780  1.00  0.00     0.034 A 
ATOM     54  C   UNL A   1      44.768  24.759  28.007  1.00  0.00     0.049 A 
ATOM     55  C   UNL A   1      45.772  30.351  29.460  1.00  0.00     0.074 A 
ATOM     56  C   UNL A   1      45.435  25.311  26.925  1.00  0.00     0.029 A 
ATOM     57  N   UNL A   1      45.316  25.344  29.143  1.00  0.00    -0.354 N 
ATOM     58  N   UNL A   1      45.626  29.054  29.367  1.00  0.00    -0.248 NA
ATOM     59  C   UNL A   1      46.975  30.731  30.186  1.00  0.00     0.031 C 
ATOM     60  C   UNL A   1      46.336  26.293  27.423  1.00  0.00     0.029 A 
ATOM     61  C   UNL A   1      46.212  26.339  28.802  1.00  0.00     0.049 A 
ATOM     62  H   UNL A   1      45.095  25.084  30.066  1.00  0.00     0.167 HD
ATOM     63  C   UNL A   1      46.725  28.431  29.893  1.00  0.00     0.074 A 
ATOM     64  C   UNL A   1      47.529  29.528  30.417  1.00  0.00     0.031 C 
ATOM     65  C   UNL A   1      46.920  27.077  29.838  1.00  0.00     0.034 A 
BRANCH  52  66
ATOM     66  C   UNL A   1      43.286  22.691  27.407  1.00  0.00     0.023 A 
ATOM     67  C   UNL A   1      44.158  22.330  26.358  1.00  0.00     0.031 A 
ATOM     68  C   UNL A   1      42.293  21.742  27.715  1.00  0.00     0.131 A 
ATOM     69  C   UNL A   1      43.989  21.143  25.625  1.00  0.00     0.055 A 
ATOM     70  C   UNL A   1      42.099  20.572  26.961  1.00  0.00     0.041 A 
ATOM     71  F   UNL A   1      41.501  21.870  28.789  1.00  0.00    -0.206 F 
ATOM     72  C   UNL A   1      42.946  20.270  25.906  1.00  0.00     0.022 A 
BRANCH  69  73
ATOM     73  S   UNL A   1      45.182  20.756  24.317  1.00  0.00     0.124 S 
ATOM     74  O   UNL A   1      44.543  19.631  23.642  1.00  0.00    -0.237 OA
ATOM     75  O   UNL A   1      45.244  22.008  23.570  1.00  0.00    -0.237 OA
ATOM     76  O   UNL A   1      46.399  20.422  25.058  1.00  0.00    -0.744 OA
ENDBRANCH  69  73
ENDBRANCH  52  66
BRANCH  53  77
ATOM     77  C   UNL A   1      43.927  32.321  29.462  1.00  0.00     0.023 A 
ATOM     78  C   UNL A   1      43.740  33.585  28.855  1.00  0.00     0.031 A 
ATOM     79  C   UNL A   1      42.979  31.933  30.421  1.00  0.00     0.131 A 
ATOM     80  C   UNL A   1      42.574  34.340  29.090  1.00  0.00     0.055 A 
ATOM     81  C   UNL A   1      41.839  32.713  30.690  1.00  0.00     0.041 A 
ATOM     82  F   UNL A   1      43.071  30.743  31.033  1.00  0.00    -0.206 F 
ATOM     83  C   UNL A   1      41.612  33.905  29.997  1.00  0.00     0.022 A 
BRANCH  80  84
ATOM     84  S   UNL A   1      42.267  35.795  28.042  1.00  0.00     0.124 S 
ATOM     85  O   UNL A   1      42.886  35.404  26.780  1.00  0.00    -0.237 OA
ATOM     86  O   UNL A   1      40.806  35.854  28.046  1.00  0.00    -0.237 OA
ATOM     87  O   UNL A   1      42.934  36.887  28.743  1.00  0.00    -0.744 OA
ENDBRANCH  80  84
ENDBRANCH  53  77
BRANCH  65  88
ATOM     88  C   UNL A   1      47.893  26.324  30.708  1.00  0.00     0.023 A 
ATOM     89  C   UNL A   1      47.552  25.887  31.989  1.00  0.00     0.031 A 
ATOM     90  C   UNL A   1      49.170  25.922  30.241  1.00  0.00     0.131 A 
ATOM     91  C   UNL A   1      48.481  25.226  32.799  1.00  0.00     0.055 A 
ATOM     92  C   UNL A   1      50.045  25.147  31.003  1.00  0.00     0.041 A 
ATOM     93  F   UNL A   1      49.622  26.250  29.022  1.00  0.00    -0.206 F 
ATOM     94  C   UNL A   1      49.716  24.819  32.307  1.00  0.00     0.022 A 
BRANCH  91  95
ATOM     95  S   UNL A   1      48.064  25.041  34.546  1.00  0.00     0.124 S 
ATOM     96  O   UNL A   1      47.579  26.379  34.878  1.00  0.00    -0.237 OA
ATOM     97  O   UNL A   1      47.049  23.992  34.519  1.00  0.00    -0.237 OA
ATOM     98  O   UNL A   1      49.334  24.669  35.164  1.00  0.00    -0.744 OA
ENDBRANCH  91  95
ENDBRANCH  65  88
ENDBRANCH  39  40
ENDBRANCH  32  34
ENDBRANCH  31  32
ENDBRANCH  30  31
ENDBRANCH   1  30
TORSDOF 20
ENDMDL
MODEL 3
REMARK VINA RESULT:     -11.4      6.220      9.131
REMARK SMILES CCN(c1cccc(C)c1)c1nc(OCC(=O)OCCOC(=O)c2ccc(-c3c4nc(c(-c5cc(S(=O)(=O)[O-])ccc5F)c5ccc([nH]5)c(-c5cc(S(=O)(=O)[O-])ccc5F)c5nc(c(-c6cc(S(=O)(=O)[O-])ccc6F)c6ccc3[nH]6)C=C5)C=C4)cc2)cc(-c2ccc(C)cc2)n1
REMARK SMILES IDX 19 1 18 2 16 3 17 4 15 5 14 6 13 7 11 8 12 9 96 10 88 11
REMARK SMILES IDX 87 12 3 13 2 14 1 15 4 16 5 17 10 18 6 19 8 20 7 21 9 22
REMARK SMILES IDX 89 23 90 24 95 25 91 26 94 27 92 28 93 29 20 30 21 31 22 32
REMARK SMILES IDX 23 33 24 34 25 35 86 36 26 37 85 38 27 39 28 40 29 41 79 42
REMARK SMILES IDX 30 43 84 44 78 45 80 46 31 47 83 48 77 49 76 50 32 52 64 53
REMARK SMILES IDX 44 54 63 55 45 56 48 57 62 58 81 59 46 60 47 61 61 63 82 64
REMARK SMILES IDX 49 65 33 66 34 67 42 68 35 69 41 70 43 71 40 72 36 73 37 74
REMARK SMILES IDX 38 75 39 76 65 77 66 78 74 79 67 80 73 81 75 82 72 83 68 84
REMARK SMILES IDX 69 85 70 86 71 87 50 88 51 89 59 90 52 91 58 92 60 93 57 94
REMARK SMILES IDX 53 95 54 96 55 97 56 98
REMARK H PARENT 80 51 48 62
REMARK Flexibility Score: inf
ROOT
ATOM      1  C   UNL A   1      45.718  24.761  25.125  1.00  0.00     0.274 C 
ENDROOT
BRANCH   1   2
ATOM      2  O   UNL A   1      44.337  24.555  24.851  1.00  0.00    -0.460 OA
BRANCH   2   3
ATOM      3  C   UNL A   1      43.893  23.277  24.901  1.00  0.00     0.344 C 
ATOM      4  O   UNL A   1      43.617  22.594  23.920  1.00  0.00    -0.248 OA
BRANCH   3   5
ATOM      5  C   UNL A   1      43.940  22.728  26.340  1.00  0.00     0.353 C 
BRANCH   5   6
ATOM      6  O   UNL A   1      42.954  21.976  27.026  1.00  0.00    -0.466 OA
BRANCH   6   7
ATOM      7  C   UNL A   1      41.724  22.565  27.093  1.00  0.00     0.219 A 
ATOM      8  C   UNL A   1      40.528  24.427  27.667  1.00  0.00     0.233 A 
ATOM      9  N   UNL A   1      41.689  23.747  27.706  1.00  0.00    -0.177 NA
ATOM     10  N   UNL A   1      39.395  23.921  27.162  1.00  0.00    -0.212 NA
ATOM     11  C   UNL A   1      39.477  22.755  26.500  1.00  0.00     0.080 A 
ATOM     12  C   UNL A   1      40.663  22.048  26.403  1.00  0.00     0.097 A 
BRANCH   8  13
ATOM     13  N   UNL A   1      40.575  25.792  27.981  1.00  0.00    -0.311 N 
BRANCH  13  14
ATOM     14  C   UNL A   1      39.645  26.277  29.001  1.00  0.00     0.122 C 
ATOM     15  C   UNL A   1      38.988  27.612  28.661  1.00  0.00     0.028 C 
ENDBRANCH  13  14
BRANCH  13  16
ATOM     16  C   UNL A   1      41.522  26.650  27.397  1.00  0.00     0.044 A 
ATOM     17  C   UNL A   1      41.424  27.103  26.079  1.00  0.00     0.026 A 
ATOM     18  C   UNL A   1      42.567  27.171  28.191  1.00  0.00     0.029 A 
ATOM     19  C   UNL A   1      42.316  28.063  25.587  1.00  0.00     0.002 A 
ATOM     20  C   UNL A   1      43.468  28.130  27.713  1.00  0.00    -0.049 A 
ATOM     21  C   UNL A   1      43.328  28.579  26.400  1.00  0.00     0.003 A 
ATOM     22  C   UNL A   1      44.514  28.684  28.633  1.00  0.00     0.044 C 
ENDBRANCH  13  16
ENDBRANCH   8  13
BRANCH  11  23
ATOM     23  C   UNL A   1      38.247  22.315  25.824  1.00  0.00     0.000 A 
ATOM     24  C   UNL A   1      37.125  23.152  25.732  1.00  0.00     0.010 A 
ATOM     25  C   UNL A   1      38.117  20.998  25.364  1.00  0.00     0.010 A 
ATOM     26  C   UNL A   1      35.866  22.637  25.409  1.00  0.00     0.004 A 
ATOM     27  C   UNL A   1      36.875  20.501  24.958  1.00  0.00     0.004 A 
ATOM     28  C   UNL A   1      35.729  21.296  25.050  1.00  0.00    -0.051 A 
ATOM     29  C   UNL A   1      34.371  20.717  24.786  1.00  0.00     0.044 C 
ENDBRANCH  11  23
ENDBRANCH   6   7
ENDBRANCH   5   6
ENDBRANCH   3   5
ENDBRANCH   2   3
ENDBRANCH   1   2
BRANCH   1  30
ATOM     30  C   UNL A   1      45.903  26.111  25.834  1.00  0.00     0.275 C 
BRANCH  30  31
ATOM     31  O   UNL A   1      46.591  26.132  27.132  1.00  0.00    -0.458 OA
BRANCH  31  32
ATOM     32  C   UNL A   1      46.945  25.180  28.046  1.00  0.00     0.338 C 
ATOM     33  O   UNL A   1      47.880  24.435  27.944  1.00  0.00    -0.246 OA
BRANCH  32  34
ATOM     34  C   UNL A   1      46.237  25.225  29.307  1.00  0.00     0.060 A 
ATOM     35  C   UNL A   1      44.998  24.572  29.434  1.00  0.00     0.016 A 
ATOM     36  C   UNL A   1      46.872  25.857  30.350  1.00  0.00     0.016 A 
ATOM     37  C   UNL A   1      44.402  24.534  30.678  1.00  0.00     0.010 A 
ATOM     38  C   UNL A   1      46.446  25.565  31.599  1.00  0.00     0.010 A 
ATOM     39  C   UNL A   1      45.153  25.044  31.732  1.00  0.00    -0.014 A 
BRANCH  39  40
ATOM     40  C   UNL A   1      44.586  25.477  32.980  1.00  0.00     0.031 A 
ATOM     41  C   UNL A   1      44.141  26.861  33.117  1.00  0.00     0.074 A 
ATOM     42  C   UNL A   1      44.276  24.409  33.754  1.00  0.00     0.049 A 
ATOM     43  N   UNL A   1      44.050  27.483  34.234  1.00  0.00    -0.248 NA
ATOM     44  C   UNL A   1      43.792  27.698  31.966  1.00  0.00     0.031 C 
ATOM     45  C   UNL A   1      43.319  24.259  34.830  1.00  0.00     0.029 A 
ATOM     46  N   UNL A   1      44.788  23.111  33.656  1.00  0.00    -0.354 N 
ATOM     47  C   UNL A   1      43.212  28.551  33.996  1.00  0.00     0.074 A 
ATOM     48  C   UNL A   1      43.269  28.771  32.572  1.00  0.00     0.031 C 
ATOM     49  C   UNL A   1      43.590  23.107  35.484  1.00  0.00     0.029 A 
ATOM     50  C   UNL A   1      44.816  22.551  34.916  1.00  0.00     0.049 A 
ATOM     51  H   UNL A   1      45.080  22.671  32.825  1.00  0.00     0.167 HD
ATOM     52  C   UNL A   1      42.341  28.925  34.978  1.00  0.00     0.034 A 
ATOM     53  C   UNL A   1      46.019  22.420  35.558  1.00  0.00     0.034 A 
ATOM     54  C   UNL A   1      42.445  27.994  36.109  1.00  0.00     0.049 A 
ATOM     55  C   UNL A   1      46.086  23.433  36.687  1.00  0.00     0.074 A 
ATOM     56  C   UNL A   1      41.650  26.930  36.506  1.00  0.00     0.029 A 
ATOM     57  N   UNL A   1      43.656  27.845  36.776  1.00  0.00    -0.354 N 
ATOM     58  N   UNL A   1      45.450  24.576  36.681  1.00  0.00    -0.248 NA
ATOM     59  C   UNL A   1      46.771  23.177  37.946  1.00  0.00     0.031 C 
ATOM     60  C   UNL A   1      42.428  26.098  37.358  1.00  0.00     0.029 A 
ATOM     61  C   UNL A   1      43.692  26.653  37.474  1.00  0.00     0.049 A 
ATOM     62  H   UNL A   1      44.390  28.500  36.753  1.00  0.00     0.167 HD
ATOM     63  C   UNL A   1      45.528  25.150  37.921  1.00  0.00     0.074 A 
ATOM     64  C   UNL A   1      46.389  24.243  38.670  1.00  0.00     0.031 C 
ATOM     65  C   UNL A   1      44.863  26.298  38.261  1.00  0.00     0.034 A 
BRANCH  52  66
ATOM     66  C   UNL A   1      41.162  29.856  34.798  1.00  0.00     0.023 A 
ATOM     67  C   UNL A   1      40.111  29.454  33.948  1.00  0.00     0.031 A 
ATOM     68  C   UNL A   1      40.984  31.105  35.424  1.00  0.00     0.131 A 
ATOM     69  C   UNL A   1      39.007  30.284  33.685  1.00  0.00     0.055 A 
ATOM     70  C   UNL A   1      39.901  31.952  35.136  1.00  0.00     0.041 A 
ATOM     71  F   UNL A   1      41.815  31.542  36.381  1.00  0.00    -0.206 F 
ATOM     72  C   UNL A   1      38.907  31.545  34.258  1.00  0.00     0.022 A 
BRANCH  69  73
ATOM     73  S   UNL A   1      37.695  29.661  32.602  1.00  0.00     0.124 S 
ATOM     74  O   UNL A   1      38.354  29.644  31.300  1.00  0.00    -0.237 OA
ATOM     75  O   UNL A   1      37.395  28.361  33.191  1.00  0.00    -0.237 OA
ATOM     76  O   UNL A   1      36.636  30.660  32.746  1.00  0.00    -0.744 OA
ENDBRANCH  69  73
ENDBRANCH  52  66
BRANCH  53  77
ATOM     77  C   UNL A   1      47.151  22.015  34.653  1.00  0.00     0.023 A 
ATOM     78  C   UNL A   1      48.169  22.970  34.417  1.00  0.00     0.031 A 
ATOM     79  C   UNL A   1      47.448  20.681  34.335  1.00  0.00     0.131 A 
ATOM     80  C   UNL A   1      49.464  22.571  34.032  1.00  0.00     0.055 A 
ATOM     81  C   UNL A   1      48.730  20.293  33.902  1.00  0.00     0.041 A 
ATOM     82  F   UNL A   1      46.547  19.711  34.542  1.00  0.00    -0.206 F 
ATOM     83  C   UNL A   1      49.757  21.233  33.784  1.00  0.00     0.022 A 
BRANCH  80  84
ATOM     84  S   UNL A   1      50.788  23.819  34.052  1.00  0.00     0.124 S 
ATOM     85  O   UNL A   1      50.963  24.107  32.631  1.00  0.00    -0.237 OA
ATOM     86  O   UNL A   1      50.176  24.882  34.847  1.00  0.00    -0.237 OA
ATOM     87  O   UNL A   1      51.912  23.138  34.685  1.00  0.00    -0.744 OA
ENDBRANCH  80  84
ENDBRANCH  53  77
BRANCH  65  88
ATOM     88  C   UNL A   1      45.204  27.154  39.454  1.00  0.00     0.023 A 
ATOM     89  C   UNL A   1      45.845  28.386  39.319  1.00  0.00     0.031 A 
ATOM     90  C   UNL A   1      44.802  26.810  40.770  1.00  0.00     0.131 A 
ATOM     91  C   UNL A   1      46.191  29.148  40.440  1.00  0.00     0.055 A 
ATOM     92  C   UNL A   1      45.031  27.636  41.871  1.00  0.00     0.041 A 
ATOM     93  F   UNL A   1      44.158  25.667  41.046  1.00  0.00    -0.206 F 
ATOM     94  C   UNL A   1      45.760  28.803  41.716  1.00  0.00     0.022 A 
BRANCH  91  95
ATOM     95  S   UNL A   1      47.332  30.523  40.178  1.00  0.00     0.124 S 
ATOM     96  O   UNL A   1      47.342  31.154  41.496  1.00  0.00    -0.237 OA
ATOM     97  O   UNL A   1      48.565  29.842  39.796  1.00  0.00    -0.237 OA
ATOM     98  O   UNL A   1      46.693  31.302  39.121  1.00  0.00    -0.744 OA
ENDBRANCH  91  95
ENDBRANCH  65  88
ENDBRANCH  39  40
ENDBRANCH  32  34
ENDBRANCH  31  32
ENDBRANCH  30  31
ENDBRANCH   1  30
TORSDOF 20
ENDMDL
