MODEL 1
REMARK VINA RESULT:     -12.4      0.000      0.000
REMARK SMILES O=C(OCCOC(=O)c1ccc(-c2c3nc(c(-c4cc(S(=O)(=O)[O-])ccc4F)c4ccc([nH]4)c(-c4cc(S(=O)(=O)[O-])ccc4F)c4nc(c(-c5cc(S(=O)(=O)[O-])ccc5F)c5ccc2[nH]5)C=C4)C=C3)cc1)C1=Cc2cc(S(F)(F)(F)(F)F)cc(Br)c2O[C@H]1C(F)(F)F
REMARK SMILES IDX 5 1 4 2 3 3 2 4 1 5 72 6 73 7 88 8 74 9 87 10 75 11 86 12
REMARK SMILES IDX 76 13 84 14 83 15 85 16 89 17 90 18 91 19 92 20 77 21 78 22
REMARK SMILES IDX 79 23 80 24 81 25 82 26 6 27 7 28 8 29 9 30 10 31 71 32
REMARK SMILES IDX 11 33 70 34 12 35 13 36 14 37 64 38 15 39 69 40 63 41 65 42
REMARK SMILES IDX 16 43 68 44 62 45 61 46 17 48 49 49 29 50 48 51 30 52 33 53
REMARK SMILES IDX 47 54 66 55 31 56 32 57 46 59 67 60 34 61 18 62 19 63 27 64
REMARK SMILES IDX 20 65 26 66 28 67 25 68 21 69 22 70 23 71 24 72 50 73 51 74
REMARK SMILES IDX 59 75 52 76 58 77 60 78 57 79 53 80 54 81 55 82 56 83 35 84
REMARK SMILES IDX 36 85 44 86 37 87 43 88 45 89 42 90 38 91 39 92 40 93 41 94
REMARK H PARENT 65 47 33 58
REMARK Flexibility Score: inf
ROOT
ATOM      1  C   UNL A   1      37.067  21.699  24.269  1.00  0.00     0.275 C 
ENDROOT
BRANCH   1   2
ATOM      2  C   UNL A   1      36.216  22.911  23.926  1.00  0.00     0.275 C 
BRANCH   2   3
ATOM      3  O   UNL A   1      35.095  22.964  24.796  1.00  0.00    -0.459 OA
BRANCH   3   4
ATOM      4  C   UNL A   1      33.809  22.592  24.320  1.00  0.00     0.338 C 
ATOM      5  O   UNL A   1      33.625  22.389  23.079  1.00  0.00    -0.246 OA
BRANCH   4   6
ATOM      6  C   UNL A   1      32.653  22.439  25.295  1.00  0.00     0.087 C 
ATOM      7  C   UNL A   1      32.024  23.542  25.783  1.00  0.00     0.027 C 
ATOM      8  C   UNL A   1      32.201  21.053  25.726  1.00  0.00     0.316 C 
ATOM      9  C   UNL A   1      32.476  24.928  25.353  1.00  0.00     0.020 A 
ATOM     10  O   UNL A   1      32.561  23.991  23.170  1.00  0.00    -0.474 OA
ATOM     11  C   UNL A   1      32.753  25.933  26.264  1.00  0.00     0.036 A 
ATOM     12  C   UNL A   1      32.703  25.093  24.055  1.00  0.00     0.142 A 
ATOM     13  C   UNL A   1      33.002  27.194  25.669  1.00  0.00     0.109 A 
ATOM     14  C   UNL A   1      33.077  26.319  23.560  1.00  0.00     0.062 A 
ATOM     15  C   UNL A   1      33.311  27.373  24.398  1.00  0.00     0.044 A 
ATOM     16  Br  UNL A   1      33.276  26.560  21.625  1.00  0.00    -0.047 Br
BRANCH   8  17
ATOM     17  C   UNL A   1      33.062  20.004  25.042  1.00  0.00     0.430 C 
ATOM     18  F   UNL A   1      34.346  20.218  25.311  1.00  0.00    -0.167 F 
ATOM     19  F   UNL A   1      32.703  18.813  25.513  1.00  0.00    -0.167 F 
ATOM     20  F   UNL A   1      32.872  20.036  23.726  1.00  0.00    -0.167 F 
ENDBRANCH   8  17
BRANCH  13  21
ATOM     21  S   UNL A   1      32.891  28.659  26.726  1.00  0.00     0.310 S 
ATOM     22  F   UNL A   1      32.334  27.825  27.955  1.00  0.00    -0.094 F 
ATOM     23  F   UNL A   1      31.395  28.852  26.269  1.00  0.00    -0.094 F 
ATOM     24  F   UNL A   1      32.809  29.924  27.626  1.00  0.00    -0.094 F 
ATOM     25  F   UNL A   1      34.341  28.369  27.279  1.00  0.00    -0.094 F 
ATOM     26  F   UNL A   1      32.950  27.309  25.904  1.00  0.00    -0.094 F 
ENDBRANCH  13  21
ENDBRANCH   4   6
ENDBRANCH   3   4
ENDBRANCH   2   3
ENDBRANCH   1   2
BRANCH   1  27
ATOM     27  O   UNL A   1      37.342  21.693  25.662  1.00  0.00    -0.458 OA
BRANCH  27  28
ATOM     28  C   UNL A   1      38.675  21.863  26.123  1.00  0.00     0.338 C 
ATOM     29  O   UNL A   1      39.515  20.917  25.997  1.00  0.00    -0.246 OA
BRANCH  28  30
ATOM     30  C   UNL A   1      39.096  23.174  26.768  1.00  0.00     0.060 A 
ATOM     31  C   UNL A   1      38.555  24.375  26.341  1.00  0.00     0.016 A 
ATOM     32  C   UNL A   1      40.108  23.140  27.626  1.00  0.00     0.016 A 
ATOM     33  C   UNL A   1      39.347  25.504  26.658  1.00  0.00     0.010 A 
ATOM     34  C   UNL A   1      40.749  24.297  27.997  1.00  0.00     0.010 A 
ATOM     35  C   UNL A   1      40.306  25.516  27.566  1.00  0.00    -0.014 A 
BRANCH  35  36
ATOM     36  C   UNL A   1      40.884  26.815  28.104  1.00  0.00     0.031 A 
ATOM     37  C   UNL A   1      42.236  27.035  27.834  1.00  0.00     0.074 A 
ATOM     38  C   UNL A   1      40.049  27.750  28.691  1.00  0.00     0.049 A 
ATOM     39  N   UNL A   1      42.938  28.149  28.050  1.00  0.00    -0.248 NA
ATOM     40  C   UNL A   1      43.132  26.031  27.242  1.00  0.00     0.031 C 
ATOM     41  C   UNL A   1      38.683  27.539  28.958  1.00  0.00     0.029 A 
ATOM     42  N   UNL A   1      40.370  29.021  29.116  1.00  0.00    -0.354 N 
ATOM     43  C   UNL A   1      44.199  27.985  27.645  1.00  0.00     0.074 A 
ATOM     44  C   UNL A   1      44.344  26.618  27.124  1.00  0.00     0.031 C 
ATOM     45  C   UNL A   1      38.190  28.660  29.546  1.00  0.00     0.029 A 
ATOM     46  C   UNL A   1      39.239  29.592  29.655  1.00  0.00     0.049 A 
ATOM     47  H   UNL A   1      41.255  29.446  29.046  1.00  0.00     0.167 HD
ATOM     48  C   UNL A   1      45.233  28.921  27.687  1.00  0.00     0.034 A 
ATOM     49  C   UNL A   1      39.110  30.852  30.218  1.00  0.00     0.034 A 
ATOM     50  C   UNL A   1      45.093  30.197  28.209  1.00  0.00     0.049 A 
ATOM     51  C   UNL A   1      40.161  31.769  30.313  1.00  0.00     0.074 A 
ATOM     52  C   UNL A   1      46.123  31.157  28.253  1.00  0.00     0.029 A 
ATOM     53  N   UNL A   1      43.968  30.761  28.771  1.00  0.00    -0.354 N 
ATOM     54  N   UNL A   1      41.410  31.619  29.872  1.00  0.00    -0.248 NA
ATOM     55  C   UNL A   1      40.045  33.095  30.935  1.00  0.00     0.031 C 
ATOM     56  C   UNL A   1      45.629  32.279  28.840  1.00  0.00     0.029 A 
ATOM     57  C   UNL A   1      44.283  32.039  29.176  1.00  0.00     0.049 A 
ATOM     58  H   UNL A   1      43.090  30.324  28.868  1.00  0.00     0.167 HD
ATOM     59  C   UNL A   1      42.123  32.719  30.126  1.00  0.00     0.074 A 
ATOM     60  C   UNL A   1      41.256  33.681  30.820  1.00  0.00     0.031 C 
ATOM     61  C   UNL A   1      43.459  32.960  29.804  1.00  0.00     0.034 A 
BRANCH  48  62
ATOM     62  C   UNL A   1      46.588  28.520  27.127  1.00  0.00     0.023 A 
ATOM     63  C   UNL A   1      46.846  28.572  25.768  1.00  0.00     0.031 A 
ATOM     64  C   UNL A   1      47.505  28.093  27.988  1.00  0.00     0.131 A 
ATOM     65  C   UNL A   1      48.014  27.873  25.379  1.00  0.00     0.055 A 
ATOM     66  C   UNL A   1      48.683  27.545  27.539  1.00  0.00     0.041 A 
ATOM     67  F   UNL A   1      47.282  28.196  29.294  1.00  0.00    -0.206 F 
ATOM     68  C   UNL A   1      48.978  27.509  26.204  1.00  0.00     0.022 A 
BRANCH  65  69
ATOM     69  S   UNL A   1      48.198  27.450  23.630  1.00  0.00     0.124 S 
ATOM     70  O   UNL A   1      47.152  28.208  22.808  1.00  0.00    -0.237 OA
ATOM     71  O   UNL A   1      49.600  27.839  23.155  1.00  0.00    -0.237 OA
ATOM     72  O   UNL A   1      47.974  25.767  23.424  1.00  0.00    -0.744 OA
ENDBRANCH  65  69
ENDBRANCH  48  62
BRANCH  49  73
ATOM     73  C   UNL A   1      37.751  31.260  30.761  1.00  0.00     0.023 A 
ATOM     74  C   UNL A   1      36.834  31.791  29.870  1.00  0.00     0.031 A 
ATOM     75  C   UNL A   1      37.451  31.101  32.045  1.00  0.00     0.131 A 
ATOM     76  C   UNL A   1      35.716  32.398  30.490  1.00  0.00     0.055 A 
ATOM     77  C   UNL A   1      36.279  31.601  32.556  1.00  0.00     0.041 A 
ATOM     78  F   UNL A   1      38.295  30.452  32.843  1.00  0.00    -0.206 F 
ATOM     79  C   UNL A   1      35.352  32.191  31.743  1.00  0.00     0.022 A 
BRANCH  76  80
ATOM     80  S   UNL A   1      34.717  33.535  29.499  1.00  0.00     0.124 S 
ATOM     81  O   UNL A   1      35.631  34.553  28.812  1.00  0.00    -0.237 OA
ATOM     82  O   UNL A   1      33.946  32.746  28.439  1.00  0.00    -0.237 OA
ATOM     83  O   UNL A   1      33.611  34.355  30.513  1.00  0.00    -0.744 OA
ENDBRANCH  76  80
ENDBRANCH  49  73
BRANCH  61  84
ATOM     84  C   UNL A   1      44.047  34.316  30.162  1.00  0.00     0.023 A 
ATOM     85  C   UNL A   1      43.955  35.382  29.283  1.00  0.00     0.031 A 
ATOM     86  C   UNL A   1      44.734  34.413  31.293  1.00  0.00     0.131 A 
ATOM     87  C   UNL A   1      44.873  36.425  29.550  1.00  0.00     0.055 A 
ATOM     88  C   UNL A   1      45.504  35.521  31.552  1.00  0.00     0.041 A 
ATOM     89  F   UNL A   1      44.678  33.427  32.185  1.00  0.00    -0.206 F 
ATOM     90  C   UNL A   1      45.509  36.588  30.697  1.00  0.00     0.022 A 
BRANCH  87  91
ATOM     91  S   UNL A   1      45.199  37.619  28.230  1.00  0.00     0.124 S 
ATOM     92  O   UNL A   1      46.603  37.385  27.666  1.00  0.00    -0.237 OA
ATOM     93  O   UNL A   1      44.167  37.441  27.114  1.00  0.00    -0.237 OA
ATOM     94  O   UNL A   1      45.093  39.207  28.857  1.00  0.00    -0.744 OA
ENDBRANCH  87  91
ENDBRANCH  61  84
ENDBRANCH  35  36
ENDBRANCH  28  30
ENDBRANCH  27  28
ENDBRANCH   1  27
TORSDOF 16
ENDMDL
MODEL 2
REMARK VINA RESULT:     -12.3      1.325      1.491
REMARK SMILES O=C(OCCOC(=O)c1ccc(-c2c3nc(c(-c4cc(S(=O)(=O)[O-])ccc4F)c4ccc([nH]4)c(-c4cc(S(=O)(=O)[O-])ccc4F)c4nc(c(-c5cc(S(=O)(=O)[O-])ccc5F)c5ccc2[nH]5)C=C4)C=C3)cc1)C1=Cc2cc(S(F)(F)(F)(F)F)cc(Br)c2O[C@H]1C(F)(F)F
REMARK SMILES IDX 5 1 4 2 3 3 2 4 1 5 72 6 73 7 88 8 74 9 87 10 75 11 86 12
REMARK SMILES IDX 76 13 84 14 83 15 85 16 89 17 90 18 91 19 92 20 77 21 78 22
REMARK SMILES IDX 79 23 80 24 81 25 82 26 6 27 7 28 8 29 9 30 10 31 71 32
REMARK SMILES IDX 11 33 70 34 12 35 13 36 14 37 64 38 15 39 69 40 63 41 65 42
REMARK SMILES IDX 16 43 68 44 62 45 61 46 17 48 49 49 29 50 48 51 30 52 33 53
REMARK SMILES IDX 47 54 66 55 31 56 32 57 46 59 67 60 34 61 18 62 19 63 27 64
REMARK SMILES IDX 20 65 26 66 28 67 25 68 21 69 22 70 23 71 24 72 50 73 51 74
REMARK SMILES IDX 59 75 52 76 58 77 60 78 57 79 53 80 54 81 55 82 56 83 35 84
REMARK SMILES IDX 36 85 44 86 37 87 43 88 45 89 42 90 38 91 39 92 40 93 41 94
REMARK H PARENT 65 47 33 58
REMARK Flexibility Score: inf
ROOT
ATOM      1  C   UNL A   1      37.084  21.717  24.289  1.00  0.00     0.275 C 
ENDROOT
BRANCH   1   2
ATOM      2  C   UNL A   1      36.243  22.939  23.957  1.00  0.00     0.275 C 
BRANCH   2   3
ATOM      3  O   UNL A   1      35.118  22.990  24.823  1.00  0.00    -0.459 OA
BRANCH   3   4
ATOM      4  C   UNL A   1      33.838  22.601  24.347  1.00  0.00     0.338 C 
ATOM      5  O   UNL A   1      33.659  22.385  23.107  1.00  0.00    -0.246 OA
BRANCH   4   6
ATOM      6  C   UNL A   1      32.681  22.443  25.320  1.00  0.00     0.087 C 
ATOM      7  C   UNL A   1      32.042  23.543  25.802  1.00  0.00     0.027 C 
ATOM      8  C   UNL A   1      32.239  21.055  25.755  1.00  0.00     0.316 C 
ATOM      9  C   UNL A   1      32.485  24.931  25.367  1.00  0.00     0.020 A 
ATOM     10  O   UNL A   1      32.582  23.984  23.188  1.00  0.00    -0.474 OA
ATOM     11  C   UNL A   1      32.752  25.941  26.275  1.00  0.00     0.036 A 
ATOM     12  C   UNL A   1      32.713  25.091  24.069  1.00  0.00     0.142 A 
ATOM     13  C   UNL A   1      32.992  27.201  25.675  1.00  0.00     0.109 A 
ATOM     14  C   UNL A   1      33.079  26.318  23.570  1.00  0.00     0.062 A 
ATOM     15  C   UNL A   1      33.302  27.378  24.403  1.00  0.00     0.044 A 
ATOM     16  Br  UNL A   1      33.280  26.553  21.634  1.00  0.00    -0.047 Br
BRANCH   8  17
ATOM     17  C   UNL A   1      33.109  20.010  25.078  1.00  0.00     0.430 C 
ATOM     18  F   UNL A   1      34.393  20.331  25.204  1.00  0.00    -0.167 F 
ATOM     19  F   UNL A   1      32.884  18.843  25.675  1.00  0.00    -0.167 F 
ATOM     20  F   UNL A   1      32.799  19.914  23.788  1.00  0.00    -0.167 F 
ENDBRANCH   8  17
BRANCH  13  21
ATOM     21  S   UNL A   1      32.868  28.670  26.725  1.00  0.00     0.310 S 
ATOM     22  F   UNL A   1      32.279  27.843  27.943  1.00  0.00    -0.094 F 
ATOM     23  F   UNL A   1      31.383  28.872  26.235  1.00  0.00    -0.094 F 
ATOM     24  F   UNL A   1      32.774  29.938  27.620  1.00  0.00    -0.094 F 
ATOM     25  F   UNL A   1      34.304  28.373  27.310  1.00  0.00    -0.094 F 
ATOM     26  F   UNL A   1      32.935  27.318  25.908  1.00  0.00    -0.094 F 
ENDBRANCH  13  21
ENDBRANCH   4   6
ENDBRANCH   3   4
ENDBRANCH   2   3
ENDBRANCH   1   2
BRANCH   1  27
ATOM     27  O   UNL A   1      37.362  21.698  25.681  1.00  0.00    -0.458 OA
BRANCH  27  28
ATOM     28  C   UNL A   1      38.694  21.869  26.142  1.00  0.00     0.338 C 
ATOM     29  O   UNL A   1      39.536  20.925  26.014  1.00  0.00    -0.246 OA
BRANCH  28  30
ATOM     30  C   UNL A   1      39.114  23.181  26.787  1.00  0.00     0.060 A 
ATOM     31  C   UNL A   1      38.534  24.376  26.396  1.00  0.00     0.016 A 
ATOM     32  C   UNL A   1      40.158  23.156  27.606  1.00  0.00     0.016 A 
ATOM     33  C   UNL A   1      39.315  25.517  26.698  1.00  0.00     0.010 A 
ATOM     34  C   UNL A   1      40.790  24.321  27.968  1.00  0.00     0.010 A 
ATOM     35  C   UNL A   1      40.307  25.537  27.569  1.00  0.00    -0.014 A 
BRANCH  35  36
ATOM     36  C   UNL A   1      40.880  26.840  28.102  1.00  0.00     0.031 A 
ATOM     37  C   UNL A   1      42.232  27.064  27.833  1.00  0.00     0.074 A 
ATOM     38  C   UNL A   1      40.041  27.775  28.684  1.00  0.00     0.049 A 
ATOM     39  N   UNL A   1      42.929  28.181  28.045  1.00  0.00    -0.248 NA
ATOM     40  C   UNL A   1      43.132  26.060  27.247  1.00  0.00     0.031 C 
ATOM     41  C   UNL A   1      38.674  27.560  28.949  1.00  0.00     0.029 A 
ATOM     42  N   UNL A   1      40.356  29.049  29.102  1.00  0.00    -0.354 N 
ATOM     43  C   UNL A   1      44.191  28.020  27.643  1.00  0.00     0.074 A 
ATOM     44  C   UNL A   1      44.342  26.651  27.129  1.00  0.00     0.031 C 
ATOM     45  C   UNL A   1      38.176  28.683  29.530  1.00  0.00     0.029 A 
ATOM     46  C   UNL A   1      39.222  29.619  29.637  1.00  0.00     0.049 A 
ATOM     47  H   UNL A   1      41.239  29.477  29.032  1.00  0.00     0.167 HD
ATOM     48  C   UNL A   1      45.222  28.960  27.682  1.00  0.00     0.034 A 
ATOM     49  C   UNL A   1      39.088  30.881  30.193  1.00  0.00     0.034 A 
ATOM     50  C   UNL A   1      45.076  30.238  28.198  1.00  0.00     0.049 A 
ATOM     51  C   UNL A   1      40.135  31.802  30.286  1.00  0.00     0.074 A 
ATOM     52  C   UNL A   1      46.103  31.202  28.238  1.00  0.00     0.029 A 
ATOM     53  N   UNL A   1      43.949  30.800  28.756  1.00  0.00    -0.354 N 
ATOM     54  N   UNL A   1      41.386  31.655  29.848  1.00  0.00    -0.248 NA
ATOM     55  C   UNL A   1      40.013  33.131  30.901  1.00  0.00     0.031 C 
ATOM     56  C   UNL A   1      45.604  32.324  28.820  1.00  0.00     0.029 A 
ATOM     57  C   UNL A   1      44.258  32.081  29.155  1.00  0.00     0.049 A 
ATOM     58  H   UNL A   1      43.072  30.360  28.853  1.00  0.00     0.167 HD
ATOM     59  C   UNL A   1      42.094  32.758  30.098  1.00  0.00     0.074 A 
ATOM     60  C   UNL A   1      41.223  33.721  30.786  1.00  0.00     0.031 C 
ATOM     61  C   UNL A   1      43.430  33.003  29.776  1.00  0.00     0.034 A 
BRANCH  48  62
ATOM     62  C   UNL A   1      46.579  28.561  27.127  1.00  0.00     0.023 A 
ATOM     63  C   UNL A   1      46.835  28.595  25.767  1.00  0.00     0.031 A 
ATOM     64  C   UNL A   1      47.500  28.153  27.992  1.00  0.00     0.131 A 
ATOM     65  C   UNL A   1      48.008  27.900  25.387  1.00  0.00     0.055 A 
ATOM     66  C   UNL A   1      48.682  27.607  27.550  1.00  0.00     0.041 A 
ATOM     67  F   UNL A   1      47.278  28.273  29.297  1.00  0.00    -0.206 F 
ATOM     68  C   UNL A   1      48.976  27.555  26.216  1.00  0.00     0.022 A 
BRANCH  65  69
ATOM     69  S   UNL A   1      48.194  27.452  23.643  1.00  0.00     0.124 S 
ATOM     70  O   UNL A   1      47.151  28.202  22.810  1.00  0.00    -0.237 OA
ATOM     71  O   UNL A   1      49.597  27.832  23.165  1.00  0.00    -0.237 OA
ATOM     72  O   UNL A   1      47.966  25.767  23.460  1.00  0.00    -0.744 OA
ENDBRANCH  65  69
ENDBRANCH  48  62
BRANCH  49  73
ATOM     73  C   UNL A   1      37.726  31.287  30.732  1.00  0.00     0.023 A 
ATOM     74  C   UNL A   1      36.810  31.814  29.838  1.00  0.00     0.031 A 
ATOM     75  C   UNL A   1      37.424  31.130  32.016  1.00  0.00     0.131 A 
ATOM     76  C   UNL A   1      35.689  32.419  30.454  1.00  0.00     0.055 A 
ATOM     77  C   UNL A   1      36.249  31.628  32.523  1.00  0.00     0.041 A 
ATOM     78  F   UNL A   1      38.267  30.485  32.817  1.00  0.00    -0.206 F 
ATOM     79  C   UNL A   1      35.323  32.214  31.706  1.00  0.00     0.022 A 
BRANCH  76  80
ATOM     80  S   UNL A   1      34.689  33.551  29.458  1.00  0.00     0.124 S 
ATOM     81  O   UNL A   1      35.597  34.604  28.816  1.00  0.00    -0.237 OA
ATOM     82  O   UNL A   1      33.967  32.765  28.361  1.00  0.00    -0.237 OA
ATOM     83  O   UNL A   1      33.537  34.324  30.457  1.00  0.00    -0.744 OA
ENDBRANCH  76  80
ENDBRANCH  49  73
BRANCH  61  84
ATOM     84  C   UNL A   1      44.012  34.362  30.129  1.00  0.00     0.023 A 
ATOM     85  C   UNL A   1      44.589  34.585  31.369  1.00  0.00     0.031 A 
ATOM     86  C   UNL A   1      43.857  35.348  29.254  1.00  0.00     0.131 A 
ATOM     87  C   UNL A   1      44.707  35.954  31.707  1.00  0.00     0.055 A 
ATOM     88  C   UNL A   1      44.121  36.648  29.611  1.00  0.00     0.041 A 
ATOM     89  F   UNL A   1      43.440  35.075  28.020  1.00  0.00    -0.206 F 
ATOM     90  C   UNL A   1      44.636  36.949  30.841  1.00  0.00     0.022 A 
BRANCH  87  91
ATOM     91  S   UNL A   1      44.974  36.371  33.448  1.00  0.00     0.124 S 
ATOM     92  O   UNL A   1      46.477  36.410  33.738  1.00  0.00    -0.237 OA
ATOM     93  O   UNL A   1      44.362  37.742  33.744  1.00  0.00    -0.237 OA
ATOM     94  O   UNL A   1      44.232  35.189  34.438  1.00  0.00    -0.744 OA
ENDBRANCH  87  91
ENDBRANCH  61  84
ENDBRANCH  35  36
ENDBRANCH  28  30
ENDBRANCH  27  28
ENDBRANCH   1  27
TORSDOF 16
ENDMDL
MODEL 3
REMARK VINA RESULT:     -12.3      4.772      9.544
REMARK SMILES O=C(OCCOC(=O)c1ccc(-c2c3nc(c(-c4cc(S(=O)(=O)[O-])ccc4F)c4ccc([nH]4)c(-c4cc(S(=O)(=O)[O-])ccc4F)c4nc(c(-c5cc(S(=O)(=O)[O-])ccc5F)c5ccc2[nH]5)C=C4)C=C3)cc1)C1=Cc2cc(S(F)(F)(F)(F)F)cc(Br)c2O[C@H]1C(F)(F)F
REMARK SMILES IDX 5 1 4 2 3 3 2 4 1 5 72 6 73 7 88 8 74 9 87 10 75 11 86 12
REMARK SMILES IDX 76 13 84 14 83 15 85 16 89 17 90 18 91 19 92 20 77 21 78 22
REMARK SMILES IDX 79 23 80 24 81 25 82 26 6 27 7 28 8 29 9 30 10 31 71 32
REMARK SMILES IDX 11 33 70 34 12 35 13 36 14 37 64 38 15 39 69 40 63 41 65 42
REMARK SMILES IDX 16 43 68 44 62 45 61 46 17 48 49 49 29 50 48 51 30 52 33 53
REMARK SMILES IDX 47 54 66 55 31 56 32 57 46 59 67 60 34 61 18 62 19 63 27 64
REMARK SMILES IDX 20 65 26 66 28 67 25 68 21 69 22 70 23 71 24 72 50 73 51 74
REMARK SMILES IDX 59 75 52 76 58 77 60 78 57 79 53 80 54 81 55 82 56 83 35 84
REMARK SMILES IDX 36 85 44 86 37 87 43 88 45 89 42 90 38 91 39 92 40 93 41 94
REMARK H PARENT 65 47 33 58
REMARK Flexibility Score: inf
ROOT
ATOM      1  C   UNL A   1      31.987  29.740  26.841  1.00  0.00     0.275 C 
ENDROOT
BRANCH   1   2
ATOM      2  C   UNL A   1      32.085  28.224  26.888  1.00  0.00     0.275 C 
BRANCH   2   3
ATOM      3  O   UNL A   1      32.457  27.733  25.608  1.00  0.00    -0.459 OA
BRANCH   3   4
ATOM      4  C   UNL A   1      31.492  27.100  24.782  1.00  0.00     0.338 C 
ATOM      5  O   UNL A   1      30.378  26.733  25.273  1.00  0.00    -0.246 OA
BRANCH   4   6
ATOM      6  C   UNL A   1      31.790  26.861  23.311  1.00  0.00     0.087 C 
ATOM      7  C   UNL A   1      32.610  25.839  22.940  1.00  0.00     0.027 C 
ATOM      8  C   UNL A   1      31.172  27.761  22.254  1.00  0.00     0.316 C 
ATOM      9  C   UNL A   1      33.228  24.939  23.997  1.00  0.00     0.020 A 
ATOM     10  O   UNL A   1      31.059  24.952  24.971  1.00  0.00    -0.474 OA
ATOM     11  C   UNL A   1      34.584  24.664  24.036  1.00  0.00     0.036 A 
ATOM     12  C   UNL A   1      32.411  24.518  24.957  1.00  0.00     0.142 A 
ATOM     13  C   UNL A   1      34.943  23.681  24.990  1.00  0.00     0.109 A 
ATOM     14  C   UNL A   1      32.864  23.667  25.936  1.00  0.00     0.062 A 
ATOM     15  C   UNL A   1      34.180  23.305  26.000  1.00  0.00     0.044 A 
ATOM     16  Br  UNL A   1      31.603  22.960  27.260  1.00  0.00    -0.047 Br
BRANCH   8  17
ATOM     17  C   UNL A   1      30.306  28.812  22.927  1.00  0.00     0.430 C 
ATOM     18  F   UNL A   1      31.003  29.451  23.862  1.00  0.00    -0.167 F 
ATOM     19  F   UNL A   1      29.918  29.678  21.995  1.00  0.00    -0.167 F 
ATOM     20  F   UNL A   1      29.236  28.247  23.479  1.00  0.00    -0.167 F 
ENDBRANCH   8  17
BRANCH  13  21
ATOM     21  S   UNL A   1      36.559  22.887  24.812  1.00  0.00     0.310 S 
ATOM     22  F   UNL A   1      36.826  23.570  23.405  1.00  0.00    -0.094 F 
ATOM     23  F   UNL A   1      35.872  21.704  24.029  1.00  0.00    -0.094 F 
ATOM     24  F   UNL A   1      37.950  22.205  24.675  1.00  0.00    -0.094 F 
ATOM     25  F   UNL A   1      37.249  24.145  25.472  1.00  0.00    -0.094 F 
ATOM     26  F   UNL A   1      35.171  23.642  24.856  1.00  0.00    -0.094 F 
ENDBRANCH  13  21
ENDBRANCH   4   6
ENDBRANCH   3   4
ENDBRANCH   2   3
ENDBRANCH   1   2
BRANCH   1  27
ATOM     27  O   UNL A   1      33.239  30.283  26.450  1.00  0.00    -0.458 OA
BRANCH  27  28
ATOM     28  C   UNL A   1      33.877  31.256  27.264  1.00  0.00     0.338 C 
ATOM     29  O   UNL A   1      33.371  32.417  27.381  1.00  0.00    -0.246 OA
BRANCH  28  30
ATOM     30  C   UNL A   1      35.163  30.910  27.997  1.00  0.00     0.060 A 
ATOM     31  C   UNL A   1      36.230  31.793  28.003  1.00  0.00     0.016 A 
ATOM     32  C   UNL A   1      35.284  29.680  28.481  1.00  0.00     0.016 A 
ATOM     33  C   UNL A   1      37.476  31.184  28.282  1.00  0.00     0.010 A 
ATOM     34  C   UNL A   1      36.512  29.196  28.861  1.00  0.00     0.010 A 
ATOM     35  C   UNL A   1      37.621  29.994  28.837  1.00  0.00    -0.014 A 
BRANCH  35  36
ATOM     36  C   UNL A   1      38.949  29.538  29.420  1.00  0.00     0.031 A 
ATOM     37  C   UNL A   1      39.282  30.078  30.665  1.00  0.00     0.074 A 
ATOM     38  C   UNL A   1      39.675  28.543  28.789  1.00  0.00     0.049 A 
ATOM     39  N   UNL A   1      40.297  29.728  31.457  1.00  0.00    -0.248 NA
ATOM     40  C   UNL A   1      38.533  31.158  31.322  1.00  0.00     0.031 C 
ATOM     41  C   UNL A   1      39.339  27.987  27.538  1.00  0.00     0.029 A 
ATOM     42  N   UNL A   1      40.820  27.921  29.232  1.00  0.00    -0.354 N 
ATOM     43  C   UNL A   1      40.281  30.456  32.575  1.00  0.00     0.074 A 
ATOM     44  C   UNL A   1      39.149  31.392  32.501  1.00  0.00     0.031 C 
ATOM     45  C   UNL A   1      40.275  27.053  27.228  1.00  0.00     0.029 A 
ATOM     46  C   UNL A   1      41.211  27.008  28.278  1.00  0.00     0.049 A 
ATOM     47  H   UNL A   1      41.280  28.098  30.084  1.00  0.00     0.167 HD
ATOM     48  C   UNL A   1      41.163  30.377  33.653  1.00  0.00     0.034 A 
ATOM     49  C   UNL A   1      42.319  26.175  28.303  1.00  0.00     0.034 A 
ATOM     50  C   UNL A   1      42.246  29.513  33.698  1.00  0.00     0.049 A 
ATOM     51  C   UNL A   1      43.236  26.137  29.357  1.00  0.00     0.074 A 
ATOM     52  C   UNL A   1      43.141  29.415  34.781  1.00  0.00     0.029 A 
ATOM     53  N   UNL A   1      42.651  28.617  32.733  1.00  0.00    -0.354 N 
ATOM     54  N   UNL A   1      43.196  26.837  30.491  1.00  0.00    -0.248 NA
ATOM     55  C   UNL A   1      44.430  25.282  29.381  1.00  0.00     0.031 C 
ATOM     56  C   UNL A   1      44.078  28.480  34.469  1.00  0.00     0.029 A 
ATOM     57  C   UNL A   1      43.785  27.980  33.186  1.00  0.00     0.049 A 
ATOM     58  H   UNL A   1      42.207  28.461  31.867  1.00  0.00     0.167 HD
ATOM     59  C   UNL A   1      44.235  26.516  31.266  1.00  0.00     0.074 A 
ATOM     60  C   UNL A   1      45.048  25.517  30.559  1.00  0.00     0.031 C 
ATOM     61  C   UNL A   1      44.536  27.014  32.535  1.00  0.00     0.034 A 
BRANCH  48  62
ATOM     62  C   UNL A   1      40.922  31.288  34.846  1.00  0.00     0.023 A 
ATOM     63  C   UNL A   1      39.953  30.993  35.789  1.00  0.00     0.031 A 
ATOM     64  C   UNL A   1      41.659  32.390  34.935  1.00  0.00     0.131 A 
ATOM     65  C   UNL A   1      39.633  32.077  36.641  1.00  0.00     0.055 A 
ATOM     66  C   UNL A   1      41.374  33.346  35.881  1.00  0.00     0.041 A 
ATOM     67  F   UNL A   1      42.680  32.569  34.104  1.00  0.00    -0.206 F 
ATOM     68  C   UNL A   1      40.389  33.146  36.808  1.00  0.00     0.022 A 
BRANCH  65  69
ATOM     69  S   UNL A   1      38.080  31.992  37.566  1.00  0.00     0.124 S 
ATOM     70  O   UNL A   1      38.338  32.352  39.031  1.00  0.00    -0.237 OA
ATOM     71  O   UNL A   1      37.074  32.978  36.967  1.00  0.00    -0.237 OA
ATOM     72  O   UNL A   1      37.447  30.406  37.472  1.00  0.00    -0.744 OA
ENDBRANCH  65  69
ENDBRANCH  48  62
BRANCH  49  73
ATOM     73  C   UNL A   1      42.549  25.252  27.118  1.00  0.00     0.023 A 
ATOM     74  C   UNL A   1      41.939  24.009  27.142  1.00  0.00     0.031 A 
ATOM     75  C   UNL A   1      43.302  25.631  26.092  1.00  0.00     0.131 A 
ATOM     76  C   UNL A   1      42.420  23.115  26.157  1.00  0.00     0.055 A 
ATOM     77  C   UNL A   1      43.622  24.742  25.094  1.00  0.00     0.041 A 
ATOM     78  F   UNL A   1      43.750  26.882  26.029  1.00  0.00    -0.206 F 
ATOM     79  C   UNL A   1      43.101  23.478  25.085  1.00  0.00     0.022 A 
BRANCH  76  80
ATOM     80  S   UNL A   1      42.080  21.352  26.381  1.00  0.00     0.124 S 
ATOM     81  O   UNL A   1      42.381  20.954  27.828  1.00  0.00    -0.237 OA
ATOM     82  O   UNL A   1      40.608  21.073  26.072  1.00  0.00    -0.237 OA
ATOM     83  O   UNL A   1      43.067  20.441  25.322  1.00  0.00    -0.744 OA
ENDBRANCH  76  80
ENDBRANCH  49  73
BRANCH  61  84
ATOM     84  C   UNL A   1      45.762  26.463  33.245  1.00  0.00     0.023 A 
ATOM     85  C   UNL A   1      47.020  26.988  32.997  1.00  0.00     0.031 A 
ATOM     86  C   UNL A   1      45.600  25.403  34.027  1.00  0.00     0.131 A 
ATOM     87  C   UNL A   1      48.082  26.141  33.391  1.00  0.00     0.055 A 
ATOM     88  C   UNL A   1      46.687  24.701  34.488  1.00  0.00     0.041 A 
ATOM     89  F   UNL A   1      44.374  25.016  34.367  1.00  0.00    -0.206 F 
ATOM     90  C   UNL A   1      47.960  25.128  34.231  1.00  0.00     0.022 A 
BRANCH  87  91
ATOM     91  S   UNL A   1      49.721  26.465  32.696  1.00  0.00     0.124 S 
ATOM     92  O   UNL A   1      50.534  27.310  33.681  1.00  0.00    -0.237 OA
ATOM     93  O   UNL A   1      50.442  25.139  32.447  1.00  0.00    -0.237 OA
ATOM     94  O   UNL A   1      49.557  27.312  31.219  1.00  0.00    -0.744 OA
ENDBRANCH  87  91
ENDBRANCH  61  84
ENDBRANCH  35  36
ENDBRANCH  28  30
ENDBRANCH  27  28
ENDBRANCH   1  27
TORSDOF 16
ENDMDL
