MODEL 1
REMARK VINA RESULT:     -12.5      0.000      0.000
REMARK SMILES Cc1ccn2c([C@@H]3CCCC[C@@H]3C(=O)OCCOC(=O)c3ccc(-c4c5nc(c(-c6cc(S(=O)(=O)[O-])ccc6F)c6ccc([nH]6)c(-c6cc(S(=O)(=O)[O-])ccc6F)c6nc(c(-c7cc(S(=O)(=O)[O-])ccc7F)c7ccc4[nH]7)C=C6)C=C5)cc3)nnc2c1
REMARK SMILES IDX 17 1 16 2 15 3 13 4 14 5 12 6 7 7 8 8 9 9 11 10 10 11 6 12
REMARK SMILES IDX 1 13 2 14 3 15 87 16 4 17 86 18 5 19 85 20 84 21 18 22 19 23
REMARK SMILES IDX 20 24 21 25 22 26 83 27 23 28 82 29 24 30 25 31 26 32 76 33
REMARK SMILES IDX 27 34 81 35 75 36 77 37 28 38 80 39 74 40 73 41 29 43 61 44
REMARK SMILES IDX 41 45 60 46 42 47 45 48 59 49 78 50 43 51 44 52 58 54 79 55
REMARK SMILES IDX 46 56 30 57 31 58 39 59 32 60 38 61 40 62 37 63 33 64 34 65
REMARK SMILES IDX 35 66 36 67 62 68 63 69 71 70 64 71 70 72 72 73 69 74 65 75
REMARK SMILES IDX 66 76 67 77 68 78 47 79 48 80 56 81 49 82 55 83 57 84 54 85
REMARK SMILES IDX 50 86 51 87 52 88 53 89
REMARK H PARENT 77 42 45 53
REMARK Flexibility Score: inf
ROOT
ATOM      1  C   UNL A   1      32.014  29.040  27.022  1.00  0.00     0.275 C 
ENDROOT
BRANCH   1   2
ATOM      2  C   UNL A   1      31.679  27.567  27.340  1.00  0.00     0.274 C 
BRANCH   2   3
ATOM      3  O   UNL A   1      31.633  26.769  26.114  1.00  0.00    -0.462 OA
BRANCH   3   4
ATOM      4  C   UNL A   1      30.484  26.052  25.877  1.00  0.00     0.309 C 
ATOM      5  O   UNL A   1      29.730  25.721  26.788  1.00  0.00    -0.252 OA
BRANCH   4   6
ATOM      6  C   UNL A   1      30.263  25.736  24.380  1.00  0.00     0.110 C 
ATOM      7  C   UNL A   1      31.339  25.659  23.214  1.00  0.00     0.072 C 
ATOM      8  C   UNL A   1      31.485  26.825  22.203  1.00  0.00     0.012 C 
ATOM      9  C   UNL A   1      30.460  27.934  22.256  1.00  0.00     0.001 C 
ATOM     10  C   UNL A   1      29.190  26.786  23.992  1.00  0.00     0.016 C 
ATOM     11  C   UNL A   1      29.849  28.109  23.619  1.00  0.00     0.001 C 
BRANCH   7  12
ATOM     12  C   UNL A   1      32.613  24.756  23.120  1.00  0.00     0.141 A 
ATOM     13  C   UNL A   1      37.406  21.561  25.225  1.00  0.00     0.044 C 
ATOM     14  C   UNL A   1      36.841  22.817  24.566  1.00  0.00    -0.046 A 
ATOM     15  C   UNL A   1      36.262  23.948  25.885  1.00  0.00     0.022 A 
ATOM     16  C   UNL A   1      36.206  22.702  23.161  1.00  0.00     0.053 A 
ATOM     17  C   UNL A   1      34.883  24.759  25.687  1.00  0.00     0.095 A 
ATOM     18  C   UNL A   1      34.676  23.510  22.699  1.00  0.00     0.161 A 
ATOM     19  N   UNL A   1      33.849  24.556  23.947  1.00  0.00    -0.286 N 
ATOM     20  N   UNL A   1      33.875  23.415  21.681  1.00  0.00    -0.130 NA
ATOM     21  N   UNL A   1      32.743  24.135  21.936  1.00  0.00    -0.134 NA
ENDBRANCH   7  12
ENDBRANCH   4   6
ENDBRANCH   3   4
ENDBRANCH   2   3
ENDBRANCH   1   2
BRANCH   1  22
ATOM     22  O   UNL A   1      33.271  29.433  27.592  1.00  0.00    -0.458 OA
BRANCH  22  23
ATOM     23  C   UNL A   1      33.565  30.749  27.498  1.00  0.00     0.338 C 
ATOM     24  O   UNL A   1      32.831  31.712  27.580  1.00  0.00    -0.246 OA
BRANCH  23  25
ATOM     25  C   UNL A   1      34.987  30.760  27.769  1.00  0.00     0.060 A 
ATOM     26  C   UNL A   1      35.905  31.879  28.738  1.00  0.00     0.016 A 
ATOM     27  C   UNL A   1      35.823  29.436  27.136  1.00  0.00     0.016 A 
ATOM     28  C   UNL A   1      37.904  31.506  29.046  1.00  0.00     0.010 A 
ATOM     29  C   UNL A   1      37.449  29.016  27.434  1.00  0.00     0.010 A 
ATOM     30  C   UNL A   1      38.560  29.949  28.350  1.00  0.00    -0.014 A 
BRANCH  30  31
ATOM     31  C   UNL A   1      39.782  29.136  28.726  1.00  0.00     0.031 A 
ATOM     32  C   UNL A   1      39.890  28.883  30.175  1.00  0.00     0.074 A 
ATOM     33  C   UNL A   1      40.656  28.484  27.865  1.00  0.00     0.049 A 
ATOM     34  N   UNL A   1      40.706  29.534  30.937  1.00  0.00    -0.248 NA
ATOM     35  C   UNL A   1      38.967  28.009  30.904  1.00  0.00     0.031 C 
ATOM     36  C   UNL A   1      40.816  28.628  26.402  1.00  0.00     0.029 A 
ATOM     37  N   UNL A   1      41.550  27.430  28.077  1.00  0.00    -0.354 N 
ATOM     38  C   UNL A   1      40.637  28.911  32.170  1.00  0.00     0.074 A 
ATOM     39  C   UNL A   1      39.397  28.174  32.162  1.00  0.00     0.031 C 
ATOM     40  C   UNL A   1      41.475  27.591  25.841  1.00  0.00     0.029 A 
ATOM     41  C   UNL A   1      41.958  26.722  26.904  1.00  0.00     0.049 A 
ATOM     42  H   UNL A   1      41.878  27.191  28.975  1.00  0.00     0.167 HD
ATOM     43  C   UNL A   1      41.756  28.814  32.942  1.00  0.00     0.034 A 
ATOM     44  C   UNL A   1      43.011  25.881  26.638  1.00  0.00     0.034 A 
ATOM     45  C   UNL A   1      42.847  29.552  32.335  1.00  0.00     0.049 A 
ATOM     46  C   UNL A   1      44.040  26.224  27.627  1.00  0.00     0.074 A 
ATOM     47  C   UNL A   1      43.130  30.880  32.091  1.00  0.00     0.029 A 
ATOM     48  N   UNL A   1      43.623  28.811  31.475  1.00  0.00    -0.354 N 
ATOM     49  N   UNL A   1      44.709  27.338  27.594  1.00  0.00    -0.248 NA
ATOM     50  C   UNL A   1      43.987  25.535  28.905  1.00  0.00     0.031 C 
ATOM     51  C   UNL A   1      43.891  30.905  30.887  1.00  0.00     0.029 A 
ATOM     52  C   UNL A   1      44.143  29.597  30.479  1.00  0.00     0.049 A 
ATOM     53  H   UNL A   1      43.783  27.845  31.563  1.00  0.00     0.167 HD
ATOM     54  C   UNL A   1      44.709  27.742  28.916  1.00  0.00     0.074 A 
ATOM     55  C   UNL A   1      44.395  26.536  29.688  1.00  0.00     0.031 C 
ATOM     56  C   UNL A   1      44.645  29.068  29.226  1.00  0.00     0.034 A 
BRANCH  43  57
ATOM     57  C   UNL A   1      42.015  27.743  33.976  1.00  0.00     0.023 A 
ATOM     58  C   UNL A   1      42.790  26.592  33.731  1.00  0.00     0.031 A 
ATOM     59  C   UNL A   1      41.636  27.957  35.318  1.00  0.00     0.131 A 
ATOM     60  C   UNL A   1      43.120  25.701  34.765  1.00  0.00     0.055 A 
ATOM     61  C   UNL A   1      42.026  27.104  36.359  1.00  0.00     0.041 A 
ATOM     62  F   UNL A   1      40.906  29.028  35.665  1.00  0.00    -0.206 F 
ATOM     63  C   UNL A   1      42.767  25.965  36.085  1.00  0.00     0.022 A 
BRANCH  60  64
ATOM     64  S   UNL A   1      44.015  24.161  34.414  1.00  0.00     0.124 S 
ATOM     65  O   UNL A   1      44.292  24.290  32.988  1.00  0.00    -0.237 OA
ATOM     66  O   UNL A   1      45.172  24.287  35.297  1.00  0.00    -0.237 OA
ATOM     67  O   UNL A   1      43.061  23.122  34.787  1.00  0.00    -0.744 OA
ENDBRANCH  60  64
ENDBRANCH  43  57
BRANCH  44  68
ATOM     68  C   UNL A   1      42.967  24.466  26.118  1.00  0.00     0.023 A 
ATOM     69  C   UNL A   1      42.114  23.503  26.680  1.00  0.00     0.031 A 
ATOM     70  C   UNL A   1      43.961  23.975  25.239  1.00  0.00     0.131 A 
ATOM     71  C   UNL A   1      42.277  22.131  26.406  1.00  0.00     0.055 A 
ATOM     72  C   UNL A   1      44.121  22.603  24.960  1.00  0.00     0.041 A 
ATOM     73  F   UNL A   1      44.843  24.813  24.672  1.00  0.00    -0.206 F 
ATOM     74  C   UNL A   1      43.283  21.671  25.556  1.00  0.00     0.022 A 
BRANCH  71  75
ATOM     75  S   UNL A   1      41.236  20.891  27.231  1.00  0.00     0.124 S 
ATOM     76  O   UNL A   1      42.211  19.873  27.616  1.00  0.00    -0.237 OA
ATOM     77  O   UNL A   1      40.670  21.667  28.329  1.00  0.00    -0.237 OA
ATOM     78  O   UNL A   1      40.304  20.484  26.186  1.00  0.00    -0.744 OA
ENDBRANCH  71  75
ENDBRANCH  44  68
BRANCH  56  79
ATOM     79  C   UNL A   1      44.961  30.074  28.134  1.00  0.00     0.023 A 
ATOM     80  C   UNL A   1      46.299  30.373  27.880  1.00  0.00     0.031 A 
ATOM     81  C   UNL A   1      44.008  30.895  27.512  1.00  0.00     0.131 A 
ATOM     82  C   UNL A   1      46.631  31.478  27.079  1.00  0.00     0.055 A 
ATOM     83  C   UNL A   1      44.329  31.928  26.627  1.00  0.00     0.041 A 
ATOM     84  F   UNL A   1      42.728  30.798  27.840  1.00  0.00    -0.206 F 
ATOM     85  C   UNL A   1      45.660  32.233  26.414  1.00  0.00     0.022 A 
BRANCH  82  86
ATOM     86  S   UNL A   1      48.318  32.122  27.093  1.00  0.00     0.124 S 
ATOM     87  O   UNL A   1      48.446  32.630  28.456  1.00  0.00    -0.237 OA
ATOM     88  O   UNL A   1      49.098  30.921  26.795  1.00  0.00    -0.237 OA
ATOM     89  O   UNL A   1      48.315  33.134  26.041  1.00  0.00    -0.744 OA
ENDBRANCH  82  86
ENDBRANCH  56  79
ENDBRANCH  30  31
ENDBRANCH  23  25
ENDBRANCH  22  23
ENDBRANCH   1  22
TORSDOF 15
ENDMDL
MODEL 2
REMARK VINA RESULT:     -11.7      3.568      8.462
REMARK SMILES Cc1ccn2c([C@@H]3CCCC[C@@H]3C(=O)OCCOC(=O)c3ccc(-c4c5nc(c(-c6cc(S(=O)(=O)[O-])ccc6F)c6ccc([nH]6)c(-c6cc(S(=O)(=O)[O-])ccc6F)c6nc(c(-c7cc(S(=O)(=O)[O-])ccc7F)c7ccc4[nH]7)C=C6)C=C5)cc3)nnc2c1
REMARK SMILES IDX 17 1 16 2 15 3 13 4 14 5 12 6 7 7 8 8 9 9 11 10 10 11 6 12
REMARK SMILES IDX 1 13 2 14 3 15 87 16 4 17 86 18 5 19 85 20 84 21 18 22 19 23
REMARK SMILES IDX 20 24 21 25 22 26 83 27 23 28 82 29 24 30 25 31 26 32 76 33
REMARK SMILES IDX 27 34 81 35 75 36 77 37 28 38 80 39 74 40 73 41 29 43 61 44
REMARK SMILES IDX 41 45 60 46 42 47 45 48 59 49 78 50 43 51 44 52 58 54 79 55
REMARK SMILES IDX 46 56 30 57 31 58 39 59 32 60 38 61 40 62 37 63 33 64 34 65
REMARK SMILES IDX 35 66 36 67 62 68 63 69 71 70 64 71 70 72 72 73 69 74 65 75
REMARK SMILES IDX 66 76 67 77 68 78 47 79 48 80 56 81 49 82 55 83 57 84 54 85
REMARK SMILES IDX 50 86 51 87 52 88 53 89
REMARK H PARENT 77 42 45 53
REMARK Flexibility Score: inf
ROOT
ATOM      1  C   UNL A   1      31.425  27.454  26.586  1.00  0.00     0.275 C 
ENDROOT
BRANCH   1   2
ATOM      2  C   UNL A   1      32.421  26.274  26.608  1.00  0.00     0.274 C 
BRANCH   2   3
ATOM      3  O   UNL A   1      33.539  26.520  25.697  1.00  0.00    -0.462 OA
BRANCH   3   4
ATOM      4  C   UNL A   1      34.105  25.423  25.090  1.00  0.00     0.309 C 
ATOM      5  O   UNL A   1      35.034  24.809  25.606  1.00  0.00    -0.252 OA
BRANCH   4   6
ATOM      6  C   UNL A   1      33.445  25.069  23.738  1.00  0.00     0.110 C 
ATOM      7  C   UNL A   1      32.008  25.477  23.198  1.00  0.00     0.072 C 
ATOM      8  C   UNL A   1      30.846  24.453  23.211  1.00  0.00     0.012 C 
ATOM      9  C   UNL A   1      31.172  23.024  23.577  1.00  0.00     0.001 C 
ATOM     10  C   UNL A   1      33.553  23.522  23.731  1.00  0.00     0.016 C 
ATOM     11  C   UNL A   1      32.374  22.903  24.472  1.00  0.00     0.001 C 
BRANCH   7  12
ATOM     12  C   UNL A   1      31.408  26.910  23.009  1.00  0.00     0.141 A 
ATOM     13  C   UNL A   1      27.336  31.439  23.732  1.00  0.00     0.044 C 
ATOM     14  C   UNL A   1      27.940  30.328  22.876  1.00  0.00    -0.046 A 
ATOM     15  C   UNL A   1      27.150  28.744  23.347  1.00  0.00     0.022 A 
ATOM     16  C   UNL A   1      29.399  30.473  22.384  1.00  0.00     0.053 A 
ATOM     17  C   UNL A   1      28.049  27.410  23.459  1.00  0.00     0.095 A 
ATOM     18  C   UNL A   1      30.588  29.135  22.409  1.00  0.00     0.161 A 
ATOM     19  N   UNL A   1      30.030  27.504  23.011  1.00  0.00    -0.286 N 
ATOM     20  N   UNL A   1      31.873  29.065  22.234  1.00  0.00    -0.130 NA
ATOM     21  N   UNL A   1      32.299  27.808  22.557  1.00  0.00    -0.134 NA
ENDBRANCH   7  12
ENDBRANCH   4   6
ENDBRANCH   3   4
ENDBRANCH   2   3
ENDBRANCH   1   2
BRANCH   1  22
ATOM     22  O   UNL A   1      31.992  28.636  27.168  1.00  0.00    -0.458 OA
BRANCH  22  23
ATOM     23  C   UNL A   1      32.032  29.719  26.361  1.00  0.00     0.338 C 
ATOM     24  O   UNL A   1      31.146  30.222  25.700  1.00  0.00    -0.246 OA
BRANCH  23  25
ATOM     25  C   UNL A   1      33.207  30.413  26.843  1.00  0.00     0.060 A 
ATOM     26  C   UNL A   1      33.309  31.933  27.687  1.00  0.00     0.016 A 
ATOM     27  C   UNL A   1      34.648  29.555  26.642  1.00  0.00     0.016 A 
ATOM     28  C   UNL A   1      35.142  32.557  28.377  1.00  0.00     0.010 A 
ATOM     29  C   UNL A   1      36.178  29.965  27.273  1.00  0.00     0.010 A 
ATOM     30  C   UNL A   1      36.539  31.404  28.136  1.00  0.00    -0.014 A 
BRANCH  30  31
ATOM     31  C   UNL A   1      37.865  31.292  28.862  1.00  0.00     0.031 A 
ATOM     32  C   UNL A   1      38.588  30.042  28.563  1.00  0.00     0.074 A 
ATOM     33  C   UNL A   1      38.512  32.283  29.589  1.00  0.00     0.049 A 
ATOM     34  N   UNL A   1      38.625  29.045  29.385  1.00  0.00    -0.248 NA
ATOM     35  C   UNL A   1      39.174  29.752  27.252  1.00  0.00     0.031 C 
ATOM     36  C   UNL A   1      37.989  33.572  30.092  1.00  0.00     0.029 A 
ATOM     37  N   UNL A   1      39.851  32.434  29.962  1.00  0.00    -0.354 N 
ATOM     38  C   UNL A   1      39.518  28.145  28.833  1.00  0.00     0.074 A 
ATOM     39  C   UNL A   1      39.618  28.502  27.440  1.00  0.00     0.031 C 
ATOM     40  C   UNL A   1      38.968  34.444  30.420  1.00  0.00     0.029 A 
ATOM     41  C   UNL A   1      40.248  33.761  30.313  1.00  0.00     0.049 A 
ATOM     42  H   UNL A   1      40.479  31.675  29.983  1.00  0.00     0.167 HD
ATOM     43  C   UNL A   1      40.320  27.403  29.650  1.00  0.00     0.034 A 
ATOM     44  C   UNL A   1      41.321  34.263  31.009  1.00  0.00     0.034 A 
ATOM     45  C   UNL A   1      39.960  27.622  31.037  1.00  0.00     0.049 A 
ATOM     46  C   UNL A   1      41.780  33.160  31.861  1.00  0.00     0.074 A 
ATOM     47  C   UNL A   1      38.875  27.330  31.837  1.00  0.00     0.029 A 
ATOM     48  N   UNL A   1      40.641  28.651  31.643  1.00  0.00    -0.354 N 
ATOM     49  N   UNL A   1      41.108  32.732  32.887  1.00  0.00    -0.248 NA
ATOM     50  C   UNL A   1      42.752  32.242  31.291  1.00  0.00     0.031 C 
ATOM     51  C   UNL A   1      38.790  28.389  32.786  1.00  0.00     0.029 A 
ATOM     52  C   UNL A   1      39.875  29.245  32.613  1.00  0.00     0.049 A 
ATOM     53  H   UNL A   1      41.556  28.926  31.411  1.00  0.00     0.167 HD
ATOM     54  C   UNL A   1      41.188  31.358  32.761  1.00  0.00     0.074 A 
ATOM     55  C   UNL A   1      42.325  31.117  31.869  1.00  0.00     0.031 C 
ATOM     56  C   UNL A   1      40.135  30.574  33.132  1.00  0.00     0.034 A 
BRANCH  43  57
ATOM     57  C   UNL A   1      41.669  26.837  29.271  1.00  0.00     0.023 A 
ATOM     58  C   UNL A   1      41.887  25.481  28.958  1.00  0.00     0.031 A 
ATOM     59  C   UNL A   1      42.751  27.708  29.026  1.00  0.00     0.131 A 
ATOM     60  C   UNL A   1      43.127  25.034  28.472  1.00  0.00     0.055 A 
ATOM     61  C   UNL A   1      43.964  27.271  28.476  1.00  0.00     0.041 A 
ATOM     62  F   UNL A   1      42.650  29.022  29.278  1.00  0.00    -0.206 F 
ATOM     63  C   UNL A   1      44.159  25.926  28.201  1.00  0.00     0.022 A 
BRANCH  60  64
ATOM     64  S   UNL A   1      43.431  23.267  28.189  1.00  0.00     0.124 S 
ATOM     65  O   UNL A   1      44.679  23.054  28.913  1.00  0.00    -0.237 OA
ATOM     66  O   UNL A   1      42.242  22.666  28.788  1.00  0.00    -0.237 OA
ATOM     67  O   UNL A   1      43.512  23.165  26.736  1.00  0.00    -0.744 OA
ENDBRANCH  60  64
ENDBRANCH  43  57
BRANCH  44  68
ATOM     68  C   UNL A   1      42.336  35.280  30.552  1.00  0.00     0.023 A 
ATOM     69  C   UNL A   1      42.594  35.501  29.189  1.00  0.00     0.031 A 
ATOM     70  C   UNL A   1      43.261  35.855  31.456  1.00  0.00     0.131 A 
ATOM     71  C   UNL A   1      43.729  36.218  28.764  1.00  0.00     0.055 A 
ATOM     72  C   UNL A   1      44.394  36.576  31.033  1.00  0.00     0.041 A 
ATOM     73  F   UNL A   1      43.118  35.677  32.780  1.00  0.00    -0.206 F 
ATOM     74  C   UNL A   1      44.639  36.751  29.678  1.00  0.00     0.022 A 
BRANCH  71  75
ATOM     75  S   UNL A   1      44.105  36.396  26.996  1.00  0.00     0.124 S 
ATOM     76  O   UNL A   1      44.588  37.774  26.918  1.00  0.00    -0.237 OA
ATOM     77  O   UNL A   1      45.117  35.364  26.805  1.00  0.00    -0.237 OA
ATOM     78  O   UNL A   1      42.818  36.160  26.352  1.00  0.00    -0.744 OA
ENDBRANCH  71  75
ENDBRANCH  44  68
BRANCH  56  79
ATOM     79  C   UNL A   1      39.066  31.185  34.019  1.00  0.00     0.023 A 
ATOM     80  C   UNL A   1      37.928  31.714  33.411  1.00  0.00     0.031 A 
ATOM     81  C   UNL A   1      39.231  31.464  35.384  1.00  0.00     0.131 A 
ATOM     82  C   UNL A   1      37.047  32.520  34.150  1.00  0.00     0.055 A 
ATOM     83  C   UNL A   1      38.303  32.174  36.152  1.00  0.00     0.041 A 
ATOM     84  F   UNL A   1      40.366  31.158  35.994  1.00  0.00    -0.206 F 
ATOM     85  C   UNL A   1      37.199  32.720  35.526  1.00  0.00     0.022 A 
BRANCH  82  86
ATOM     86  S   UNL A   1      35.831  33.543  33.293  1.00  0.00     0.124 S 
ATOM     87  O   UNL A   1      36.501  34.839  33.233  1.00  0.00    -0.237 OA
ATOM     88  O   UNL A   1      35.702  32.844  32.014  1.00  0.00    -0.237 OA
ATOM     89  O   UNL A   1      34.653  33.481  34.152  1.00  0.00    -0.744 OA
ENDBRANCH  82  86
ENDBRANCH  56  79
ENDBRANCH  30  31
ENDBRANCH  23  25
ENDBRANCH  22  23
ENDBRANCH   1  22
TORSDOF 15
ENDMDL
MODEL 3
REMARK VINA RESULT:     -11.7      3.549      9.150
REMARK SMILES Cc1ccn2c([C@@H]3CCCC[C@@H]3C(=O)OCCOC(=O)c3ccc(-c4c5nc(c(-c6cc(S(=O)(=O)[O-])ccc6F)c6ccc([nH]6)c(-c6cc(S(=O)(=O)[O-])ccc6F)c6nc(c(-c7cc(S(=O)(=O)[O-])ccc7F)c7ccc4[nH]7)C=C6)C=C5)cc3)nnc2c1
REMARK SMILES IDX 17 1 16 2 15 3 13 4 14 5 12 6 7 7 8 8 9 9 11 10 10 11 6 12
REMARK SMILES IDX 1 13 2 14 3 15 87 16 4 17 86 18 5 19 85 20 84 21 18 22 19 23
REMARK SMILES IDX 20 24 21 25 22 26 83 27 23 28 82 29 24 30 25 31 26 32 76 33
REMARK SMILES IDX 27 34 81 35 75 36 77 37 28 38 80 39 74 40 73 41 29 43 61 44
REMARK SMILES IDX 41 45 60 46 42 47 45 48 59 49 78 50 43 51 44 52 58 54 79 55
REMARK SMILES IDX 46 56 30 57 31 58 39 59 32 60 38 61 40 62 37 63 33 64 34 65
REMARK SMILES IDX 35 66 36 67 62 68 63 69 71 70 64 71 70 72 72 73 69 74 65 75
REMARK SMILES IDX 66 76 67 77 68 78 47 79 48 80 56 81 49 82 55 83 57 84 54 85
REMARK SMILES IDX 50 86 51 87 52 88 53 89
REMARK H PARENT 77 42 45 53
REMARK Flexibility Score: inf
ROOT
ATOM      1  C   UNL A   1      38.644  22.164  25.325  1.00  0.00     0.275 C 
ENDROOT
BRANCH   1   2
ATOM      2  C   UNL A   1      37.844  20.863  25.096  1.00  0.00     0.274 C 
BRANCH   2   3
ATOM      3  O   UNL A   1      36.657  20.826  25.951  1.00  0.00    -0.462 OA
BRANCH   3   4
ATOM      4  C   UNL A   1      35.712  21.806  25.754  1.00  0.00     0.309 C 
ATOM      5  O   UNL A   1      35.591  22.751  26.528  1.00  0.00    -0.252 OA
BRANCH   4   6
ATOM      6  C   UNL A   1      34.862  21.583  24.482  1.00  0.00     0.110 C 
ATOM      7  C   UNL A   1      33.573  22.376  23.999  1.00  0.00     0.072 C 
ATOM      8  C   UNL A   1      32.162  21.760  24.176  1.00  0.00     0.012 C 
ATOM      9  C   UNL A   1      32.074  20.327  24.645  1.00  0.00     0.001 C 
ATOM     10  C   UNL A   1      34.498  20.080  24.606  1.00  0.00     0.016 C 
ATOM     11  C   UNL A   1      33.256  19.902  25.471  1.00  0.00     0.001 C 
BRANCH   7  12
ATOM     12  C   UNL A   1      33.417  23.908  23.723  1.00  0.00     0.141 A 
ATOM     13  C   UNL A   1      32.430  29.800  25.111  1.00  0.00     0.044 C 
ATOM     14  C   UNL A   1      31.932  28.475  24.537  1.00  0.00    -0.046 A 
ATOM     15  C   UNL A   1      31.335  27.436  25.921  1.00  0.00     0.022 A 
ATOM     16  C   UNL A   1      32.579  27.932  23.241  1.00  0.00     0.053 A 
ATOM     17  C   UNL A   1      31.659  25.856  25.925  1.00  0.00     0.095 A 
ATOM     18  C   UNL A   1      33.031  26.215  23.007  1.00  0.00     0.161 A 
ATOM     19  N   UNL A   1      32.668  25.042  24.358  1.00  0.00    -0.286 N 
ATOM     20  N   UNL A   1      33.733  25.579  22.120  1.00  0.00    -0.130 NA
ATOM     21  N   UNL A   1      33.915  24.290  22.535  1.00  0.00    -0.134 NA
ENDBRANCH   7  12
ENDBRANCH   4   6
ENDBRANCH   3   4
ENDBRANCH   2   3
ENDBRANCH   1   2
BRANCH   1  22
ATOM     22  O   UNL A   1      39.398  22.114  26.545  1.00  0.00    -0.458 OA
BRANCH  22  23
ATOM     23  C   UNL A   1      40.740  22.194  26.402  1.00  0.00     0.338 C 
ATOM     24  O   UNL A   1      41.442  21.809  25.490  1.00  0.00    -0.246 OA
BRANCH  23  25
ATOM     25  C   UNL A   1      41.079  23.256  27.324  1.00  0.00     0.060 A 
ATOM     26  C   UNL A   1      42.617  23.615  28.059  1.00  0.00     0.016 A 
ATOM     27  C   UNL A   1      39.820  24.341  27.624  1.00  0.00     0.016 A 
ATOM     28  C   UNL A   1      42.789  25.311  29.207  1.00  0.00     0.010 A 
ATOM     29  C   UNL A   1      39.920  25.813  28.480  1.00  0.00     0.010 A 
ATOM     30  C   UNL A   1      41.316  26.390  29.295  1.00  0.00    -0.014 A 
BRANCH  30  31
ATOM     31  C   UNL A   1      41.187  27.862  29.631  1.00  0.00     0.031 A 
ATOM     32  C   UNL A   1      42.021  28.729  28.778  1.00  0.00     0.074 A 
ATOM     33  C   UNL A   1      40.267  28.451  30.490  1.00  0.00     0.049 A 
ATOM     34  N   UNL A   1      43.132  29.246  29.186  1.00  0.00    -0.248 NA
ATOM     35  C   UNL A   1      41.759  28.935  27.351  1.00  0.00     0.031 C 
ATOM     36  C   UNL A   1      39.388  27.823  31.500  1.00  0.00     0.029 A 
ATOM     37  N   UNL A   1      39.804  29.767  30.589  1.00  0.00    -0.354 N 
ATOM     38  C   UNL A   1      43.528  30.111  28.182  1.00  0.00     0.074 A 
ATOM     39  C   UNL A   1      42.808  29.693  27.005  1.00  0.00     0.031 C 
ATOM     40  C   UNL A   1      38.368  28.624  31.879  1.00  0.00     0.029 A 
ATOM     41  C   UNL A   1      38.559  29.932  31.270  1.00  0.00     0.049 A 
ATOM     42  H   UNL A   1      40.303  30.529  30.215  1.00  0.00     0.167 HD
ATOM     43  C   UNL A   1      44.164  31.274  28.504  1.00  0.00     0.034 A 
ATOM     44  C   UNL A   1      37.942  31.018  31.842  1.00  0.00     0.034 A 
ATOM     45  C   UNL A   1      44.439  31.316  29.927  1.00  0.00     0.049 A 
ATOM     46  C   UNL A   1      39.025  31.960  32.149  1.00  0.00     0.074 A 
ATOM     47  C   UNL A   1      45.256  30.627  30.799  1.00  0.00     0.029 A 
ATOM     48  N   UNL A   1      43.442  31.890  30.680  1.00  0.00    -0.354 N 
ATOM     49  N   UNL A   1      39.895  31.754  33.092  1.00  0.00    -0.248 NA
ATOM     50  C   UNL A   1      39.406  32.895  31.105  1.00  0.00     0.031 C 
ATOM     51  C   UNL A   1      44.564  30.593  32.043  1.00  0.00     0.029 A 
ATOM     52  C   UNL A   1      43.394  31.343  31.936  1.00  0.00     0.049 A 
ATOM     53  H   UNL A   1      42.841  32.601  30.359  1.00  0.00     0.167 HD
ATOM     54  C   UNL A   1      41.091  32.108  32.496  1.00  0.00     0.074 A 
ATOM     55  C   UNL A   1      40.718  32.941  31.349  1.00  0.00     0.031 C 
ATOM     56  C   UNL A   1      42.235  31.433  32.802  1.00  0.00     0.034 A 
BRANCH  43  57
ATOM     57  C   UNL A   1      44.155  32.534  27.671  1.00  0.00     0.023 A 
ATOM     58  C   UNL A   1      43.560  33.741  28.085  1.00  0.00     0.031 A 
ATOM     59  C   UNL A   1      44.931  32.602  26.494  1.00  0.00     0.131 A 
ATOM     60  C   UNL A   1      43.705  34.922  27.339  1.00  0.00     0.055 A 
ATOM     61  C   UNL A   1      45.131  33.796  25.788  1.00  0.00     0.041 A 
ATOM     62  F   UNL A   1      45.551  31.514  26.013  1.00  0.00    -0.206 F 
ATOM     63  C   UNL A   1      44.512  34.964  26.206  1.00  0.00     0.022 A 
BRANCH  60  64
ATOM     64  S   UNL A   1      42.833  36.439  27.821  1.00  0.00     0.124 S 
ATOM     65  O   UNL A   1      41.795  35.924  28.708  1.00  0.00    -0.237 OA
ATOM     66  O   UNL A   1      43.901  37.196  28.470  1.00  0.00    -0.237 OA
ATOM     67  O   UNL A   1      42.372  36.984  26.549  1.00  0.00    -0.744 OA
ENDBRANCH  60  64
ENDBRANCH  43  57
BRANCH  44  68
ATOM     68  C   UNL A   1      36.574  31.579  31.543  1.00  0.00     0.023 A 
ATOM     69  C   UNL A   1      36.107  31.716  30.226  1.00  0.00     0.031 A 
ATOM     70  C   UNL A   1      35.816  32.239  32.540  1.00  0.00     0.131 A 
ATOM     71  C   UNL A   1      34.975  32.500  29.928  1.00  0.00     0.055 A 
ATOM     72  C   UNL A   1      34.681  33.019  32.243  1.00  0.00     0.041 A 
ATOM     73  F   UNL A   1      36.197  32.192  33.826  1.00  0.00    -0.206 F 
ATOM     74  C   UNL A   1      34.262  33.161  30.927  1.00  0.00     0.022 A 
BRANCH  71  75
ATOM     75  S   UNL A   1      34.453  32.756  28.207  1.00  0.00     0.124 S 
ATOM     76  O   UNL A   1      33.416  33.777  28.345  1.00  0.00    -0.237 OA
ATOM     77  O   UNL A   1      35.695  33.204  27.587  1.00  0.00    -0.237 OA
ATOM     78  O   UNL A   1      33.970  31.441  27.800  1.00  0.00    -0.744 OA
ENDBRANCH  71  75
ENDBRANCH  44  68
BRANCH  56  79
ATOM     79  C   UNL A   1      42.246  30.575  34.054  1.00  0.00     0.023 A 
ATOM     80  C   UNL A   1      42.491  31.198  35.278  1.00  0.00     0.031 A 
ATOM     81  C   UNL A   1      42.253  29.172  34.055  1.00  0.00     0.131 A 
ATOM     82  C   UNL A   1      42.775  30.424  36.414  1.00  0.00     0.055 A 
ATOM     83  C   UNL A   1      42.427  28.394  35.204  1.00  0.00     0.041 A 
ATOM     84  F   UNL A   1      42.212  28.504  32.912  1.00  0.00    -0.206 F 
ATOM     85  C   UNL A   1      42.703  29.028  36.401  1.00  0.00     0.022 A 
BRANCH  82  86
ATOM     86  S   UNL A   1      43.502  31.203  37.872  1.00  0.00     0.124 S 
ATOM     87  O   UNL A   1      44.299  32.276  37.286  1.00  0.00    -0.237 OA
ATOM     88  O   UNL A   1      42.312  31.634  38.606  1.00  0.00    -0.237 OA
ATOM     89  O   UNL A   1      44.261  30.127  38.503  1.00  0.00    -0.744 OA
ENDBRANCH  82  86
ENDBRANCH  56  79
ENDBRANCH  30  31
ENDBRANCH  23  25
ENDBRANCH  22  23
ENDBRANCH   1  22
TORSDOF 15
ENDMDL
