MODEL 1
REMARK VINA RESULT:     -11.9      0.000      0.000
REMARK SMILES CCC(=O)N1[C@H](C(=O)OCCOC(=O)c2ccc(-c3c4nc(c(-c5cc(S(=O)(=O)[O-])ccc5F)c5ccc([nH]5)c(-c5cc(S(=O)(=O)[O-])ccc5F)c5nc(c(-c6cc(S(=O)(=O)[O-])ccc6F)c6ccc3[nH]6)C=C5)C=C4)cc2)Cc2c([nH]c3ccccc23)[C@@H]1CC(C)C
REMARK SMILES IDX 11 1 10 2 9 3 7 4 8 5 6 6 5 7 88 8 78 9 80 10 79 11 81 12
REMARK SMILES IDX 87 13 82 14 86 16 83 17 85 18 84 19 3 20 4 21 2 22 1 23
REMARK SMILES IDX 89 24 90 25 91 26 92 27 12 28 13 29 14 30 15 31 16 32 77 33
REMARK SMILES IDX 17 34 76 35 18 36 19 37 20 38 70 39 21 40 75 41 69 42 71 43
REMARK SMILES IDX 22 44 74 45 68 46 67 47 23 49 55 50 35 51 54 52 36 53 39 54
REMARK SMILES IDX 53 55 72 56 37 57 38 58 52 60 73 61 40 62 24 63 25 64 33 65
REMARK SMILES IDX 26 66 32 67 34 68 31 69 27 70 28 71 29 72 30 73 56 74 57 75
REMARK SMILES IDX 65 76 58 77 64 78 66 79 63 80 59 81 60 82 61 83 62 84 41 85
REMARK SMILES IDX 42 86 50 87 43 88 49 89 51 90 48 91 44 92 45 93 46 94 47 95
REMARK H PARENT 81 15 71 48 39 59
REMARK Flexibility Score: inf
ROOT
ATOM      1  C   UNL A   1      31.893  30.827  26.065  1.00  0.00     0.275 C 
ENDROOT
BRANCH   1   2
ATOM      2  C   UNL A   1      31.655  29.405  25.569  1.00  0.00     0.274 C 
BRANCH   2   3
ATOM      3  O   UNL A   1      32.827  28.908  24.897  1.00  0.00    -0.461 OA
BRANCH   3   4
ATOM      4  C   UNL A   1      33.247  27.673  25.262  1.00  0.00     0.329 C 
ATOM      5  O   UNL A   1      33.541  27.360  26.414  1.00  0.00    -0.250 OA
BRANCH   4   6
ATOM      6  C   UNL A   1      33.365  26.674  24.095  1.00  0.00     0.200 C 
ATOM      7  N   UNL A   1      33.158  25.207  24.319  1.00  0.00    -0.320 N 
ATOM      8  C   UNL A   1      31.808  24.694  24.659  1.00  0.00     0.133 C 
ATOM      9  C   UNL A   1      32.394  27.181  23.001  1.00  0.00     0.075 C 
ATOM     10  C   UNL A   1      30.783  25.682  24.172  1.00  0.00     0.042 A 
ATOM     11  C   UNL A   1      31.013  26.816  23.417  1.00  0.00    -0.015 A 
ATOM     12  N   UNL A   1      29.433  25.594  24.383  1.00  0.00    -0.356 N 
ATOM     13  C   UNL A   1      29.780  27.490  23.244  1.00  0.00     0.003 A 
ATOM     14  C   UNL A   1      28.803  26.705  23.860  1.00  0.00     0.046 A 
ATOM     15  H   UNL A   1      28.979  24.848  24.838  1.00  0.00     0.166 HD
ATOM     16  C   UNL A   1      29.398  28.702  22.637  1.00  0.00     0.010 A 
ATOM     17  C   UNL A   1      27.453  27.073  23.889  1.00  0.00     0.026 A 
ATOM     18  C   UNL A   1      28.054  29.088  22.667  1.00  0.00     0.001 A 
ATOM     19  C   UNL A   1      27.098  28.283  23.282  1.00  0.00     0.002 A 
BRANCH   7  20
ATOM     20  C   UNL A   1      34.120  24.265  23.976  1.00  0.00     0.223 C 
ATOM     21  O   UNL A   1      33.941  23.441  23.080  1.00  0.00    -0.275 OA
BRANCH  20  22
ATOM     22  C   UNL A   1      35.365  24.202  24.834  1.00  0.00     0.097 C 
ATOM     23  C   UNL A   1      35.186  23.398  26.105  1.00  0.00     0.014 C 
ENDBRANCH  20  22
ENDBRANCH   7  20
BRANCH   8  24
ATOM     24  C   UNL A   1      31.731  24.425  26.183  1.00  0.00     0.034 C 
BRANCH  24  25
ATOM     25  C   UNL A   1      31.289  23.003  26.589  1.00  0.00    -0.015 C 
ATOM     26  C   UNL A   1      29.824  22.938  27.022  1.00  0.00     0.007 C 
ATOM     27  C   UNL A   1      31.496  22.055  25.403  1.00  0.00     0.007 C 
ENDBRANCH  24  25
ENDBRANCH   8  24
ENDBRANCH   4   6
ENDBRANCH   3   4
ENDBRANCH   2   3
ENDBRANCH   1   2
BRANCH   1  28
ATOM     28  O   UNL A   1      32.699  30.793  27.254  1.00  0.00    -0.458 OA
BRANCH  28  29
ATOM     29  C   UNL A   1      33.469  31.887  27.465  1.00  0.00     0.338 C 
ATOM     30  O   UNL A   1      33.155  33.054  27.319  1.00  0.00    -0.246 OA
BRANCH  29  31
ATOM     31  C   UNL A   1      34.795  31.465  27.945  1.00  0.00     0.060 A 
ATOM     32  C   UNL A   1      34.994  30.146  28.350  1.00  0.00     0.016 A 
ATOM     33  C   UNL A   1      35.800  32.413  28.118  1.00  0.00     0.016 A 
ATOM     34  C   UNL A   1      36.168  29.789  29.006  1.00  0.00     0.010 A 
ATOM     35  C   UNL A   1      37.017  32.029  28.691  1.00  0.00     0.010 A 
ATOM     36  C   UNL A   1      37.202  30.720  29.173  1.00  0.00    -0.014 A 
BRANCH  36  37
ATOM     37  C   UNL A   1      38.456  30.330  29.877  1.00  0.00     0.031 A 
ATOM     38  C   UNL A   1      39.438  29.396  29.216  1.00  0.00     0.074 A 
ATOM     39  C   UNL A   1      38.726  30.823  31.103  1.00  0.00     0.049 A 
ATOM     40  N   UNL A   1      40.487  28.802  29.725  1.00  0.00    -0.248 NA
ATOM     41  C   UNL A   1      39.194  29.074  27.803  1.00  0.00     0.031 C 
ATOM     42  C   UNL A   1      37.880  31.765  31.842  1.00  0.00     0.029 A 
ATOM     43  N   UNL A   1      39.789  30.607  31.944  1.00  0.00    -0.354 N 
ATOM     44  C   UNL A   1      40.993  27.989  28.716  1.00  0.00     0.074 A 
ATOM     45  C   UNL A   1      40.132  28.168  27.565  1.00  0.00     0.031 C 
ATOM     46  C   UNL A   1      38.477  32.076  33.001  1.00  0.00     0.029 A 
ATOM     47  C   UNL A   1      39.697  31.290  33.135  1.00  0.00     0.049 A 
ATOM     48  H   UNL A   1      40.545  30.020  31.715  1.00  0.00     0.167 HD
ATOM     49  C   UNL A   1      42.071  27.166  28.752  1.00  0.00     0.034 A 
ATOM     50  C   UNL A   1      40.477  31.255  34.232  1.00  0.00     0.034 A 
ATOM     51  C   UNL A   1      42.950  27.039  29.890  1.00  0.00     0.049 A 
ATOM     52  C   UNL A   1      41.666  30.331  34.249  1.00  0.00     0.074 A 
ATOM     53  C   UNL A   1      44.083  26.253  30.024  1.00  0.00     0.029 A 
ATOM     54  N   UNL A   1      42.804  27.726  31.089  1.00  0.00    -0.354 N 
ATOM     55  N   UNL A   1      42.086  29.511  33.314  1.00  0.00    -0.248 NA
ATOM     56  C   UNL A   1      42.472  30.319  35.475  1.00  0.00     0.031 C 
ATOM     57  C   UNL A   1      44.590  26.425  31.317  1.00  0.00     0.029 A 
ATOM     58  C   UNL A   1      43.813  27.366  31.972  1.00  0.00     0.049 A 
ATOM     59  H   UNL A   1      42.090  28.374  31.284  1.00  0.00     0.167 HD
ATOM     60  C   UNL A   1      43.204  28.877  33.845  1.00  0.00     0.074 A 
ATOM     61  C   UNL A   1      43.414  29.440  35.164  1.00  0.00     0.031 C 
ATOM     62  C   UNL A   1      43.982  27.907  33.299  1.00  0.00     0.034 A 
BRANCH  49  63
ATOM     63  C   UNL A   1      42.319  26.288  27.548  1.00  0.00     0.023 A 
ATOM     64  C   UNL A   1      41.859  24.962  27.477  1.00  0.00     0.031 A 
ATOM     65  C   UNL A   1      43.050  26.792  26.456  1.00  0.00     0.131 A 
ATOM     66  C   UNL A   1      42.185  24.168  26.365  1.00  0.00     0.055 A 
ATOM     67  C   UNL A   1      43.310  26.019  25.322  1.00  0.00     0.041 A 
ATOM     68  F   UNL A   1      43.532  28.044  26.477  1.00  0.00    -0.206 F 
ATOM     69  C   UNL A   1      42.886  24.695  25.277  1.00  0.00     0.022 A 
BRANCH  66  70
ATOM     70  S   UNL A   1      41.784  22.400  26.410  1.00  0.00     0.124 S 
ATOM     71  O   UNL A   1      42.333  22.005  27.704  1.00  0.00    -0.237 OA
ATOM     72  O   UNL A   1      40.329  22.403  26.306  1.00  0.00    -0.237 OA
ATOM     73  O   UNL A   1      42.490  21.858  25.250  1.00  0.00    -0.744 OA
ENDBRANCH  66  70
ENDBRANCH  49  63
BRANCH  50  74
ATOM     74  C   UNL A   1      40.120  32.060  35.434  1.00  0.00     0.023 A 
ATOM     75  C   UNL A   1      39.157  31.609  36.350  1.00  0.00     0.031 A 
ATOM     76  C   UNL A   1      40.724  33.308  35.669  1.00  0.00     0.131 A 
ATOM     77  C   UNL A   1      38.805  32.415  37.444  1.00  0.00     0.055 A 
ATOM     78  C   UNL A   1      40.409  34.082  36.784  1.00  0.00     0.041 A 
ATOM     79  F   UNL A   1      41.652  33.783  34.821  1.00  0.00    -0.206 F 
ATOM     80  C   UNL A   1      39.435  33.641  37.675  1.00  0.00     0.022 A 
BRANCH  77  81
ATOM     81  S   UNL A   1      37.462  31.867  38.533  1.00  0.00     0.124 S 
ATOM     82  O   UNL A   1      37.182  30.533  38.012  1.00  0.00    -0.237 OA
ATOM     83  O   UNL A   1      38.095  31.922  39.846  1.00  0.00    -0.237 OA
ATOM     84  O   UNL A   1      36.414  32.860  38.306  1.00  0.00    -0.744 OA
ENDBRANCH  77  81
ENDBRANCH  50  74
BRANCH  62  85
ATOM     85  C   UNL A   1      45.128  27.414  34.144  1.00  0.00     0.023 A 
ATOM     86  C   UNL A   1      44.978  26.313  35.006  1.00  0.00     0.031 A 
ATOM     87  C   UNL A   1      46.364  28.084  34.131  1.00  0.00     0.131 A 
ATOM     88  C   UNL A   1      46.024  25.953  35.867  1.00  0.00     0.055 A 
ATOM     89  C   UNL A   1      47.421  27.686  34.950  1.00  0.00     0.041 A 
ATOM     90  F   UNL A   1      46.558  29.142  33.329  1.00  0.00    -0.206 F 
ATOM     91  C   UNL A   1      47.249  26.625  35.836  1.00  0.00     0.022 A 
BRANCH  88  92
ATOM     92  S   UNL A   1      45.726  24.663  37.107  1.00  0.00     0.124 S 
ATOM     93  O   UNL A   1      44.718  25.288  37.960  1.00  0.00    -0.237 OA
ATOM     94  O   UNL A   1      45.266  23.545  36.289  1.00  0.00    -0.237 OA
ATOM     95  O   UNL A   1      47.035  24.477  37.730  1.00  0.00    -0.744 OA
ENDBRANCH  88  92
ENDBRANCH  62  85
ENDBRANCH  36  37
ENDBRANCH  29  31
ENDBRANCH  28  29
ENDBRANCH   1  28
TORSDOF 18
ENDMDL
MODEL 2
REMARK VINA RESULT:     -11.8      5.063     10.055
REMARK SMILES CCC(=O)N1[C@H](C(=O)OCCOC(=O)c2ccc(-c3c4nc(c(-c5cc(S(=O)(=O)[O-])ccc5F)c5ccc([nH]5)c(-c5cc(S(=O)(=O)[O-])ccc5F)c5nc(c(-c6cc(S(=O)(=O)[O-])ccc6F)c6ccc3[nH]6)C=C5)C=C4)cc2)Cc2c([nH]c3ccccc23)[C@@H]1CC(C)C
REMARK SMILES IDX 11 1 10 2 9 3 7 4 8 5 6 6 5 7 88 8 78 9 80 10 79 11 81 12
REMARK SMILES IDX 87 13 82 14 86 16 83 17 85 18 84 19 3 20 4 21 2 22 1 23
REMARK SMILES IDX 89 24 90 25 91 26 92 27 12 28 13 29 14 30 15 31 16 32 77 33
REMARK SMILES IDX 17 34 76 35 18 36 19 37 20 38 70 39 21 40 75 41 69 42 71 43
REMARK SMILES IDX 22 44 74 45 68 46 67 47 23 49 55 50 35 51 54 52 36 53 39 54
REMARK SMILES IDX 53 55 72 56 37 57 38 58 52 60 73 61 40 62 24 63 25 64 33 65
REMARK SMILES IDX 26 66 32 67 34 68 31 69 27 70 28 71 29 72 30 73 56 74 57 75
REMARK SMILES IDX 65 76 58 77 64 78 66 79 63 80 59 81 60 82 61 83 62 84 41 85
REMARK SMILES IDX 42 86 50 87 43 88 49 89 51 90 48 91 44 92 45 93 46 94 47 95
REMARK H PARENT 81 15 71 48 39 59
REMARK Flexibility Score: inf
ROOT
ATOM      1  C   UNL A   1      37.002  20.486  25.081  1.00  0.00     0.275 C 
ENDROOT
BRANCH   1   2
ATOM      2  C   UNL A   1      35.713  21.260  24.823  1.00  0.00     0.274 C 
BRANCH   2   3
ATOM      3  O   UNL A   1      35.296  21.945  26.018  1.00  0.00    -0.461 OA
BRANCH   3   4
ATOM      4  C   UNL A   1      34.926  23.239  25.866  1.00  0.00     0.329 C 
ATOM      5  O   UNL A   1      35.673  24.123  25.450  1.00  0.00    -0.250 OA
BRANCH   4   6
ATOM      6  C   UNL A   1      33.477  23.539  26.298  1.00  0.00     0.200 C 
ATOM      7  N   UNL A   1      32.656  24.558  25.568  1.00  0.00    -0.320 N 
ATOM      8  C   UNL A   1      32.217  24.295  24.175  1.00  0.00     0.133 C 
ATOM      9  C   UNL A   1      32.744  22.176  26.298  1.00  0.00     0.075 C 
ATOM     10  C   UNL A   1      32.216  22.808  23.945  1.00  0.00     0.042 A 
ATOM     11  C   UNL A   1      32.445  21.821  24.884  1.00  0.00    -0.015 A 
ATOM     12  N   UNL A   1      31.953  22.189  22.753  1.00  0.00    -0.356 N 
ATOM     13  C   UNL A   1      32.417  20.568  24.226  1.00  0.00     0.003 A 
ATOM     14  C   UNL A   1      32.107  20.825  22.888  1.00  0.00     0.046 A 
ATOM     15  H   UNL A   1      31.690  22.649  21.923  1.00  0.00     0.166 HD
ATOM     16  C   UNL A   1      32.641  19.238  24.630  1.00  0.00     0.010 A 
ATOM     17  C   UNL A   1      32.000  19.806  21.934  1.00  0.00     0.026 A 
ATOM     18  C   UNL A   1      32.548  18.210  23.686  1.00  0.00     0.001 A 
ATOM     19  C   UNL A   1      32.230  18.493  22.359  1.00  0.00     0.002 A 
BRANCH   7  20
ATOM     20  C   UNL A   1      32.067  25.634  26.219  1.00  0.00     0.223 C 
ATOM     21  O   UNL A   1      30.898  25.612  26.600  1.00  0.00    -0.275 OA
BRANCH  20  22
ATOM     22  C   UNL A   1      32.884  26.904  26.335  1.00  0.00     0.097 C 
ATOM     23  C   UNL A   1      32.225  27.973  27.182  1.00  0.00     0.014 C 
ENDBRANCH  20  22
ENDBRANCH   7  20
BRANCH   8  24
ATOM     24  C   UNL A   1      33.135  25.069  23.194  1.00  0.00     0.034 C 
BRANCH  24  25
ATOM     25  C   UNL A   1      32.497  26.299  22.513  1.00  0.00    -0.015 C 
ATOM     26  C   UNL A   1      33.426  27.513  22.492  1.00  0.00     0.007 C 
ATOM     27  C   UNL A   1      32.125  25.937  21.070  1.00  0.00     0.007 C 
ENDBRANCH  24  25
ENDBRANCH   8  24
ENDBRANCH   4   6
ENDBRANCH   3   4
ENDBRANCH   2   3
ENDBRANCH   1   2
BRANCH   1  28
ATOM     28  O   UNL A   1      38.112  21.398  25.108  1.00  0.00    -0.458 OA
BRANCH  28  29
ATOM     29  C   UNL A   1      39.087  21.097  25.997  1.00  0.00     0.338 C 
ATOM     30  O   UNL A   1      39.509  19.994  26.291  1.00  0.00    -0.246 OA
BRANCH  29  31
ATOM     31  C   UNL A   1      39.623  22.342  26.572  1.00  0.00     0.060 A 
ATOM     32  C   UNL A   1      39.127  23.571  26.141  1.00  0.00     0.016 A 
ATOM     33  C   UNL A   1      40.711  22.288  27.441  1.00  0.00     0.016 A 
ATOM     34  C   UNL A   1      39.768  24.749  26.510  1.00  0.00     0.010 A 
ATOM     35  C   UNL A   1      41.294  23.479  27.887  1.00  0.00     0.010 A 
ATOM     36  C   UNL A   1      40.851  24.722  27.400  1.00  0.00    -0.014 A 
BRANCH  36  37
ATOM     37  C   UNL A   1      41.533  25.989  27.790  1.00  0.00     0.031 A 
ATOM     38  C   UNL A   1      40.810  27.013  28.627  1.00  0.00     0.074 A 
ATOM     39  C   UNL A   1      42.806  26.217  27.408  1.00  0.00     0.049 A 
ATOM     40  N   UNL A   1      41.160  28.239  28.919  1.00  0.00    -0.248 NA
ATOM     41  C   UNL A   1      39.514  26.607  29.192  1.00  0.00     0.031 C 
ATOM     42  C   UNL A   1      43.635  25.295  26.628  1.00  0.00     0.029 A 
ATOM     43  N   UNL A   1      43.630  27.293  27.629  1.00  0.00    -0.354 N 
ATOM     44  C   UNL A   1      40.102  28.774  29.649  1.00  0.00     0.074 A 
ATOM     45  C   UNL A   1      39.099  27.735  29.752  1.00  0.00     0.031 C 
ATOM     46  C   UNL A   1      44.857  25.824  26.473  1.00  0.00     0.029 A 
ATOM     47  C   UNL A   1      44.875  27.159  27.058  1.00  0.00     0.049 A 
ATOM     48  H   UNL A   1      43.356  28.083  28.146  1.00  0.00     0.167 HD
ATOM     49  C   UNL A   1      39.980  30.019  30.175  1.00  0.00     0.034 A 
ATOM     50  C   UNL A   1      45.901  28.027  26.971  1.00  0.00     0.034 A 
ATOM     51  C   UNL A   1      41.012  31.027  30.108  1.00  0.00     0.049 A 
ATOM     52  C   UNL A   1      45.740  29.403  27.559  1.00  0.00     0.074 A 
ATOM     53  C   UNL A   1      41.002  32.310  30.628  1.00  0.00     0.029 A 
ATOM     54  N   UNL A   1      42.247  30.861  29.494  1.00  0.00    -0.354 N 
ATOM     55  N   UNL A   1      44.704  29.919  28.179  1.00  0.00    -0.248 NA
ATOM     56  C   UNL A   1      46.881  30.315  27.421  1.00  0.00     0.031 C 
ATOM     57  C   UNL A   1      42.205  32.936  30.284  1.00  0.00     0.029 A 
ATOM     58  C   UNL A   1      42.996  32.025  29.604  1.00  0.00     0.049 A 
ATOM     59  H   UNL A   1      42.549  30.038  29.046  1.00  0.00     0.167 HD
ATOM     60  C   UNL A   1      45.068  31.224  28.496  1.00  0.00     0.074 A 
ATOM     61  C   UNL A   1      46.431  31.399  28.036  1.00  0.00     0.031 C 
ATOM     62  C   UNL A   1      44.338  32.195  29.103  1.00  0.00     0.034 A 
BRANCH  49  63
ATOM     63  C   UNL A   1      38.658  30.382  30.809  1.00  0.00     0.023 A 
ATOM     64  C   UNL A   1      37.638  31.036  30.099  1.00  0.00     0.031 A 
ATOM     65  C   UNL A   1      38.428  30.079  32.164  1.00  0.00     0.131 A 
ATOM     66  C   UNL A   1      36.459  31.417  30.761  1.00  0.00     0.055 A 
ATOM     67  C   UNL A   1      37.226  30.397  32.798  1.00  0.00     0.041 A 
ATOM     68  F   UNL A   1      39.375  29.474  32.899  1.00  0.00    -0.206 F 
ATOM     69  C   UNL A   1      36.237  31.081  32.099  1.00  0.00     0.022 A 
BRANCH  66  70
ATOM     70  S   UNL A   1      35.267  32.465  29.883  1.00  0.00     0.124 S 
ATOM     71  O   UNL A   1      34.249  32.677  30.910  1.00  0.00    -0.237 OA
ATOM     72  O   UNL A   1      36.071  33.629  29.529  1.00  0.00    -0.237 OA
ATOM     73  O   UNL A   1      34.842  31.634  28.757  1.00  0.00    -0.744 OA
ENDBRANCH  66  70
ENDBRANCH  49  63
BRANCH  50  74
ATOM     74  C   UNL A   1      47.141  27.653  26.233  1.00  0.00     0.023 A 
ATOM     75  C   UNL A   1      47.270  27.897  24.857  1.00  0.00     0.031 A 
ATOM     76  C   UNL A   1      48.208  27.021  26.897  1.00  0.00     0.131 A 
ATOM     77  C   UNL A   1      48.429  27.485  24.183  1.00  0.00     0.055 A 
ATOM     78  C   UNL A   1      49.379  26.659  26.232  1.00  0.00     0.041 A 
ATOM     79  F   UNL A   1      48.133  26.767  28.214  1.00  0.00    -0.206 F 
ATOM     80  C   UNL A   1      49.491  26.882  24.864  1.00  0.00     0.022 A 
BRANCH  77  81
ATOM     81  S   UNL A   1      48.509  27.692  22.383  1.00  0.00     0.124 S 
ATOM     82  O   UNL A   1      47.214  28.300  22.095  1.00  0.00    -0.237 OA
ATOM     83  O   UNL A   1      49.672  28.558  22.228  1.00  0.00    -0.237 OA
ATOM     84  O   UNL A   1      48.681  26.327  21.890  1.00  0.00    -0.744 OA
ENDBRANCH  77  81
ENDBRANCH  50  74
BRANCH  62  85
ATOM     85  C   UNL A   1      45.024  33.523  29.297  1.00  0.00     0.023 A 
ATOM     86  C   UNL A   1      44.901  34.553  28.347  1.00  0.00     0.031 A 
ATOM     87  C   UNL A   1      45.851  33.742  30.412  1.00  0.00     0.131 A 
ATOM     88  C   UNL A   1      45.645  35.732  28.496  1.00  0.00     0.055 A 
ATOM     89  C   UNL A   1      46.546  34.940  30.583  1.00  0.00     0.041 A 
ATOM     90  F   UNL A   1      46.005  32.791  31.346  1.00  0.00    -0.206 F 
ATOM     91  C   UNL A   1      46.458  35.936  29.614  1.00  0.00     0.022 A 
BRANCH  88  92
ATOM     92  S   UNL A   1      45.622  36.950  27.153  1.00  0.00     0.124 S 
ATOM     93  O   UNL A   1      46.372  38.060  27.736  1.00  0.00    -0.237 OA
ATOM     94  O   UNL A   1      46.285  36.232  26.069  1.00  0.00    -0.237 OA
ATOM     95  O   UNL A   1      44.198  37.207  26.947  1.00  0.00    -0.744 OA
ENDBRANCH  88  92
ENDBRANCH  62  85
ENDBRANCH  36  37
ENDBRANCH  29  31
ENDBRANCH  28  29
ENDBRANCH   1  28
TORSDOF 18
ENDMDL
MODEL 3
REMARK VINA RESULT:     -11.3      5.773     10.499
REMARK SMILES CCC(=O)N1[C@H](C(=O)OCCOC(=O)c2ccc(-c3c4nc(c(-c5cc(S(=O)(=O)[O-])ccc5F)c5ccc([nH]5)c(-c5cc(S(=O)(=O)[O-])ccc5F)c5nc(c(-c6cc(S(=O)(=O)[O-])ccc6F)c6ccc3[nH]6)C=C5)C=C4)cc2)Cc2c([nH]c3ccccc23)[C@@H]1CC(C)C
REMARK SMILES IDX 11 1 10 2 9 3 7 4 8 5 6 6 5 7 88 8 78 9 80 10 79 11 81 12
REMARK SMILES IDX 87 13 82 14 86 16 83 17 85 18 84 19 3 20 4 21 2 22 1 23
REMARK SMILES IDX 89 24 90 25 91 26 92 27 12 28 13 29 14 30 15 31 16 32 77 33
REMARK SMILES IDX 17 34 76 35 18 36 19 37 20 38 70 39 21 40 75 41 69 42 71 43
REMARK SMILES IDX 22 44 74 45 68 46 67 47 23 49 55 50 35 51 54 52 36 53 39 54
REMARK SMILES IDX 53 55 72 56 37 57 38 58 52 60 73 61 40 62 24 63 25 64 33 65
REMARK SMILES IDX 26 66 32 67 34 68 31 69 27 70 28 71 29 72 30 73 56 74 57 75
REMARK SMILES IDX 65 76 58 77 64 78 66 79 63 80 59 81 60 82 61 83 62 84 41 85
REMARK SMILES IDX 42 86 50 87 43 88 49 89 51 90 48 91 44 92 45 93 46 94 47 95
REMARK H PARENT 81 15 71 48 39 59
REMARK Flexibility Score: inf
ROOT
ATOM      1  C   UNL A   1      39.068  19.998  25.398  1.00  0.00     0.275 C 
ENDROOT
BRANCH   1   2
ATOM      2  C   UNL A   1      38.319  21.326  25.347  1.00  0.00     0.274 C 
BRANCH   2   3
ATOM      3  O   UNL A   1      37.111  21.188  24.576  1.00  0.00    -0.461 OA
BRANCH   3   4
ATOM      4  C   UNL A   1      36.349  22.301  24.454  1.00  0.00     0.329 C 
ATOM      5  O   UNL A   1      36.508  23.150  23.579  1.00  0.00    -0.250 OA
BRANCH   4   6
ATOM      6  C   UNL A   1      35.266  22.448  25.540  1.00  0.00     0.200 C 
ATOM      7  N   UNL A   1      33.994  23.190  25.257  1.00  0.00    -0.320 N 
ATOM      8  C   UNL A   1      33.005  22.627  24.305  1.00  0.00     0.133 C 
ATOM      9  C   UNL A   1      34.941  21.012  26.014  1.00  0.00     0.075 C 
ATOM     10  C   UNL A   1      33.216  21.139  24.219  1.00  0.00     0.042 A 
ATOM     11  C   UNL A   1      34.080  20.376  24.980  1.00  0.00    -0.015 A 
ATOM     12  N   UNL A   1      32.550  20.292  23.376  1.00  0.00    -0.356 N 
ATOM     13  C   UNL A   1      34.010  19.039  24.522  1.00  0.00     0.003 A 
ATOM     14  C   UNL A   1      33.043  19.010  23.514  1.00  0.00     0.046 A 
ATOM     15  H   UNL A   1      31.825  20.556  22.764  1.00  0.00     0.166 HD
ATOM     16  C   UNL A   1      34.685  17.848  24.852  1.00  0.00     0.010 A 
ATOM     17  C   UNL A   1      32.712  17.837  22.825  1.00  0.00     0.026 A 
ATOM     18  C   UNL A   1      34.372  16.670  24.166  1.00  0.00     0.001 A 
ATOM     19  C   UNL A   1      33.398  16.667  23.169  1.00  0.00     0.002 A 
BRANCH   7  20
ATOM     20  C   UNL A   1      33.577  24.262  26.036  1.00  0.00     0.223 C 
ATOM     21  O   UNL A   1      32.697  24.151  26.888  1.00  0.00    -0.275 OA
BRANCH  20  22
ATOM     22  C   UNL A   1      34.160  25.622  25.713  1.00  0.00     0.097 C 
ATOM     23  C   UNL A   1      33.177  26.760  25.888  1.00  0.00     0.014 C 
ENDBRANCH  20  22
ENDBRANCH   7  20
BRANCH   8  24
ATOM     24  C   UNL A   1      33.139  23.349  22.940  1.00  0.00     0.034 C 
BRANCH  24  25
ATOM     25  C   UNL A   1      31.911  24.172  22.497  1.00  0.00    -0.015 C 
ATOM     26  C   UNL A   1      30.703  23.976  23.414  1.00  0.00     0.007 C 
ATOM     27  C   UNL A   1      32.282  25.659  22.481  1.00  0.00     0.007 C 
ENDBRANCH  24  25
ENDBRANCH   8  24
ENDBRANCH   4   6
ENDBRANCH   3   4
ENDBRANCH   2   3
ENDBRANCH   1   2
BRANCH   1  28
ATOM     28  O   UNL A   1      39.991  20.009  26.500  1.00  0.00    -0.458 OA
BRANCH  28  29
ATOM     29  C   UNL A   1      41.293  19.857  26.166  1.00  0.00     0.338 C 
ATOM     30  O   UNL A   1      41.826  18.874  25.684  1.00  0.00    -0.246 OA
BRANCH  29  31
ATOM     31  C   UNL A   1      42.018  21.107  26.446  1.00  0.00     0.060 A 
ATOM     32  C   UNL A   1      42.409  21.400  27.751  1.00  0.00     0.016 A 
ATOM     33  C   UNL A   1      42.189  22.048  25.433  1.00  0.00     0.016 A 
ATOM     34  C   UNL A   1      42.896  22.665  28.065  1.00  0.00     0.010 A 
ATOM     35  C   UNL A   1      42.768  23.285  25.734  1.00  0.00     0.010 A 
ATOM     36  C   UNL A   1      43.097  23.621  27.060  1.00  0.00    -0.014 A 
BRANCH  36  37
ATOM     37  C   UNL A   1      43.618  24.973  27.405  1.00  0.00     0.031 A 
ATOM     38  C   UNL A   1      42.699  26.015  27.989  1.00  0.00     0.074 A 
ATOM     39  C   UNL A   1      44.920  25.266  27.209  1.00  0.00     0.049 A 
ATOM     40  N   UNL A   1      42.914  27.290  28.189  1.00  0.00    -0.248 NA
ATOM     41  C   UNL A   1      41.356  25.564  28.381  1.00  0.00     0.031 C 
ATOM     42  C   UNL A   1      45.928  24.340  26.685  1.00  0.00     0.029 A 
ATOM     43  N   UNL A   1      45.623  26.424  27.432  1.00  0.00    -0.354 N 
ATOM     44  C   UNL A   1      41.715  27.808  28.671  1.00  0.00     0.074 A 
ATOM     45  C   UNL A   1      40.779  26.705  28.732  1.00  0.00     0.031 C 
ATOM     46  C   UNL A   1      47.121  24.951  26.668  1.00  0.00     0.029 A 
ATOM     47  C   UNL A   1      46.953  26.336  27.089  1.00  0.00     0.049 A 
ATOM     48  H   UNL A   1      45.215  27.239  27.803  1.00  0.00     0.167 HD
ATOM     49  C   UNL A   1      41.426  29.086  29.023  1.00  0.00     0.034 A 
ATOM     50  C   UNL A   1      47.920  27.273  27.068  1.00  0.00     0.034 A 
ATOM     51  C   UNL A   1      42.387  30.164  29.006  1.00  0.00     0.049 A 
ATOM     52  C   UNL A   1      47.573  28.684  27.458  1.00  0.00     0.074 A 
ATOM     53  C   UNL A   1      42.205  31.489  29.364  1.00  0.00     0.029 A 
ATOM     54  N   UNL A   1      43.716  30.039  28.622  1.00  0.00    -0.354 N 
ATOM     55  N   UNL A   1      46.416  29.174  27.839  1.00  0.00    -0.248 NA
ATOM     56  C   UNL A   1      48.660  29.669  27.401  1.00  0.00     0.031 C 
ATOM     57  C   UNL A   1      43.406  32.175  29.148  1.00  0.00     0.029 A 
ATOM     58  C   UNL A   1      44.358  31.266  28.716  1.00  0.00     0.049 A 
ATOM     59  H   UNL A   1      44.142  29.202  28.327  1.00  0.00     0.167 HD
ATOM     60  C   UNL A   1      46.635  30.530  28.057  1.00  0.00     0.074 A 
ATOM     61  C   UNL A   1      48.042  30.769  27.805  1.00  0.00     0.031 C 
ATOM     62  C   UNL A   1      45.752  31.495  28.421  1.00  0.00     0.034 A 
BRANCH  49  63
ATOM     63  C   UNL A   1      39.995  29.401  29.389  1.00  0.00     0.023 A 
ATOM     64  C   UNL A   1      39.559  29.477  30.722  1.00  0.00     0.031 A 
ATOM     65  C   UNL A   1      39.045  29.613  28.372  1.00  0.00     0.131 A 
ATOM     66  C   UNL A   1      38.200  29.698  31.002  1.00  0.00     0.055 A 
ATOM     67  C   UNL A   1      37.710  29.903  28.658  1.00  0.00     0.041 A 
ATOM     68  F   UNL A   1      39.399  29.533  27.080  1.00  0.00    -0.206 F 
ATOM     69  C   UNL A   1      37.278  29.935  29.980  1.00  0.00     0.022 A 
BRANCH  66  70
ATOM     70  S   UNL A   1      37.629  29.553  32.717  1.00  0.00     0.124 S 
ATOM     71  O   UNL A   1      38.707  30.219  33.445  1.00  0.00    -0.237 OA
ATOM     72  O   UNL A   1      36.350  30.254  32.685  1.00  0.00    -0.237 OA
ATOM     73  O   UNL A   1      37.544  28.109  32.930  1.00  0.00    -0.744 OA
ENDBRANCH  66  70
ENDBRANCH  49  63
BRANCH  50  74
ATOM     74  C   UNL A   1      49.289  26.929  26.588  1.00  0.00     0.023 A 
ATOM     75  C   UNL A   1      50.366  26.823  27.481  1.00  0.00     0.031 A 
ATOM     76  C   UNL A   1      49.541  26.724  25.220  1.00  0.00     0.131 A 
ATOM     77  C   UNL A   1      51.652  26.549  26.992  1.00  0.00     0.055 A 
ATOM     78  C   UNL A   1      50.811  26.402  24.743  1.00  0.00     0.041 A 
ATOM     79  F   UNL A   1      48.542  26.814  24.325  1.00  0.00    -0.206 F 
ATOM     80  C   UNL A   1      51.879  26.323  25.631  1.00  0.00     0.022 A 
BRANCH  77  81
ATOM     81  S   UNL A   1      53.045  26.553  28.154  1.00  0.00     0.124 S 
ATOM     82  O   UNL A   1      52.376  26.281  29.421  1.00  0.00    -0.237 OA
ATOM     83  O   UNL A   1      53.882  25.479  27.628  1.00  0.00    -0.237 OA
ATOM     84  O   UNL A   1      53.600  27.898  28.015  1.00  0.00    -0.744 OA
ENDBRANCH  77  81
ENDBRANCH  50  74
BRANCH  62  85
ATOM     85  C   UNL A   1      46.307  32.888  28.567  1.00  0.00     0.023 A 
ATOM     86  C   UNL A   1      46.533  33.705  27.444  1.00  0.00     0.031 A 
ATOM     87  C   UNL A   1      46.664  33.384  29.832  1.00  0.00     0.131 A 
ATOM     88  C   UNL A   1      47.161  34.949  27.601  1.00  0.00     0.055 A 
ATOM     89  C   UNL A   1      47.238  34.647  29.988  1.00  0.00     0.041 A 
ATOM     90  F   UNL A   1      46.472  32.644  30.935  1.00  0.00    -0.206 F 
ATOM     91  C   UNL A   1      47.504  35.429  28.867  1.00  0.00     0.022 A 
BRANCH  88  92
ATOM     92  S   UNL A   1      47.623  35.883  26.117  1.00  0.00     0.124 S 
ATOM     93  O   UNL A   1      49.013  36.231  26.397  1.00  0.00    -0.237 OA
ATOM     94  O   UNL A   1      47.411  34.905  25.055  1.00  0.00    -0.237 OA
ATOM     95  O   UNL A   1      46.691  37.010  26.117  1.00  0.00    -0.744 OA
ENDBRANCH  88  92
ENDBRANCH  62  85
ENDBRANCH  36  37
ENDBRANCH  29  31
ENDBRANCH  28  29
ENDBRANCH   1  28
TORSDOF 18
ENDMDL
