MODEL 1
REMARK VINA RESULT:     -12.4      0.000      0.000
REMARK SMILES O=C(C[C@H]1C[N@H+](Cc2c(F)cccc2F)CCO1)OCCOC(=O)c1ccc(-c2c3nc(c(-c4cc(S(=O)(=O)[O-])ccc4F)c4ccc([nH]4)c(-c4cc(S(=O)(=O)[O-])ccc4F)c4nc(c(-c5cc(S(=O)(=O)[O-])ccc5F)c5ccc2[nH]5)C=C4)C=C3)cc1
REMARK SMILES IDX 20 1 19 2 2 3 1 4 3 5 4 6 5 7 18 8 6 9 17 10 16 11 7 13 8 14
REMARK SMILES IDX 9 15 14 16 10 17 11 18 13 19 15 20 12 21 21 22 22 23 23 24
REMARK SMILES IDX 24 25 25 26 26 27 87 28 27 29 86 30 28 31 29 32 30 33 80 34
REMARK SMILES IDX 31 35 85 36 79 37 81 38 32 39 84 40 78 41 77 42 33 44 65 45
REMARK SMILES IDX 45 46 64 47 46 48 49 49 63 50 82 51 47 52 48 53 62 55 83 56
REMARK SMILES IDX 50 57 34 58 35 59 43 60 36 61 42 62 44 63 41 64 37 65 38 66
REMARK SMILES IDX 39 67 40 68 66 69 67 70 75 71 68 72 74 73 76 74 73 75 69 76
REMARK SMILES IDX 70 77 71 78 72 79 51 80 52 81 60 82 53 83 59 84 61 85 58 86
REMARK SMILES IDX 54 87 55 88 56 89 57 90
REMARK H PARENT 6 12 81 43 49 54
REMARK Flexibility Score: inf
ROOT
ATOM      1  C   UNL A   1      35.306  21.946  25.406  1.00  0.00     0.274 C 
ENDROOT
BRANCH   1   2
ATOM      2  O   UNL A   1      33.961  21.448  25.563  1.00  0.00    -0.462 OA
BRANCH   2   3
ATOM      3  C   UNL A   1      33.028  21.870  24.666  1.00  0.00     0.308 C 
ATOM      4  O   UNL A   1      32.235  21.079  24.180  1.00  0.00    -0.252 OA
BRANCH   3   5
ATOM      5  C   UNL A   1      33.082  23.338  24.337  1.00  0.00     0.160 C 
BRANCH   5   6
ATOM      6  C   UNL A   1      32.426  23.752  23.021  1.00  0.00     0.184 C 
ATOM      7  C   UNL A   1      31.018  24.408  23.153  1.00  0.00     0.295 C 
ATOM      8  O   UNL A   1      33.359  24.406  22.138  1.00  0.00    -0.366 OA
ATOM      9  N   UNL A   1      31.030  25.840  22.977  1.00  0.00    -0.327 N 
ATOM     10  C   UNL A   1      33.265  25.840  22.144  1.00  0.00     0.222 C 
ATOM     11  C   UNL A   1      31.834  26.301  21.870  1.00  0.00     0.291 C 
ATOM     12  H   UNL A   1      31.399  26.195  23.859  1.00  0.00     0.348 HD
BRANCH   9  13
ATOM     13  C   UNL A   1      30.152  26.731  23.705  1.00  0.00     0.305 C 
BRANCH  13  14
ATOM     14  C   UNL A   1      30.848  27.474  24.823  1.00  0.00     0.078 A 
ATOM     15  C   UNL A   1      31.074  26.915  26.084  1.00  0.00     0.135 A 
ATOM     16  C   UNL A   1      31.289  28.787  24.640  1.00  0.00     0.135 A 
ATOM     17  F   UNL A   1      30.785  25.630  26.330  1.00  0.00    -0.206 F 
ATOM     18  C   UNL A   1      31.609  27.658  27.140  1.00  0.00     0.040 A 
ATOM     19  C   UNL A   1      31.825  29.548  25.683  1.00  0.00     0.040 A 
ATOM     20  F   UNL A   1      31.205  29.356  23.431  1.00  0.00    -0.206 F 
ATOM     21  C   UNL A   1      31.966  28.987  26.947  1.00  0.00     0.006 A 
ENDBRANCH  13  14
ENDBRANCH   9  13
ENDBRANCH   5   6
ENDBRANCH   3   5
ENDBRANCH   2   3
ENDBRANCH   1   2
BRANCH   1  22
ATOM     22  C   UNL A   1      36.336  20.823  25.263  1.00  0.00     0.275 C 
BRANCH  22  23
ATOM     23  O   UNL A   1      37.586  21.396  24.846  1.00  0.00    -0.458 OA
BRANCH  23  24
ATOM     24  C   UNL A   1      38.651  21.002  25.582  1.00  0.00     0.338 C 
ATOM     25  O   UNL A   1      39.125  19.883  25.634  1.00  0.00    -0.246 OA
BRANCH  24  26
ATOM     26  C   UNL A   1      39.174  22.168  26.319  1.00  0.00     0.060 A 
ATOM     27  C   UNL A   1      38.640  23.432  26.064  1.00  0.00     0.016 A 
ATOM     28  C   UNL A   1      40.269  22.028  27.170  1.00  0.00     0.016 A 
ATOM     29  C   UNL A   1      39.247  24.571  26.605  1.00  0.00     0.010 A 
ATOM     30  C   UNL A   1      40.858  23.168  27.732  1.00  0.00     0.010 A 
ATOM     31  C   UNL A   1      40.386  24.455  27.412  1.00  0.00    -0.014 A 
BRANCH  31  32
ATOM     32  C   UNL A   1      41.206  25.659  27.736  1.00  0.00     0.031 A 
ATOM     33  C   UNL A   1      40.577  26.753  28.565  1.00  0.00     0.074 A 
ATOM     34  C   UNL A   1      42.496  25.781  27.368  1.00  0.00     0.049 A 
ATOM     35  N   UNL A   1      41.006  27.961  28.825  1.00  0.00    -0.248 NA
ATOM     36  C   UNL A   1      39.280  26.430  29.177  1.00  0.00     0.031 C 
ATOM     37  C   UNL A   1      43.285  24.761  26.681  1.00  0.00     0.029 A 
ATOM     38  N   UNL A   1      43.374  26.828  27.531  1.00  0.00    -0.354 N 
ATOM     39  C   UNL A   1      40.013  28.558  29.595  1.00  0.00     0.074 A 
ATOM     40  C   UNL A   1      38.956  27.580  29.746  1.00  0.00     0.031 C 
ATOM     41  C   UNL A   1      44.530  25.231  26.483  1.00  0.00     0.029 A 
ATOM     42  C   UNL A   1      44.611  26.609  26.968  1.00  0.00     0.049 A 
ATOM     43  H   UNL A   1      43.139  27.659  28.006  1.00  0.00     0.167 HD
ATOM     44  C   UNL A   1      39.979  29.808  30.123  1.00  0.00     0.034 A 
ATOM     45  C   UNL A   1      45.669  27.434  26.824  1.00  0.00     0.034 A 
ATOM     46  C   UNL A   1      41.045  30.772  29.990  1.00  0.00     0.049 A 
ATOM     47  C   UNL A   1      45.575  28.857  27.330  1.00  0.00     0.074 A 
ATOM     48  C   UNL A   1      41.094  32.076  30.449  1.00  0.00     0.029 A 
ATOM     49  N   UNL A   1      42.258  30.532  29.357  1.00  0.00    -0.354 N 
ATOM     50  N   UNL A   1      44.591  29.450  27.965  1.00  0.00    -0.248 NA
ATOM     51  C   UNL A   1      46.738  29.725  27.089  1.00  0.00     0.031 C 
ATOM     52  C   UNL A   1      42.310  32.642  30.044  1.00  0.00     0.029 A 
ATOM     53  C   UNL A   1      43.051  31.669  29.396  1.00  0.00     0.049 A 
ATOM     54  H   UNL A   1      42.517  29.677  28.940  1.00  0.00     0.167 HD
ATOM     55  C   UNL A   1      45.032  30.746  28.228  1.00  0.00     0.074 A 
ATOM     56  C   UNL A   1      46.373  30.846  27.692  1.00  0.00     0.031 C 
ATOM     57  C   UNL A   1      44.389  31.761  28.861  1.00  0.00     0.034 A 
BRANCH  44  58
ATOM     58  C   UNL A   1      38.702  30.223  30.813  1.00  0.00     0.023 A 
ATOM     59  C   UNL A   1      37.646  30.846  30.125  1.00  0.00     0.031 A 
ATOM     60  C   UNL A   1      38.572  30.052  32.204  1.00  0.00     0.131 A 
ATOM     61  C   UNL A   1      36.547  31.349  30.840  1.00  0.00     0.055 A 
ATOM     62  C   UNL A   1      37.440  30.481  32.896  1.00  0.00     0.041 A 
ATOM     63  F   UNL A   1      39.559  29.487  32.917  1.00  0.00    -0.206 F 
ATOM     64  C   UNL A   1      36.427  31.151  32.218  1.00  0.00     0.022 A 
BRANCH  61  65
ATOM     65  S   UNL A   1      35.361  32.414  29.974  1.00  0.00     0.124 S 
ATOM     66  O   UNL A   1      34.383  32.684  31.024  1.00  0.00    -0.237 OA
ATOM     67  O   UNL A   1      36.191  33.543  29.567  1.00  0.00    -0.237 OA
ATOM     68  O   UNL A   1      34.877  31.571  28.883  1.00  0.00    -0.744 OA
ENDBRANCH  61  65
ENDBRANCH  44  58
BRANCH  45  69
ATOM     69  C   UNL A   1      46.899  26.983  26.106  1.00  0.00     0.023 A 
ATOM     70  C   UNL A   1      47.945  26.338  26.788  1.00  0.00     0.031 A 
ATOM     71  C   UNL A   1      47.083  27.271  24.741  1.00  0.00     0.131 A 
ATOM     72  C   UNL A   1      49.145  26.051  26.118  1.00  0.00     0.055 A 
ATOM     73  C   UNL A   1      48.255  26.931  24.066  1.00  0.00     0.041 A 
ATOM     74  F   UNL A   1      46.121  27.894  24.042  1.00  0.00    -0.206 F 
ATOM     75  C   UNL A   1      49.302  26.330  24.758  1.00  0.00     0.022 A 
BRANCH  72  76
ATOM     76  S   UNL A   1      50.540  25.391  27.072  1.00  0.00     0.124 S 
ATOM     77  O   UNL A   1      49.877  24.420  27.934  1.00  0.00    -0.237 OA
ATOM     78  O   UNL A   1      51.394  24.844  26.023  1.00  0.00    -0.237 OA
ATOM     79  O   UNL A   1      51.074  26.569  27.753  1.00  0.00    -0.744 OA
ENDBRANCH  72  76
ENDBRANCH  45  69
BRANCH  57  80
ATOM     80  C   UNL A   1      45.158  33.046  29.068  1.00  0.00     0.023 A 
ATOM     81  C   UNL A   1      45.180  34.069  28.103  1.00  0.00     0.031 A 
ATOM     82  C   UNL A   1      45.898  33.238  30.249  1.00  0.00     0.131 A 
ATOM     83  C   UNL A   1      45.968  35.212  28.312  1.00  0.00     0.055 A 
ATOM     84  C   UNL A   1      46.637  34.400  30.476  1.00  0.00     0.041 A 
ATOM     85  F   UNL A   1      45.915  32.295  31.205  1.00  0.00    -0.206 F 
ATOM     86  C   UNL A   1      46.686  35.390  29.497  1.00  0.00     0.022 A 
BRANCH  83  87
ATOM     87  S   UNL A   1      46.123  36.426  26.972  1.00  0.00     0.124 S 
ATOM     88  O   UNL A   1      46.275  35.571  25.799  1.00  0.00    -0.237 OA
ATOM     89  O   UNL A   1      44.865  37.158  27.068  1.00  0.00    -0.237 OA
ATOM     90  O   UNL A   1      47.315  37.191  27.338  1.00  0.00    -0.744 OA
ENDBRANCH  83  87
ENDBRANCH  57  80
ENDBRANCH  31  32
ENDBRANCH  24  26
ENDBRANCH  23  24
ENDBRANCH  22  23
ENDBRANCH   1  22
TORSDOF 17
ENDMDL
MODEL 2
REMARK VINA RESULT:     -12.3      4.784     10.080
REMARK SMILES O=C(C[C@H]1C[N@H+](Cc2c(F)cccc2F)CCO1)OCCOC(=O)c1ccc(-c2c3nc(c(-c4cc(S(=O)(=O)[O-])ccc4F)c4ccc([nH]4)c(-c4cc(S(=O)(=O)[O-])ccc4F)c4nc(c(-c5cc(S(=O)(=O)[O-])ccc5F)c5ccc2[nH]5)C=C4)C=C3)cc1
REMARK SMILES IDX 20 1 19 2 2 3 1 4 3 5 4 6 5 7 18 8 6 9 17 10 16 11 7 13 8 14
REMARK SMILES IDX 9 15 14 16 10 17 11 18 13 19 15 20 12 21 21 22 22 23 23 24
REMARK SMILES IDX 24 25 25 26 26 27 87 28 27 29 86 30 28 31 29 32 30 33 80 34
REMARK SMILES IDX 31 35 85 36 79 37 81 38 32 39 84 40 78 41 77 42 33 44 65 45
REMARK SMILES IDX 45 46 64 47 46 48 49 49 63 50 82 51 47 52 48 53 62 55 83 56
REMARK SMILES IDX 50 57 34 58 35 59 43 60 36 61 42 62 44 63 41 64 37 65 38 66
REMARK SMILES IDX 39 67 40 68 66 69 67 70 75 71 68 72 74 73 76 74 73 75 69 76
REMARK SMILES IDX 70 77 71 78 72 79 51 80 52 81 60 82 53 83 59 84 61 85 58 86
REMARK SMILES IDX 54 87 55 88 56 89 57 90
REMARK H PARENT 6 12 81 43 49 54
REMARK Flexibility Score: inf
ROOT
ATOM      1  C   UNL A   1      31.580  29.329  25.237  1.00  0.00     0.274 C 
ENDROOT
BRANCH   1   2
ATOM      2  O   UNL A   1      31.956  28.303  26.179  1.00  0.00    -0.462 OA
BRANCH   2   3
ATOM      3  C   UNL A   1      32.607  27.212  25.690  1.00  0.00     0.308 C 
ATOM      4  O   UNL A   1      33.709  26.906  26.118  1.00  0.00    -0.252 OA
BRANCH   3   5
ATOM      5  C   UNL A   1      31.873  26.466  24.608  1.00  0.00     0.160 C 
BRANCH   5   6
ATOM      6  C   UNL A   1      30.906  25.383  25.080  1.00  0.00     0.184 C 
ATOM      7  C   UNL A   1      30.792  24.136  24.151  1.00  0.00     0.295 C 
ATOM      8  O   UNL A   1      31.039  25.122  26.492  1.00  0.00    -0.366 OA
ATOM      9  N   UNL A   1      31.490  22.977  24.653  1.00  0.00    -0.327 N 
ATOM     10  C   UNL A   1      31.823  23.959  26.801  1.00  0.00     0.222 C 
ATOM     11  C   UNL A   1      31.301  22.727  26.062  1.00  0.00     0.291 C 
ATOM     12  H   UNL A   1      32.471  23.173  24.454  1.00  0.00     0.348 HD
BRANCH   9  13
ATOM     13  C   UNL A   1      32.152  22.022  23.791  1.00  0.00     0.305 C 
BRANCH  13  14
ATOM     14  C   UNL A   1      33.654  21.999  23.967  1.00  0.00     0.078 A 
ATOM     15  C   UNL A   1      34.314  21.062  24.768  1.00  0.00     0.135 A 
ATOM     16  C   UNL A   1      34.461  22.946  23.331  1.00  0.00     0.135 A 
ATOM     17  F   UNL A   1      33.645  20.049  25.335  1.00  0.00    -0.206 F 
ATOM     18  C   UNL A   1      35.688  21.131  25.013  1.00  0.00     0.040 A 
ATOM     19  C   UNL A   1      35.836  23.034  23.564  1.00  0.00     0.040 A 
ATOM     20  F   UNL A   1      33.918  23.811  22.465  1.00  0.00    -0.206 F 
ATOM     21  C   UNL A   1      36.451  22.135  24.427  1.00  0.00     0.006 A 
ENDBRANCH  13  14
ENDBRANCH   9  13
ENDBRANCH   5   6
ENDBRANCH   3   5
ENDBRANCH   2   3
ENDBRANCH   1   2
BRANCH   1  22
ATOM     22  C   UNL A   1      31.399  30.697  25.899  1.00  0.00     0.275 C 
BRANCH  22  23
ATOM     23  O   UNL A   1      32.140  30.712  27.130  1.00  0.00    -0.458 OA
BRANCH  23  24
ATOM     24  C   UNL A   1      32.847  31.847  27.339  1.00  0.00     0.338 C 
ATOM     25  O   UNL A   1      32.434  32.988  27.251  1.00  0.00    -0.246 OA
BRANCH  24  26
ATOM     26  C   UNL A   1      34.226  31.482  27.714  1.00  0.00     0.060 A 
ATOM     27  C   UNL A   1      34.541  30.141  27.936  1.00  0.00     0.016 A 
ATOM     28  C   UNL A   1      35.173  32.475  27.962  1.00  0.00     0.016 A 
ATOM     29  C   UNL A   1      35.784  29.793  28.476  1.00  0.00     0.010 A 
ATOM     30  C   UNL A   1      36.427  32.121  28.478  1.00  0.00     0.010 A 
ATOM     31  C   UNL A   1      36.725  30.781  28.791  1.00  0.00    -0.014 A 
BRANCH  31  32
ATOM     32  C   UNL A   1      37.910  30.453  29.636  1.00  0.00     0.031 A 
ATOM     33  C   UNL A   1      38.980  29.560  29.055  1.00  0.00     0.074 A 
ATOM     34  C   UNL A   1      38.089  30.965  30.869  1.00  0.00     0.049 A 
ATOM     35  N   UNL A   1      40.000  28.985  29.637  1.00  0.00    -0.248 NA
ATOM     36  C   UNL A   1      38.870  29.278  27.616  1.00  0.00     0.031 C 
ATOM     37  C   UNL A   1      37.217  31.941  31.519  1.00  0.00     0.029 A 
ATOM     38  N   UNL A   1      39.078  30.732  31.797  1.00  0.00    -0.354 N 
ATOM     39  C   UNL A   1      40.631  28.239  28.646  1.00  0.00     0.074 A 
ATOM     40  C   UNL A   1      39.865  28.427  27.431  1.00  0.00     0.031 C 
ATOM     41  C   UNL A   1      37.712  32.226  32.737  1.00  0.00     0.029 A 
ATOM     42  C   UNL A   1      38.896  31.403  32.985  1.00  0.00     0.049 A 
ATOM     43  H   UNL A   1      39.846  30.138  31.627  1.00  0.00     0.167 HD
ATOM     44  C   UNL A   1      41.740  27.463  28.738  1.00  0.00     0.034 A 
ATOM     45  C   UNL A   1      39.579  31.333  34.146  1.00  0.00     0.034 A 
ATOM     46  C   UNL A   1      42.513  27.297  29.946  1.00  0.00     0.049 A 
ATOM     47  C   UNL A   1      40.754  30.386  34.262  1.00  0.00     0.074 A 
ATOM     48  C   UNL A   1      43.627  26.503  30.158  1.00  0.00     0.029 A 
ATOM     49  N   UNL A   1      42.259  27.947  31.147  1.00  0.00    -0.354 N 
ATOM     50  N   UNL A   1      41.281  29.602  33.350  1.00  0.00    -0.248 NA
ATOM     51  C   UNL A   1      41.418  30.310  35.571  1.00  0.00     0.031 C 
ATOM     52  C   UNL A   1      44.010  26.628  31.500  1.00  0.00     0.029 A 
ATOM     53  C   UNL A   1      43.180  27.555  32.107  1.00  0.00     0.049 A 
ATOM     54  H   UNL A   1      41.529  28.592  31.295  1.00  0.00     0.167 HD
ATOM     55  C   UNL A   1      42.358  28.969  33.969  1.00  0.00     0.074 A 
ATOM     56  C   UNL A   1      42.411  29.469  35.326  1.00  0.00     0.031 C 
ATOM     57  C   UNL A   1      43.229  28.060  33.459  1.00  0.00     0.034 A 
BRANCH  44  58
ATOM     58  C   UNL A   1      42.119  26.665  27.514  1.00  0.00     0.023 A 
ATOM     59  C   UNL A   1      41.783  25.308  27.370  1.00  0.00     0.031 A 
ATOM     60  C   UNL A   1      42.895  27.263  26.504  1.00  0.00     0.131 A 
ATOM     61  C   UNL A   1      42.291  24.574  26.285  1.00  0.00     0.055 A 
ATOM     62  C   UNL A   1      43.327  26.549  25.386  1.00  0.00     0.041 A 
ATOM     63  F   UNL A   1      43.268  28.549  26.600  1.00  0.00    -0.206 F 
ATOM     64  C   UNL A   1      43.041  25.191  25.281  1.00  0.00     0.022 A 
BRANCH  61  65
ATOM     65  S   UNL A   1      42.101  22.770  26.292  1.00  0.00     0.124 S 
ATOM     66  O   UNL A   1      42.903  22.392  27.453  1.00  0.00    -0.237 OA
ATOM     67  O   UNL A   1      40.659  22.605  26.429  1.00  0.00    -0.237 OA
ATOM     68  O   UNL A   1      42.656  22.363  25.002  1.00  0.00    -0.744 OA
ENDBRANCH  61  65
ENDBRANCH  44  58
BRANCH  45  69
ATOM     69  C   UNL A   1      39.143  32.122  35.338  1.00  0.00     0.023 A 
ATOM     70  C   UNL A   1      39.579  33.443  35.535  1.00  0.00     0.031 A 
ATOM     71  C   UNL A   1      38.355  31.532  36.344  1.00  0.00     0.131 A 
ATOM     72  C   UNL A   1      39.268  34.111  36.731  1.00  0.00     0.055 A 
ATOM     73  C   UNL A   1      38.001  32.221  37.504  1.00  0.00     0.041 A 
ATOM     74  F   UNL A   1      37.920  30.269  36.213  1.00  0.00    -0.206 F 
ATOM     75  C   UNL A   1      38.470  33.514  37.710  1.00  0.00     0.022 A 
BRANCH  72  76
ATOM     76  S   UNL A   1      40.002  35.743  37.034  1.00  0.00     0.124 S 
ATOM     77  O   UNL A   1      39.658  36.454  35.808  1.00  0.00    -0.237 OA
ATOM     78  O   UNL A   1      39.305  36.170  38.242  1.00  0.00    -0.237 OA
ATOM     79  O   UNL A   1      41.423  35.450  37.209  1.00  0.00    -0.744 OA
ENDBRANCH  72  76
ENDBRANCH  45  69
BRANCH  57  80
ATOM     80  C   UNL A   1      44.356  27.601  34.357  1.00  0.00     0.023 A 
ATOM     81  C   UNL A   1      44.231  26.487  35.205  1.00  0.00     0.031 A 
ATOM     82  C   UNL A   1      45.571  28.309  34.373  1.00  0.00     0.131 A 
ATOM     83  C   UNL A   1      45.282  26.146  36.072  1.00  0.00     0.055 A 
ATOM     84  C   UNL A   1      46.633  27.934  35.197  1.00  0.00     0.041 A 
ATOM     85  F   UNL A   1      45.748  29.382  33.584  1.00  0.00    -0.206 F 
ATOM     86  C   UNL A   1      46.486  26.854  36.064  1.00  0.00     0.022 A 
BRANCH  83  87
ATOM     87  S   UNL A   1      45.021  24.821  37.285  1.00  0.00     0.124 S 
ATOM     88  O   UNL A   1      46.250  24.876  38.069  1.00  0.00    -0.237 OA
ATOM     89  O   UNL A   1      43.809  25.259  37.969  1.00  0.00    -0.237 OA
ATOM     90  O   UNL A   1      44.867  23.624  36.458  1.00  0.00    -0.744 OA
ENDBRANCH  83  87
ENDBRANCH  57  80
ENDBRANCH  31  32
ENDBRANCH  24  26
ENDBRANCH  23  24
ENDBRANCH  22  23
ENDBRANCH   1  22
TORSDOF 17
ENDMDL
MODEL 3
REMARK VINA RESULT:     -12.2      1.802      2.277
REMARK SMILES O=C(C[C@H]1C[N@H+](Cc2c(F)cccc2F)CCO1)OCCOC(=O)c1ccc(-c2c3nc(c(-c4cc(S(=O)(=O)[O-])ccc4F)c4ccc([nH]4)c(-c4cc(S(=O)(=O)[O-])ccc4F)c4nc(c(-c5cc(S(=O)(=O)[O-])ccc5F)c5ccc2[nH]5)C=C4)C=C3)cc1
REMARK SMILES IDX 20 1 19 2 2 3 1 4 3 5 4 6 5 7 18 8 6 9 17 10 16 11 7 13 8 14
REMARK SMILES IDX 9 15 14 16 10 17 11 18 13 19 15 20 12 21 21 22 22 23 23 24
REMARK SMILES IDX 24 25 25 26 26 27 87 28 27 29 86 30 28 31 29 32 30 33 80 34
REMARK SMILES IDX 31 35 85 36 79 37 81 38 32 39 84 40 78 41 77 42 33 44 65 45
REMARK SMILES IDX 45 46 64 47 46 48 49 49 63 50 82 51 47 52 48 53 62 55 83 56
REMARK SMILES IDX 50 57 34 58 35 59 43 60 36 61 42 62 44 63 41 64 37 65 38 66
REMARK SMILES IDX 39 67 40 68 66 69 67 70 75 71 68 72 74 73 76 74 73 75 69 76
REMARK SMILES IDX 70 77 71 78 72 79 51 80 52 81 60 82 53 83 59 84 61 85 58 86
REMARK SMILES IDX 54 87 55 88 56 89 57 90
REMARK H PARENT 6 12 81 43 49 54
REMARK Flexibility Score: inf
ROOT
ATOM      1  C   UNL A   1      35.887  21.047  24.868  1.00  0.00     0.274 C 
ENDROOT
BRANCH   1   2
ATOM      2  O   UNL A   1      35.418  21.698  26.068  1.00  0.00    -0.462 OA
BRANCH   2   3
ATOM      3  C   UNL A   1      34.970  22.978  25.951  1.00  0.00     0.308 C 
ATOM      4  O   UNL A   1      35.466  23.735  25.131  1.00  0.00    -0.252 OA
BRANCH   3   5
ATOM      5  C   UNL A   1      33.866  23.354  26.903  1.00  0.00     0.160 C 
BRANCH   5   6
ATOM      6  C   UNL A   1      32.449  23.002  26.455  1.00  0.00     0.184 C 
ATOM      7  C   UNL A   1      31.358  24.064  26.791  1.00  0.00     0.295 C 
ATOM      8  O   UNL A   1      32.427  22.458  25.121  1.00  0.00    -0.366 OA
ATOM      9  N   UNL A   1      30.947  24.848  25.651  1.00  0.00    -0.327 N 
ATOM     10  C   UNL A   1      32.054  23.406  24.107  1.00  0.00     0.222 C 
ATOM     11  C   UNL A   1      30.727  24.084  24.446  1.00  0.00     0.291 C 
ATOM     12  H   UNL A   1      31.709  25.512  25.519  1.00  0.00     0.348 HD
BRANCH   9  13
ATOM     13  C   UNL A   1      30.578  26.244  25.747  1.00  0.00     0.305 C 
BRANCH  13  14
ATOM     14  C   UNL A   1      31.769  27.169  25.866  1.00  0.00     0.078 A 
ATOM     15  C   UNL A   1      32.721  27.320  24.854  1.00  0.00     0.135 A 
ATOM     16  C   UNL A   1      31.976  27.918  27.027  1.00  0.00     0.135 A 
ATOM     17  F   UNL A   1      32.559  26.730  23.662  1.00  0.00    -0.206 F 
ATOM     18  C   UNL A   1      33.876  28.086  25.030  1.00  0.00     0.040 A 
ATOM     19  C   UNL A   1      33.125  28.689  27.225  1.00  0.00     0.040 A 
ATOM     20  F   UNL A   1      31.056  27.910  28.000  1.00  0.00    -0.206 F 
ATOM     21  C   UNL A   1      34.092  28.757  26.229  1.00  0.00     0.006 A 
ENDBRANCH  13  14
ENDBRANCH   9  13
ENDBRANCH   5   6
ENDBRANCH   3   5
ENDBRANCH   2   3
ENDBRANCH   1   2
BRANCH   1  22
ATOM     22  C   UNL A   1      37.341  20.583  24.982  1.00  0.00     0.275 C 
BRANCH  22  23
ATOM     23  O   UNL A   1      38.170  21.730  25.232  1.00  0.00    -0.458 OA
BRANCH  23  24
ATOM     24  C   UNL A   1      39.257  21.472  25.996  1.00  0.00     0.338 C 
ATOM     25  O   UNL A   1      39.850  20.413  26.085  1.00  0.00    -0.246 OA
BRANCH  24  26
ATOM     26  C   UNL A   1      39.637  22.707  26.709  1.00  0.00     0.060 A 
ATOM     27  C   UNL A   1      39.066  23.921  26.324  1.00  0.00     0.016 A 
ATOM     28  C   UNL A   1      40.643  22.679  27.673  1.00  0.00     0.016 A 
ATOM     29  C   UNL A   1      39.550  25.122  26.854  1.00  0.00     0.010 A 
ATOM     30  C   UNL A   1      41.108  23.882  28.222  1.00  0.00     0.010 A 
ATOM     31  C   UNL A   1      40.603  25.119  27.777  1.00  0.00    -0.014 A 
BRANCH  31  32
ATOM     32  C   UNL A   1      41.319  26.386  28.109  1.00  0.00     0.031 A 
ATOM     33  C   UNL A   1      40.574  27.450  28.877  1.00  0.00     0.074 A 
ATOM     34  C   UNL A   1      42.613  26.592  27.800  1.00  0.00     0.049 A 
ATOM     35  N   UNL A   1      40.903  28.691  29.126  1.00  0.00    -0.248 NA
ATOM     36  C   UNL A   1      39.274  27.048  29.436  1.00  0.00     0.031 C 
ATOM     37  C   UNL A   1      43.506  25.617  27.178  1.00  0.00     0.029 A 
ATOM     38  N   UNL A   1      43.406  27.703  27.977  1.00  0.00    -0.354 N 
ATOM     39  C   UNL A   1      39.833  29.233  29.832  1.00  0.00     0.074 A 
ATOM     40  C   UNL A   1      38.841  28.184  29.958  1.00  0.00     0.031 C 
ATOM     41  C   UNL A   1      44.723  26.170  27.028  1.00  0.00     0.029 A 
ATOM     42  C   UNL A   1      44.682  27.561  27.479  1.00  0.00     0.049 A 
ATOM     43  H   UNL A   1      43.090  28.525  28.418  1.00  0.00     0.167 HD
ATOM     44  C   UNL A   1      39.684  30.488  30.326  1.00  0.00     0.034 A 
ATOM     45  C   UNL A   1      45.684  28.457  27.365  1.00  0.00     0.034 A 
ATOM     46  C   UNL A   1      40.685  31.523  30.218  1.00  0.00     0.049 A 
ATOM     47  C   UNL A   1      45.465  29.881  27.829  1.00  0.00     0.074 A 
ATOM     48  C   UNL A   1      40.618  32.838  30.645  1.00  0.00     0.029 A 
ATOM     49  N   UNL A   1      41.941  31.357  29.650  1.00  0.00    -0.354 N 
ATOM     50  N   UNL A   1      44.411  30.415  28.401  1.00  0.00    -0.248 NA
ATOM     51  C   UNL A   1      46.574  30.823  27.621  1.00  0.00     0.031 C 
ATOM     52  C   UNL A   1      41.809  33.481  30.284  1.00  0.00     0.029 A 
ATOM     53  C   UNL A   1      42.649  32.549  29.698  1.00  0.00     0.049 A 
ATOM     54  H   UNL A   1      42.280  30.514  29.269  1.00  0.00     0.167 HD
ATOM     55  C   UNL A   1      44.746  31.745  28.651  1.00  0.00     0.074 A 
ATOM     56  C   UNL A   1      46.101  31.929  28.177  1.00  0.00     0.031 C 
ATOM     57  C   UNL A   1      44.001  32.725  29.225  1.00  0.00     0.034 A 
BRANCH  44  58
ATOM     58  C   UNL A   1      38.348  30.825  30.943  1.00  0.00     0.023 A 
ATOM     59  C   UNL A   1      37.305  31.407  30.200  1.00  0.00     0.031 A 
ATOM     60  C   UNL A   1      38.144  30.623  32.320  1.00  0.00     0.131 A 
ATOM     61  C   UNL A   1      36.141  31.841  30.855  1.00  0.00     0.055 A 
ATOM     62  C   UNL A   1      36.951  30.982  32.949  1.00  0.00     0.041 A 
ATOM     63  F   UNL A   1      39.114  30.095  33.083  1.00  0.00    -0.206 F 
ATOM     64  C   UNL A   1      35.949  31.612  32.220  1.00  0.00     0.022 A 
BRANCH  61  65
ATOM     65  S   UNL A   1      34.956  32.861  29.935  1.00  0.00     0.124 S 
ATOM     66  O   UNL A   1      34.430  31.903  28.966  1.00  0.00    -0.237 OA
ATOM     67  O   UNL A   1      34.032  33.289  30.978  1.00  0.00    -0.237 OA
ATOM     68  O   UNL A   1      35.787  33.920  29.364  1.00  0.00    -0.744 OA
ENDBRANCH  61  65
ENDBRANCH  44  58
BRANCH  45  69
ATOM     69  C   UNL A   1      46.977  28.079  26.718  1.00  0.00     0.023 A 
ATOM     70  C   UNL A   1      47.127  28.102  25.322  1.00  0.00     0.031 A 
ATOM     71  C   UNL A   1      48.055  27.603  27.487  1.00  0.00     0.131 A 
ATOM     72  C   UNL A   1      48.304  27.610  24.735  1.00  0.00     0.055 A 
ATOM     73  C   UNL A   1      49.245  27.169  26.902  1.00  0.00     0.041 A 
ATOM     74  F   UNL A   1      47.965  27.549  28.825  1.00  0.00    -0.206 F 
ATOM     75  C   UNL A   1      49.369  27.157  25.517  1.00  0.00     0.022 A 
BRANCH  72  76
ATOM     76  S   UNL A   1      48.389  27.481  22.927  1.00  0.00     0.124 S 
ATOM     77  O   UNL A   1      48.324  26.037  22.730  1.00  0.00    -0.237 OA
ATOM     78  O   UNL A   1      47.216  28.240  22.511  1.00  0.00    -0.237 OA
ATOM     79  O   UNL A   1      49.674  28.097  22.602  1.00  0.00    -0.744 OA
ENDBRANCH  72  76
ENDBRANCH  45  69
BRANCH  57  80
ATOM     80  C   UNL A   1      44.667  34.067  29.435  1.00  0.00     0.023 A 
ATOM     81  C   UNL A   1      44.685  35.057  28.437  1.00  0.00     0.031 A 
ATOM     82  C   UNL A   1      45.310  34.347  30.654  1.00  0.00     0.131 A 
ATOM     83  C   UNL A   1      45.379  36.259  28.655  1.00  0.00     0.055 A 
ATOM     84  C   UNL A   1      45.951  35.565  30.886  1.00  0.00     0.041 A 
ATOM     85  F   UNL A   1      45.325  33.439  31.643  1.00  0.00    -0.206 F 
ATOM     86  C   UNL A   1      46.000  36.523  29.878  1.00  0.00     0.022 A 
BRANCH  83  87
ATOM     87  S   UNL A   1      45.543  37.437  27.285  1.00  0.00     0.124 S 
ATOM     88  O   UNL A   1      44.150  37.731  26.964  1.00  0.00    -0.237 OA
ATOM     89  O   UNL A   1      46.298  38.524  27.897  1.00  0.00    -0.237 OA
ATOM     90  O   UNL A   1      46.266  36.678  26.264  1.00  0.00    -0.744 OA
ENDBRANCH  83  87
ENDBRANCH  57  80
ENDBRANCH  31  32
ENDBRANCH  24  26
ENDBRANCH  23  24
ENDBRANCH  22  23
ENDBRANCH   1  22
TORSDOF 17
ENDMDL
