MODEL 1
REMARK VINA RESULT:     -10.2      0.000      0.000
REMARK SMILES C/C=C/C=C/C(=O)N[C@@H](C)CC(=O)OCCOC(=O)c1ccc(-c2c3nc(c(-c4cc(S(=O)(=O)[O-])ccc4F)c4ccc([nH]4)c(-c4cc(S(=O)(=O)[O-])ccc4F)c4nc(c(-c5cc(S(=O)(=O)[O-])ccc5F)c5ccc2[nH]5)C=C4)C=C3)cc1
REMARK SMILES IDX 15 1 14 2 12 3 13 4 11 5 9 6 10 7 8 8 6 9 7 10 5 12 4 13
REMARK SMILES IDX 3 14 1 15 2 16 16 17 17 18 18 19 19 20 20 21 21 22 82 23
REMARK SMILES IDX 22 24 81 25 23 26 24 27 25 28 75 29 26 30 80 31 74 32 76 33
REMARK SMILES IDX 27 34 79 35 73 36 72 37 28 39 60 40 40 41 59 42 41 43 44 44
REMARK SMILES IDX 58 45 77 46 42 47 43 48 57 50 78 51 45 52 29 53 30 54 38 55
REMARK SMILES IDX 31 56 37 57 39 58 36 59 32 60 33 61 34 62 35 63 61 64 62 65
REMARK SMILES IDX 70 66 63 67 69 68 71 69 68 70 64 71 65 72 66 73 67 74 46 75
REMARK SMILES IDX 47 76 55 77 48 78 54 79 56 80 53 81 49 82 50 83 51 84 52 85
REMARK H PARENT 8 11 76 38 44 49
REMARK Flexibility Score: inf
ROOT
ATOM      1  C   UNL A   1      35.745  21.643  25.659  1.00  0.00     0.274 C 
ENDROOT
BRANCH   1   2
ATOM      2  O   UNL A   1      35.578  22.928  25.025  1.00  0.00    -0.462 OA
BRANCH   2   3
ATOM      3  C   UNL A   1      35.082  22.908  23.761  1.00  0.00     0.307 C 
ATOM      4  O   UNL A   1      35.718  23.207  22.758  1.00  0.00    -0.252 OA
BRANCH   3   5
ATOM      5  C   UNL A   1      33.610  22.573  23.717  1.00  0.00     0.147 C 
BRANCH   5   6
ATOM      6  C   UNL A   1      32.702  23.741  23.313  1.00  0.00     0.090 C 
ATOM      7  C   UNL A   1      31.235  23.343  23.502  1.00  0.00     0.031 C 
BRANCH   6   8
ATOM      8  N   UNL A   1      32.898  24.110  21.908  1.00  0.00    -0.350 N 
ATOM      9  C   UNL A   1      32.835  25.310  21.274  1.00  0.00     0.244 C 
ATOM     10  O   UNL A   1      33.119  25.363  20.076  1.00  0.00    -0.270 OA
ATOM     11  H   UNL A   1      33.115  23.353  21.319  1.00  0.00     0.164 HD
BRANCH   9  12
ATOM     12  C   UNL A   1      32.544  26.567  21.994  1.00  0.00     0.071 C 
ATOM     13  C   UNL A   1      31.335  27.101  22.225  1.00  0.00     0.005 C 
BRANCH  13  14
ATOM     14  C   UNL A   1      31.172  28.294  23.029  1.00  0.00    -0.004 C 
ATOM     15  C   UNL A   1      31.403  29.586  25.160  1.00  0.00     0.035 C 
ATOM     16  C   UNL A   1      31.472  28.339  24.335  1.00  0.00    -0.030 C 
ENDBRANCH  13  14
ENDBRANCH   9  12
ENDBRANCH   6   8
ENDBRANCH   5   6
ENDBRANCH   3   5
ENDBRANCH   2   3
ENDBRANCH   1   2
BRANCH   1  17
ATOM     17  C   UNL A   1      36.981  20.880  25.166  1.00  0.00     0.275 C 
BRANCH  17  18
ATOM     18  O   UNL A   1      38.155  21.715  25.095  1.00  0.00    -0.458 OA
BRANCH  18  19
ATOM     19  C   UNL A   1      39.007  21.533  26.126  1.00  0.00     0.338 C 
ATOM     20  O   UNL A   1      39.396  20.453  26.542  1.00  0.00    -0.246 OA
BRANCH  19  21
ATOM     21  C   UNL A   1      39.527  22.797  26.657  1.00  0.00     0.060 A 
ATOM     22  C   UNL A   1      39.052  23.988  26.098  1.00  0.00     0.016 A 
ATOM     23  C   UNL A   1      40.562  22.815  27.593  1.00  0.00     0.016 A 
ATOM     24  C   UNL A   1      39.611  25.206  26.477  1.00  0.00     0.010 A 
ATOM     25  C   UNL A   1      41.115  24.042  27.978  1.00  0.00     0.010 A 
ATOM     26  C   UNL A   1      40.646  25.243  27.421  1.00  0.00    -0.014 A 
BRANCH  26  27
ATOM     27  C   UNL A   1      41.216  26.552  27.826  1.00  0.00     0.031 A 
ATOM     28  C   UNL A   1      42.642  26.897  27.505  1.00  0.00     0.074 A 
ATOM     29  C   UNL A   1      40.426  27.440  28.457  1.00  0.00     0.049 A 
ATOM     30  N   UNL A   1      43.319  27.975  27.804  1.00  0.00    -0.248 NA
ATOM     31  C   UNL A   1      43.406  25.895  26.747  1.00  0.00     0.031 C 
ATOM     32  C   UNL A   1      39.015  27.225  28.786  1.00  0.00     0.029 A 
ATOM     33  N   UNL A   1      40.691  28.700  28.931  1.00  0.00    -0.354 N 
ATOM     34  C   UNL A   1      44.590  27.788  27.273  1.00  0.00     0.074 A 
ATOM     35  C   UNL A   1      44.596  26.476  26.658  1.00  0.00     0.031 C 
ATOM     36  C   UNL A   1      38.538  28.319  29.400  1.00  0.00     0.029 A 
ATOM     37  C   UNL A   1      39.616  29.291  29.551  1.00  0.00     0.049 A 
ATOM     38  H   UNL A   1      41.567  29.138  28.837  1.00  0.00     0.167 HD
ATOM     39  C   UNL A   1      45.648  28.637  27.293  1.00  0.00     0.034 A 
ATOM     40  C   UNL A   1      39.516  30.473  30.189  1.00  0.00     0.034 A 
ATOM     41  C   UNL A   1      45.630  29.937  27.923  1.00  0.00     0.049 A 
ATOM     42  C   UNL A   1      40.728  31.365  30.258  1.00  0.00     0.074 A 
ATOM     43  C   UNL A   1      46.650  30.871  28.011  1.00  0.00     0.029 A 
ATOM     44  N   UNL A   1      44.537  30.489  28.580  1.00  0.00    -0.354 N 
ATOM     45  N   UNL A   1      41.928  31.168  29.763  1.00  0.00    -0.248 NA
ATOM     46  C   UNL A   1      40.570  32.641  30.967  1.00  0.00     0.031 C 
ATOM     47  C   UNL A   1      46.191  31.958  28.764  1.00  0.00     0.029 A 
ATOM     48  C   UNL A   1      44.864  31.734  29.094  1.00  0.00     0.049 A 
ATOM     49  H   UNL A   1      43.656  30.056  28.668  1.00  0.00     0.167 HD
ATOM     50  C   UNL A   1      42.661  32.308  30.083  1.00  0.00     0.074 A 
ATOM     51  C   UNL A   1      41.761  33.194  30.792  1.00  0.00     0.031 C 
ATOM     52  C   UNL A   1      43.960  32.598  29.815  1.00  0.00     0.034 A 
BRANCH  39  53
ATOM     53  C   UNL A   1      46.930  28.162  26.653  1.00  0.00     0.023 A 
ATOM     54  C   UNL A   1      47.103  28.164  25.258  1.00  0.00     0.031 A 
ATOM     55  C   UNL A   1      47.988  27.689  27.448  1.00  0.00     0.131 A 
ATOM     56  C   UNL A   1      48.284  27.652  24.699  1.00  0.00     0.055 A 
ATOM     57  C   UNL A   1      49.188  27.244  26.890  1.00  0.00     0.041 A 
ATOM     58  F   UNL A   1      47.870  27.644  28.785  1.00  0.00    -0.206 F 
ATOM     59  C   UNL A   1      49.336  27.212  25.506  1.00  0.00     0.022 A 
BRANCH  56  60
ATOM     60  S   UNL A   1      48.381  27.459  22.898  1.00  0.00     0.124 S 
ATOM     61  O   UNL A   1      48.314  26.006  22.755  1.00  0.00    -0.237 OA
ATOM     62  O   UNL A   1      47.215  28.202  22.437  1.00  0.00    -0.237 OA
ATOM     63  O   UNL A   1      49.674  28.052  22.560  1.00  0.00    -0.744 OA
ENDBRANCH  56  60
ENDBRANCH  39  53
BRANCH  40  64
ATOM     64  C   UNL A   1      38.242  30.872  30.850  1.00  0.00     0.023 A 
ATOM     65  C   UNL A   1      37.253  31.580  30.152  1.00  0.00     0.031 A 
ATOM     66  C   UNL A   1      38.020  30.595  32.212  1.00  0.00     0.131 A 
ATOM     67  C   UNL A   1      36.108  32.030  30.827  1.00  0.00     0.055 A 
ATOM     68  C   UNL A   1      36.856  30.999  32.866  1.00  0.00     0.041 A 
ATOM     69  F   UNL A   1      38.935  29.920  32.925  1.00  0.00    -0.206 F 
ATOM     70  C   UNL A   1      35.897  31.734  32.176  1.00  0.00     0.022 A 
BRANCH  67  71
ATOM     71  S   UNL A   1      34.938  33.094  29.938  1.00  0.00     0.124 S 
ATOM     72  O   UNL A   1      34.035  33.503  31.008  1.00  0.00    -0.237 OA
ATOM     73  O   UNL A   1      35.818  34.131  29.408  1.00  0.00    -0.237 OA
ATOM     74  O   UNL A   1      34.357  32.202  28.938  1.00  0.00    -0.744 OA
ENDBRANCH  67  71
ENDBRANCH  40  64
BRANCH  52  75
ATOM     75  C   UNL A   1      44.456  33.949  30.265  1.00  0.00     0.023 A 
ATOM     76  C   UNL A   1      44.321  35.090  29.453  1.00  0.00     0.031 A 
ATOM     77  C   UNL A   1      45.109  34.088  31.501  1.00  0.00     0.131 A 
ATOM     78  C   UNL A   1      44.891  36.306  29.859  1.00  0.00     0.055 A 
ATOM     79  C   UNL A   1      45.625  35.314  31.925  1.00  0.00     0.041 A 
ATOM     80  F   UNL A   1      45.265  33.030  32.314  1.00  0.00    -0.206 F 
ATOM     81  C   UNL A   1      45.531  36.428  31.096  1.00  0.00     0.022 A 
BRANCH  78  82
ATOM     82  S   UNL A   1      44.873  37.704  28.703  1.00  0.00     0.124 S 
ATOM     83  O   UNL A   1      44.260  38.757  29.508  1.00  0.00    -0.237 OA
ATOM     84  O   UNL A   1      46.290  37.877  28.401  1.00  0.00    -0.237 OA
ATOM     85  O   UNL A   1      44.057  37.221  27.591  1.00  0.00    -0.744 OA
ENDBRANCH  78  82
ENDBRANCH  52  75
ENDBRANCH  26  27
ENDBRANCH  19  21
ENDBRANCH  18  19
ENDBRANCH  17  18
ENDBRANCH   1  17
TORSDOF 18
ENDMDL
MODEL 2
REMARK VINA RESULT:     -10.2      1.317      7.916
REMARK SMILES C/C=C/C=C/C(=O)N[C@@H](C)CC(=O)OCCOC(=O)c1ccc(-c2c3nc(c(-c4cc(S(=O)(=O)[O-])ccc4F)c4ccc([nH]4)c(-c4cc(S(=O)(=O)[O-])ccc4F)c4nc(c(-c5cc(S(=O)(=O)[O-])ccc5F)c5ccc2[nH]5)C=C4)C=C3)cc1
REMARK SMILES IDX 15 1 14 2 12 3 13 4 11 5 9 6 10 7 8 8 6 9 7 10 5 12 4 13
REMARK SMILES IDX 3 14 1 15 2 16 16 17 17 18 18 19 19 20 20 21 21 22 82 23
REMARK SMILES IDX 22 24 81 25 23 26 24 27 25 28 75 29 26 30 80 31 74 32 76 33
REMARK SMILES IDX 27 34 79 35 73 36 72 37 28 39 60 40 40 41 59 42 41 43 44 44
REMARK SMILES IDX 58 45 77 46 42 47 43 48 57 50 78 51 45 52 29 53 30 54 38 55
REMARK SMILES IDX 31 56 37 57 39 58 36 59 32 60 33 61 34 62 35 63 61 64 62 65
REMARK SMILES IDX 70 66 63 67 69 68 71 69 68 70 64 71 65 72 66 73 67 74 46 75
REMARK SMILES IDX 47 76 55 77 48 78 54 79 56 80 53 81 49 82 50 83 51 84 52 85
REMARK H PARENT 8 11 76 38 44 49
REMARK Flexibility Score: inf
ROOT
ATOM      1  C   UNL A   1      35.419  20.380  24.973  1.00  0.00     0.274 C 
ENDROOT
BRANCH   1   2
ATOM      2  O   UNL A   1      34.849  21.328  25.898  1.00  0.00    -0.462 OA
BRANCH   2   3
ATOM      3  C   UNL A   1      34.588  22.563  25.399  1.00  0.00     0.307 C 
ATOM      4  O   UNL A   1      34.473  23.578  26.074  1.00  0.00    -0.252 OA
BRANCH   3   5
ATOM      5  C   UNL A   1      34.345  22.551  23.908  1.00  0.00     0.147 C 
BRANCH   5   6
ATOM      6  C   UNL A   1      32.976  23.095  23.480  1.00  0.00     0.090 C 
ATOM      7  C   UNL A   1      32.120  21.955  22.920  1.00  0.00     0.031 C 
BRANCH   6   8
ATOM      8  N   UNL A   1      33.109  24.120  22.442  1.00  0.00    -0.350 N 
ATOM      9  C   UNL A   1      33.494  25.422  22.503  1.00  0.00     0.244 C 
ATOM     10  O   UNL A   1      33.593  26.060  21.454  1.00  0.00    -0.270 OA
ATOM     11  H   UNL A   1      32.877  23.810  21.537  1.00  0.00     0.164 HD
BRANCH   9  12
ATOM     12  C   UNL A   1      33.901  26.064  23.770  1.00  0.00     0.071 C 
ATOM     13  C   UNL A   1      33.104  26.704  24.640  1.00  0.00     0.005 C 
BRANCH  13  14
ATOM     14  C   UNL A   1      33.607  27.212  25.899  1.00  0.00    -0.004 C 
ATOM     15  C   UNL A   1      34.429  29.052  27.383  1.00  0.00     0.035 C 
ATOM     16  C   UNL A   1      33.999  28.483  26.068  1.00  0.00    -0.030 C 
ENDBRANCH  13  14
ENDBRANCH   9  12
ENDBRANCH   6   8
ENDBRANCH   5   6
ENDBRANCH   3   5
ENDBRANCH   2   3
ENDBRANCH   1   2
BRANCH   1  17
ATOM     17  C   UNL A   1      36.952  20.347  25.005  1.00  0.00     0.275 C 
BRANCH  17  18
ATOM     18  O   UNL A   1      37.507  21.322  25.911  1.00  0.00    -0.458 OA
BRANCH  18  19
ATOM     19  C   UNL A   1      38.831  21.164  26.124  1.00  0.00     0.338 C 
ATOM     20  O   UNL A   1      39.470  20.150  25.892  1.00  0.00    -0.246 OA
BRANCH  19  21
ATOM     21  C   UNL A   1      39.480  22.399  26.577  1.00  0.00     0.060 A 
ATOM     22  C   UNL A   1      39.003  23.614  26.073  1.00  0.00     0.016 A 
ATOM     23  C   UNL A   1      40.622  22.362  27.378  1.00  0.00     0.016 A 
ATOM     24  C   UNL A   1      39.668  24.800  26.370  1.00  0.00     0.010 A 
ATOM     25  C   UNL A   1      41.284  23.558  27.682  1.00  0.00     0.010 A 
ATOM     26  C   UNL A   1      40.813  24.782  27.178  1.00  0.00    -0.014 A 
BRANCH  26  27
ATOM     27  C   UNL A   1      41.498  26.059  27.500  1.00  0.00     0.031 A 
ATOM     28  C   UNL A   1      40.804  27.117  28.308  1.00  0.00     0.074 A 
ATOM     29  C   UNL A   1      42.765  26.242  27.082  1.00  0.00     0.049 A 
ATOM     30  N   UNL A   1      41.232  28.301  28.660  1.00  0.00    -0.248 NA
ATOM     31  C   UNL A   1      39.450  26.797  28.784  1.00  0.00     0.031 C 
ATOM     32  C   UNL A   1      43.548  25.266  26.322  1.00  0.00     0.029 A 
ATOM     33  N   UNL A   1      43.617  27.305  27.240  1.00  0.00    -0.354 N 
ATOM     34  C   UNL A   1      40.204  28.874  29.401  1.00  0.00     0.074 A 
ATOM     35  C   UNL A   1      39.119  27.914  29.419  1.00  0.00     0.031 C 
ATOM     36  C   UNL A   1      44.769  25.773  26.087  1.00  0.00     0.029 A 
ATOM     37  C   UNL A   1      44.839  27.124  26.637  1.00  0.00     0.049 A 
ATOM     38  H   UNL A   1      43.377  28.120  27.737  1.00  0.00     0.167 HD
ATOM     39  C   UNL A   1      40.174  30.086  30.011  1.00  0.00     0.034 A 
ATOM     40  C   UNL A   1      45.889  27.960  26.520  1.00  0.00     0.034 A 
ATOM     41  C   UNL A   1      41.260  31.038  29.970  1.00  0.00     0.049 A 
ATOM     42  C   UNL A   1      45.801  29.327  27.147  1.00  0.00     0.074 A 
ATOM     43  C   UNL A   1      41.329  32.297  30.543  1.00  0.00     0.029 A 
ATOM     44  N   UNL A   1      42.469  30.840  29.313  1.00  0.00    -0.354 N 
ATOM     45  N   UNL A   1      44.816  29.861  27.831  1.00  0.00    -0.248 NA
ATOM     46  C   UNL A   1      46.969  30.202  26.989  1.00  0.00     0.031 C 
ATOM     47  C   UNL A   1      42.552  32.879  30.189  1.00  0.00     0.029 A 
ATOM     48  C   UNL A   1      43.276  31.959  29.447  1.00  0.00     0.049 A 
ATOM     49  H   UNL A   1      42.715  30.022  28.822  1.00  0.00     0.167 HD
ATOM     50  C   UNL A   1      45.257  31.127  28.205  1.00  0.00     0.074 A 
ATOM     51  C   UNL A   1      46.604  31.266  27.689  1.00  0.00     0.031 C 
ATOM     52  C   UNL A   1      44.610  32.089  28.911  1.00  0.00     0.034 A 
BRANCH  39  53
ATOM     53  C   UNL A   1      38.906  30.467  30.734  1.00  0.00     0.023 A 
ATOM     54  C   UNL A   1      37.939  31.298  30.141  1.00  0.00     0.031 A 
ATOM     55  C   UNL A   1      38.665  30.002  32.039  1.00  0.00     0.131 A 
ATOM     56  C   UNL A   1      36.804  31.682  30.873  1.00  0.00     0.055 A 
ATOM     57  C   UNL A   1      37.502  30.332  32.736  1.00  0.00     0.041 A 
ATOM     58  F   UNL A   1      39.563  29.223  32.662  1.00  0.00    -0.206 F 
ATOM     59  C   UNL A   1      36.568  31.187  32.157  1.00  0.00     0.022 A 
BRANCH  56  60
ATOM     60  S   UNL A   1      35.697  32.932  30.164  1.00  0.00     0.124 S 
ATOM     61  O   UNL A   1      34.604  32.104  29.660  1.00  0.00    -0.237 OA
ATOM     62  O   UNL A   1      35.386  33.769  31.317  1.00  0.00    -0.237 OA
ATOM     63  O   UNL A   1      36.514  33.568  29.133  1.00  0.00    -0.744 OA
ENDBRANCH  56  60
ENDBRANCH  39  53
BRANCH  40  64
ATOM     64  C   UNL A   1      47.098  27.554  25.750  1.00  0.00     0.023 A 
ATOM     65  C   UNL A   1      47.233  27.872  24.390  1.00  0.00     0.031 A 
ATOM     66  C   UNL A   1      48.114  26.791  26.354  1.00  0.00     0.131 A 
ATOM     67  C   UNL A   1      48.334  27.390  23.666  1.00  0.00     0.055 A 
ATOM     68  C   UNL A   1      49.234  26.359  25.643  1.00  0.00     0.041 A 
ATOM     69  F   UNL A   1      48.033  26.460  27.653  1.00  0.00    -0.206 F 
ATOM     70  C   UNL A   1      49.341  26.646  24.286  1.00  0.00     0.022 A 
BRANCH  67  71
ATOM     71  S   UNL A   1      48.383  27.669  21.874  1.00  0.00     0.124 S 
ATOM     72  O   UNL A   1      48.592  26.317  21.368  1.00  0.00    -0.237 OA
ATOM     73  O   UNL A   1      47.070  28.253  21.624  1.00  0.00    -0.237 OA
ATOM     74  O   UNL A   1      49.512  28.581  21.703  1.00  0.00    -0.744 OA
ENDBRANCH  67  71
ENDBRANCH  40  64
BRANCH  52  75
ATOM     75  C   UNL A   1      45.382  33.355  29.189  1.00  0.00     0.023 A 
ATOM     76  C   UNL A   1      45.320  34.460  28.320  1.00  0.00     0.031 A 
ATOM     77  C   UNL A   1      46.221  33.440  30.312  1.00  0.00     0.131 A 
ATOM     78  C   UNL A   1      46.134  35.577  28.556  1.00  0.00     0.055 A 
ATOM     79  C   UNL A   1      46.987  34.578  30.571  1.00  0.00     0.041 A 
ATOM     80  F   UNL A   1      46.318  32.413  31.173  1.00  0.00    -0.206 F 
ATOM     81  C   UNL A   1      46.958  35.648  29.683  1.00  0.00     0.022 A 
BRANCH  78  82
ATOM     82  S   UNL A   1      46.179  36.899  27.313  1.00  0.00     0.124 S 
ATOM     83  O   UNL A   1      46.964  37.927  27.989  1.00  0.00    -0.237 OA
ATOM     84  O   UNL A   1      46.828  36.242  26.183  1.00  0.00    -0.237 OA
ATOM     85  O   UNL A   1      44.769  37.228  27.110  1.00  0.00    -0.744 OA
ENDBRANCH  78  82
ENDBRANCH  52  75
ENDBRANCH  26  27
ENDBRANCH  19  21
ENDBRANCH  18  19
ENDBRANCH  17  18
ENDBRANCH   1  17
TORSDOF 18
ENDMDL
MODEL 3
REMARK VINA RESULT:     -10.0      5.170      7.426
REMARK SMILES C/C=C/C=C/C(=O)N[C@@H](C)CC(=O)OCCOC(=O)c1ccc(-c2c3nc(c(-c4cc(S(=O)(=O)[O-])ccc4F)c4ccc([nH]4)c(-c4cc(S(=O)(=O)[O-])ccc4F)c4nc(c(-c5cc(S(=O)(=O)[O-])ccc5F)c5ccc2[nH]5)C=C4)C=C3)cc1
REMARK SMILES IDX 15 1 14 2 12 3 13 4 11 5 9 6 10 7 8 8 6 9 7 10 5 12 4 13
REMARK SMILES IDX 3 14 1 15 2 16 16 17 17 18 18 19 19 20 20 21 21 22 82 23
REMARK SMILES IDX 22 24 81 25 23 26 24 27 25 28 75 29 26 30 80 31 74 32 76 33
REMARK SMILES IDX 27 34 79 35 73 36 72 37 28 39 60 40 40 41 59 42 41 43 44 44
REMARK SMILES IDX 58 45 77 46 42 47 43 48 57 50 78 51 45 52 29 53 30 54 38 55
REMARK SMILES IDX 31 56 37 57 39 58 36 59 32 60 33 61 34 62 35 63 61 64 62 65
REMARK SMILES IDX 70 66 63 67 69 68 71 69 68 70 64 71 65 72 66 73 67 74 46 75
REMARK SMILES IDX 47 76 55 77 48 78 54 79 56 80 53 81 49 82 50 83 51 84 52 85
REMARK H PARENT 8 11 76 38 44 49
REMARK Flexibility Score: inf
ROOT
ATOM      1  C   UNL A   1      31.597  28.774  27.067  1.00  0.00     0.274 C 
ENDROOT
BRANCH   1   2
ATOM      2  O   UNL A   1      32.659  27.860  26.721  1.00  0.00    -0.462 OA
BRANCH   2   3
ATOM      3  C   UNL A   1      32.282  26.583  26.457  1.00  0.00     0.307 C 
ATOM      4  O   UNL A   1      31.257  26.058  26.875  1.00  0.00    -0.252 OA
BRANCH   3   5
ATOM      5  C   UNL A   1      33.318  25.819  25.665  1.00  0.00     0.147 C 
BRANCH   5   6
ATOM      6  C   UNL A   1      32.747  24.955  24.534  1.00  0.00     0.090 C 
ATOM      7  C   UNL A   1      33.049  23.479  24.811  1.00  0.00     0.031 C 
BRANCH   6   8
ATOM      8  N   UNL A   1      33.339  25.309  23.241  1.00  0.00    -0.350 N 
ATOM      9  C   UNL A   1      32.921  26.147  22.257  1.00  0.00     0.244 C 
ATOM     10  O   UNL A   1      33.653  26.327  21.282  1.00  0.00    -0.270 OA
ATOM     11  H   UNL A   1      34.192  24.857  23.052  1.00  0.00     0.164 HD
BRANCH   9  12
ATOM     12  C   UNL A   1      31.674  26.932  22.368  1.00  0.00     0.071 C 
ATOM     13  C   UNL A   1      31.496  28.066  23.063  1.00  0.00     0.005 C 
BRANCH  13  14
ATOM     14  C   UNL A   1      30.246  28.796  23.018  1.00  0.00    -0.004 C 
ATOM     15  C   UNL A   1      27.750  28.935  23.125  1.00  0.00     0.035 C 
ATOM     16  C   UNL A   1      29.049  28.195  23.072  1.00  0.00    -0.030 C 
ENDBRANCH  13  14
ENDBRANCH   9  12
ENDBRANCH   6   8
ENDBRANCH   5   6
ENDBRANCH   3   5
ENDBRANCH   2   3
ENDBRANCH   1   2
BRANCH   1  17
ATOM     17  C   UNL A   1      31.786  30.176  26.473  1.00  0.00     0.275 C 
BRANCH  17  18
ATOM     18  O   UNL A   1      33.175  30.516  26.289  1.00  0.00    -0.458 OA
BRANCH  18  19
ATOM     19  C   UNL A   1      33.623  31.437  27.169  1.00  0.00     0.338 C 
ATOM     20  O   UNL A   1      33.015  32.437  27.519  1.00  0.00    -0.246 OA
BRANCH  19  21
ATOM     21  C   UNL A   1      34.907  31.064  27.772  1.00  0.00     0.060 A 
ATOM     22  C   UNL A   1      35.058  29.752  28.233  1.00  0.00     0.016 A 
ATOM     23  C   UNL A   1      35.899  32.018  28.003  1.00  0.00     0.016 A 
ATOM     24  C   UNL A   1      36.208  29.388  28.929  1.00  0.00     0.010 A 
ATOM     25  C   UNL A   1      37.058  31.646  28.695  1.00  0.00     0.010 A 
ATOM     26  C   UNL A   1      37.217  30.331  29.164  1.00  0.00    -0.014 A 
BRANCH  26  27
ATOM     27  C   UNL A   1      38.444  29.918  29.891  1.00  0.00     0.031 A 
ATOM     28  C   UNL A   1      39.395  28.927  29.285  1.00  0.00     0.074 A 
ATOM     29  C   UNL A   1      38.708  30.472  31.089  1.00  0.00     0.049 A 
ATOM     30  N   UNL A   1      40.496  28.428  29.783  1.00  0.00    -0.248 NA
ATOM     31  C   UNL A   1      39.062  28.433  27.941  1.00  0.00     0.031 C 
ATOM     32  C   UNL A   1      37.873  31.473  31.755  1.00  0.00     0.029 A 
ATOM     33  N   UNL A   1      39.753  30.277  31.957  1.00  0.00    -0.354 N 
ATOM     34  C   UNL A   1      40.994  27.560  28.817  1.00  0.00     0.074 A 
ATOM     35  C   UNL A   1      40.054  27.581  27.715  1.00  0.00     0.031 C 
ATOM     36  C   UNL A   1      38.442  31.810  32.924  1.00  0.00     0.029 A 
ATOM     37  C   UNL A   1      39.653  31.018  33.112  1.00  0.00     0.049 A 
ATOM     38  H   UNL A   1      40.501  29.665  31.772  1.00  0.00     0.167 HD
ATOM     39  C   UNL A   1      42.133  26.822  28.849  1.00  0.00     0.034 A 
ATOM     40  C   UNL A   1      40.438  31.039  34.206  1.00  0.00     0.034 A 
ATOM     41  C   UNL A   1      43.053  26.802  29.962  1.00  0.00     0.049 A 
ATOM     42  C   UNL A   1      41.658  30.156  34.243  1.00  0.00     0.074 A 
ATOM     43  C   UNL A   1      44.228  26.082  30.101  1.00  0.00     0.029 A 
ATOM     44  N   UNL A   1      42.900  27.533  31.135  1.00  0.00    -0.354 N 
ATOM     45  N   UNL A   1      42.107  29.329  33.328  1.00  0.00    -0.248 NA
ATOM     46  C   UNL A   1      42.478  30.213  35.459  1.00  0.00     0.031 C 
ATOM     47  C   UNL A   1      44.754  26.335  31.374  1.00  0.00     0.029 A 
ATOM     48  C   UNL A   1      43.943  27.262  32.008  1.00  0.00     0.049 A 
ATOM     49  H   UNL A   1      42.157  28.153  31.319  1.00  0.00     0.167 HD
ATOM     50  C   UNL A   1      43.276  28.785  33.850  1.00  0.00     0.074 A 
ATOM     51  C   UNL A   1      43.472  29.395  35.150  1.00  0.00     0.031 C 
ATOM     52  C   UNL A   1      44.114  27.866  33.308  1.00  0.00     0.034 A 
BRANCH  39  53
ATOM     53  C   UNL A   1      42.418  25.939  27.659  1.00  0.00     0.023 A 
ATOM     54  C   UNL A   1      42.043  24.584  27.638  1.00  0.00     0.031 A 
ATOM     55  C   UNL A   1      43.085  26.456  26.534  1.00  0.00     0.131 A 
ATOM     56  C   UNL A   1      42.386  23.780  26.540  1.00  0.00     0.055 A 
ATOM     57  C   UNL A   1      43.364  25.668  25.416  1.00  0.00     0.041 A 
ATOM     58  F   UNL A   1      43.486  27.737  26.507  1.00  0.00    -0.206 F 
ATOM     59  C   UNL A   1      43.024  24.318  25.420  1.00  0.00     0.022 A 
BRANCH  56  60
ATOM     60  S   UNL A   1      42.091  21.994  26.646  1.00  0.00     0.124 S 
ATOM     61  O   UNL A   1      40.947  21.832  25.751  1.00  0.00    -0.237 OA
ATOM     62  O   UNL A   1      43.354  21.436  26.177  1.00  0.00    -0.237 OA
ATOM     63  O   UNL A   1      41.800  21.778  28.062  1.00  0.00    -0.744 OA
ENDBRANCH  56  60
ENDBRANCH  39  53
BRANCH  40  64
ATOM     64  C   UNL A   1      40.081  31.891  35.376  1.00  0.00     0.023 A 
ATOM     65  C   UNL A   1      39.141  31.464  36.325  1.00  0.00     0.031 A 
ATOM     66  C   UNL A   1      40.640  33.173  35.530  1.00  0.00     0.131 A 
ATOM     67  C   UNL A   1      38.750  32.328  37.359  1.00  0.00     0.055 A 
ATOM     68  C   UNL A   1      40.288  34.008  36.590  1.00  0.00     0.041 A 
ATOM     69  F   UNL A   1      41.546  33.629  34.649  1.00  0.00    -0.206 F 
ATOM     70  C   UNL A   1      39.327  33.593  37.505  1.00  0.00     0.022 A 
BRANCH  67  71
ATOM     71  S   UNL A   1      37.404  31.812  38.460  1.00  0.00     0.124 S 
ATOM     72  O   UNL A   1      36.363  32.779  38.130  1.00  0.00    -0.237 OA
ATOM     73  O   UNL A   1      37.168  30.440  38.023  1.00  0.00    -0.237 OA
ATOM     74  O   UNL A   1      37.983  31.949  39.794  1.00  0.00    -0.744 OA
ENDBRANCH  67  71
ENDBRANCH  40  64
BRANCH  52  75
ATOM     75  C   UNL A   1      45.335  27.504  34.117  1.00  0.00     0.023 A 
ATOM     76  C   UNL A   1      45.320  26.437  35.034  1.00  0.00     0.031 A 
ATOM     77  C   UNL A   1      46.511  28.263  34.002  1.00  0.00     0.131 A 
ATOM     78  C   UNL A   1      46.439  26.200  35.846  1.00  0.00     0.055 A 
ATOM     79  C   UNL A   1      47.641  27.987  34.773  1.00  0.00     0.041 A 
ATOM     80  F   UNL A   1      46.578  29.294  33.143  1.00  0.00    -0.206 F 
ATOM     81  C   UNL A   1      47.604  26.960  35.712  1.00  0.00     0.022 A 
BRANCH  78  82
ATOM     82  S   UNL A   1      46.316  24.947  37.152  1.00  0.00     0.124 S 
ATOM     83  O   UNL A   1      47.278  23.944  36.704  1.00  0.00    -0.237 OA
ATOM     84  O   UNL A   1      46.691  25.701  38.343  1.00  0.00    -0.237 OA
ATOM     85  O   UNL A   1      44.917  24.530  37.099  1.00  0.00    -0.744 OA
ENDBRANCH  78  82
ENDBRANCH  52  75
ENDBRANCH  26  27
ENDBRANCH  19  21
ENDBRANCH  18  19
ENDBRANCH  17  18
ENDBRANCH   1  17
TORSDOF 18
ENDMDL
