MODEL 1
REMARK VINA RESULT:      -8.9      0.000      0.000
REMARK SMILES CC(C)Cc1ccc([C@@H](C)C(=O)OCCOC(=O)c2ccc(-c3c4nc(c(-c5cc(S(=O)(=O)[O-])ccc5F)c5ccc([nH]5)c(-c5cc(S(=O)(=O)[O-])ccc5F)c5nc(c(-c6cc(S(=O)(=O)[O-])ccc6F)c6ccc3[nH]6)C=C5)C=C4)cc2)cc1
REMARK SMILES IDX 14 1 13 2 11 3 12 4 9 5 10 6 8 7 5 8 6 9 83 10 7 11 82 12
REMARK SMILES IDX 4 13 2 14 1 15 3 16 15 17 16 18 17 19 18 20 19 21 20 22
REMARK SMILES IDX 81 23 21 24 80 25 22 26 23 27 24 28 74 29 25 30 79 31 73 32
REMARK SMILES IDX 75 33 26 34 78 35 72 36 71 37 27 39 59 40 39 41 58 42 40 43
REMARK SMILES IDX 43 44 57 45 76 46 41 47 42 48 56 50 77 51 44 52 28 53 29 54
REMARK SMILES IDX 37 55 30 56 36 57 38 58 35 59 31 60 32 61 33 62 34 63 60 64
REMARK SMILES IDX 61 65 69 66 62 67 68 68 70 69 67 70 63 71 64 72 65 73 66 74
REMARK SMILES IDX 45 75 46 76 54 77 47 78 53 79 55 80 52 81 48 82 49 83 50 84
REMARK SMILES IDX 51 85
REMARK H PARENT 75 38 43 49
REMARK Flexibility Score: inf
ROOT
ATOM      1  C   UNL A   1      33.924  34.574  29.164  1.00  0.00     0.274 C 
ENDROOT
BRANCH   1   2
ATOM      2  O   UNL A   1      33.678  33.963  30.444  1.00  0.00    -0.462 OA
BRANCH   2   3
ATOM      3  C   UNL A   1      34.456  34.378  31.479  1.00  0.00     0.313 C 
ATOM      4  O   UNL A   1      34.338  35.469  32.030  1.00  0.00    -0.252 OA
BRANCH   3   5
ATOM      5  C   UNL A   1      35.554  33.392  31.859  1.00  0.00     0.126 C 
ATOM      6  C   UNL A   1      35.535  33.154  33.367  1.00  0.00     0.025 C 
BRANCH   5   7
ATOM      7  C   UNL A   1      36.949  33.708  31.339  1.00  0.00    -0.034 A 
ATOM      8  C   UNL A   1      39.584  34.270  30.442  1.00  0.00    -0.048 A 
ATOM      9  C   UNL A   1      38.605  33.795  29.558  1.00  0.00     0.004 A 
ATOM     10  C   UNL A   1      39.215  34.501  31.771  1.00  0.00     0.004 A 
ATOM     11  C   UNL A   1      37.307  33.520  29.998  1.00  0.00     0.005 A 
ATOM     12  C   UNL A   1      37.921  34.217  32.214  1.00  0.00     0.005 A 
BRANCH   8  13
ATOM     13  C   UNL A   1      40.968  34.579  29.913  1.00  0.00     0.038 C 
BRANCH  13  14
ATOM     14  C   UNL A   1      42.170  33.921  30.625  1.00  0.00    -0.013 C 
ATOM     15  C   UNL A   1      42.531  32.565  30.015  1.00  0.00     0.008 C 
ATOM     16  C   UNL A   1      43.383  34.854  30.551  1.00  0.00     0.008 C 
ENDBRANCH  13  14
ENDBRANCH   8  13
ENDBRANCH   5   7
ENDBRANCH   3   5
ENDBRANCH   2   3
ENDBRANCH   1   2
BRANCH   1  17
ATOM     17  C   UNL A   1      33.592  33.613  28.022  1.00  0.00     0.275 C 
BRANCH  17  18
ATOM     18  O   UNL A   1      34.702  32.740  27.749  1.00  0.00    -0.458 OA
BRANCH  18  19
ATOM     19  C   UNL A   1      34.449  31.420  27.917  1.00  0.00     0.338 C 
ATOM     20  O   UNL A   1      33.401  30.835  27.716  1.00  0.00    -0.246 OA
BRANCH  19  21
ATOM     21  C   UNL A   1      35.691  30.742  28.316  1.00  0.00     0.060 A 
ATOM     22  C   UNL A   1      35.673  29.939  29.457  1.00  0.00     0.016 A 
ATOM     23  C   UNL A   1      36.879  30.959  27.616  1.00  0.00     0.016 A 
ATOM     24  C   UNL A   1      36.850  29.356  29.918  1.00  0.00     0.010 A 
ATOM     25  C   UNL A   1      38.057  30.361  28.071  1.00  0.00     0.010 A 
ATOM     26  C   UNL A   1      38.054  29.567  29.232  1.00  0.00    -0.014 A 
BRANCH  26  27
ATOM     27  C   UNL A   1      39.316  28.991  29.761  1.00  0.00     0.031 A 
ATOM     28  C   UNL A   1      39.984  29.622  30.950  1.00  0.00     0.074 A 
ATOM     29  C   UNL A   1      39.846  27.898  29.183  1.00  0.00     0.049 A 
ATOM     30  N   UNL A   1      41.124  29.322  31.516  1.00  0.00    -0.248 NA
ATOM     31  C   UNL A   1      39.274  30.744  31.580  1.00  0.00     0.031 C 
ATOM     32  C   UNL A   1      39.264  27.178  28.049  1.00  0.00     0.029 A 
ATOM     33  N   UNL A   1      40.996  27.204  29.465  1.00  0.00    -0.354 N 
ATOM     34  C   UNL A   1      41.279  30.226  32.561  1.00  0.00     0.074 A 
ATOM     35  C   UNL A   1      40.125  31.101  32.530  1.00  0.00     0.031 C 
ATOM     36  C   UNL A   1      40.060  26.144  27.732  1.00  0.00     0.029 A 
ATOM     37  C   UNL A   1      41.230  26.156  28.605  1.00  0.00     0.049 A 
ATOM     38  H   UNL A   1      41.594  27.433  30.212  1.00  0.00     0.167 HD
ATOM     39  C   UNL A   1      42.289  30.312  33.463  1.00  0.00     0.034 A 
ATOM     40  C   UNL A   1      42.285  25.322  28.511  1.00  0.00     0.034 A 
ATOM     41  C   UNL A   1      43.432  29.430  33.477  1.00  0.00     0.049 A 
ATOM     42  C   UNL A   1      43.427  25.481  29.482  1.00  0.00     0.074 A 
ATOM     43  C   UNL A   1      44.506  29.420  34.352  1.00  0.00     0.029 A 
ATOM     44  N   UNL A   1      43.658  28.407  32.565  1.00  0.00    -0.354 N 
ATOM     45  N   UNL A   1      43.567  26.348  30.458  1.00  0.00    -0.248 NA
ATOM     46  C   UNL A   1      44.552  24.549  29.337  1.00  0.00     0.031 C 
ATOM     47  C   UNL A   1      45.406  28.433  33.933  1.00  0.00     0.029 A 
ATOM     48  C   UNL A   1      44.866  27.779  32.838  1.00  0.00     0.049 A 
ATOM     49  H   UNL A   1      43.050  28.160  31.831  1.00  0.00     0.167 HD
ATOM     50  C   UNL A   1      44.791  26.053  31.054  1.00  0.00     0.074 A 
ATOM     51  C   UNL A   1      45.337  24.916  30.339  1.00  0.00     0.031 C 
ATOM     52  C   UNL A   1      45.406  26.662  32.099  1.00  0.00     0.034 A 
BRANCH  39  53
ATOM     53  C   UNL A   1      42.222  31.436  34.468  1.00  0.00     0.023 A 
ATOM     54  C   UNL A   1      42.670  32.734  34.164  1.00  0.00     0.031 A 
ATOM     55  C   UNL A   1      41.735  31.194  35.765  1.00  0.00     0.131 A 
ATOM     56  C   UNL A   1      42.685  33.721  35.162  1.00  0.00     0.055 A 
ATOM     57  C   UNL A   1      41.685  32.200  36.733  1.00  0.00     0.041 A 
ATOM     58  F   UNL A   1      41.314  29.970  36.120  1.00  0.00    -0.206 F 
ATOM     59  C   UNL A   1      42.176  33.468  36.438  1.00  0.00     0.022 A 
BRANCH  56  60
ATOM     60  S   UNL A   1      43.507  35.300  34.810  1.00  0.00     0.124 S 
ATOM     61  O   UNL A   1      44.559  34.888  33.884  1.00  0.00    -0.237 OA
ATOM     62  O   UNL A   1      42.428  36.097  34.239  1.00  0.00    -0.237 OA
ATOM     63  O   UNL A   1      43.981  35.739  36.122  1.00  0.00    -0.744 OA
ENDBRANCH  56  60
ENDBRANCH  39  53
BRANCH  40  64
ATOM     64  C   UNL A   1      42.341  24.298  27.431  1.00  0.00     0.023 A 
ATOM     65  C   UNL A   1      41.763  23.031  27.597  1.00  0.00     0.031 A 
ATOM     66  C   UNL A   1      43.013  24.567  26.224  1.00  0.00     0.131 A 
ATOM     67  C   UNL A   1      41.899  22.065  26.589  1.00  0.00     0.055 A 
ATOM     68  C   UNL A   1      43.104  23.618  25.204  1.00  0.00     0.041 A 
ATOM     69  F   UNL A   1      43.583  25.763  26.015  1.00  0.00    -0.206 F 
ATOM     70  C   UNL A   1      42.554  22.353  25.389  1.00  0.00     0.022 A 
BRANCH  67  71
ATOM     71  S   UNL A   1      41.267  20.392  26.896  1.00  0.00     0.124 S 
ATOM     72  O   UNL A   1      40.182  20.301  25.925  1.00  0.00    -0.237 OA
ATOM     73  O   UNL A   1      42.441  19.570  26.624  1.00  0.00    -0.237 OA
ATOM     74  O   UNL A   1      40.851  20.437  28.296  1.00  0.00    -0.744 OA
ENDBRANCH  67  71
ENDBRANCH  40  64
BRANCH  52  75
ATOM     75  C   UNL A   1      46.727  26.082  32.541  1.00  0.00     0.023 A 
ATOM     76  C   UNL A   1      46.797  25.054  33.498  1.00  0.00     0.031 A 
ATOM     77  C   UNL A   1      47.931  26.585  32.019  1.00  0.00     0.131 A 
ATOM     78  C   UNL A   1      48.048  24.599  33.943  1.00  0.00     0.055 A 
ATOM     79  C   UNL A   1      49.172  26.091  32.425  1.00  0.00     0.041 A 
ATOM     80  F   UNL A   1      47.921  27.569  31.104  1.00  0.00    -0.206 F 
ATOM     81  C   UNL A   1      49.235  25.101  33.402  1.00  0.00     0.022 A 
BRANCH  78  82
ATOM     82  S   UNL A   1      48.107  23.402  35.305  1.00  0.00     0.124 S 
ATOM     83  O   UNL A   1      47.118  22.414  34.884  1.00  0.00    -0.237 OA
ATOM     84  O   UNL A   1      49.498  22.963  35.276  1.00  0.00    -0.237 OA
ATOM     85  O   UNL A   1      47.732  24.194  36.475  1.00  0.00    -0.744 OA
ENDBRANCH  78  82
ENDBRANCH  52  75
ENDBRANCH  26  27
ENDBRANCH  19  21
ENDBRANCH  18  19
ENDBRANCH  17  18
ENDBRANCH   1  17
TORSDOF 17
ENDMDL
MODEL 2
REMARK VINA RESULT:      -8.8      3.814     11.020
REMARK SMILES CC(C)Cc1ccc([C@@H](C)C(=O)OCCOC(=O)c2ccc(-c3c4nc(c(-c5cc(S(=O)(=O)[O-])ccc5F)c5ccc([nH]5)c(-c5cc(S(=O)(=O)[O-])ccc5F)c5nc(c(-c6cc(S(=O)(=O)[O-])ccc6F)c6ccc3[nH]6)C=C5)C=C4)cc2)cc1
REMARK SMILES IDX 14 1 13 2 11 3 12 4 9 5 10 6 8 7 5 8 6 9 83 10 7 11 82 12
REMARK SMILES IDX 4 13 2 14 1 15 3 16 15 17 16 18 17 19 18 20 19 21 20 22
REMARK SMILES IDX 81 23 21 24 80 25 22 26 23 27 24 28 74 29 25 30 79 31 73 32
REMARK SMILES IDX 75 33 26 34 78 35 72 36 71 37 27 39 59 40 39 41 58 42 40 43
REMARK SMILES IDX 43 44 57 45 76 46 41 47 42 48 56 50 77 51 44 52 28 53 29 54
REMARK SMILES IDX 37 55 30 56 36 57 38 58 35 59 31 60 32 61 33 62 34 63 60 64
REMARK SMILES IDX 61 65 69 66 62 67 68 68 70 69 67 70 63 71 64 72 65 73 66 74
REMARK SMILES IDX 45 75 46 76 54 77 47 78 53 79 55 80 52 81 48 82 49 83 50 84
REMARK SMILES IDX 51 85
REMARK H PARENT 75 38 43 49
REMARK Flexibility Score: inf
ROOT
ATOM      1  C   UNL A   1      41.962  20.363  26.679  1.00  0.00     0.274 C 
ENDROOT
BRANCH   1   2
ATOM      2  O   UNL A   1      42.803  20.554  25.526  1.00  0.00    -0.462 OA
BRANCH   2   3
ATOM      3  C   UNL A   1      43.756  21.520  25.618  1.00  0.00     0.313 C 
ATOM      4  O   UNL A   1      44.951  21.326  25.411  1.00  0.00    -0.252 OA
BRANCH   3   5
ATOM      5  C   UNL A   1      43.223  22.871  26.079  1.00  0.00     0.126 C 
ATOM      6  C   UNL A   1      43.446  23.914  24.988  1.00  0.00     0.025 C 
BRANCH   5   7
ATOM      7  C   UNL A   1      43.695  23.348  27.445  1.00  0.00    -0.034 A 
ATOM      8  C   UNL A   1      44.529  24.176  30.030  1.00  0.00    -0.048 A 
ATOM      9  C   UNL A   1      45.407  24.220  28.938  1.00  0.00     0.004 A 
ATOM     10  C   UNL A   1      43.216  23.753  29.803  1.00  0.00     0.004 A 
ATOM     11  C   UNL A   1      44.997  23.814  27.664  1.00  0.00     0.005 A 
ATOM     12  C   UNL A   1      42.807  23.337  28.532  1.00  0.00     0.005 A 
BRANCH   8  13
ATOM     13  C   UNL A   1      45.011  24.651  31.383  1.00  0.00     0.038 C 
BRANCH  13  14
ATOM     14  C   UNL A   1      44.088  25.599  32.180  1.00  0.00    -0.013 C 
ATOM     15  C   UNL A   1      44.399  25.584  33.678  1.00  0.00     0.008 C 
ATOM     16  C   UNL A   1      44.232  27.027  31.642  1.00  0.00     0.008 C 
ENDBRANCH  13  14
ENDBRANCH   8  13
ENDBRANCH   5   7
ENDBRANCH   3   5
ENDBRANCH   2   3
ENDBRANCH   1   2
BRANCH   1  17
ATOM     17  C   UNL A   1      40.487  20.534  26.319  1.00  0.00     0.275 C 
BRANCH  17  18
ATOM     18  O   UNL A   1      39.888  21.585  27.097  1.00  0.00    -0.458 OA
BRANCH  18  19
ATOM     19  C   UNL A   1      39.146  22.471  26.391  1.00  0.00     0.338 C 
ATOM     20  O   UNL A   1      38.310  22.225  25.541  1.00  0.00    -0.246 OA
BRANCH  19  21
ATOM     21  C   UNL A   1      39.439  23.829  26.869  1.00  0.00     0.060 A 
ATOM     22  C   UNL A   1      39.982  24.748  25.971  1.00  0.00     0.016 A 
ATOM     23  C   UNL A   1      39.252  24.170  28.210  1.00  0.00     0.016 A 
ATOM     24  C   UNL A   1      40.360  26.014  26.410  1.00  0.00     0.010 A 
ATOM     25  C   UNL A   1      39.617  25.446  28.647  1.00  0.00     0.010 A 
ATOM     26  C   UNL A   1      40.186  26.372  27.754  1.00  0.00    -0.014 A 
BRANCH  26  27
ATOM     27  C   UNL A   1      40.643  27.701  28.229  1.00  0.00     0.031 A 
ATOM     28  C   UNL A   1      42.112  28.016  28.268  1.00  0.00     0.074 A 
ATOM     29  C   UNL A   1      39.740  28.624  28.608  1.00  0.00     0.049 A 
ATOM     30  N   UNL A   1      42.719  29.084  28.718  1.00  0.00    -0.248 NA
ATOM     31  C   UNL A   1      43.015  26.988  27.732  1.00  0.00     0.031 C 
ATOM     32  C   UNL A   1      38.287  28.444  28.575  1.00  0.00     0.029 A 
ATOM     33  N   UNL A   1      39.907  29.894  29.098  1.00  0.00    -0.354 N 
ATOM     34  C   UNL A   1      44.078  28.853  28.535  1.00  0.00     0.074 A 
ATOM     35  C   UNL A   1      44.203  27.530  27.957  1.00  0.00     0.031 C 
ATOM     36  C   UNL A   1      37.697  29.562  29.026  1.00  0.00     0.029 A 
ATOM     37  C   UNL A   1      38.726  30.518  29.426  1.00  0.00     0.049 A 
ATOM     38  H   UNL A   1      40.789  30.319  29.205  1.00  0.00     0.167 HD
ATOM     39  C   UNL A   1      45.122  29.671  28.821  1.00  0.00     0.034 A 
ATOM     40  C   UNL A   1      38.501  31.710  30.013  1.00  0.00     0.034 A 
ATOM     41  C   UNL A   1      44.977  30.986  29.399  1.00  0.00     0.049 A 
ATOM     42  C   UNL A   1      39.680  32.573  30.384  1.00  0.00     0.074 A 
ATOM     43  C   UNL A   1      45.964  31.904  29.716  1.00  0.00     0.029 A 
ATOM     44  N   UNL A   1      43.768  31.569  29.757  1.00  0.00    -0.354 N 
ATOM     45  N   UNL A   1      40.961  32.338  30.217  1.00  0.00    -0.248 NA
ATOM     46  C   UNL A   1      39.381  33.861  31.021  1.00  0.00     0.031 C 
ATOM     47  C   UNL A   1      45.358  33.012  30.320  1.00  0.00     0.029 A 
ATOM     48  C   UNL A   1      43.986  32.820  30.319  1.00  0.00     0.049 A 
ATOM     49  H   UNL A   1      42.883  31.156  29.630  1.00  0.00     0.167 HD
ATOM     50  C   UNL A   1      41.619  33.459  30.715  1.00  0.00     0.074 A 
ATOM     51  C   UNL A   1      40.593  34.376  31.169  1.00  0.00     0.031 C 
ATOM     52  C   UNL A   1      42.951  33.711  30.788  1.00  0.00     0.034 A 
BRANCH  39  53
ATOM     53  C   UNL A   1      46.509  29.135  28.563  1.00  0.00     0.023 A 
ATOM     54  C   UNL A   1      47.002  28.942  27.261  1.00  0.00     0.031 A 
ATOM     55  C   UNL A   1      47.339  28.778  29.641  1.00  0.00     0.131 A 
ATOM     56  C   UNL A   1      48.257  28.345  27.068  1.00  0.00     0.055 A 
ATOM     57  C   UNL A   1      48.617  28.251  29.443  1.00  0.00     0.041 A 
ATOM     58  F   UNL A   1      46.915  28.920  30.907  1.00  0.00    -0.206 F 
ATOM     59  C   UNL A   1      49.077  28.018  28.151  1.00  0.00     0.022 A 
BRANCH  56  60
ATOM     60  S   UNL A   1      48.747  27.873  25.386  1.00  0.00     0.124 S 
ATOM     61  O   UNL A   1      48.920  26.429  25.521  1.00  0.00    -0.237 OA
ATOM     62  O   UNL A   1      47.605  28.309  24.591  1.00  0.00    -0.237 OA
ATOM     63  O   UNL A   1      49.983  28.622  25.166  1.00  0.00    -0.744 OA
ENDBRANCH  56  60
ENDBRANCH  39  53
BRANCH  40  64
ATOM     64  C   UNL A   1      37.111  32.139  30.337  1.00  0.00     0.023 A 
ATOM     65  C   UNL A   1      36.304  32.776  29.383  1.00  0.00     0.031 A 
ATOM     66  C   UNL A   1      36.585  31.948  31.628  1.00  0.00     0.131 A 
ATOM     67  C   UNL A   1      35.028  33.235  29.744  1.00  0.00     0.055 A 
ATOM     68  C   UNL A   1      35.297  32.362  31.968  1.00  0.00     0.041 A 
ATOM     69  F   UNL A   1      37.317  31.344  32.577  1.00  0.00    -0.206 F 
ATOM     70  C   UNL A   1      34.514  33.021  31.025  1.00  0.00     0.022 A 
BRANCH  67  71
ATOM     71  S   UNL A   1      34.069  34.183  28.530  1.00  0.00     0.124 S 
ATOM     72  O   UNL A   1      32.832  34.436  29.261  1.00  0.00    -0.237 OA
ATOM     73  O   UNL A   1      34.928  35.341  28.303  1.00  0.00    -0.237 OA
ATOM     74  O   UNL A   1      33.950  33.267  27.398  1.00  0.00    -0.744 OA
ENDBRANCH  67  71
ENDBRANCH  40  64
BRANCH  52  75
ATOM     75  C   UNL A   1      43.359  35.048  31.356  1.00  0.00     0.023 A 
ATOM     76  C   UNL A   1      43.553  36.171  30.531  1.00  0.00     0.031 A 
ATOM     77  C   UNL A   1      43.585  35.192  32.735  1.00  0.00     0.131 A 
ATOM     78  C   UNL A   1      44.013  37.374  31.088  1.00  0.00     0.055 A 
ATOM     79  C   UNL A   1      43.990  36.407  33.291  1.00  0.00     0.041 A 
ATOM     80  F   UNL A   1      43.417  34.150  33.567  1.00  0.00    -0.206 F 
ATOM     81  C   UNL A   1      44.218  37.502  32.464  1.00  0.00     0.022 A 
BRANCH  78  82
ATOM     82  S   UNL A   1      44.425  38.748  29.976  1.00  0.00     0.124 S 
ATOM     83  O   UNL A   1      43.548  39.808  30.466  1.00  0.00    -0.237 OA
ATOM     84  O   UNL A   1      45.850  38.934  30.225  1.00  0.00    -0.237 OA
ATOM     85  O   UNL A   1      44.089  38.230  28.652  1.00  0.00    -0.744 OA
ENDBRANCH  78  82
ENDBRANCH  52  75
ENDBRANCH  26  27
ENDBRANCH  19  21
ENDBRANCH  18  19
ENDBRANCH  17  18
ENDBRANCH   1  17
TORSDOF 17
ENDMDL
MODEL 3
REMARK VINA RESULT:      -8.8      5.472      9.801
REMARK SMILES CC(C)Cc1ccc([C@@H](C)C(=O)OCCOC(=O)c2ccc(-c3c4nc(c(-c5cc(S(=O)(=O)[O-])ccc5F)c5ccc([nH]5)c(-c5cc(S(=O)(=O)[O-])ccc5F)c5nc(c(-c6cc(S(=O)(=O)[O-])ccc6F)c6ccc3[nH]6)C=C5)C=C4)cc2)cc1
REMARK SMILES IDX 14 1 13 2 11 3 12 4 9 5 10 6 8 7 5 8 6 9 83 10 7 11 82 12
REMARK SMILES IDX 4 13 2 14 1 15 3 16 15 17 16 18 17 19 18 20 19 21 20 22
REMARK SMILES IDX 81 23 21 24 80 25 22 26 23 27 24 28 74 29 25 30 79 31 73 32
REMARK SMILES IDX 75 33 26 34 78 35 72 36 71 37 27 39 59 40 39 41 58 42 40 43
REMARK SMILES IDX 43 44 57 45 76 46 41 47 42 48 56 50 77 51 44 52 28 53 29 54
REMARK SMILES IDX 37 55 30 56 36 57 38 58 35 59 31 60 32 61 33 62 34 63 60 64
REMARK SMILES IDX 61 65 69 66 62 67 68 68 70 69 67 70 63 71 64 72 65 73 66 74
REMARK SMILES IDX 45 75 46 76 54 77 47 78 53 79 55 80 52 81 48 82 49 83 50 84
REMARK SMILES IDX 51 85
REMARK H PARENT 75 38 43 49
REMARK Flexibility Score: inf
ROOT
ATOM      1  C   UNL A   1      35.008  21.798  24.607  1.00  0.00     0.274 C 
ENDROOT
BRANCH   1   2
ATOM      2  O   UNL A   1      33.934  20.842  24.681  1.00  0.00    -0.462 OA
BRANCH   2   3
ATOM      3  C   UNL A   1      32.788  21.255  25.285  1.00  0.00     0.313 C 
ATOM      4  O   UNL A   1      31.744  20.609  25.288  1.00  0.00    -0.252 OA
BRANCH   3   5
ATOM      5  C   UNL A   1      32.885  22.643  25.906  1.00  0.00     0.126 C 
ATOM      6  C   UNL A   1      32.904  22.528  27.428  1.00  0.00     0.025 C 
BRANCH   5   7
ATOM      7  C   UNL A   1      31.875  23.670  25.414  1.00  0.00    -0.034 A 
ATOM      8  C   UNL A   1      29.964  25.529  24.437  1.00  0.00    -0.048 A 
ATOM      9  C   UNL A   1      30.272  25.459  25.802  1.00  0.00     0.004 A 
ATOM     10  C   UNL A   1      30.655  24.686  23.562  1.00  0.00     0.004 A 
ATOM     11  C   UNL A   1      31.214  24.545  26.285  1.00  0.00     0.005 A 
ATOM     12  C   UNL A   1      31.590  23.765  24.043  1.00  0.00     0.005 A 
BRANCH   8  13
ATOM     13  C   UNL A   1      28.956  26.552  23.960  1.00  0.00     0.038 C 
BRANCH  13  14
ATOM     14  C   UNL A   1      29.489  27.769  23.172  1.00  0.00    -0.013 C 
ATOM     15  C   UNL A   1      28.408  28.827  22.943  1.00  0.00     0.008 C 
ATOM     16  C   UNL A   1      30.666  28.394  23.928  1.00  0.00     0.008 C 
ENDBRANCH  13  14
ENDBRANCH   8  13
ENDBRANCH   5   7
ENDBRANCH   3   5
ENDBRANCH   2   3
ENDBRANCH   1   2
BRANCH   1  17
ATOM     17  C   UNL A   1      36.369  21.104  24.662  1.00  0.00     0.275 C 
BRANCH  17  18
ATOM     18  O   UNL A   1      37.067  21.441  25.873  1.00  0.00    -0.458 OA
BRANCH  18  19
ATOM     19  C   UNL A   1      38.402  21.212  25.850  1.00  0.00     0.338 C 
ATOM     20  O   UNL A   1      38.977  20.231  25.415  1.00  0.00    -0.246 OA
BRANCH  19  21
ATOM     21  C   UNL A   1      39.100  22.397  26.369  1.00  0.00     0.060 A 
ATOM     22  C   UNL A   1      38.597  23.658  26.048  1.00  0.00     0.016 A 
ATOM     23  C   UNL A   1      40.282  22.266  27.098  1.00  0.00     0.016 A 
ATOM     24  C   UNL A   1      39.284  24.804  26.443  1.00  0.00     0.010 A 
ATOM     25  C   UNL A   1      40.963  23.415  27.507  1.00  0.00     0.010 A 
ATOM     26  C   UNL A   1      40.476  24.692  27.170  1.00  0.00    -0.014 A 
BRANCH  26  27
ATOM     27  C   UNL A   1      41.234  25.914  27.538  1.00  0.00     0.031 A 
ATOM     28  C   UNL A   1      40.584  26.967  28.390  1.00  0.00     0.074 A 
ATOM     29  C   UNL A   1      42.504  26.065  27.121  1.00  0.00     0.049 A 
ATOM     30  N   UNL A   1      41.042  28.136  28.758  1.00  0.00    -0.248 NA
ATOM     31  C   UNL A   1      39.234  26.665  28.888  1.00  0.00     0.031 C 
ATOM     32  C   UNL A   1      43.251  25.090  26.324  1.00  0.00     0.029 A 
ATOM     33  N   UNL A   1      43.391  27.096  27.305  1.00  0.00    -0.354 N 
ATOM     34  C   UNL A   1      40.034  28.717  29.519  1.00  0.00     0.074 A 
ATOM     35  C   UNL A   1      38.930  27.780  29.534  1.00  0.00     0.031 C 
ATOM     36  C   UNL A   1      44.482  25.570  26.088  1.00  0.00     0.029 A 
ATOM     37  C   UNL A   1      44.596  26.904  26.671  1.00  0.00     0.049 A 
ATOM     38  H   UNL A   1      43.184  27.896  27.840  1.00  0.00     0.167 HD
ATOM     39  C   UNL A   1      40.034  29.920  30.147  1.00  0.00     0.034 A 
ATOM     40  C   UNL A   1      45.659  27.723  26.548  1.00  0.00     0.034 A 
ATOM     41  C   UNL A   1      41.145  30.842  30.118  1.00  0.00     0.049 A 
ATOM     42  C   UNL A   1      45.610  29.083  27.198  1.00  0.00     0.074 A 
ATOM     43  C   UNL A   1      41.258  32.079  30.729  1.00  0.00     0.029 A 
ATOM     44  N   UNL A   1      42.335  30.633  29.431  1.00  0.00    -0.354 N 
ATOM     45  N   UNL A   1      44.645  29.626  27.904  1.00  0.00    -0.248 NA
ATOM     46  C   UNL A   1      46.792  29.937  27.033  1.00  0.00     0.031 C 
ATOM     47  C   UNL A   1      42.486  32.642  30.363  1.00  0.00     0.029 A 
ATOM     48  C   UNL A   1      43.173  31.729  29.579  1.00  0.00     0.049 A 
ATOM     49  H   UNL A   1      42.553  29.823  28.915  1.00  0.00     0.167 HD
ATOM     50  C   UNL A   1      45.114  30.881  28.282  1.00  0.00     0.074 A 
ATOM     51  C   UNL A   1      46.453  31.004  27.741  1.00  0.00     0.031 C 
ATOM     52  C   UNL A   1      44.496  31.845  29.012  1.00  0.00     0.034 A 
BRANCH  39  53
ATOM     53  C   UNL A   1      38.770  30.322  30.867  1.00  0.00     0.023 A 
ATOM     54  C   UNL A   1      37.723  30.993  30.211  1.00  0.00     0.031 A 
ATOM     55  C   UNL A   1      38.628  30.062  32.241  1.00  0.00     0.131 A 
ATOM     56  C   UNL A   1      36.612  31.440  30.944  1.00  0.00     0.055 A 
ATOM     57  C   UNL A   1      37.487  30.445  32.949  1.00  0.00     0.041 A 
ATOM     58  F   UNL A   1      39.604  29.443  32.925  1.00  0.00    -0.206 F 
ATOM     59  C   UNL A   1      36.477  31.152  32.304  1.00  0.00     0.022 A 
BRANCH  56  60
ATOM     60  S   UNL A   1      35.409  32.524  30.124  1.00  0.00     0.124 S 
ATOM     61  O   UNL A   1      34.387  32.668  31.157  1.00  0.00    -0.237 OA
ATOM     62  O   UNL A   1      36.202  33.715  29.839  1.00  0.00    -0.237 OA
ATOM     63  O   UNL A   1      34.996  31.754  28.952  1.00  0.00    -0.744 OA
ENDBRANCH  56  60
ENDBRANCH  39  53
BRANCH  40  64
ATOM     64  C   UNL A   1      46.838  27.310  25.736  1.00  0.00     0.023 A 
ATOM     65  C   UNL A   1      47.012  27.763  24.420  1.00  0.00     0.031 A 
ATOM     66  C   UNL A   1      47.792  26.418  26.261  1.00  0.00     0.131 A 
ATOM     67  C   UNL A   1      48.092  27.294  23.657  1.00  0.00     0.055 A 
ATOM     68  C   UNL A   1      48.893  25.993  25.514  1.00  0.00     0.041 A 
ATOM     69  F   UNL A   1      47.672  25.955  27.514  1.00  0.00    -0.206 F 
ATOM     70  C   UNL A   1      49.040  26.423  24.200  1.00  0.00     0.022 A 
BRANCH  67  71
ATOM     71  S   UNL A   1      48.205  27.785  21.914  1.00  0.00     0.124 S 
ATOM     72  O   UNL A   1      48.395  26.497  21.254  1.00  0.00    -0.237 OA
ATOM     73  O   UNL A   1      46.916  28.433  21.698  1.00  0.00    -0.237 OA
ATOM     74  O   UNL A   1      49.362  28.678  21.886  1.00  0.00    -0.744 OA
ENDBRANCH  67  71
ENDBRANCH  40  64
BRANCH  52  75
ATOM     75  C   UNL A   1      45.287  33.100  29.286  1.00  0.00     0.023 A 
ATOM     76  C   UNL A   1      45.340  34.155  28.359  1.00  0.00     0.031 A 
ATOM     77  C   UNL A   1      46.021  33.227  30.478  1.00  0.00     0.131 A 
ATOM     78  C   UNL A   1      46.154  35.269  28.615  1.00  0.00     0.055 A 
ATOM     79  C   UNL A   1      46.786  34.362  30.753  1.00  0.00     0.041 A 
ATOM     80  F   UNL A   1      46.008  32.247  31.397  1.00  0.00    -0.206 F 
ATOM     81  C   UNL A   1      46.865  35.385  29.812  1.00  0.00     0.022 A 
BRANCH  78  82
ATOM     82  S   UNL A   1      46.342  36.528  27.322  1.00  0.00     0.124 S 
ATOM     83  O   UNL A   1      47.784  36.757  27.327  1.00  0.00    -0.237 OA
ATOM     84  O   UNL A   1      45.808  35.850  26.146  1.00  0.00    -0.237 OA
ATOM     85  O   UNL A   1      45.536  37.645  27.812  1.00  0.00    -0.744 OA
ENDBRANCH  78  82
ENDBRANCH  52  75
ENDBRANCH  26  27
ENDBRANCH  19  21
ENDBRANCH  18  19
ENDBRANCH  17  18
ENDBRANCH   1  17
TORSDOF 17
ENDMDL
