MODEL 1
REMARK VINA RESULT:     -10.7      0.000      0.000
REMARK SMILES Cc1ncnc(OCCC(=O)OCCOC(=O)c2ccc(-c3c4nc(c(-c5cc(S(=O)(=O)[O-])ccc5F)c5ccc([nH]5)c(-c5cc(S(=O)(=O)[O-])ccc5F)c5nc(c(-c6cc(S(=O)(=O)[O-])ccc6F)c6ccc3[nH]6)C=C5)C=C4)cc2)c1C
REMARK SMILES IDX 13 1 12 2 10 3 11 4 9 5 8 6 7 7 6 8 1 9 2 10 3 11 81 12 4 13
REMARK SMILES IDX 82 14 5 15 14 16 15 17 16 18 17 19 18 20 19 21 80 22 20 23
REMARK SMILES IDX 79 24 21 25 22 26 23 27 73 28 24 29 78 30 72 31 74 32 25 33
REMARK SMILES IDX 77 34 71 35 70 36 26 38 58 39 38 40 57 41 39 42 42 43 56 44
REMARK SMILES IDX 75 45 40 46 41 47 55 49 76 50 43 51 27 52 28 53 36 54 29 55
REMARK SMILES IDX 35 56 37 57 34 58 30 59 31 60 32 61 33 62 59 63 60 64 68 65
REMARK SMILES IDX 61 66 67 67 69 68 66 69 62 70 63 71 64 72 65 73 44 74 45 75
REMARK SMILES IDX 53 76 46 77 52 78 54 79 51 80 47 81 48 82 49 83 50 84
REMARK H PARENT 74 37 42 48
REMARK Flexibility Score: inf
ROOT
ATOM      1  C   UNL A   1      31.263  28.841  25.253  1.00  0.00     0.274 C 
ENDROOT
BRANCH   1   2
ATOM      2  O   UNL A   1      32.226  27.806  24.981  1.00  0.00    -0.462 OA
BRANCH   2   3
ATOM      3  C   UNL A   1      32.401  26.870  25.946  1.00  0.00     0.309 C 
ATOM      4  O   UNL A   1      31.589  26.605  26.823  1.00  0.00    -0.252 OA
BRANCH   3   5
ATOM      5  C   UNL A   1      33.765  26.231  25.870  1.00  0.00     0.164 C 
BRANCH   5   6
ATOM      6  C   UNL A   1      33.720  24.762  25.474  1.00  0.00     0.243 C 
BRANCH   6   7
ATOM      7  O   UNL A   1      34.273  23.861  26.447  1.00  0.00    -0.477 OA
BRANCH   7   8
ATOM      8  C   UNL A   1      34.690  22.655  25.954  1.00  0.00     0.219 A 
ATOM      9  C   UNL A   1      37.648  20.539  24.999  1.00  0.00     0.067 C 
ATOM     10  C   UNL A   1      36.268  21.083  25.225  1.00  0.00     0.047 A 
ATOM     11  N   UNL A   1      35.275  20.192  25.002  1.00  0.00    -0.241 NA
ATOM     12  C   UNL A   1      36.017  22.390  25.634  1.00  0.00     0.032 A 
ATOM     13  C   UNL A   1      34.026  20.611  25.237  1.00  0.00     0.226 A 
ATOM     14  C   UNL A   1      37.085  23.427  25.752  1.00  0.00     0.052 C 
ATOM     15  N   UNL A   1      33.677  21.799  25.733  1.00  0.00    -0.202 NA
ENDBRANCH   7   8
ENDBRANCH   6   7
ENDBRANCH   5   6
ENDBRANCH   3   5
ENDBRANCH   2   3
ENDBRANCH   1   2
BRANCH   1  16
ATOM     16  C   UNL A   1      31.948  30.175  25.516  1.00  0.00     0.275 C 
BRANCH  16  17
ATOM     17  O   UNL A   1      32.533  30.174  26.827  1.00  0.00    -0.458 OA
BRANCH  17  18
ATOM     18  C   UNL A   1      33.024  31.358  27.249  1.00  0.00     0.338 C 
ATOM     19  O   UNL A   1      32.495  32.457  27.140  1.00  0.00    -0.246 OA
BRANCH  18  20
ATOM     20  C   UNL A   1      34.385  31.164  27.771  1.00  0.00     0.060 A 
ATOM     21  C   UNL A   1      35.261  32.236  27.983  1.00  0.00     0.016 A 
ATOM     22  C   UNL A   1      34.774  29.856  28.067  1.00  0.00     0.016 A 
ATOM     23  C   UNL A   1      36.529  31.992  28.513  1.00  0.00     0.010 A 
ATOM     24  C   UNL A   1      36.021  29.621  28.633  1.00  0.00     0.010 A 
ATOM     25  C   UNL A   1      36.902  30.688  28.870  1.00  0.00    -0.014 A 
BRANCH  25  26
ATOM     26  C   UNL A   1      38.157  30.403  29.603  1.00  0.00     0.031 A 
ATOM     27  C   UNL A   1      39.166  29.453  29.034  1.00  0.00     0.074 A 
ATOM     28  C   UNL A   1      38.296  30.911  30.842  1.00  0.00     0.049 A 
ATOM     29  N   UNL A   1      40.200  28.902  29.612  1.00  0.00    -0.248 NA
ATOM     30  C   UNL A   1      38.975  29.058  27.631  1.00  0.00     0.031 C 
ATOM     31  C   UNL A   1      37.361  31.843  31.478  1.00  0.00     0.029 A 
ATOM     32  N   UNL A   1      39.253  30.695  31.798  1.00  0.00    -0.354 N 
ATOM     33  C   UNL A   1      40.781  28.083  28.650  1.00  0.00     0.074 A 
ATOM     34  C   UNL A   1      39.968  28.197  27.457  1.00  0.00     0.031 C 
ATOM     35  C   UNL A   1      37.789  32.117  32.719  1.00  0.00     0.029 A 
ATOM     36  C   UNL A   1      38.994  31.341  32.985  1.00  0.00     0.049 A 
ATOM     37  H   UNL A   1      40.047  30.134  31.651  1.00  0.00     0.167 HD
ATOM     38  C   UNL A   1      41.887  27.307  28.766  1.00  0.00     0.034 A 
ATOM     39  C   UNL A   1      39.638  31.287  34.166  1.00  0.00     0.034 A 
ATOM     40  C   UNL A   1      42.655  27.197  29.983  1.00  0.00     0.049 A 
ATOM     41  C   UNL A   1      40.842  30.400  34.280  1.00  0.00     0.074 A 
ATOM     42  C   UNL A   1      43.774  26.422  30.237  1.00  0.00     0.029 A 
ATOM     43  N   UNL A   1      42.377  27.888  31.159  1.00  0.00    -0.354 N 
ATOM     44  N   UNL A   1      41.357  29.595  33.379  1.00  0.00    -0.248 NA
ATOM     45  C   UNL A   1      41.555  30.411  35.562  1.00  0.00     0.031 C 
ATOM     46  C   UNL A   1      44.146  26.613  31.574  1.00  0.00     0.029 A 
ATOM     47  C   UNL A   1      43.297  27.552  32.140  1.00  0.00     0.049 A 
ATOM     48  H   UNL A   1      41.635  28.523  31.276  1.00  0.00     0.167 HD
ATOM     49  C   UNL A   1      42.466  29.013  33.980  1.00  0.00     0.074 A 
ATOM     50  C   UNL A   1      42.548  29.566  35.319  1.00  0.00     0.031 C 
ATOM     51  C   UNL A   1      43.340  28.109  33.471  1.00  0.00     0.034 A 
BRANCH  38  52
ATOM     52  C   UNL A   1      42.294  26.492  27.563  1.00  0.00     0.023 A 
ATOM     53  C   UNL A   1      41.917  25.144  27.425  1.00  0.00     0.031 A 
ATOM     54  C   UNL A   1      43.079  27.063  26.546  1.00  0.00     0.131 A 
ATOM     55  C   UNL A   1      42.370  24.398  26.325  1.00  0.00     0.055 A 
ATOM     56  C   UNL A   1      43.472  26.334  25.420  1.00  0.00     0.041 A 
ATOM     57  F   UNL A   1      43.486  28.340  26.631  1.00  0.00    -0.206 F 
ATOM     58  C   UNL A   1      43.126  24.991  25.310  1.00  0.00     0.022 A 
BRANCH  55  59
ATOM     59  S   UNL A   1      42.030  22.617  26.276  1.00  0.00     0.124 S 
ATOM     60  O   UNL A   1      40.570  22.597  26.302  1.00  0.00    -0.237 OA
ATOM     61  O   UNL A   1      42.651  22.208  25.022  1.00  0.00    -0.237 OA
ATOM     62  O   UNL A   1      42.677  22.110  27.485  1.00  0.00    -0.744 OA
ENDBRANCH  55  59
ENDBRANCH  38  52
BRANCH  39  63
ATOM     63  C   UNL A   1      39.142  32.097  35.310  1.00  0.00     0.023 A 
ATOM     64  C   UNL A   1      38.456  31.489  36.370  1.00  0.00     0.031 A 
ATOM     65  C   UNL A   1      39.408  33.475  35.393  1.00  0.00     0.131 A 
ATOM     66  C   UNL A   1      38.054  32.258  37.473  1.00  0.00     0.055 A 
ATOM     67  C   UNL A   1      39.033  34.231  36.505  1.00  0.00     0.041 A 
ATOM     68  F   UNL A   1      40.079  34.097  34.410  1.00  0.00    -0.206 F 
ATOM     69  C   UNL A   1      38.350  33.622  37.554  1.00  0.00     0.022 A 
BRANCH  66  70
ATOM     70  S   UNL A   1      37.138  31.446  38.812  1.00  0.00     0.124 S 
ATOM     71  O   UNL A   1      35.919  32.244  38.866  1.00  0.00    -0.237 OA
ATOM     72  O   UNL A   1      36.994  30.087  38.301  1.00  0.00    -0.237 OA
ATOM     73  O   UNL A   1      38.027  31.583  39.964  1.00  0.00    -0.744 OA
ENDBRANCH  66  70
ENDBRANCH  39  63
BRANCH  51  74
ATOM     74  C   UNL A   1      44.474  27.695  34.366  1.00  0.00     0.023 A 
ATOM     75  C   UNL A   1      44.375  26.569  35.199  1.00  0.00     0.031 A 
ATOM     76  C   UNL A   1      45.665  28.439  34.381  1.00  0.00     0.131 A 
ATOM     77  C   UNL A   1      45.439  26.241  36.050  1.00  0.00     0.055 A 
ATOM     78  C   UNL A   1      46.738  28.082  35.198  1.00  0.00     0.041 A 
ATOM     79  F   UNL A   1      45.804  29.523  33.601  1.00  0.00    -0.206 F 
ATOM     80  C   UNL A   1      46.625  26.982  36.045  1.00  0.00     0.022 A 
BRANCH  77  81
ATOM     81  S   UNL A   1      45.236  24.859  37.205  1.00  0.00     0.124 S 
ATOM     82  O   UNL A   1      43.787  24.824  37.380  1.00  0.00    -0.237 OA
ATOM     83  O   UNL A   1      45.816  23.742  36.466  1.00  0.00    -0.237 OA
ATOM     84  O   UNL A   1      45.994  25.281  38.382  1.00  0.00    -0.744 OA
ENDBRANCH  77  81
ENDBRANCH  51  74
ENDBRANCH  25  26
ENDBRANCH  18  20
ENDBRANCH  17  18
ENDBRANCH  16  17
ENDBRANCH   1  16
TORSDOF 17
ENDMDL
MODEL 2
REMARK VINA RESULT:     -10.7      2.315      3.625
REMARK SMILES Cc1ncnc(OCCC(=O)OCCOC(=O)c2ccc(-c3c4nc(c(-c5cc(S(=O)(=O)[O-])ccc5F)c5ccc([nH]5)c(-c5cc(S(=O)(=O)[O-])ccc5F)c5nc(c(-c6cc(S(=O)(=O)[O-])ccc6F)c6ccc3[nH]6)C=C5)C=C4)cc2)c1C
REMARK SMILES IDX 13 1 12 2 10 3 11 4 9 5 8 6 7 7 6 8 1 9 2 10 3 11 81 12 4 13
REMARK SMILES IDX 82 14 5 15 14 16 15 17 16 18 17 19 18 20 19 21 80 22 20 23
REMARK SMILES IDX 79 24 21 25 22 26 23 27 73 28 24 29 78 30 72 31 74 32 25 33
REMARK SMILES IDX 77 34 71 35 70 36 26 38 58 39 38 40 57 41 39 42 42 43 56 44
REMARK SMILES IDX 75 45 40 46 41 47 55 49 76 50 43 51 27 52 28 53 36 54 29 55
REMARK SMILES IDX 35 56 37 57 34 58 30 59 31 60 32 61 33 62 59 63 60 64 68 65
REMARK SMILES IDX 61 66 67 67 69 68 66 69 62 70 63 71 64 72 65 73 44 74 45 75
REMARK SMILES IDX 53 76 46 77 52 78 54 79 51 80 47 81 48 82 49 83 50 84
REMARK H PARENT 74 37 42 48
REMARK Flexibility Score: inf
ROOT
ATOM      1  C   UNL A   1      31.859  28.281  27.020  1.00  0.00     0.274 C 
ENDROOT
BRANCH   1   2
ATOM      2  O   UNL A   1      32.016  27.653  25.734  1.00  0.00    -0.462 OA
BRANCH   2   3
ATOM      3  C   UNL A   1      31.699  26.337  25.659  1.00  0.00     0.309 C 
ATOM      4  O   UNL A   1      32.506  25.425  25.531  1.00  0.00    -0.252 OA
BRANCH   3   5
ATOM      5  C   UNL A   1      30.207  26.116  25.670  1.00  0.00     0.164 C 
BRANCH   5   6
ATOM      6  C   UNL A   1      29.625  25.861  24.287  1.00  0.00     0.243 C 
BRANCH   6   7
ATOM      7  O   UNL A   1      30.015  26.814  23.286  1.00  0.00    -0.477 OA
BRANCH   7   8
ATOM      8  C   UNL A   1      29.161  27.870  23.122  1.00  0.00     0.219 A 
ATOM      9  C   UNL A   1      28.788  31.408  21.901  1.00  0.00     0.067 C 
ATOM     10  C   UNL A   1      28.569  30.054  22.511  1.00  0.00     0.047 A 
ATOM     11  N   UNL A   1      27.286  29.802  22.861  1.00  0.00    -0.241 NA
ATOM     12  C   UNL A   1      29.589  29.126  22.703  1.00  0.00     0.032 A 
ATOM     13  C   UNL A   1      27.027  28.590  23.364  1.00  0.00     0.226 A 
ATOM     14  C   UNL A   1      31.029  29.433  22.453  1.00  0.00     0.052 C 
ATOM     15  N   UNL A   1      27.900  27.588  23.490  1.00  0.00    -0.202 NA
ENDBRANCH   7   8
ENDBRANCH   6   7
ENDBRANCH   5   6
ENDBRANCH   3   5
ENDBRANCH   2   3
ENDBRANCH   1   2
BRANCH   1  16
ATOM     16  C   UNL A   1      31.751  29.794  26.884  1.00  0.00     0.275 C 
BRANCH  16  17
ATOM     17  O   UNL A   1      33.031  30.346  26.542  1.00  0.00    -0.458 OA
BRANCH  17  18
ATOM     18  C   UNL A   1      33.409  31.431  27.250  1.00  0.00     0.338 C 
ATOM     19  O   UNL A   1      32.799  32.486  27.364  1.00  0.00    -0.246 OA
BRANCH  18  20
ATOM     20  C   UNL A   1      34.757  31.213  27.794  1.00  0.00     0.060 A 
ATOM     21  C   UNL A   1      35.667  32.264  27.971  1.00  0.00     0.016 A 
ATOM     22  C   UNL A   1      35.100  29.906  28.146  1.00  0.00     0.016 A 
ATOM     23  C   UNL A   1      36.922  32.000  28.524  1.00  0.00     0.010 A 
ATOM     24  C   UNL A   1      36.334  29.654  28.734  1.00  0.00     0.010 A 
ATOM     25  C   UNL A   1      37.248  30.699  28.937  1.00  0.00    -0.014 A 
BRANCH  25  26
ATOM     26  C   UNL A   1      38.486  30.403  29.693  1.00  0.00     0.031 A 
ATOM     27  C   UNL A   1      39.496  29.443  29.144  1.00  0.00     0.074 A 
ATOM     28  C   UNL A   1      38.608  30.912  30.934  1.00  0.00     0.049 A 
ATOM     29  N   UNL A   1      40.513  28.882  29.742  1.00  0.00    -0.248 NA
ATOM     30  C   UNL A   1      39.327  29.047  27.739  1.00  0.00     0.031 C 
ATOM     31  C   UNL A   1      37.670  31.855  31.551  1.00  0.00     0.029 A 
ATOM     32  N   UNL A   1      39.544  30.689  31.908  1.00  0.00    -0.354 N 
ATOM     33  C   UNL A   1      41.104  28.056  28.792  1.00  0.00     0.074 A 
ATOM     34  C   UNL A   1      40.315  28.175  27.584  1.00  0.00     0.031 C 
ATOM     35  C   UNL A   1      38.077  32.126  32.799  1.00  0.00     0.029 A 
ATOM     36  C   UNL A   1      39.269  31.339  33.088  1.00  0.00     0.049 A 
ATOM     37  H   UNL A   1      40.335  30.119  31.776  1.00  0.00     0.167 HD
ATOM     38  C   UNL A   1      42.200  27.269  28.930  1.00  0.00     0.034 A 
ATOM     39  C   UNL A   1      39.891  31.281  34.281  1.00  0.00     0.034 A 
ATOM     40  C   UNL A   1      42.945  27.154  30.161  1.00  0.00     0.049 A 
ATOM     41  C   UNL A   1      41.085  30.381  34.419  1.00  0.00     0.074 A 
ATOM     42  C   UNL A   1      44.051  26.368  30.437  1.00  0.00     0.029 A 
ATOM     43  N   UNL A   1      42.652  27.849  31.330  1.00  0.00    -0.354 N 
ATOM     44  N   UNL A   1      41.608  29.570  33.529  1.00  0.00    -0.248 NA
ATOM     45  C   UNL A   1      41.773  30.388  35.714  1.00  0.00     0.031 C 
ATOM     46  C   UNL A   1      44.400  26.558  31.780  1.00  0.00     0.029 A 
ATOM     47  C   UNL A   1      43.550  27.506  32.329  1.00  0.00     0.049 A 
ATOM     48  H   UNL A   1      41.914  28.492  31.433  1.00  0.00     0.167 HD
ATOM     49  C   UNL A   1      42.700  28.978  34.151  1.00  0.00     0.074 A 
ATOM     50  C   UNL A   1      42.762  29.533  35.491  1.00  0.00     0.031 C 
ATOM     51  C   UNL A   1      43.574  28.065  33.659  1.00  0.00     0.034 A 
BRANCH  38  52
ATOM     52  C   UNL A   1      42.621  26.448  27.736  1.00  0.00     0.023 A 
ATOM     53  C   UNL A   1      42.138  25.143  27.532  1.00  0.00     0.031 A 
ATOM     54  C   UNL A   1      43.526  26.969  26.794  1.00  0.00     0.131 A 
ATOM     55  C   UNL A   1      42.603  24.385  26.446  1.00  0.00     0.055 A 
ATOM     56  C   UNL A   1      43.935  26.233  25.679  1.00  0.00     0.041 A 
ATOM     57  F   UNL A   1      44.037  28.201  26.946  1.00  0.00    -0.206 F 
ATOM     58  C   UNL A   1      43.481  24.929  25.505  1.00  0.00     0.022 A 
BRANCH  55  59
ATOM     59  S   UNL A   1      42.112  22.642  26.322  1.00  0.00     0.124 S 
ATOM     60  O   UNL A   1      42.627  22.288  25.001  1.00  0.00    -0.237 OA
ATOM     61  O   UNL A   1      42.798  22.036  27.457  1.00  0.00    -0.237 OA
ATOM     62  O   UNL A   1      40.655  22.687  26.426  1.00  0.00    -0.744 OA
ENDBRANCH  55  59
ENDBRANCH  38  52
BRANCH  39  63
ATOM     63  C   UNL A   1      39.383  32.098  35.415  1.00  0.00     0.023 A 
ATOM     64  C   UNL A   1      38.587  31.517  36.412  1.00  0.00     0.031 A 
ATOM     65  C   UNL A   1      39.741  33.450  35.553  1.00  0.00     0.131 A 
ATOM     66  C   UNL A   1      38.172  32.286  37.509  1.00  0.00     0.055 A 
ATOM     67  C   UNL A   1      39.351  34.204  36.661  1.00  0.00     0.041 A 
ATOM     68  F   UNL A   1      40.517  34.044  34.633  1.00  0.00    -0.206 F 
ATOM     69  C   UNL A   1      38.560  33.622  37.648  1.00  0.00     0.022 A 
BRANCH  66  70
ATOM     70  S   UNL A   1      37.115  31.512  38.764  1.00  0.00     0.124 S 
ATOM     71  O   UNL A   1      37.949  31.610  39.957  1.00  0.00    -0.237 OA
ATOM     72  O   UNL A   1      35.933  32.366  38.736  1.00  0.00    -0.237 OA
ATOM     73  O   UNL A   1      36.914  30.158  38.251  1.00  0.00    -0.744 OA
ENDBRANCH  66  70
ENDBRANCH  39  63
BRANCH  51  74
ATOM     74  C   UNL A   1      44.686  27.641  34.576  1.00  0.00     0.023 A 
ATOM     75  C   UNL A   1      44.574  26.498  35.384  1.00  0.00     0.031 A 
ATOM     76  C   UNL A   1      45.872  28.393  34.638  1.00  0.00     0.131 A 
ATOM     77  C   UNL A   1      45.618  26.160  36.256  1.00  0.00     0.055 A 
ATOM     78  C   UNL A   1      46.925  28.028  35.475  1.00  0.00     0.041 A 
ATOM     79  F   UNL A   1      46.022  29.493  33.884  1.00  0.00    -0.206 F 
ATOM     80  C   UNL A   1      46.798  26.910  36.297  1.00  0.00     0.022 A 
BRANCH  77  81
ATOM     81  S   UNL A   1      45.395  24.754  37.378  1.00  0.00     0.124 S 
ATOM     82  O   UNL A   1      44.715  23.789  36.519  1.00  0.00    -0.237 OA
ATOM     83  O   UNL A   1      46.769  24.423  37.745  1.00  0.00    -0.237 OA
ATOM     84  O   UNL A   1      44.582  25.304  38.460  1.00  0.00    -0.744 OA
ENDBRANCH  77  81
ENDBRANCH  51  74
ENDBRANCH  25  26
ENDBRANCH  18  20
ENDBRANCH  17  18
ENDBRANCH  16  17
ENDBRANCH   1  16
TORSDOF 17
ENDMDL
MODEL 3
REMARK VINA RESULT:     -10.6      5.237     10.401
REMARK SMILES Cc1ncnc(OCCC(=O)OCCOC(=O)c2ccc(-c3c4nc(c(-c5cc(S(=O)(=O)[O-])ccc5F)c5ccc([nH]5)c(-c5cc(S(=O)(=O)[O-])ccc5F)c5nc(c(-c6cc(S(=O)(=O)[O-])ccc6F)c6ccc3[nH]6)C=C5)C=C4)cc2)c1C
REMARK SMILES IDX 13 1 12 2 10 3 11 4 9 5 8 6 7 7 6 8 1 9 2 10 3 11 81 12 4 13
REMARK SMILES IDX 82 14 5 15 14 16 15 17 16 18 17 19 18 20 19 21 80 22 20 23
REMARK SMILES IDX 79 24 21 25 22 26 23 27 73 28 24 29 78 30 72 31 74 32 25 33
REMARK SMILES IDX 77 34 71 35 70 36 26 38 58 39 38 40 57 41 39 42 42 43 56 44
REMARK SMILES IDX 75 45 40 46 41 47 55 49 76 50 43 51 27 52 28 53 36 54 29 55
REMARK SMILES IDX 35 56 37 57 34 58 30 59 31 60 32 61 33 62 59 63 60 64 68 65
REMARK SMILES IDX 61 66 67 67 69 68 66 69 62 70 63 71 64 72 65 73 44 74 45 75
REMARK SMILES IDX 53 76 46 77 52 78 54 79 51 80 47 81 48 82 49 83 50 84
REMARK H PARENT 74 37 42 48
REMARK Flexibility Score: inf
ROOT
ATOM      1  C   UNL A   1      35.117  20.776  25.007  1.00  0.00     0.274 C 
ENDROOT
BRANCH   1   2
ATOM      2  O   UNL A   1      34.074  21.768  24.990  1.00  0.00    -0.462 OA
BRANCH   2   3
ATOM      3  C   UNL A   1      33.568  22.138  26.192  1.00  0.00     0.309 C 
ATOM      4  O   UNL A   1      33.580  21.447  27.202  1.00  0.00    -0.252 OA
BRANCH   3   5
ATOM      5  C   UNL A   1      32.904  23.491  26.130  1.00  0.00     0.164 C 
BRANCH   5   6
ATOM      6  C   UNL A   1      31.809  23.577  25.076  1.00  0.00     0.243 C 
BRANCH   6   7
ATOM      7  O   UNL A   1      31.433  24.913  24.708  1.00  0.00    -0.477 OA
BRANCH   7   8
ATOM      8  C   UNL A   1      32.123  25.444  23.653  1.00  0.00     0.219 A 
ATOM      9  C   UNL A   1      34.069  28.398  22.377  1.00  0.00     0.067 C 
ATOM     10  C   UNL A   1      33.335  27.096  22.516  1.00  0.00     0.047 A 
ATOM     11  N   UNL A   1      33.469  26.266  21.456  1.00  0.00    -0.241 NA
ATOM     12  C   UNL A   1      32.583  26.756  23.637  1.00  0.00     0.032 A 
ATOM     13  C   UNL A   1      32.876  25.070  21.549  1.00  0.00     0.226 A 
ATOM     14  C   UNL A   1      32.309  27.709  24.755  1.00  0.00     0.052 C 
ATOM     15  N   UNL A   1      32.225  24.597  22.613  1.00  0.00    -0.202 NA
ENDBRANCH   7   8
ENDBRANCH   6   7
ENDBRANCH   5   6
ENDBRANCH   3   5
ENDBRANCH   2   3
ENDBRANCH   1   2
BRANCH   1  16
ATOM     16  C   UNL A   1      36.468  21.392  24.672  1.00  0.00     0.275 C 
BRANCH  16  17
ATOM     17  O   UNL A   1      37.178  21.698  25.882  1.00  0.00    -0.458 OA
BRANCH  17  18
ATOM     18  C   UNL A   1      38.507  21.464  25.854  1.00  0.00     0.338 C 
ATOM     19  O   UNL A   1      39.071  20.456  25.448  1.00  0.00    -0.246 OA
BRANCH  18  20
ATOM     20  C   UNL A   1      39.212  22.574  26.512  1.00  0.00     0.060 A 
ATOM     21  C   UNL A   1      40.297  22.362  27.372  1.00  0.00     0.016 A 
ATOM     22  C   UNL A   1      38.764  23.868  26.234  1.00  0.00     0.016 A 
ATOM     23  C   UNL A   1      40.947  23.459  27.941  1.00  0.00     0.010 A 
ATOM     24  C   UNL A   1      39.439  24.958  26.769  1.00  0.00     0.010 A 
ATOM     25  C   UNL A   1      40.541  24.762  27.616  1.00  0.00    -0.014 A 
BRANCH  25  26
ATOM     26  C   UNL A   1      41.310  25.953  28.044  1.00  0.00     0.031 A 
ATOM     27  C   UNL A   1      40.641  27.047  28.819  1.00  0.00     0.074 A 
ATOM     28  C   UNL A   1      42.575  26.083  27.602  1.00  0.00     0.049 A 
ATOM     29  N   UNL A   1      41.068  28.253  29.083  1.00  0.00    -0.248 NA
ATOM     30  C   UNL A   1      39.305  26.747  29.353  1.00  0.00     0.031 C 
ATOM     31  C   UNL A   1      43.306  25.069  26.838  1.00  0.00     0.029 A 
ATOM     32  N   UNL A   1      43.457  27.126  27.699  1.00  0.00    -0.354 N 
ATOM     33  C   UNL A   1      40.050  28.866  29.805  1.00  0.00     0.074 A 
ATOM     34  C   UNL A   1      38.976  27.901  29.919  1.00  0.00     0.031 C 
ATOM     35  C   UNL A   1      44.524  25.540  26.534  1.00  0.00     0.029 A 
ATOM     36  C   UNL A   1      44.640  26.905  27.033  1.00  0.00     0.049 A 
ATOM     37  H   UNL A   1      43.264  27.952  28.197  1.00  0.00     0.167 HD
ATOM     38  C   UNL A   1      40.024  30.123  30.316  1.00  0.00     0.034 A 
ATOM     39  C   UNL A   1      45.688  27.723  26.820  1.00  0.00     0.034 A 
ATOM     40  C   UNL A   1      41.104  31.067  30.157  1.00  0.00     0.049 A 
ATOM     41  C   UNL A   1      45.624  29.118  27.369  1.00  0.00     0.074 A 
ATOM     42  C   UNL A   1      41.184  32.376  30.598  1.00  0.00     0.029 A 
ATOM     43  N   UNL A   1      42.299  30.798  29.497  1.00  0.00    -0.354 N 
ATOM     44  N   UNL A   1      44.639  29.703  28.011  1.00  0.00    -0.248 NA
ATOM     45  C   UNL A   1      46.807  29.963  27.170  1.00  0.00     0.031 C 
ATOM     46  C   UNL A   1      42.407  32.909  30.171  1.00  0.00     0.029 A 
ATOM     47  C   UNL A   1      43.117  31.916  29.514  1.00  0.00     0.049 A 
ATOM     48  H   UNL A   1      42.529  29.937  29.080  1.00  0.00     0.167 HD
ATOM     49  C   UNL A   1      45.089  30.984  28.309  1.00  0.00     0.074 A 
ATOM     50  C   UNL A   1      46.437  31.081  27.780  1.00  0.00     0.031 C 
ATOM     51  C   UNL A   1      44.450  31.985  28.963  1.00  0.00     0.034 A 
BRANCH  38  52
ATOM     52  C   UNL A   1      38.775  30.550  31.048  1.00  0.00     0.023 A 
ATOM     53  C   UNL A   1      37.702  31.163  30.377  1.00  0.00     0.031 A 
ATOM     54  C   UNL A   1      38.658  30.354  32.435  1.00  0.00     0.131 A 
ATOM     55  C   UNL A   1      36.584  31.607  31.101  1.00  0.00     0.055 A 
ATOM     56  C   UNL A   1      37.515  30.739  33.140  1.00  0.00     0.041 A 
ATOM     57  F   UNL A   1      39.658  29.792  33.133  1.00  0.00    -0.206 F 
ATOM     58  C   UNL A   1      36.473  31.378  32.475  1.00  0.00     0.022 A 
BRANCH  55  59
ATOM     59  S   UNL A   1      35.308  32.566  30.239  1.00  0.00     0.124 S 
ATOM     60  O   UNL A   1      34.268  32.655  31.262  1.00  0.00    -0.237 OA
ATOM     61  O   UNL A   1      36.001  33.809  29.925  1.00  0.00    -0.237 OA
ATOM     62  O   UNL A   1      34.971  31.732  29.086  1.00  0.00    -0.744 OA
ENDBRANCH  55  59
ENDBRANCH  38  52
BRANCH  39  63
ATOM     63  C   UNL A   1      46.862  27.228  26.054  1.00  0.00     0.023 A 
ATOM     64  C   UNL A   1      47.049  27.599  24.715  1.00  0.00     0.031 A 
ATOM     65  C   UNL A   1      47.848  26.436  26.668  1.00  0.00     0.131 A 
ATOM     66  C   UNL A   1      48.197  27.178  24.028  1.00  0.00     0.055 A 
ATOM     67  C   UNL A   1      49.003  26.043  25.990  1.00  0.00     0.041 A 
ATOM     68  F   UNL A   1      47.722  26.071  27.954  1.00  0.00    -0.206 F 
ATOM     69  C   UNL A   1      49.182  26.414  24.660  1.00  0.00     0.022 A 
BRANCH  66  70
ATOM     70  S   UNL A   1      48.390  27.648  22.287  1.00  0.00     0.124 S 
ATOM     71  O   UNL A   1      47.179  28.428  22.053  1.00  0.00    -0.237 OA
ATOM     72  O   UNL A   1      49.642  28.397  22.310  1.00  0.00    -0.237 OA
ATOM     73  O   UNL A   1      48.450  26.363  21.592  1.00  0.00    -0.744 OA
ENDBRANCH  66  70
ENDBRANCH  39  63
BRANCH  51  74
ATOM     74  C   UNL A   1      45.225  33.257  29.164  1.00  0.00     0.023 A 
ATOM     75  C   UNL A   1      45.040  34.367  28.324  1.00  0.00     0.031 A 
ATOM     76  C   UNL A   1      46.158  33.354  30.210  1.00  0.00     0.131 A 
ATOM     77  C   UNL A   1      45.813  35.520  28.520  1.00  0.00     0.055 A 
ATOM     78  C   UNL A   1      46.893  34.518  30.427  1.00  0.00     0.041 A 
ATOM     79  F   UNL A   1      46.367  32.317  31.036  1.00  0.00    -0.206 F 
ATOM     80  C   UNL A   1      46.728  35.608  29.574  1.00  0.00     0.022 A 
BRANCH  77  81
ATOM     81  S   UNL A   1      45.645  36.890  27.346  1.00  0.00     0.124 S 
ATOM     82  O   UNL A   1      45.724  38.052  28.226  1.00  0.00    -0.237 OA
ATOM     83  O   UNL A   1      46.784  36.685  26.456  1.00  0.00    -0.237 OA
ATOM     84  O   UNL A   1      44.336  36.661  26.736  1.00  0.00    -0.744 OA
ENDBRANCH  77  81
ENDBRANCH  51  74
ENDBRANCH  25  26
ENDBRANCH  18  20
ENDBRANCH  17  18
ENDBRANCH  16  17
ENDBRANCH   1  16
TORSDOF 17
ENDMDL
