MODEL 1
REMARK VINA RESULT:     -12.7      0.000      0.000
REMARK SMILES NS(=O)(=O)c1ccc(-n2ccnc2-c2ccc(O)c(C(=O)OCCOC(=O)c3ccc(-c4c5nc(c(-c6cc(S(=O)(=O)[O-])ccc6F)c6ccc([nH]6)c(-c6cc(S(=O)(=O)[O-])ccc6F)c6nc(c(-c7cc(S(=O)(=O)[O-])ccc7F)c7ccc4[nH]7)C=C6)C=C5)cc3)c2)cc1
REMARK SMILES IDX 23 1 22 2 20 3 21 4 19 5 14 6 15 7 91 8 16 9 17 10 13 11
REMARK SMILES IDX 9 12 10 13 11 14 12 15 8 16 5 17 6 18 93 19 7 20 92 21 2 22
REMARK SMILES IDX 3 23 4 24 1 25 18 28 24 30 25 31 26 32 27 33 28 34 29 35
REMARK SMILES IDX 90 36 30 37 89 38 31 39 32 40 33 41 83 42 34 43 88 44 82 45
REMARK SMILES IDX 84 46 35 47 87 48 81 49 80 50 36 52 68 53 48 54 67 55 49 56
REMARK SMILES IDX 52 57 66 58 85 59 50 60 51 61 65 63 86 64 53 65 37 66 38 67
REMARK SMILES IDX 46 68 39 69 45 70 47 71 44 72 40 73 41 74 42 75 43 76 69 77
REMARK SMILES IDX 70 78 78 79 71 80 77 81 79 82 76 83 72 84 73 85 74 86 75 87
REMARK SMILES IDX 54 88 55 89 63 90 56 91 62 92 64 93 61 94 57 95 58 96 59 97
REMARK SMILES IDX 60 98
REMARK H PARENT 1 26 1 27 18 29 84 51 52 62
REMARK Flexibility Score: inf
ROOT
ATOM      1  C   UNL A   1      34.221  29.429  27.056  1.00  0.00     0.275 C 
ENDROOT
BRANCH   1   2
ATOM      2  O   UNL A   1      32.836  29.094  27.261  1.00  0.00    -0.458 OA
BRANCH   2   3
ATOM      3  C   UNL A   1      31.971  29.466  26.282  1.00  0.00     0.342 C 
ATOM      4  O   UNL A   1      31.668  30.612  25.976  1.00  0.00    -0.246 OA
BRANCH   3   5
ATOM      5  C   UNL A   1      31.498  28.293  25.503  1.00  0.00     0.102 A 
ATOM      6  C   UNL A   1      30.827  25.948  25.421  1.00  0.00     0.019 A 
ATOM      7  C   UNL A   1      30.567  26.073  24.055  1.00  0.00     0.016 A 
ATOM      8  C   UNL A   1      31.364  27.044  26.116  1.00  0.00     0.031 A 
ATOM      9  C   UNL A   1      30.764  27.301  23.415  1.00  0.00     0.048 A 
ATOM     10  C   UNL A   1      31.200  28.412  24.142  1.00  0.00     0.130 A 
BRANCH   6  11
ATOM     11  C   UNL A   1      30.497  24.717  26.154  1.00  0.00     0.144 A 
ATOM     12  N   UNL A   1      31.264  23.552  26.101  1.00  0.00    -0.300 N 
ATOM     13  C   UNL A   1      30.482  22.542  26.613  1.00  0.00     0.113 A 
ATOM     14  C   UNL A   1      29.376  23.170  27.133  1.00  0.00     0.132 A 
ATOM     15  N   UNL A   1      29.411  24.515  26.878  1.00  0.00    -0.236 NA
BRANCH  12  16
ATOM     16  C   UNL A   1      32.583  23.410  25.596  1.00  0.00     0.047 A 
ATOM     17  C   UNL A   1      35.140  22.888  24.636  1.00  0.00     0.082 A 
ATOM     18  C   UNL A   1      34.056  22.844  23.757  1.00  0.00     0.024 A 
ATOM     19  C   UNL A   1      34.958  23.214  25.985  1.00  0.00     0.024 A 
ATOM     20  C   UNL A   1      32.774  23.096  24.240  1.00  0.00     0.028 A 
ATOM     21  C   UNL A   1      33.675  23.498  26.465  1.00  0.00     0.028 A 
BRANCH  17  22
ATOM     22  S   UNL A   1      36.756  22.576  23.994  1.00  0.00     0.238 S 
ATOM     23  O   UNL A   1      36.800  22.996  22.613  1.00  0.00    -0.207 OA
ATOM     24  O   UNL A   1      37.188  21.271  24.433  1.00  0.00    -0.207 OA
BRANCH  22  25
ATOM     25  N   UNL A   1      37.730  23.682  24.807  1.00  0.00    -0.225 NA
ATOM     26  H   UNL A   1      37.214  24.074  25.594  1.00  0.00     0.137 HD
ATOM     27  H   UNL A   1      37.997  24.432  24.169  1.00  0.00     0.137 HD
ENDBRANCH  22  25
ENDBRANCH  17  22
ENDBRANCH  12  16
ENDBRANCH   6  11
BRANCH  10  28
ATOM     28  O   UNL A   1      31.327  29.583  23.445  1.00  0.00    -0.507 OA
ATOM     29  H   UNL A   1      31.999  30.194  23.673  1.00  0.00     0.293 HD
ENDBRANCH  10  28
ENDBRANCH   3   5
ENDBRANCH   2   3
ENDBRANCH   1   2
BRANCH   1  30
ATOM     30  C   UNL A   1      34.601  30.698  27.807  1.00  0.00     0.275 C 
BRANCH  30  31
ATOM     31  O   UNL A   1      36.015  30.794  27.969  1.00  0.00    -0.458 OA
BRANCH  31  32
ATOM     32  C   UNL A   1      36.480  30.238  29.111  1.00  0.00     0.338 C 
ATOM     33  O   UNL A   1      36.220  30.580  30.252  1.00  0.00    -0.246 OA
BRANCH  32  34
ATOM     34  C   UNL A   1      37.528  29.275  28.789  1.00  0.00     0.060 A 
ATOM     35  C   UNL A   1      37.971  28.439  29.819  1.00  0.00     0.016 A 
ATOM     36  C   UNL A   1      38.261  29.471  27.611  1.00  0.00     0.016 A 
ATOM     37  C   UNL A   1      39.255  27.944  29.749  1.00  0.00     0.010 A 
ATOM     38  C   UNL A   1      39.543  28.992  27.553  1.00  0.00     0.010 A 
ATOM     39  C   UNL A   1      40.049  28.305  28.656  1.00  0.00    -0.014 A 
BRANCH  39  40
ATOM     40  C   UNL A   1      41.437  27.897  28.642  1.00  0.00     0.031 A 
ATOM     41  C   UNL A   1      41.670  26.594  27.977  1.00  0.00     0.074 A 
ATOM     42  C   UNL A   1      42.411  28.745  29.023  1.00  0.00     0.049 A 
ATOM     43  N   UNL A   1      42.278  25.553  28.435  1.00  0.00    -0.248 NA
ATOM     44  C   UNL A   1      41.022  26.379  26.670  1.00  0.00     0.031 C 
ATOM     45  C   UNL A   1      42.276  30.159  29.393  1.00  0.00     0.029 A 
ATOM     46  N   UNL A   1      43.757  28.560  29.006  1.00  0.00    -0.354 N 
ATOM     47  C   UNL A   1      42.258  24.618  27.406  1.00  0.00     0.074 A 
ATOM     48  C   UNL A   1      41.328  25.108  26.428  1.00  0.00     0.031 C 
ATOM     49  C   UNL A   1      43.488  30.752  29.315  1.00  0.00     0.029 A 
ATOM     50  C   UNL A   1      44.488  29.741  29.011  1.00  0.00     0.049 A 
ATOM     51  H   UNL A   1      44.176  27.668  28.991  1.00  0.00     0.167 HD
ATOM     52  C   UNL A   1      43.167  23.610  27.338  1.00  0.00     0.034 A 
ATOM     53  C   UNL A   1      45.798  29.885  28.678  1.00  0.00     0.034 A 
ATOM     54  C   UNL A   1      43.769  23.367  28.627  1.00  0.00     0.049 A 
ATOM     55  C   UNL A   1      46.421  28.539  28.766  1.00  0.00     0.074 A 
ATOM     56  C   UNL A   1      43.266  22.993  29.858  1.00  0.00     0.029 A 
ATOM     57  N   UNL A   1      45.019  23.885  28.880  1.00  0.00    -0.354 N 
ATOM     58  N   UNL A   1      46.543  27.872  29.882  1.00  0.00    -0.248 NA
ATOM     59  C   UNL A   1      46.467  27.725  27.559  1.00  0.00     0.031 C 
ATOM     60  C   UNL A   1      44.006  23.756  30.806  1.00  0.00     0.029 A 
ATOM     61  C   UNL A   1      44.964  24.498  30.110  1.00  0.00     0.049 A 
ATOM     62  H   UNL A   1      45.806  23.827  28.291  1.00  0.00     0.167 HD
ATOM     63  C   UNL A   1      46.251  26.556  29.553  1.00  0.00     0.074 A 
ATOM     64  C   UNL A   1      46.318  26.510  28.095  1.00  0.00     0.031 C 
ATOM     65  C   UNL A   1      45.704  25.697  30.465  1.00  0.00     0.034 A 
BRANCH  52  66
ATOM     66  C   UNL A   1      43.729  23.061  26.048  1.00  0.00     0.023 A 
ATOM     67  C   UNL A   1      43.694  21.668  25.867  1.00  0.00     0.031 A 
ATOM     68  C   UNL A   1      44.526  23.780  25.125  1.00  0.00     0.131 A 
ATOM     69  C   UNL A   1      44.481  21.048  24.881  1.00  0.00     0.055 A 
ATOM     70  C   UNL A   1      45.248  23.166  24.100  1.00  0.00     0.041 A 
ATOM     71  F   UNL A   1      44.735  25.100  25.216  1.00  0.00    -0.206 F 
ATOM     72  C   UNL A   1      45.255  21.789  23.991  1.00  0.00     0.022 A 
BRANCH  69  73
ATOM     73  S   UNL A   1      44.622  19.243  24.902  1.00  0.00     0.124 S 
ATOM     74  O   UNL A   1      44.458  18.914  23.491  1.00  0.00    -0.237 OA
ATOM     75  O   UNL A   1      45.959  19.055  25.458  1.00  0.00    -0.237 OA
ATOM     76  O   UNL A   1      43.521  18.828  25.769  1.00  0.00    -0.744 OA
ENDBRANCH  69  73
ENDBRANCH  52  66
BRANCH  53  77
ATOM     77  C   UNL A   1      46.396  31.036  27.949  1.00  0.00     0.023 A 
ATOM     78  C   UNL A   1      45.668  31.827  27.039  1.00  0.00     0.031 A 
ATOM     79  C   UNL A   1      47.681  31.507  28.310  1.00  0.00     0.131 A 
ATOM     80  C   UNL A   1      46.231  33.017  26.521  1.00  0.00     0.055 A 
ATOM     81  C   UNL A   1      48.239  32.674  27.785  1.00  0.00     0.041 A 
ATOM     82  F   UNL A   1      48.410  30.888  29.252  1.00  0.00    -0.206 F 
ATOM     83  C   UNL A   1      47.511  33.439  26.890  1.00  0.00     0.022 A 
BRANCH  80  84
ATOM     84  S   UNL A   1      45.260  34.090  25.416  1.00  0.00     0.124 S 
ATOM     85  O   UNL A   1      44.510  33.124  24.624  1.00  0.00    -0.237 OA
ATOM     86  O   UNL A   1      44.491  34.895  26.358  1.00  0.00    -0.237 OA
ATOM     87  O   UNL A   1      46.281  34.831  24.674  1.00  0.00    -0.744 OA
ENDBRANCH  80  84
ENDBRANCH  53  77
BRANCH  65  88
ATOM     88  C   UNL A   1      45.649  26.126  31.921  1.00  0.00     0.023 A 
ATOM     89  C   UNL A   1      44.521  26.711  32.544  1.00  0.00     0.031 A 
ATOM     90  C   UNL A   1      46.740  25.790  32.741  1.00  0.00     0.131 A 
ATOM     91  C   UNL A   1      44.523  26.945  33.934  1.00  0.00     0.055 A 
ATOM     92  C   UNL A   1      46.729  26.003  34.119  1.00  0.00     0.041 A 
ATOM     93  F   UNL A   1      47.830  25.203  32.216  1.00  0.00    -0.206 F 
ATOM     94  C   UNL A   1      45.621  26.585  34.721  1.00  0.00     0.022 A 
BRANCH  91  95
ATOM     95  S   UNL A   1      43.095  27.734  34.748  1.00  0.00     0.124 S 
ATOM     96  O   UNL A   1      43.175  27.255  36.123  1.00  0.00    -0.237 OA
ATOM     97  O   UNL A   1      43.363  29.156  34.547  1.00  0.00    -0.237 OA
ATOM     98  O   UNL A   1      41.949  27.222  33.993  1.00  0.00    -0.744 OA
ENDBRANCH  91  95
ENDBRANCH  65  88
ENDBRANCH  39  40
ENDBRANCH  32  34
ENDBRANCH  31  32
ENDBRANCH  30  31
ENDBRANCH   1  30
TORSDOF 19
ENDMDL
MODEL 2
REMARK VINA RESULT:     -12.6      2.238      6.841
REMARK SMILES NS(=O)(=O)c1ccc(-n2ccnc2-c2ccc(O)c(C(=O)OCCOC(=O)c3ccc(-c4c5nc(c(-c6cc(S(=O)(=O)[O-])ccc6F)c6ccc([nH]6)c(-c6cc(S(=O)(=O)[O-])ccc6F)c6nc(c(-c7cc(S(=O)(=O)[O-])ccc7F)c7ccc4[nH]7)C=C6)C=C5)cc3)c2)cc1
REMARK SMILES IDX 23 1 22 2 20 3 21 4 19 5 14 6 15 7 91 8 16 9 17 10 13 11
REMARK SMILES IDX 9 12 10 13 11 14 12 15 8 16 5 17 6 18 93 19 7 20 92 21 2 22
REMARK SMILES IDX 3 23 4 24 1 25 18 28 24 30 25 31 26 32 27 33 28 34 29 35
REMARK SMILES IDX 90 36 30 37 89 38 31 39 32 40 33 41 83 42 34 43 88 44 82 45
REMARK SMILES IDX 84 46 35 47 87 48 81 49 80 50 36 52 68 53 48 54 67 55 49 56
REMARK SMILES IDX 52 57 66 58 85 59 50 60 51 61 65 63 86 64 53 65 37 66 38 67
REMARK SMILES IDX 46 68 39 69 45 70 47 71 44 72 40 73 41 74 42 75 43 76 69 77
REMARK SMILES IDX 70 78 78 79 71 80 77 81 79 82 76 83 72 84 73 85 74 86 75 87
REMARK SMILES IDX 54 88 55 89 63 90 56 91 62 92 64 93 61 94 57 95 58 96 59 97
REMARK SMILES IDX 60 98
REMARK H PARENT 1 26 1 27 18 29 84 51 52 62
REMARK Flexibility Score: inf
ROOT
ATOM      1  C   UNL A   1      32.782  30.301  26.313  1.00  0.00     0.275 C 
ENDROOT
BRANCH   1   2
ATOM      2  O   UNL A   1      33.427  29.138  25.762  1.00  0.00    -0.458 OA
BRANCH   2   3
ATOM      3  C   UNL A   1      33.246  28.917  24.433  1.00  0.00     0.342 C 
ATOM      4  O   UNL A   1      33.980  29.289  23.527  1.00  0.00    -0.246 OA
BRANCH   3   5
ATOM      5  C   UNL A   1      32.077  28.035  24.186  1.00  0.00     0.102 A 
ATOM      6  C   UNL A   1      30.723  26.103  24.811  1.00  0.00     0.019 A 
ATOM      7  C   UNL A   1      29.849  26.380  23.758  1.00  0.00     0.016 A 
ATOM      8  C   UNL A   1      31.873  26.894  24.966  1.00  0.00     0.031 A 
ATOM      9  C   UNL A   1      30.080  27.481  22.927  1.00  0.00     0.048 A 
ATOM     10  C   UNL A   1      31.173  28.319  23.158  1.00  0.00     0.130 A 
BRANCH   6  11
ATOM     11  C   UNL A   1      30.434  25.045  25.788  1.00  0.00     0.144 A 
ATOM     12  N   UNL A   1      31.220  23.902  25.951  1.00  0.00    -0.300 N 
ATOM     13  C   UNL A   1      30.471  23.009  26.682  1.00  0.00     0.113 A 
ATOM     14  C   UNL A   1      29.368  23.717  27.096  1.00  0.00     0.132 A 
ATOM     15  N   UNL A   1      29.372  24.982  26.571  1.00  0.00    -0.236 NA
BRANCH  12  16
ATOM     16  C   UNL A   1      32.527  23.676  25.446  1.00  0.00     0.047 A 
ATOM     17  C   UNL A   1      35.078  23.009  24.563  1.00  0.00     0.082 A 
ATOM     18  C   UNL A   1      33.970  22.639  23.798  1.00  0.00     0.024 A 
ATOM     19  C   UNL A   1      34.922  23.729  25.753  1.00  0.00     0.024 A 
ATOM     20  C   UNL A   1      32.691  22.965  24.245  1.00  0.00     0.028 A 
ATOM     21  C   UNL A   1      33.641  24.084  26.188  1.00  0.00     0.028 A 
BRANCH  17  22
ATOM     22  S   UNL A   1      36.688  22.593  23.964  1.00  0.00     0.238 S 
ATOM     23  O   UNL A   1      36.809  23.040  22.597  1.00  0.00    -0.207 OA
ATOM     24  O   UNL A   1      37.008  21.250  24.385  1.00  0.00    -0.207 OA
BRANCH  22  25
ATOM     25  N   UNL A   1      37.712  23.605  24.836  1.00  0.00    -0.225 NA
ATOM     26  H   UNL A   1      37.525  24.576  24.585  1.00  0.00     0.137 HD
ATOM     27  H   UNL A   1      38.682  23.378  24.614  1.00  0.00     0.137 HD
ENDBRANCH  22  25
ENDBRANCH  17  22
ENDBRANCH  12  16
ENDBRANCH   6  11
BRANCH  10  28
ATOM     28  O   UNL A   1      31.301  29.396  22.321  1.00  0.00    -0.507 OA
ATOM     29  H   UNL A   1      30.633  29.582  21.691  1.00  0.00     0.293 HD
ENDBRANCH  10  28
ENDBRANCH   3   5
ENDBRANCH   2   3
ENDBRANCH   1   2
BRANCH   1  30
ATOM     30  C   UNL A   1      33.568  30.865  27.490  1.00  0.00     0.275 C 
BRANCH  30  31
ATOM     31  O   UNL A   1      34.961  30.586  27.357  1.00  0.00    -0.458 OA
BRANCH  31  32
ATOM     32  C   UNL A   1      35.767  31.541  27.874  1.00  0.00     0.338 C 
ATOM     33  O   UNL A   1      35.820  32.714  27.546  1.00  0.00    -0.246 OA
BRANCH  32  34
ATOM     34  C   UNL A   1      36.743  30.920  28.764  1.00  0.00     0.060 A 
ATOM     35  C   UNL A   1      37.827  31.703  29.176  1.00  0.00     0.016 A 
ATOM     36  C   UNL A   1      36.741  29.523  28.869  1.00  0.00     0.016 A 
ATOM     37  C   UNL A   1      38.999  31.064  29.518  1.00  0.00     0.010 A 
ATOM     38  C   UNL A   1      37.912  28.891  29.194  1.00  0.00     0.010 A 
ATOM     39  C   UNL A   1      39.045  29.669  29.434  1.00  0.00    -0.014 A 
BRANCH  39  40
ATOM     40  C   UNL A   1      40.308  29.001  29.666  1.00  0.00     0.031 A 
ATOM     41  C   UNL A   1      40.668  28.884  31.098  1.00  0.00     0.074 A 
ATOM     42  C   UNL A   1      40.958  28.383  28.662  1.00  0.00     0.049 A 
ATOM     43  N   UNL A   1      41.753  29.251  31.689  1.00  0.00    -0.248 NA
ATOM     44  C   UNL A   1      39.619  28.407  32.019  1.00  0.00     0.031 C 
ATOM     45  C   UNL A   1      40.500  28.191  27.281  1.00  0.00     0.029 A 
ATOM     46  N   UNL A   1      42.104  27.655  28.709  1.00  0.00    -0.354 N 
ATOM     47  C   UNL A   1      41.605  28.880  33.021  1.00  0.00     0.074 A 
ATOM     48  C   UNL A   1      40.222  28.536  33.197  1.00  0.00     0.031 C 
ATOM     49  C   UNL A   1      41.223  27.201  26.711  1.00  0.00     0.029 A 
ATOM     50  C   UNL A   1      42.260  26.783  27.639  1.00  0.00     0.049 A 
ATOM     51  H   UNL A   1      42.762  27.737  29.437  1.00  0.00     0.167 HD
ATOM     52  C   UNL A   1      42.677  28.681  33.832  1.00  0.00     0.034 A 
ATOM     53  C   UNL A   1      43.109  25.723  27.575  1.00  0.00     0.034 A 
ATOM     54  C   UNL A   1      43.848  29.345  33.313  1.00  0.00     0.049 A 
ATOM     55  C   UNL A   1      44.148  25.933  28.617  1.00  0.00     0.074 A 
ATOM     56  C   UNL A   1      44.151  30.665  33.034  1.00  0.00     0.029 A 
ATOM     57  N   UNL A   1      44.783  28.600  32.632  1.00  0.00    -0.354 N 
ATOM     58  N   UNL A   1      45.009  26.914  28.591  1.00  0.00    -0.248 NA
ATOM     59  C   UNL A   1      43.926  25.349  29.933  1.00  0.00     0.031 C 
ATOM     60  C   UNL A   1      44.905  30.621  31.826  1.00  0.00     0.029 A 
ATOM     61  C   UNL A   1      45.083  29.281  31.475  1.00  0.00     0.049 A 
ATOM     62  H   UNL A   1      45.166  27.739  32.918  1.00  0.00     0.167 HD
ATOM     63  C   UNL A   1      45.105  27.348  29.905  1.00  0.00     0.074 A 
ATOM     64  C   UNL A   1      44.501  26.281  30.699  1.00  0.00     0.031 C 
ATOM     65  C   UNL A   1      45.402  28.648  30.207  1.00  0.00     0.034 A 
BRANCH  52  66
ATOM     66  C   UNL A   1      42.735  27.636  34.920  1.00  0.00     0.023 A 
ATOM     67  C   UNL A   1      43.449  26.456  34.649  1.00  0.00     0.031 A 
ATOM     68  C   UNL A   1      41.925  27.610  36.081  1.00  0.00     0.131 A 
ATOM     69  C   UNL A   1      43.279  25.310  35.445  1.00  0.00     0.055 A 
ATOM     70  C   UNL A   1      41.817  26.492  36.911  1.00  0.00     0.041 A 
ATOM     71  F   UNL A   1      41.117  28.619  36.428  1.00  0.00    -0.206 F 
ATOM     72  C   UNL A   1      42.470  25.321  36.579  1.00  0.00     0.022 A 
BRANCH  69  73
ATOM     73  S   UNL A   1      43.985  23.747  34.864  1.00  0.00     0.124 S 
ATOM     74  O   UNL A   1      44.599  23.227  36.081  1.00  0.00    -0.237 OA
ATOM     75  O   UNL A   1      42.799  23.043  34.387  1.00  0.00    -0.237 OA
ATOM     76  O   UNL A   1      44.923  24.166  33.825  1.00  0.00    -0.744 OA
ENDBRANCH  69  73
ENDBRANCH  52  66
BRANCH  53  77
ATOM     77  C   UNL A   1      42.830  24.413  26.926  1.00  0.00     0.023 A 
ATOM     78  C   UNL A   1      43.737  23.785  26.050  1.00  0.00     0.031 A 
ATOM     79  C   UNL A   1      41.714  23.647  27.339  1.00  0.00     0.131 A 
ATOM     80  C   UNL A   1      43.502  22.460  25.614  1.00  0.00     0.055 A 
ATOM     81  C   UNL A   1      41.479  22.345  26.894  1.00  0.00     0.041 A 
ATOM     82  F   UNL A   1      40.851  24.111  28.257  1.00  0.00    -0.206 F 
ATOM     83  C   UNL A   1      42.378  21.742  26.032  1.00  0.00     0.022 A 
BRANCH  80  84
ATOM     84  S   UNL A   1      44.716  21.610  24.555  1.00  0.00     0.124 S 
ATOM     85  O   UNL A   1      45.950  21.756  25.318  1.00  0.00    -0.237 OA
ATOM     86  O   UNL A   1      44.164  20.263  24.465  1.00  0.00    -0.237 OA
ATOM     87  O   UNL A   1      44.673  22.371  23.306  1.00  0.00    -0.744 OA
ENDBRANCH  80  84
ENDBRANCH  53  77
BRANCH  65  88
ATOM     88  C   UNL A   1      45.874  29.561  29.089  1.00  0.00     0.023 A 
ATOM     89  C   UNL A   1      45.035  30.432  28.355  1.00  0.00     0.031 A 
ATOM     90  C   UNL A   1      47.259  29.653  28.863  1.00  0.00     0.131 A 
ATOM     91  C   UNL A   1      45.592  31.341  27.432  1.00  0.00     0.055 A 
ATOM     92  C   UNL A   1      47.808  30.569  27.966  1.00  0.00     0.041 A 
ATOM     93  F   UNL A   1      48.113  28.875  29.551  1.00  0.00    -0.206 F 
ATOM     94  C   UNL A   1      46.975  31.414  27.243  1.00  0.00     0.022 A 
BRANCH  91  95
ATOM     95  S   UNL A   1      44.523  32.443  26.449  1.00  0.00     0.124 S 
ATOM     96  O   UNL A   1      43.552  31.535  25.850  1.00  0.00    -0.237 OA
ATOM     97  O   UNL A   1      44.005  33.363  27.458  1.00  0.00    -0.237 OA
ATOM     98  O   UNL A   1      45.452  33.052  25.495  1.00  0.00    -0.744 OA
ENDBRANCH  91  95
ENDBRANCH  65  88
ENDBRANCH  39  40
ENDBRANCH  32  34
ENDBRANCH  31  32
ENDBRANCH  30  31
ENDBRANCH   1  30
TORSDOF 19
ENDMDL
MODEL 3
REMARK VINA RESULT:     -12.1      1.984      7.199
REMARK SMILES NS(=O)(=O)c1ccc(-n2ccnc2-c2ccc(O)c(C(=O)OCCOC(=O)c3ccc(-c4c5nc(c(-c6cc(S(=O)(=O)[O-])ccc6F)c6ccc([nH]6)c(-c6cc(S(=O)(=O)[O-])ccc6F)c6nc(c(-c7cc(S(=O)(=O)[O-])ccc7F)c7ccc4[nH]7)C=C6)C=C5)cc3)c2)cc1
REMARK SMILES IDX 23 1 22 2 20 3 21 4 19 5 14 6 15 7 91 8 16 9 17 10 13 11
REMARK SMILES IDX 9 12 10 13 11 14 12 15 8 16 5 17 6 18 93 19 7 20 92 21 2 22
REMARK SMILES IDX 3 23 4 24 1 25 18 28 24 30 25 31 26 32 27 33 28 34 29 35
REMARK SMILES IDX 90 36 30 37 89 38 31 39 32 40 33 41 83 42 34 43 88 44 82 45
REMARK SMILES IDX 84 46 35 47 87 48 81 49 80 50 36 52 68 53 48 54 67 55 49 56
REMARK SMILES IDX 52 57 66 58 85 59 50 60 51 61 65 63 86 64 53 65 37 66 38 67
REMARK SMILES IDX 46 68 39 69 45 70 47 71 44 72 40 73 41 74 42 75 43 76 69 77
REMARK SMILES IDX 70 78 78 79 71 80 77 81 79 82 76 83 72 84 73 85 74 86 75 87
REMARK SMILES IDX 54 88 55 89 63 90 56 91 62 92 64 93 61 94 57 95 58 96 59 97
REMARK SMILES IDX 60 98
REMARK H PARENT 1 26 1 27 18 29 84 51 52 62
REMARK Flexibility Score: inf
ROOT
ATOM      1  C   UNL A   1      34.127  29.412  26.919  1.00  0.00     0.275 C 
ENDROOT
BRANCH   1   2
ATOM      2  O   UNL A   1      32.734  29.162  27.184  1.00  0.00    -0.458 OA
BRANCH   2   3
ATOM      3  C   UNL A   1      31.859  29.508  26.203  1.00  0.00     0.342 C 
ATOM      4  O   UNL A   1      31.540  30.645  25.881  1.00  0.00    -0.246 OA
BRANCH   3   5
ATOM      5  C   UNL A   1      31.398  28.316  25.446  1.00  0.00     0.102 A 
ATOM      6  C   UNL A   1      30.763  25.960  25.402  1.00  0.00     0.019 A 
ATOM      7  C   UNL A   1      30.490  26.063  24.037  1.00  0.00     0.016 A 
ATOM      8  C   UNL A   1      31.289  27.075  26.076  1.00  0.00     0.031 A 
ATOM      9  C   UNL A   1      30.662  27.285  23.378  1.00  0.00     0.048 A 
ATOM     10  C   UNL A   1      31.087  28.411  24.086  1.00  0.00     0.130 A 
BRANCH   6  11
ATOM     11  C   UNL A   1      30.458  24.736  26.155  1.00  0.00     0.144 A 
ATOM     12  N   UNL A   1      31.236  23.577  26.102  1.00  0.00    -0.300 N 
ATOM     13  C   UNL A   1      30.473  22.566  26.640  1.00  0.00     0.113 A 
ATOM     14  C   UNL A   1      29.371  23.189  27.172  1.00  0.00     0.132 A 
ATOM     15  N   UNL A   1      29.387  24.531  26.901  1.00  0.00    -0.236 NA
BRANCH  12  16
ATOM     16  C   UNL A   1      32.547  23.443  25.574  1.00  0.00     0.047 A 
ATOM     17  C   UNL A   1      35.101  22.937  24.598  1.00  0.00     0.082 A 
ATOM     18  C   UNL A   1      33.999  22.751  23.762  1.00  0.00     0.024 A 
ATOM     19  C   UNL A   1      34.937  23.396  25.910  1.00  0.00     0.024 A 
ATOM     20  C   UNL A   1      32.718  22.994  24.253  1.00  0.00     0.028 A 
ATOM     21  C   UNL A   1      33.655  23.671  26.396  1.00  0.00     0.028 A 
BRANCH  17  22
ATOM     22  S   UNL A   1      36.713  22.632  23.943  1.00  0.00     0.238 S 
ATOM     23  O   UNL A   1      36.761  23.101  22.579  1.00  0.00    -0.207 OA
ATOM     24  O   UNL A   1      37.132  21.307  24.334  1.00  0.00    -0.207 OA
BRANCH  22  25
ATOM     25  N   UNL A   1      37.699  23.697  24.794  1.00  0.00    -0.225 NA
ATOM     26  H   UNL A   1      38.242  24.256  24.138  1.00  0.00     0.137 HD
ATOM     27  H   UNL A   1      38.332  23.168  25.395  1.00  0.00     0.137 HD
ENDBRANCH  22  25
ENDBRANCH  17  22
ENDBRANCH  12  16
ENDBRANCH   6  11
BRANCH  10  28
ATOM     28  O   UNL A   1      31.189  29.575  23.371  1.00  0.00    -0.507 OA
ATOM     29  H   UNL A   1      30.536  29.795  22.737  1.00  0.00     0.293 HD
ENDBRANCH  10  28
ENDBRANCH   3   5
ENDBRANCH   2   3
ENDBRANCH   1   2
BRANCH   1  30
ATOM     30  C   UNL A   1      34.556  30.775  27.448  1.00  0.00     0.275 C 
BRANCH  30  31
ATOM     31  O   UNL A   1      35.907  30.746  27.903  1.00  0.00    -0.458 OA
BRANCH  31  32
ATOM     32  C   UNL A   1      36.112  31.395  29.071  1.00  0.00     0.338 C 
ATOM     33  O   UNL A   1      35.652  32.476  29.401  1.00  0.00    -0.246 OA
BRANCH  32  34
ATOM     34  C   UNL A   1      37.153  30.710  29.830  1.00  0.00     0.060 A 
ATOM     35  C   UNL A   1      38.283  31.453  30.188  1.00  0.00     0.016 A 
ATOM     36  C   UNL A   1      37.136  29.309  29.852  1.00  0.00     0.016 A 
ATOM     37  C   UNL A   1      39.470  30.780  30.384  1.00  0.00     0.010 A 
ATOM     38  C   UNL A   1      38.320  28.645  30.031  1.00  0.00     0.010 A 
ATOM     39  C   UNL A   1      39.484  29.393  30.213  1.00  0.00    -0.014 A 
BRANCH  39  40
ATOM     40  C   UNL A   1      40.750  28.697  30.288  1.00  0.00     0.031 A 
ATOM     41  C   UNL A   1      41.239  28.495  31.673  1.00  0.00     0.074 A 
ATOM     42  C   UNL A   1      41.293  28.128  29.196  1.00  0.00     0.049 A 
ATOM     43  N   UNL A   1      42.381  28.814  32.178  1.00  0.00    -0.248 NA
ATOM     44  C   UNL A   1      40.272  27.981  32.660  1.00  0.00     0.031 C 
ATOM     45  C   UNL A   1      40.706  28.019  27.856  1.00  0.00     0.029 A 
ATOM     46  N   UNL A   1      42.425  27.383  29.096  1.00  0.00    -0.354 N 
ATOM     47  C   UNL A   1      42.350  28.371  33.497  1.00  0.00     0.074 A 
ATOM     48  C   UNL A   1      40.983  28.036  33.781  1.00  0.00     0.031 C 
ATOM     49  C   UNL A   1      41.355  27.054  27.168  1.00  0.00     0.029 A 
ATOM     50  C   UNL A   1      42.466  26.570  27.971  1.00  0.00     0.049 A 
ATOM     51  H   UNL A   1      43.149  27.416  29.762  1.00  0.00     0.167 HD
ATOM     52  C   UNL A   1      43.489  28.113  34.191  1.00  0.00     0.034 A 
ATOM     53  C   UNL A   1      43.286  25.505  27.769  1.00  0.00     0.034 A 
ATOM     54  C   UNL A   1      44.619  28.790  33.603  1.00  0.00     0.049 A 
ATOM     55  C   UNL A   1      44.420  25.642  28.720  1.00  0.00     0.074 A 
ATOM     56  C   UNL A   1      44.918  30.119  33.368  1.00  0.00     0.029 A 
ATOM     57  N   UNL A   1      45.473  28.072  32.797  1.00  0.00    -0.354 N 
ATOM     58  N   UNL A   1      45.293  26.612  28.667  1.00  0.00    -0.248 NA
ATOM     59  C   UNL A   1      44.311  24.989  30.017  1.00  0.00     0.031 C 
ATOM     60  C   UNL A   1      45.557  30.134  32.095  1.00  0.00     0.029 A 
ATOM     61  C   UNL A   1      45.676  28.813  31.656  1.00  0.00     0.049 A 
ATOM     62  H   UNL A   1      45.865  27.192  32.999  1.00  0.00     0.167 HD
ATOM     63  C   UNL A   1      45.518  26.971  29.988  1.00  0.00     0.074 A 
ATOM     64  C   UNL A   1      44.971  25.869  30.775  1.00  0.00     0.031 C 
ATOM     65  C   UNL A   1      45.865  28.248  30.331  1.00  0.00     0.034 A 
BRANCH  52  66
ATOM     66  C   UNL A   1      43.628  27.008  35.211  1.00  0.00     0.023 A 
ATOM     67  C   UNL A   1      43.960  27.378  36.526  1.00  0.00     0.031 A 
ATOM     68  C   UNL A   1      43.722  25.626  34.920  1.00  0.00     0.131 A 
ATOM     69  C   UNL A   1      44.437  26.427  37.445  1.00  0.00     0.055 A 
ATOM     70  C   UNL A   1      44.126  24.674  35.859  1.00  0.00     0.041 A 
ATOM     71  F   UNL A   1      43.527  25.125  33.694  1.00  0.00    -0.206 F 
ATOM     72  C   UNL A   1      44.517  25.075  37.122  1.00  0.00     0.022 A 
BRANCH  69  73
ATOM     73  S   UNL A   1      45.130  27.016  39.010  1.00  0.00     0.124 S 
ATOM     74  O   UNL A   1      45.440  28.406  38.695  1.00  0.00    -0.237 OA
ATOM     75  O   UNL A   1      44.018  26.796  39.930  1.00  0.00    -0.237 OA
ATOM     76  O   UNL A   1      46.290  26.151  39.214  1.00  0.00    -0.744 OA
ENDBRANCH  69  73
ENDBRANCH  52  66
BRANCH  53  77
ATOM     77  C   UNL A   1      42.924  24.237  27.078  1.00  0.00     0.023 A 
ATOM     78  C   UNL A   1      43.780  23.594  26.163  1.00  0.00     0.031 A 
ATOM     79  C   UNL A   1      41.776  23.518  27.485  1.00  0.00     0.131 A 
ATOM     80  C   UNL A   1      43.466  22.301  25.684  1.00  0.00     0.055 A 
ATOM     81  C   UNL A   1      41.462  22.247  26.998  1.00  0.00     0.041 A 
ATOM     82  F   UNL A   1      40.956  23.993  28.436  1.00  0.00    -0.206 F 
ATOM     83  C   UNL A   1      42.311  21.629  26.097  1.00  0.00     0.022 A 
BRANCH  80  84
ATOM     84  S   UNL A   1      44.613  21.427  24.572  1.00  0.00     0.124 S 
ATOM     85  O   UNL A   1      44.482  22.184  23.333  1.00  0.00    -0.237 OA
ATOM     86  O   UNL A   1      45.884  21.547  25.276  1.00  0.00    -0.237 OA
ATOM     87  O   UNL A   1      44.071  20.068  24.520  1.00  0.00    -0.744 OA
ENDBRANCH  80  84
ENDBRANCH  53  77
BRANCH  65  88
ATOM     88  C   UNL A   1      46.248  29.216  29.226  1.00  0.00     0.023 A 
ATOM     89  C   UNL A   1      45.328  29.996  28.486  1.00  0.00     0.031 A 
ATOM     90  C   UNL A   1      47.617  29.460  29.019  1.00  0.00     0.131 A 
ATOM     91  C   UNL A   1      45.793  30.967  27.577  1.00  0.00     0.055 A 
ATOM     92  C   UNL A   1      48.074  30.438  28.135  1.00  0.00     0.041 A 
ATOM     93  F   UNL A   1      48.543  28.775  29.712  1.00  0.00    -0.206 F 
ATOM     94  C   UNL A   1      47.163  31.193  27.407  1.00  0.00     0.022 A 
BRANCH  91  95
ATOM     95  S   UNL A   1      44.623  31.954  26.586  1.00  0.00     0.124 S 
ATOM     96  O   UNL A   1      43.659  30.967  26.112  1.00  0.00    -0.237 OA
ATOM     97  O   UNL A   1      44.124  32.922  27.559  1.00  0.00    -0.237 OA
ATOM     98  O   UNL A   1      45.468  32.530  25.539  1.00  0.00    -0.744 OA
ENDBRANCH  91  95
ENDBRANCH  65  88
ENDBRANCH  39  40
ENDBRANCH  32  34
ENDBRANCH  31  32
ENDBRANCH  30  31
ENDBRANCH   1  30
TORSDOF 19
ENDMDL
