MODEL 1
REMARK VINA RESULT:     -11.8      0.000      0.000
REMARK SMILES O=C(Cc1cccn1-c1ccccc1F)OCCOC(=O)c1ccc(-c2c3nc(c(-c4cc(S(=O)(=O)[O-])ccc4F)c4ccc([nH]4)c(-c4cc(S(=O)(=O)[O-])ccc4F)c4nc(c(-c5cc(S(=O)(=O)[O-])ccc5F)c5ccc2[nH]5)C=C4)C=C3)cc1
REMARK SMILES IDX 18 1 17 2 16 3 2 4 1 5 3 6 4 7 5 8 8 9 6 10 7 11 9 12 10 13
REMARK SMILES IDX 14 14 11 15 13 16 15 17 12 18 19 19 20 20 21 21 22 22 23 23
REMARK SMILES IDX 84 24 24 25 83 26 25 27 26 28 27 29 77 30 28 31 82 32 76 33
REMARK SMILES IDX 78 34 29 35 81 36 75 37 74 38 30 40 62 41 42 42 61 43 43 44
REMARK SMILES IDX 46 45 60 46 79 47 44 48 45 49 59 51 80 52 47 53 31 54 32 55
REMARK SMILES IDX 40 56 33 57 39 58 41 59 38 60 34 61 35 62 36 63 37 64 63 65
REMARK SMILES IDX 64 66 72 67 65 68 71 69 73 70 70 71 66 72 67 73 68 74 69 75
REMARK SMILES IDX 48 76 49 77 57 78 50 79 56 80 58 81 55 82 51 83 52 84 53 85
REMARK SMILES IDX 54 86
REMARK H PARENT 78 39 46 50
REMARK Flexibility Score: inf
ROOT
ATOM      1  C   UNL A   1      34.811  31.288  27.961  1.00  0.00     0.275 C 
ENDROOT
BRANCH   1   2
ATOM      2  C   UNL A   1      33.522  30.830  27.300  1.00  0.00     0.274 C 
BRANCH   2   3
ATOM      3  O   UNL A   1      33.536  29.484  26.789  1.00  0.00    -0.462 OA
BRANCH   3   4
ATOM      4  C   UNL A   1      32.534  28.845  26.133  1.00  0.00     0.311 C 
ATOM      5  O   UNL A   1      31.996  27.880  26.674  1.00  0.00    -0.252 OA
BRANCH   4   6
ATOM      6  C   UNL A   1      32.140  29.280  24.732  1.00  0.00     0.177 C 
BRANCH   6   7
ATOM      7  C   UNL A   1      32.384  28.259  23.658  1.00  0.00     0.034 A 
ATOM      8  C   UNL A   1      33.501  27.448  23.506  1.00  0.00     0.024 A 
ATOM      9  N   UNL A   1      31.402  27.763  22.804  1.00  0.00    -0.318 N 
ATOM     10  C   UNL A   1      33.240  26.500  22.504  1.00  0.00     0.020 A 
ATOM     11  C   UNL A   1      31.948  26.709  22.093  1.00  0.00     0.091 A 
BRANCH   9  12
ATOM     12  C   UNL A   1      30.020  28.062  22.818  1.00  0.00     0.081 A 
ATOM     13  C   UNL A   1      29.150  27.195  23.492  1.00  0.00     0.030 A 
ATOM     14  C   UNL A   1      29.526  29.223  22.231  1.00  0.00     0.147 A 
ATOM     15  C   UNL A   1      27.802  27.536  23.624  1.00  0.00     0.002 A 
ATOM     16  C   UNL A   1      28.180  29.558  22.354  1.00  0.00     0.041 A 
ATOM     17  F   UNL A   1      30.313  30.006  21.487  1.00  0.00    -0.205 F 
ATOM     18  C   UNL A   1      27.320  28.720  23.064  1.00  0.00     0.003 A 
ENDBRANCH   9  12
ENDBRANCH   6   7
ENDBRANCH   4   6
ENDBRANCH   3   4
ENDBRANCH   2   3
ENDBRANCH   1   2
BRANCH   1  19
ATOM     19  O   UNL A   1      35.896  30.433  27.637  1.00  0.00    -0.458 OA
BRANCH  19  20
ATOM     20  C   UNL A   1      37.030  30.694  28.331  1.00  0.00     0.338 C 
ATOM     21  O   UNL A   1      37.348  31.737  28.857  1.00  0.00    -0.246 OA
BRANCH  20  22
ATOM     22  C   UNL A   1      37.912  29.532  28.227  1.00  0.00     0.060 A 
ATOM     23  C   UNL A   1      37.836  28.628  29.287  1.00  0.00     0.016 A 
ATOM     24  C   UNL A   1      39.010  29.603  27.359  1.00  0.00     0.016 A 
ATOM     25  C   UNL A   1      38.985  27.969  29.643  1.00  0.00     0.010 A 
ATOM     26  C   UNL A   1      40.174  29.004  27.755  1.00  0.00     0.010 A 
ATOM     27  C   UNL A   1      40.155  28.238  28.922  1.00  0.00    -0.014 A 
BRANCH  27  28
ATOM     28  C   UNL A   1      41.358  27.523  29.320  1.00  0.00     0.031 A 
ATOM     29  C   UNL A   1      41.550  26.340  28.333  1.00  0.00     0.074 A 
ATOM     30  C   UNL A   1      41.951  28.010  30.462  1.00  0.00     0.049 A 
ATOM     31  N   UNL A   1      42.080  25.177  28.521  1.00  0.00    -0.248 NA
ATOM     32  C   UNL A   1      40.976  26.419  26.946  1.00  0.00     0.031 C 
ATOM     33  C   UNL A   1      41.550  29.239  31.210  1.00  0.00     0.029 A 
ATOM     34  N   UNL A   1      43.000  27.589  31.242  1.00  0.00    -0.354 N 
ATOM     35  C   UNL A   1      42.156  24.530  27.265  1.00  0.00     0.074 A 
ATOM     36  C   UNL A   1      41.328  25.269  26.372  1.00  0.00     0.031 C 
ATOM     37  C   UNL A   1      42.252  29.373  32.364  1.00  0.00     0.029 A 
ATOM     38  C   UNL A   1      43.196  28.280  32.480  1.00  0.00     0.049 A 
ATOM     39  H   UNL A   1      43.588  26.850  30.964  1.00  0.00     0.167 HD
ATOM     40  C   UNL A   1      43.028  23.513  27.011  1.00  0.00     0.034 A 
ATOM     41  C   UNL A   1      44.027  27.932  33.521  1.00  0.00     0.034 A 
ATOM     42  C   UNL A   1      43.741  23.195  28.203  1.00  0.00     0.049 A 
ATOM     43  C   UNL A   1      44.787  26.800  32.964  1.00  0.00     0.074 A 
ATOM     44  C   UNL A   1      43.322  22.614  29.371  1.00  0.00     0.029 A 
ATOM     45  N   UNL A   1      44.897  23.906  28.434  1.00  0.00    -0.354 N 
ATOM     46  N   UNL A   1      45.677  26.892  32.022  1.00  0.00    -0.248 NA
ATOM     47  C   UNL A   1      44.417  25.445  33.389  1.00  0.00     0.031 C 
ATOM     48  C   UNL A   1      43.894  23.458  30.344  1.00  0.00     0.029 A 
ATOM     49  C   UNL A   1      44.879  24.266  29.758  1.00  0.00     0.049 A 
ATOM     50  H   UNL A   1      45.599  24.116  27.777  1.00  0.00     0.167 HD
ATOM     51  C   UNL A   1      45.712  25.616  31.521  1.00  0.00     0.074 A 
ATOM     52  C   UNL A   1      45.188  24.749  32.559  1.00  0.00     0.031 C 
ATOM     53  C   UNL A   1      45.654  25.407  30.180  1.00  0.00     0.034 A 
BRANCH  40  54
ATOM     54  C   UNL A   1      43.506  22.875  25.743  1.00  0.00     0.023 A 
ATOM     55  C   UNL A   1      43.612  21.464  25.754  1.00  0.00     0.031 A 
ATOM     56  C   UNL A   1      44.156  23.550  24.701  1.00  0.00     0.131 A 
ATOM     57  C   UNL A   1      44.435  20.788  24.848  1.00  0.00     0.055 A 
ATOM     58  C   UNL A   1      44.939  22.865  23.761  1.00  0.00     0.041 A 
ATOM     59  F   UNL A   1      44.134  24.887  24.612  1.00  0.00    -0.206 F 
ATOM     60  C   UNL A   1      45.111  21.484  23.851  1.00  0.00     0.022 A 
BRANCH  57  61
ATOM     61  S   UNL A   1      44.704  19.011  25.097  1.00  0.00     0.124 S 
ATOM     62  O   UNL A   1      45.988  18.984  25.789  1.00  0.00    -0.237 OA
ATOM     63  O   UNL A   1      43.542  18.636  25.897  1.00  0.00    -0.237 OA
ATOM     64  O   UNL A   1      44.718  18.475  23.737  1.00  0.00    -0.744 OA
ENDBRANCH  57  61
ENDBRANCH  40  54
BRANCH  41  65
ATOM     65  C   UNL A   1      44.300  28.235  34.998  1.00  0.00     0.023 A 
ATOM     66  C   UNL A   1      44.454  27.316  36.052  1.00  0.00     0.031 A 
ATOM     67  C   UNL A   1      44.569  29.596  35.366  1.00  0.00     0.131 A 
ATOM     68  C   UNL A   1      44.953  27.754  37.321  1.00  0.00     0.055 A 
ATOM     69  C   UNL A   1      45.154  30.000  36.568  1.00  0.00     0.041 A 
ATOM     70  F   UNL A   1      44.289  30.623  34.551  1.00  0.00    -0.206 F 
ATOM     71  C   UNL A   1      45.370  29.069  37.551  1.00  0.00     0.022 A 
BRANCH  68  72
ATOM     72  S   UNL A   1      45.111  26.624  38.742  1.00  0.00     0.124 S 
ATOM     73  O   UNL A   1      45.629  25.416  38.108  1.00  0.00    -0.237 OA
ATOM     74  O   UNL A   1      46.031  27.332  39.625  1.00  0.00    -0.237 OA
ATOM     75  O   UNL A   1      43.738  26.519  39.240  1.00  0.00    -0.744 OA
ENDBRANCH  68  72
ENDBRANCH  41  65
BRANCH  53  76
ATOM     76  C   UNL A   1      46.112  26.569  29.306  1.00  0.00     0.023 A 
ATOM     77  C   UNL A   1      45.156  27.346  28.633  1.00  0.00     0.031 A 
ATOM     78  C   UNL A   1      47.456  26.901  29.050  1.00  0.00     0.131 A 
ATOM     79  C   UNL A   1      45.545  28.384  27.761  1.00  0.00     0.055 A 
ATOM     80  C   UNL A   1      47.850  27.921  28.170  1.00  0.00     0.041 A 
ATOM     81  F   UNL A   1      48.447  26.246  29.646  1.00  0.00    -0.206 F 
ATOM     82  C   UNL A   1      46.888  28.674  27.520  1.00  0.00     0.022 A 
BRANCH  79  83
ATOM     83  S   UNL A   1      44.264  29.413  27.000  1.00  0.00     0.124 S 
ATOM     84  O   UNL A   1      43.551  28.462  26.155  1.00  0.00    -0.237 OA
ATOM     85  O   UNL A   1      43.534  29.913  28.161  1.00  0.00    -0.237 OA
ATOM     86  O   UNL A   1      45.028  30.430  26.276  1.00  0.00    -0.744 OA
ENDBRANCH  79  83
ENDBRANCH  53  76
ENDBRANCH  27  28
ENDBRANCH  20  22
ENDBRANCH  19  20
ENDBRANCH   1  19
TORSDOF 16
ENDMDL
MODEL 2
REMARK VINA RESULT:     -11.7      5.540     10.896
REMARK SMILES O=C(Cc1cccn1-c1ccccc1F)OCCOC(=O)c1ccc(-c2c3nc(c(-c4cc(S(=O)(=O)[O-])ccc4F)c4ccc([nH]4)c(-c4cc(S(=O)(=O)[O-])ccc4F)c4nc(c(-c5cc(S(=O)(=O)[O-])ccc5F)c5ccc2[nH]5)C=C4)C=C3)cc1
REMARK SMILES IDX 18 1 17 2 16 3 2 4 1 5 3 6 4 7 5 8 8 9 6 10 7 11 9 12 10 13
REMARK SMILES IDX 14 14 11 15 13 16 15 17 12 18 19 19 20 20 21 21 22 22 23 23
REMARK SMILES IDX 84 24 24 25 83 26 25 27 26 28 27 29 77 30 28 31 82 32 76 33
REMARK SMILES IDX 78 34 29 35 81 36 75 37 74 38 30 40 62 41 42 42 61 43 43 44
REMARK SMILES IDX 46 45 60 46 79 47 44 48 45 49 59 51 80 52 47 53 31 54 32 55
REMARK SMILES IDX 40 56 33 57 39 58 41 59 38 60 34 61 35 62 36 63 37 64 63 65
REMARK SMILES IDX 64 66 72 67 65 68 71 69 73 70 70 71 66 72 67 73 68 74 69 75
REMARK SMILES IDX 48 76 49 77 57 78 50 79 56 80 58 81 55 82 51 83 52 84 53 85
REMARK SMILES IDX 54 86
REMARK H PARENT 78 39 46 50
REMARK Flexibility Score: inf
ROOT
ATOM      1  C   UNL A   1      38.972  23.119  26.412  1.00  0.00     0.275 C 
ENDROOT
BRANCH   1   2
ATOM      2  C   UNL A   1      37.729  23.674  25.736  1.00  0.00     0.274 C 
BRANCH   2   3
ATOM      3  O   UNL A   1      36.574  22.815  25.769  1.00  0.00    -0.462 OA
BRANCH   3   4
ATOM      4  C   UNL A   1      36.178  21.936  24.814  1.00  0.00     0.311 C 
ATOM      5  O   UNL A   1      36.856  20.926  24.623  1.00  0.00    -0.252 OA
BRANCH   4   6
ATOM      6  C   UNL A   1      34.959  22.236  23.959  1.00  0.00     0.177 C 
BRANCH   6   7
ATOM      7  C   UNL A   1      33.648  22.215  24.691  1.00  0.00     0.034 A 
ATOM      8  C   UNL A   1      32.906  23.308  25.119  1.00  0.00     0.024 A 
ATOM      9  N   UNL A   1      32.828  21.095  24.808  1.00  0.00    -0.318 N 
ATOM     10  C   UNL A   1      31.657  22.857  25.574  1.00  0.00     0.020 A 
ATOM     11  C   UNL A   1      31.631  21.501  25.369  1.00  0.00     0.091 A 
BRANCH   9  12
ATOM     12  C   UNL A   1      33.028  19.820  24.230  1.00  0.00     0.081 A 
ATOM     13  C   UNL A   1      33.788  18.875  24.930  1.00  0.00     0.030 A 
ATOM     14  C   UNL A   1      32.436  19.476  23.018  1.00  0.00     0.147 A 
ATOM     15  C   UNL A   1      33.893  17.572  24.437  1.00  0.00     0.002 A 
ATOM     16  C   UNL A   1      32.549  18.179  22.522  1.00  0.00     0.041 A 
ATOM     17  F   UNL A   1      31.802  20.390  22.278  1.00  0.00    -0.205 F 
ATOM     18  C   UNL A   1      33.266  17.222  23.240  1.00  0.00     0.003 A 
ENDBRANCH   9  12
ENDBRANCH   6   7
ENDBRANCH   4   6
ENDBRANCH   3   4
ENDBRANCH   2   3
ENDBRANCH   1   2
BRANCH   1  19
ATOM     19  O   UNL A   1      39.196  23.728  27.673  1.00  0.00    -0.458 OA
BRANCH  19  20
ATOM     20  C   UNL A   1      40.228  24.605  27.687  1.00  0.00     0.338 C 
ATOM     21  O   UNL A   1      41.406  24.358  27.557  1.00  0.00    -0.246 OA
BRANCH  20  22
ATOM     22  C   UNL A   1      39.707  25.925  28.037  1.00  0.00     0.060 A 
ATOM     23  C   UNL A   1      39.908  26.920  27.079  1.00  0.00     0.016 A 
ATOM     24  C   UNL A   1      39.445  26.204  29.385  1.00  0.00     0.016 A 
ATOM     25  C   UNL A   1      40.110  28.200  27.525  1.00  0.00     0.010 A 
ATOM     26  C   UNL A   1      39.718  27.465  29.840  1.00  0.00     0.010 A 
ATOM     27  C   UNL A   1      40.099  28.431  28.906  1.00  0.00    -0.014 A 
BRANCH  27  28
ATOM     28  C   UNL A   1      40.314  29.799  29.352  1.00  0.00     0.031 A 
ATOM     29  C   UNL A   1      38.923  30.422  29.651  1.00  0.00     0.074 A 
ATOM     30  C   UNL A   1      41.630  30.200  29.325  1.00  0.00     0.049 A 
ATOM     31  N   UNL A   1      38.521  31.645  29.554  1.00  0.00    -0.248 NA
ATOM     32  C   UNL A   1      37.768  29.534  30.020  1.00  0.00     0.031 C 
ATOM     33  C   UNL A   1      42.810  29.337  29.018  1.00  0.00     0.029 A 
ATOM     34  N   UNL A   1      42.264  31.399  29.539  1.00  0.00    -0.354 N 
ATOM     35  C   UNL A   1      37.216  31.714  30.097  1.00  0.00     0.074 A 
ATOM     36  C   UNL A   1      36.752  30.373  30.220  1.00  0.00     0.031 C 
ATOM     37  C   UNL A   1      43.955  30.062  28.947  1.00  0.00     0.029 A 
ATOM     38  C   UNL A   1      43.659  31.453  29.226  1.00  0.00     0.049 A 
ATOM     39  H   UNL A   1      41.783  32.183  29.890  1.00  0.00     0.167 HD
ATOM     40  C   UNL A   1      36.668  32.875  30.555  1.00  0.00     0.034 A 
ATOM     41  C   UNL A   1      44.469  32.563  29.154  1.00  0.00     0.034 A 
ATOM     42  C   UNL A   1      37.575  33.949  30.319  1.00  0.00     0.049 A 
ATOM     43  C   UNL A   1      43.594  33.635  29.659  1.00  0.00     0.074 A 
ATOM     44  C   UNL A   1      37.980  34.540  29.151  1.00  0.00     0.029 A 
ATOM     45  N   UNL A   1      38.505  34.194  31.303  1.00  0.00    -0.354 N 
ATOM     46  N   UNL A   1      43.199  33.757  30.891  1.00  0.00    -0.248 NA
ATOM     47  C   UNL A   1      42.994  34.553  28.683  1.00  0.00     0.031 C 
ATOM     48  C   UNL A   1      39.377  34.609  29.324  1.00  0.00     0.029 A 
ATOM     49  C   UNL A   1      39.706  34.392  30.669  1.00  0.00     0.049 A 
ATOM     50  H   UNL A   1      38.340  34.221  32.273  1.00  0.00     0.167 HD
ATOM     51  C   UNL A   1      42.071  34.527  30.767  1.00  0.00     0.074 A 
ATOM     52  C   UNL A   1      42.179  35.218  29.496  1.00  0.00     0.031 C 
ATOM     53  C   UNL A   1      40.927  34.168  31.404  1.00  0.00     0.034 A 
BRANCH  40  54
ATOM     54  C   UNL A   1      35.475  33.169  31.411  1.00  0.00     0.023 A 
ATOM     55  C   UNL A   1      34.657  34.247  30.996  1.00  0.00     0.031 A 
ATOM     56  C   UNL A   1      35.297  32.708  32.723  1.00  0.00     0.131 A 
ATOM     57  C   UNL A   1      33.808  34.904  31.891  1.00  0.00     0.055 A 
ATOM     58  C   UNL A   1      34.405  33.336  33.605  1.00  0.00     0.041 A 
ATOM     59  F   UNL A   1      36.036  31.707  33.220  1.00  0.00    -0.206 F 
ATOM     60  C   UNL A   1      33.682  34.460  33.203  1.00  0.00     0.022 A 
BRANCH  57  61
ATOM     61  S   UNL A   1      32.990  36.426  31.335  1.00  0.00     0.124 S 
ATOM     62  O   UNL A   1      31.686  36.334  31.982  1.00  0.00    -0.237 OA
ATOM     63  O   UNL A   1      33.885  37.458  31.849  1.00  0.00    -0.237 OA
ATOM     64  O   UNL A   1      32.975  36.290  29.879  1.00  0.00    -0.744 OA
ENDBRANCH  57  61
ENDBRANCH  40  54
BRANCH  41  65
ATOM     65  C   UNL A   1      45.833  33.028  28.635  1.00  0.00     0.023 A 
ATOM     66  C   UNL A   1      46.095  33.935  27.592  1.00  0.00     0.031 A 
ATOM     67  C   UNL A   1      47.003  32.617  29.358  1.00  0.00     0.131 A 
ATOM     68  C   UNL A   1      47.418  34.451  27.402  1.00  0.00     0.055 A 
ATOM     69  C   UNL A   1      48.265  33.201  29.238  1.00  0.00     0.041 A 
ATOM     70  F   UNL A   1      46.973  31.618  30.252  1.00  0.00    -0.206 F 
ATOM     71  C   UNL A   1      48.475  34.144  28.265  1.00  0.00     0.022 A 
BRANCH  68  72
ATOM     72  S   UNL A   1      47.831  35.576  26.029  1.00  0.00     0.124 S 
ATOM     73  O   UNL A   1      48.281  34.643  25.002  1.00  0.00    -0.237 OA
ATOM     74  O   UNL A   1      46.566  36.256  25.770  1.00  0.00    -0.237 OA
ATOM     75  O   UNL A   1      48.880  36.424  26.597  1.00  0.00    -0.744 OA
ENDBRANCH  68  72
ENDBRANCH  41  65
BRANCH  53  76
ATOM     76  C   UNL A   1      41.099  33.282  32.633  1.00  0.00     0.023 A 
ATOM     77  C   UNL A   1      40.746  31.926  32.562  1.00  0.00     0.031 A 
ATOM     78  C   UNL A   1      41.531  33.734  33.894  1.00  0.00     0.131 A 
ATOM     79  C   UNL A   1      40.826  31.092  33.696  1.00  0.00     0.055 A 
ATOM     80  C   UNL A   1      41.596  32.914  35.032  1.00  0.00     0.041 A 
ATOM     81  F   UNL A   1      41.910  34.994  34.077  1.00  0.00    -0.206 F 
ATOM     82  C   UNL A   1      41.243  31.579  34.935  1.00  0.00     0.022 A 
BRANCH  79  83
ATOM     83  S   UNL A   1      40.450  29.330  33.516  1.00  0.00     0.124 S 
ATOM     84  O   UNL A   1      40.627  28.826  34.873  1.00  0.00    -0.237 OA
ATOM     85  O   UNL A   1      39.079  29.353  33.014  1.00  0.00    -0.237 OA
ATOM     86  O   UNL A   1      41.445  28.865  32.549  1.00  0.00    -0.744 OA
ENDBRANCH  79  83
ENDBRANCH  53  76
ENDBRANCH  27  28
ENDBRANCH  20  22
ENDBRANCH  19  20
ENDBRANCH   1  19
TORSDOF 16
ENDMDL
MODEL 3
REMARK VINA RESULT:     -11.7      5.032     10.422
REMARK SMILES O=C(Cc1cccn1-c1ccccc1F)OCCOC(=O)c1ccc(-c2c3nc(c(-c4cc(S(=O)(=O)[O-])ccc4F)c4ccc([nH]4)c(-c4cc(S(=O)(=O)[O-])ccc4F)c4nc(c(-c5cc(S(=O)(=O)[O-])ccc5F)c5ccc2[nH]5)C=C4)C=C3)cc1
REMARK SMILES IDX 18 1 17 2 16 3 2 4 1 5 3 6 4 7 5 8 8 9 6 10 7 11 9 12 10 13
REMARK SMILES IDX 14 14 11 15 13 16 15 17 12 18 19 19 20 20 21 21 22 22 23 23
REMARK SMILES IDX 84 24 24 25 83 26 25 27 26 28 27 29 77 30 28 31 82 32 76 33
REMARK SMILES IDX 78 34 29 35 81 36 75 37 74 38 30 40 62 41 42 42 61 43 43 44
REMARK SMILES IDX 46 45 60 46 79 47 44 48 45 49 59 51 80 52 47 53 31 54 32 55
REMARK SMILES IDX 40 56 33 57 39 58 41 59 38 60 34 61 35 62 36 63 37 64 63 65
REMARK SMILES IDX 64 66 72 67 65 68 71 69 73 70 70 71 66 72 67 73 68 74 69 75
REMARK SMILES IDX 48 76 49 77 57 78 50 79 56 80 58 81 55 82 51 83 52 84 53 85
REMARK SMILES IDX 54 86
REMARK H PARENT 78 39 46 50
REMARK Flexibility Score: inf
ROOT
ATOM      1  C   UNL A   1      38.839  23.171  26.299  1.00  0.00     0.275 C 
ENDROOT
BRANCH   1   2
ATOM      2  C   UNL A   1      37.372  23.408  25.980  1.00  0.00     0.274 C 
BRANCH   2   3
ATOM      3  O   UNL A   1      37.001  23.207  24.604  1.00  0.00    -0.462 OA
BRANCH   3   4
ATOM      4  C   UNL A   1      35.768  23.356  24.056  1.00  0.00     0.311 C 
ATOM      5  O   UNL A   1      35.676  23.498  22.838  1.00  0.00    -0.252 OA
BRANCH   4   6
ATOM      6  C   UNL A   1      34.539  23.412  24.948  1.00  0.00     0.177 C 
BRANCH   6   7
ATOM      7  C   UNL A   1      33.240  23.624  24.226  1.00  0.00     0.034 A 
ATOM      8  C   UNL A   1      32.355  22.650  23.782  1.00  0.00     0.024 A 
ATOM      9  N   UNL A   1      32.577  24.846  24.137  1.00  0.00    -0.318 N 
ATOM     10  C   UNL A   1      31.176  23.273  23.345  1.00  0.00     0.020 A 
ATOM     11  C   UNL A   1      31.333  24.616  23.577  1.00  0.00     0.091 A 
BRANCH   9  12
ATOM     12  C   UNL A   1      32.949  26.070  24.739  1.00  0.00     0.081 A 
ATOM     13  C   UNL A   1      33.660  27.006  23.977  1.00  0.00     0.030 A 
ATOM     14  C   UNL A   1      32.570  26.380  26.042  1.00  0.00     0.147 A 
ATOM     15  C   UNL A   1      33.928  28.269  24.510  1.00  0.00     0.002 A 
ATOM     16  C   UNL A   1      32.845  27.636  26.577  1.00  0.00     0.041 A 
ATOM     17  F   UNL A   1      31.991  25.465  26.825  1.00  0.00    -0.205 F 
ATOM     18  C   UNL A   1      33.513  28.587  25.805  1.00  0.00     0.003 A 
ENDBRANCH   9  12
ENDBRANCH   6   7
ENDBRANCH   4   6
ENDBRANCH   3   4
ENDBRANCH   2   3
ENDBRANCH   1   2
BRANCH   1  19
ATOM     19  O   UNL A   1      39.209  23.774  27.529  1.00  0.00    -0.458 OA
BRANCH  19  20
ATOM     20  C   UNL A   1      40.208  24.683  27.419  1.00  0.00     0.338 C 
ATOM     21  O   UNL A   1      41.370  24.473  27.157  1.00  0.00    -0.246 OA
BRANCH  20  22
ATOM     22  C   UNL A   1      39.686  25.990  27.817  1.00  0.00     0.060 A 
ATOM     23  C   UNL A   1      39.921  27.027  26.912  1.00  0.00     0.016 A 
ATOM     24  C   UNL A   1      39.389  26.207  29.169  1.00  0.00     0.016 A 
ATOM     25  C   UNL A   1      40.121  28.283  27.424  1.00  0.00     0.010 A 
ATOM     26  C   UNL A   1      39.659  27.443  29.690  1.00  0.00     0.010 A 
ATOM     27  C   UNL A   1      40.072  28.449  28.814  1.00  0.00    -0.014 A 
BRANCH  27  28
ATOM     28  C   UNL A   1      40.285  29.792  29.330  1.00  0.00     0.031 A 
ATOM     29  C   UNL A   1      38.891  30.417  29.606  1.00  0.00     0.074 A 
ATOM     30  C   UNL A   1      41.605  30.178  29.369  1.00  0.00     0.049 A 
ATOM     31  N   UNL A   1      38.505  31.649  29.551  1.00  0.00    -0.248 NA
ATOM     32  C   UNL A   1      37.714  29.527  29.892  1.00  0.00     0.031 C 
ATOM     33  C   UNL A   1      42.787  29.316  29.066  1.00  0.00     0.029 A 
ATOM     34  N   UNL A   1      42.243  31.359  29.661  1.00  0.00    -0.354 N 
ATOM     35  C   UNL A   1      37.182  31.709  30.048  1.00  0.00     0.074 A 
ATOM     36  C   UNL A   1      36.700  30.369  30.093  1.00  0.00     0.031 C 
ATOM     37  C   UNL A   1      43.941  30.030  29.070  1.00  0.00     0.029 A 
ATOM     38  C   UNL A   1      43.650  31.410  29.403  1.00  0.00     0.049 A 
ATOM     39  H   UNL A   1      41.758  32.131  30.030  1.00  0.00     0.167 HD
ATOM     40  C   UNL A   1      36.630  32.854  30.540  1.00  0.00     0.034 A 
ATOM     41  C   UNL A   1      44.473  32.512  29.411  1.00  0.00     0.034 A 
ATOM     42  C   UNL A   1      37.555  33.927  30.387  1.00  0.00     0.049 A 
ATOM     43  C   UNL A   1      43.591  33.570  29.932  1.00  0.00     0.074 A 
ATOM     44  C   UNL A   1      38.010  34.565  29.263  1.00  0.00     0.029 A 
ATOM     45  N   UNL A   1      38.451  34.115  31.414  1.00  0.00    -0.354 N 
ATOM     46  N   UNL A   1      43.153  33.640  31.154  1.00  0.00    -0.248 NA
ATOM     47  C   UNL A   1      43.037  34.539  28.979  1.00  0.00     0.031 C 
ATOM     48  C   UNL A   1      39.400  34.609  29.489  1.00  0.00     0.029 A 
ATOM     49  C   UNL A   1      39.676  34.327  30.834  1.00  0.00     0.049 A 
ATOM     50  H   UNL A   1      38.251  34.099  32.378  1.00  0.00     0.167 HD
ATOM     51  C   UNL A   1      42.038  34.429  31.024  1.00  0.00     0.074 A 
ATOM     52  C   UNL A   1      42.200  35.176  29.791  1.00  0.00     0.031 C 
ATOM     53  C   UNL A   1      40.867  34.055  31.602  1.00  0.00     0.034 A 
BRANCH  40  54
ATOM     54  C   UNL A   1      35.409  33.123  31.365  1.00  0.00     0.023 A 
ATOM     55  C   UNL A   1      34.557  34.155  30.904  1.00  0.00     0.031 A 
ATOM     56  C   UNL A   1      35.222  32.691  32.684  1.00  0.00     0.131 A 
ATOM     57  C   UNL A   1      33.665  34.802  31.764  1.00  0.00     0.055 A 
ATOM     58  C   UNL A   1      34.289  33.306  33.532  1.00  0.00     0.041 A 
ATOM     59  F   UNL A   1      35.990  31.733  33.223  1.00  0.00    -0.206 F 
ATOM     60  C   UNL A   1      33.530  34.389  33.086  1.00  0.00     0.022 A 
BRANCH  57  61
ATOM     61  S   UNL A   1      32.799  36.274  31.150  1.00  0.00     0.124 S 
ATOM     62  O   UNL A   1      32.530  35.921  29.761  1.00  0.00    -0.237 OA
ATOM     63  O   UNL A   1      31.636  36.332  32.030  1.00  0.00    -0.237 OA
ATOM     64  O   UNL A   1      33.774  37.346  31.344  1.00  0.00    -0.744 OA
ENDBRANCH  57  61
ENDBRANCH  40  54
BRANCH  41  65
ATOM     65  C   UNL A   1      45.861  32.984  28.964  1.00  0.00     0.023 A 
ATOM     66  C   UNL A   1      46.256  33.405  27.681  1.00  0.00     0.031 A 
ATOM     67  C   UNL A   1      46.868  33.159  29.972  1.00  0.00     0.131 A 
ATOM     68  C   UNL A   1      47.521  34.050  27.494  1.00  0.00     0.055 A 
ATOM     69  C   UNL A   1      48.050  33.882  29.805  1.00  0.00     0.041 A 
ATOM     70  F   UNL A   1      46.741  32.641  31.202  1.00  0.00    -0.206 F 
ATOM     71  C   UNL A   1      48.375  34.353  28.559  1.00  0.00     0.022 A 
BRANCH  68  72
ATOM     72  S   UNL A   1      48.114  34.557  25.847  1.00  0.00     0.124 S 
ATOM     73  O   UNL A   1      49.071  33.500  25.534  1.00  0.00    -0.237 OA
ATOM     74  O   UNL A   1      46.894  34.576  25.049  1.00  0.00    -0.237 OA
ATOM     75  O   UNL A   1      48.707  35.872  26.096  1.00  0.00    -0.744 OA
ENDBRANCH  68  72
ENDBRANCH  41  65
BRANCH  53  76
ATOM     76  C   UNL A   1      40.985  33.112  32.794  1.00  0.00     0.023 A 
ATOM     77  C   UNL A   1      40.723  31.744  32.622  1.00  0.00     0.031 A 
ATOM     78  C   UNL A   1      41.275  33.515  34.111  1.00  0.00     0.131 A 
ATOM     79  C   UNL A   1      40.754  30.854  33.714  1.00  0.00     0.055 A 
ATOM     80  C   UNL A   1      41.290  32.637  35.206  1.00  0.00     0.041 A 
ATOM     81  F   UNL A   1      41.558  34.782  34.392  1.00  0.00    -0.206 F 
ATOM     82  C   UNL A   1      41.030  31.292  35.009  1.00  0.00     0.022 A 
BRANCH  79  83
ATOM     83  S   UNL A   1      40.504  29.085  33.410  1.00  0.00     0.124 S 
ATOM     84  O   UNL A   1      40.702  28.504  34.732  1.00  0.00    -0.237 OA
ATOM     85  O   UNL A   1      39.141  29.048  32.890  1.00  0.00    -0.237 OA
ATOM     86  O   UNL A   1      41.539  28.758  32.429  1.00  0.00    -0.744 OA
ENDBRANCH  79  83
ENDBRANCH  53  76
ENDBRANCH  27  28
ENDBRANCH  20  22
ENDBRANCH  19  20
ENDBRANCH   1  19
TORSDOF 16
ENDMDL
