MODEL 1
REMARK VINA RESULT:     -12.6      0.000      0.000
REMARK SMILES Cc1ccc(C(=O)N2CCC3(CCC(=O)N(CC(=O)OCCOC(=O)c4ccc(-c5c6nc(c(-c7cc(S(=O)(=O)[O-])ccc7F)c7ccc([nH]7)c(-c7cc(S(=O)(=O)[O-])ccc7F)c7nc(c(-c8cc(S(=O)(=O)[O-])ccc8F)c8ccc5[nH]8)C=C7)C=C6)cc4)C3)CC2)cc1O
REMARK SMILES IDX 21 1 20 2 18 3 19 4 17 5 16 6 6 7 7 8 8 9 9 10 91 11 10 12
REMARK SMILES IDX 90 13 11 14 12 15 89 16 13 17 14 18 15 19 5 20 1 21 2 22
REMARK SMILES IDX 3 23 93 24 4 25 92 26 94 27 22 29 23 30 24 31 25 32 26 33
REMARK SMILES IDX 27 34 88 35 28 36 87 37 29 38 30 39 31 40 81 41 32 42 86 43
REMARK SMILES IDX 80 44 82 45 33 46 85 47 79 48 78 49 34 51 66 52 46 53 65 54
REMARK SMILES IDX 47 55 50 56 64 57 83 58 48 59 49 60 63 62 84 63 51 64 35 65
REMARK SMILES IDX 36 66 44 67 37 68 43 69 45 70 42 71 38 72 39 73 40 74 41 75
REMARK SMILES IDX 67 76 68 77 76 78 69 79 75 80 77 81 74 82 70 83 71 84 72 85
REMARK SMILES IDX 73 86 52 87 53 88 61 89 54 90 60 91 62 92 59 93 55 94 56 95
REMARK SMILES IDX 57 96 58 97
REMARK H PARENT 94 28 82 50 50 61
REMARK Flexibility Score: inf
ROOT
ATOM      1  C   UNL A   1      31.795  29.539  26.453  1.00  0.00     0.274 C 
ENDROOT
BRANCH   1   2
ATOM      2  O   UNL A   1      32.886  29.214  25.576  1.00  0.00    -0.461 OA
BRANCH   2   3
ATOM      3  C   UNL A   1      32.612  29.241  24.251  1.00  0.00     0.325 C 
ATOM      4  O   UNL A   1      33.458  29.218  23.361  1.00  0.00    -0.250 OA
BRANCH   3   5
ATOM      5  C   UNL A   1      31.119  29.267  23.931  1.00  0.00     0.242 C 
BRANCH   5   6
ATOM      6  N   UNL A   1      30.560  28.279  23.012  1.00  0.00    -0.331 N 
ATOM      7  C   UNL A   1      32.307  23.021  26.415  1.00  0.00     0.253 C 
ATOM      8  O   UNL A   1      32.110  22.887  27.620  1.00  0.00    -0.269 OA
ATOM      9  N   UNL A   1      31.476  23.776  25.596  1.00  0.00    -0.339 N 
ATOM     10  C   UNL A   1      30.758  24.902  26.166  1.00  0.00     0.120 C 
ATOM     11  C   UNL A   1      31.060  23.382  24.260  1.00  0.00     0.120 C 
ATOM     12  C   UNL A   1      30.993  26.127  25.278  1.00  0.00     0.030 C 
ATOM     13  C   UNL A   1      31.195  24.543  23.284  1.00  0.00     0.030 C 
ATOM     14  C   UNL A   1      30.604  25.892  23.791  1.00  0.00    -0.008 C 
ATOM     15  C   UNL A   1      29.061  25.905  23.607  1.00  0.00     0.019 C 
ATOM     16  C   UNL A   1      31.209  26.995  22.888  1.00  0.00     0.127 C 
ATOM     17  C   UNL A   1      28.455  27.306  23.705  1.00  0.00     0.101 C 
ATOM     18  C   UNL A   1      29.186  28.283  22.806  1.00  0.00     0.223 C 
ATOM     19  O   UNL A   1      28.624  29.042  22.029  1.00  0.00    -0.275 OA
BRANCH   7  20
ATOM     20  C   UNL A   1      33.582  22.495  25.850  1.00  0.00     0.043 A 
ATOM     21  C   UNL A   1      37.434  20.778  24.906  1.00  0.00     0.048 C 
ATOM     22  C   UNL A   1      36.081  21.362  25.188  1.00  0.00    -0.009 A 
ATOM     23  C   UNL A   1      35.977  22.721  25.508  1.00  0.00     0.008 A 
ATOM     24  C   UNL A   1      34.915  20.584  25.208  1.00  0.00     0.119 A 
ATOM     25  C   UNL A   1      34.743  23.278  25.853  1.00  0.00     0.014 A 
ATOM     26  C   UNL A   1      33.674  21.141  25.520  1.00  0.00     0.060 A 
BRANCH  24  27
ATOM     27  O   UNL A   1      34.933  19.240  24.963  1.00  0.00    -0.508 OA
ATOM     28  H   UNL A   1      34.293  18.859  24.395  1.00  0.00     0.293 HD
ENDBRANCH  24  27
ENDBRANCH   7  20
ENDBRANCH   5   6
ENDBRANCH   3   5
ENDBRANCH   2   3
ENDBRANCH   1   2
BRANCH   1  29
ATOM     29  C   UNL A   1      31.844  31.014  26.850  1.00  0.00     0.275 C 
BRANCH  29  30
ATOM     30  O   UNL A   1      33.138  31.566  26.537  1.00  0.00    -0.458 OA
BRANCH  30  31
ATOM     31  C   UNL A   1      33.657  32.393  27.472  1.00  0.00     0.338 C 
ATOM     32  O   UNL A   1      33.208  33.452  27.870  1.00  0.00    -0.246 OA
BRANCH  31  33
ATOM     33  C   UNL A   1      34.936  31.864  27.960  1.00  0.00     0.060 A 
ATOM     34  C   UNL A   1      35.028  30.549  28.418  1.00  0.00     0.016 A 
ATOM     35  C   UNL A   1      36.008  32.745  28.103  1.00  0.00     0.016 A 
ATOM     36  C   UNL A   1      36.179  30.130  29.082  1.00  0.00     0.010 A 
ATOM     37  C   UNL A   1      37.182  32.304  28.715  1.00  0.00     0.010 A 
ATOM     38  C   UNL A   1      37.266  31.003  29.238  1.00  0.00    -0.014 A 
BRANCH  38  39
ATOM     39  C   UNL A   1      38.485  30.568  29.963  1.00  0.00     0.031 A 
ATOM     40  C   UNL A   1      39.417  29.565  29.337  1.00  0.00     0.074 A 
ATOM     41  C   UNL A   1      38.739  31.062  31.190  1.00  0.00     0.049 A 
ATOM     42  N   UNL A   1      40.455  28.964  29.857  1.00  0.00    -0.248 NA
ATOM     43  C   UNL A   1      39.135  29.179  27.945  1.00  0.00     0.031 C 
ATOM     44  C   UNL A   1      37.915  32.053  31.886  1.00  0.00     0.029 A 
ATOM     45  N   UNL A   1      39.752  30.792  32.074  1.00  0.00    -0.354 N 
ATOM     46  C   UNL A   1      40.932  28.105  28.873  1.00  0.00     0.074 A 
ATOM     47  C   UNL A   1      40.063  28.257  27.726  1.00  0.00     0.031 C 
ATOM     48  C   UNL A   1      38.456  32.308  33.086  1.00  0.00     0.029 A 
ATOM     49  C   UNL A   1      39.626  31.455  33.272  1.00  0.00     0.049 A 
ATOM     50  H   UNL A   1      40.497  30.181  31.871  1.00  0.00     0.167 HD
ATOM     51  C   UNL A   1      41.995  27.264  28.928  1.00  0.00     0.034 A 
ATOM     52  C   UNL A   1      40.346  31.358  34.406  1.00  0.00     0.034 A 
ATOM     53  C   UNL A   1      42.866  27.144  30.073  1.00  0.00     0.049 A 
ATOM     54  C   UNL A   1      41.510  30.405  34.446  1.00  0.00     0.074 A 
ATOM     55  C   UNL A   1      43.991  26.351  30.221  1.00  0.00     0.029 A 
ATOM     56  N   UNL A   1      42.706  27.834  31.267  1.00  0.00    -0.354 N 
ATOM     57  N   UNL A   1      41.942  29.593  33.509  1.00  0.00    -0.248 NA
ATOM     58  C   UNL A   1      42.281  30.354  35.694  1.00  0.00     0.031 C 
ATOM     59  C   UNL A   1      44.481  26.523  31.522  1.00  0.00     0.029 A 
ATOM     60  C   UNL A   1      43.697  27.466  32.166  1.00  0.00     0.049 A 
ATOM     61  H   UNL A   1      41.994  28.488  31.450  1.00  0.00     0.167 HD
ATOM     62  C   UNL A   1      43.048  28.946  34.051  1.00  0.00     0.074 A 
ATOM     63  C   UNL A   1      43.226  29.477  35.387  1.00  0.00     0.031 C 
ATOM     64  C   UNL A   1      43.846  27.999  33.498  1.00  0.00     0.034 A 
BRANCH  51  65
ATOM     65  C   UNL A   1      42.242  26.370  27.740  1.00  0.00     0.023 A 
ATOM     66  C   UNL A   1      41.701  25.075  27.652  1.00  0.00     0.031 A 
ATOM     67  C   UNL A   1      43.037  26.828  26.673  1.00  0.00     0.131 A 
ATOM     68  C   UNL A   1      41.999  24.269  26.543  1.00  0.00     0.055 A 
ATOM     69  C   UNL A   1      43.280  26.043  25.545  1.00  0.00     0.041 A 
ATOM     70  F   UNL A   1      43.596  28.048  26.713  1.00  0.00    -0.206 F 
ATOM     71  C   UNL A   1      42.767  24.751  25.479  1.00  0.00     0.022 A 
BRANCH  68  72
ATOM     72  S   UNL A   1      41.446  22.540  26.547  1.00  0.00     0.124 S 
ATOM     73  O   UNL A   1      39.993  22.695  26.519  1.00  0.00    -0.237 OA
ATOM     74  O   UNL A   1      42.056  22.010  25.333  1.00  0.00    -0.237 OA
ATOM     75  O   UNL A   1      41.985  22.010  27.797  1.00  0.00    -0.744 OA
ENDBRANCH  68  72
ENDBRANCH  51  65
BRANCH  52  76
ATOM     76  C   UNL A   1      39.953  32.137  35.614  1.00  0.00     0.023 A 
ATOM     77  C   UNL A   1      39.022  31.633  36.534  1.00  0.00     0.031 A 
ATOM     78  C   UNL A   1      40.482  33.420  35.844  1.00  0.00     0.131 A 
ATOM     79  C   UNL A   1      38.618  32.424  37.622  1.00  0.00     0.055 A 
ATOM     80  C   UNL A   1      40.116  34.182  36.953  1.00  0.00     0.041 A 
ATOM     81  F   UNL A   1      41.380  33.946  34.995  1.00  0.00    -0.206 F 
ATOM     82  C   UNL A   1      39.168  33.689  37.844  1.00  0.00     0.022 A 
BRANCH  79  83
ATOM     83  S   UNL A   1      37.295  31.808  38.699  1.00  0.00     0.124 S 
ATOM     84  O   UNL A   1      37.905  31.922  40.018  1.00  0.00    -0.237 OA
ATOM     85  O   UNL A   1      36.212  32.743  38.410  1.00  0.00    -0.237 OA
ATOM     86  O   UNL A   1      37.080  30.442  38.225  1.00  0.00    -0.744 OA
ENDBRANCH  79  83
ENDBRANCH  52  76
BRANCH  64  87
ATOM     87  C   UNL A   1      44.999  27.514  34.337  1.00  0.00     0.023 A 
ATOM     88  C   UNL A   1      44.866  26.414  35.201  1.00  0.00     0.031 A 
ATOM     89  C   UNL A   1      46.235  28.181  34.292  1.00  0.00     0.131 A 
ATOM     90  C   UNL A   1      45.937  26.045  36.027  1.00  0.00     0.055 A 
ATOM     91  C   UNL A   1      47.313  27.778  35.080  1.00  0.00     0.041 A 
ATOM     92  F   UNL A   1      46.411  29.239  33.483  1.00  0.00    -0.206 F 
ATOM     93  C   UNL A   1      47.163  26.713  35.963  1.00  0.00     0.022 A 
BRANCH  90  94
ATOM     94  S   UNL A   1      45.681  24.729  37.250  1.00  0.00     0.124 S 
ATOM     95  O   UNL A   1      47.042  24.469  37.707  1.00  0.00    -0.237 OA
ATOM     96  O   UNL A   1      44.795  25.370  38.217  1.00  0.00    -0.237 OA
ATOM     97  O   UNL A   1      45.071  23.653  36.472  1.00  0.00    -0.744 OA
ENDBRANCH  90  94
ENDBRANCH  64  87
ENDBRANCH  38  39
ENDBRANCH  31  33
ENDBRANCH  30  31
ENDBRANCH  29  30
ENDBRANCH   1  29
TORSDOF 17
ENDMDL
MODEL 2
REMARK VINA RESULT:     -12.3      1.983      2.594
REMARK SMILES Cc1ccc(C(=O)N2CCC3(CCC(=O)N(CC(=O)OCCOC(=O)c4ccc(-c5c6nc(c(-c7cc(S(=O)(=O)[O-])ccc7F)c7ccc([nH]7)c(-c7cc(S(=O)(=O)[O-])ccc7F)c7nc(c(-c8cc(S(=O)(=O)[O-])ccc8F)c8ccc5[nH]8)C=C7)C=C6)cc4)C3)CC2)cc1O
REMARK SMILES IDX 21 1 20 2 18 3 19 4 17 5 16 6 6 7 7 8 8 9 9 10 91 11 10 12
REMARK SMILES IDX 90 13 11 14 12 15 89 16 13 17 14 18 15 19 5 20 1 21 2 22
REMARK SMILES IDX 3 23 93 24 4 25 92 26 94 27 22 29 23 30 24 31 25 32 26 33
REMARK SMILES IDX 27 34 88 35 28 36 87 37 29 38 30 39 31 40 81 41 32 42 86 43
REMARK SMILES IDX 80 44 82 45 33 46 85 47 79 48 78 49 34 51 66 52 46 53 65 54
REMARK SMILES IDX 47 55 50 56 64 57 83 58 48 59 49 60 63 62 84 63 51 64 35 65
REMARK SMILES IDX 36 66 44 67 37 68 43 69 45 70 42 71 38 72 39 73 40 74 41 75
REMARK SMILES IDX 67 76 68 77 76 78 69 79 75 80 77 81 74 82 70 83 71 84 72 85
REMARK SMILES IDX 73 86 52 87 53 88 61 89 54 90 60 91 62 92 59 93 55 94 56 95
REMARK SMILES IDX 57 96 58 97
REMARK H PARENT 94 28 82 50 50 61
REMARK Flexibility Score: inf
ROOT
ATOM      1  C   UNL A   1      31.356  31.781  26.461  1.00  0.00     0.274 C 
ENDROOT
BRANCH   1   2
ATOM      2  O   UNL A   1      32.243  30.836  27.084  1.00  0.00    -0.461 OA
BRANCH   2   3
ATOM      3  C   UNL A   1      32.757  29.880  26.276  1.00  0.00     0.325 C 
ATOM      4  O   UNL A   1      33.954  29.635  26.154  1.00  0.00    -0.250 OA
BRANCH   3   5
ATOM      5  C   UNL A   1      31.698  29.075  25.525  1.00  0.00     0.242 C 
BRANCH   5   6
ATOM      6  N   UNL A   1      31.928  28.701  24.132  1.00  0.00    -0.331 N 
ATOM      7  C   UNL A   1      33.742  22.566  25.295  1.00  0.00     0.253 C 
ATOM      8  O   UNL A   1      33.122  21.793  26.020  1.00  0.00    -0.269 OA
ATOM      9  N   UNL A   1      33.125  23.586  24.581  1.00  0.00    -0.339 N 
ATOM     10  C   UNL A   1      31.909  24.180  25.107  1.00  0.00     0.120 C 
ATOM     11  C   UNL A   1      33.453  23.945  23.211  1.00  0.00     0.120 C 
ATOM     12  C   UNL A   1      32.071  25.702  25.103  1.00  0.00     0.030 C 
ATOM     13  C   UNL A   1      33.587  25.455  23.062  1.00  0.00     0.030 C 
ATOM     14  C   UNL A   1      32.431  26.279  23.704  1.00  0.00    -0.008 C 
ATOM     15  C   UNL A   1      31.192  26.287  22.765  1.00  0.00     0.019 C 
ATOM     16  C   UNL A   1      32.954  27.730  23.830  1.00  0.00     0.127 C 
ATOM     17  C   UNL A   1      30.176  27.373  23.121  1.00  0.00     0.101 C 
ATOM     18  C   UNL A   1      30.845  28.724  23.263  1.00  0.00     0.223 C 
ATOM     19  O   UNL A   1      30.438  29.743  22.722  1.00  0.00    -0.275 OA
BRANCH   7  20
ATOM     20  C   UNL A   1      35.231  22.511  25.321  1.00  0.00     0.043 A 
ATOM     21  C   UNL A   1      39.463  22.032  26.058  1.00  0.00     0.048 C 
ATOM     22  C   UNL A   1      38.002  22.195  25.753  1.00  0.00    -0.009 A 
ATOM     23  C   UNL A   1      37.348  23.367  26.151  1.00  0.00     0.008 A 
ATOM     24  C   UNL A   1      37.245  21.188  25.139  1.00  0.00     0.119 A 
ATOM     25  C   UNL A   1      35.973  23.515  25.954  1.00  0.00     0.014 A 
ATOM     26  C   UNL A   1      35.878  21.344  24.910  1.00  0.00     0.060 A 
BRANCH  24  27
ATOM     27  O   UNL A   1      37.791  19.991  24.768  1.00  0.00    -0.508 OA
ATOM     28  H   UNL A   1      37.732  19.253  25.342  1.00  0.00     0.293 HD
ENDBRANCH  24  27
ENDBRANCH   7  20
ENDBRANCH   5   6
ENDBRANCH   3   5
ENDBRANCH   2   3
ENDBRANCH   1   2
BRANCH   1  29
ATOM     29  C   UNL A   1      31.740  33.210  26.840  1.00  0.00     0.275 C 
BRANCH  29  30
ATOM     30  O   UNL A   1      33.053  33.227  27.434  1.00  0.00    -0.458 OA
BRANCH  30  31
ATOM     31  C   UNL A   1      33.238  34.151  28.404  1.00  0.00     0.338 C 
ATOM     32  O   UNL A   1      32.600  35.167  28.604  1.00  0.00    -0.246 OA
BRANCH  31  33
ATOM     33  C   UNL A   1      34.404  33.797  29.222  1.00  0.00     0.060 A 
ATOM     34  C   UNL A   1      35.666  34.307  28.914  1.00  0.00     0.016 A 
ATOM     35  C   UNL A   1      34.251  32.822  30.208  1.00  0.00     0.016 A 
ATOM     36  C   UNL A   1      36.792  33.793  29.552  1.00  0.00     0.010 A 
ATOM     37  C   UNL A   1      35.375  32.352  30.889  1.00  0.00     0.010 A 
ATOM     38  C   UNL A   1      36.658  32.810  30.545  1.00  0.00    -0.014 A 
BRANCH  38  39
ATOM     39  C   UNL A   1      37.856  32.244  31.212  1.00  0.00     0.031 A 
ATOM     40  C   UNL A   1      38.623  31.123  30.561  1.00  0.00     0.074 A 
ATOM     41  C   UNL A   1      38.240  32.727  32.408  1.00  0.00     0.049 A 
ATOM     42  N   UNL A   1      39.610  30.411  31.037  1.00  0.00    -0.248 NA
ATOM     43  C   UNL A   1      38.214  30.748  29.197  1.00  0.00     0.031 C 
ATOM     44  C   UNL A   1      37.584  33.825  33.123  1.00  0.00     0.029 A 
ATOM     45  N   UNL A   1      39.264  32.354  33.241  1.00  0.00    -0.354 N 
ATOM     46  C   UNL A   1      39.921  29.481  30.051  1.00  0.00     0.074 A 
ATOM     47  C   UNL A   1      39.010  29.715  28.951  1.00  0.00     0.031 C 
ATOM     48  C   UNL A   1      38.223  34.036  34.284  1.00  0.00     0.029 A 
ATOM     49  C   UNL A   1      39.291  33.051  34.426  1.00  0.00     0.049 A 
ATOM     50  H   UNL A   1      39.917  31.653  33.012  1.00  0.00     0.167 HD
ATOM     51  C   UNL A   1      40.877  28.519  30.067  1.00  0.00     0.034 A 
ATOM     52  C   UNL A   1      40.060  32.889  35.520  1.00  0.00     0.034 A 
ATOM     53  C   UNL A   1      41.793  28.316  31.164  1.00  0.00     0.049 A 
ATOM     54  C   UNL A   1      41.100  31.803  35.519  1.00  0.00     0.074 A 
ATOM     55  C   UNL A   1      42.822  27.395  31.270  1.00  0.00     0.029 A 
ATOM     56  N   UNL A   1      41.789  29.043  32.347  1.00  0.00    -0.354 N 
ATOM     57  N   UNL A   1      41.376  30.926  34.581  1.00  0.00    -0.248 NA
ATOM     58  C   UNL A   1      41.933  31.682  36.722  1.00  0.00     0.031 C 
ATOM     59  C   UNL A   1      43.405  27.532  32.535  1.00  0.00     0.029 A 
ATOM     60  C   UNL A   1      42.780  28.576  33.197  1.00  0.00     0.049 A 
ATOM     61  H   UNL A   1      41.173  29.783  32.553  1.00  0.00     0.167 HD
ATOM     62  C   UNL A   1      42.426  30.160  35.077  1.00  0.00     0.074 A 
ATOM     63  C   UNL A   1      42.746  30.692  36.386  1.00  0.00     0.031 C 
ATOM     64  C   UNL A   1      43.071  29.112  34.505  1.00  0.00     0.034 A 
BRANCH  51  65
ATOM     65  C   UNL A   1      40.943  27.578  28.892  1.00  0.00     0.023 A 
ATOM     66  C   UNL A   1      41.897  27.723  27.870  1.00  0.00     0.031 A 
ATOM     67  C   UNL A   1      40.030  26.512  28.797  1.00  0.00     0.131 A 
ATOM     68  C   UNL A   1      41.886  26.845  26.775  1.00  0.00     0.055 A 
ATOM     69  C   UNL A   1      40.062  25.606  27.736  1.00  0.00     0.041 A 
ATOM     70  F   UNL A   1      39.084  26.339  29.734  1.00  0.00    -0.206 F 
ATOM     71  C   UNL A   1      40.989  25.774  26.712  1.00  0.00     0.022 A 
BRANCH  68  72
ATOM     72  S   UNL A   1      43.002  27.172  25.382  1.00  0.00     0.124 S 
ATOM     73  O   UNL A   1      43.089  25.853  24.758  1.00  0.00    -0.237 OA
ATOM     74  O   UNL A   1      42.279  28.188  24.629  1.00  0.00    -0.237 OA
ATOM     75  O   UNL A   1      44.231  27.630  26.026  1.00  0.00    -0.744 OA
ENDBRANCH  68  72
ENDBRANCH  51  65
BRANCH  52  76
ATOM     76  C   UNL A   1      39.835  33.733  36.727  1.00  0.00     0.023 A 
ATOM     77  C   UNL A   1      39.170  33.229  37.855  1.00  0.00     0.031 A 
ATOM     78  C   UNL A   1      40.256  35.076  36.752  1.00  0.00     0.131 A 
ATOM     79  C   UNL A   1      38.910  34.074  38.946  1.00  0.00     0.055 A 
ATOM     80  C   UNL A   1      40.039  35.897  37.858  1.00  0.00     0.041 A 
ATOM     81  F   UNL A   1      40.900  35.605  35.699  1.00  0.00    -0.206 F 
ATOM     82  C   UNL A   1      39.351  35.399  38.960  1.00  0.00     0.022 A 
BRANCH  79  83
ATOM     83  S   UNL A   1      37.908  33.437  40.317  1.00  0.00     0.124 S 
ATOM     84  O   UNL A   1      36.691  33.021  39.631  1.00  0.00    -0.237 OA
ATOM     85  O   UNL A   1      38.753  32.364  40.833  1.00  0.00    -0.237 OA
ATOM     86  O   UNL A   1      37.765  34.593  41.199  1.00  0.00    -0.744 OA
ENDBRANCH  79  83
ENDBRANCH  52  76
BRANCH  64  87
ATOM     87  C   UNL A   1      44.204  28.507  35.290  1.00  0.00     0.023 A 
ATOM     88  C   UNL A   1      43.969  27.633  36.364  1.00  0.00     0.031 A 
ATOM     89  C   UNL A   1      45.534  28.835  34.976  1.00  0.00     0.131 A 
ATOM     90  C   UNL A   1      45.047  27.157  37.123  1.00  0.00     0.055 A 
ATOM     91  C   UNL A   1      46.607  28.318  35.704  1.00  0.00     0.041 A 
ATOM     92  F   UNL A   1      45.811  29.668  33.959  1.00  0.00    -0.206 F 
ATOM     93  C   UNL A   1      46.365  27.484  36.792  1.00  0.00     0.022 A 
BRANCH  90  94
ATOM     94  S   UNL A   1      44.701  26.166  38.603  1.00  0.00     0.124 S 
ATOM     95  O   UNL A   1      43.259  25.964  38.503  1.00  0.00    -0.237 OA
ATOM     96  O   UNL A   1      45.526  24.983  38.387  1.00  0.00    -0.237 OA
ATOM     97  O   UNL A   1      45.132  27.029  39.701  1.00  0.00    -0.744 OA
ENDBRANCH  90  94
ENDBRANCH  64  87
ENDBRANCH  38  39
ENDBRANCH  31  33
ENDBRANCH  30  31
ENDBRANCH  29  30
ENDBRANCH   1  29
TORSDOF 17
ENDMDL
MODEL 3
REMARK VINA RESULT:     -12.2      1.325      7.436
REMARK SMILES Cc1ccc(C(=O)N2CCC3(CCC(=O)N(CC(=O)OCCOC(=O)c4ccc(-c5c6nc(c(-c7cc(S(=O)(=O)[O-])ccc7F)c7ccc([nH]7)c(-c7cc(S(=O)(=O)[O-])ccc7F)c7nc(c(-c8cc(S(=O)(=O)[O-])ccc8F)c8ccc5[nH]8)C=C7)C=C6)cc4)C3)CC2)cc1O
REMARK SMILES IDX 21 1 20 2 18 3 19 4 17 5 16 6 6 7 7 8 8 9 9 10 91 11 10 12
REMARK SMILES IDX 90 13 11 14 12 15 89 16 13 17 14 18 15 19 5 20 1 21 2 22
REMARK SMILES IDX 3 23 93 24 4 25 92 26 94 27 22 29 23 30 24 31 25 32 26 33
REMARK SMILES IDX 27 34 88 35 28 36 87 37 29 38 30 39 31 40 81 41 32 42 86 43
REMARK SMILES IDX 80 44 82 45 33 46 85 47 79 48 78 49 34 51 66 52 46 53 65 54
REMARK SMILES IDX 47 55 50 56 64 57 83 58 48 59 49 60 63 62 84 63 51 64 35 65
REMARK SMILES IDX 36 66 44 67 37 68 43 69 45 70 42 71 38 72 39 73 40 74 41 75
REMARK SMILES IDX 67 76 68 77 76 78 69 79 75 80 77 81 74 82 70 83 71 84 72 85
REMARK SMILES IDX 73 86 52 87 53 88 61 89 54 90 60 91 62 92 59 93 55 94 56 95
REMARK SMILES IDX 57 96 58 97
REMARK H PARENT 94 28 82 50 50 61
REMARK Flexibility Score: inf
ROOT
ATOM      1  C   UNL A   1      31.777  29.680  26.293  1.00  0.00     0.274 C 
ENDROOT
BRANCH   1   2
ATOM      2  O   UNL A   1      32.927  29.490  25.453  1.00  0.00    -0.461 OA
BRANCH   2   3
ATOM      3  C   UNL A   1      32.679  29.324  24.133  1.00  0.00     0.325 C 
ATOM      4  O   UNL A   1      33.532  29.079  23.285  1.00  0.00    -0.250 OA
BRANCH   3   5
ATOM      5  C   UNL A   1      31.200  29.433  23.767  1.00  0.00     0.242 C 
BRANCH   5   6
ATOM      6  N   UNL A   1      30.604  28.449  22.866  1.00  0.00    -0.331 N 
ATOM      7  C   UNL A   1      32.084  23.203  26.411  1.00  0.00     0.253 C 
ATOM      8  O   UNL A   1      31.871  23.107  27.617  1.00  0.00    -0.269 OA
ATOM      9  N   UNL A   1      31.295  23.974  25.566  1.00  0.00    -0.339 N 
ATOM     10  C   UNL A   1      30.623  25.145  26.102  1.00  0.00     0.120 C 
ATOM     11  C   UNL A   1      30.873  23.567  24.237  1.00  0.00     0.120 C 
ATOM     12  C   UNL A   1      30.921  26.336  25.187  1.00  0.00     0.030 C 
ATOM     13  C   UNL A   1      31.068  24.697  23.234  1.00  0.00     0.030 C 
ATOM     14  C   UNL A   1      30.534  26.083  23.702  1.00  0.00    -0.008 C 
ATOM     15  C   UNL A   1      28.995  26.160  23.504  1.00  0.00     0.019 C 
ATOM     16  C   UNL A   1      31.196  27.134  22.779  1.00  0.00     0.127 C 
ATOM     17  C   UNL A   1      28.452  27.589  23.562  1.00  0.00     0.101 C 
ATOM     18  C   UNL A   1      29.234  28.509  22.648  1.00  0.00     0.223 C 
ATOM     19  O   UNL A   1      28.713  29.274  21.847  1.00  0.00    -0.275 OA
BRANCH   7  20
ATOM     20  C   UNL A   1      33.338  22.607  25.870  1.00  0.00     0.043 A 
ATOM     21  C   UNL A   1      37.113  20.688  25.004  1.00  0.00     0.048 C 
ATOM     22  C   UNL A   1      35.786  21.342  25.258  1.00  0.00    -0.009 A 
ATOM     23  C   UNL A   1      35.746  22.709  25.558  1.00  0.00     0.008 A 
ATOM     24  C   UNL A   1      34.583  20.623  25.274  1.00  0.00     0.119 A 
ATOM     25  C   UNL A   1      34.536  23.331  25.879  1.00  0.00     0.014 A 
ATOM     26  C   UNL A   1      33.368  21.245  25.561  1.00  0.00     0.060 A 
BRANCH  24  27
ATOM     27  O   UNL A   1      34.538  19.276  25.048  1.00  0.00    -0.508 OA
ATOM     28  H   UNL A   1      35.322  18.766  25.097  1.00  0.00     0.293 HD
ENDBRANCH  24  27
ENDBRANCH   7  20
ENDBRANCH   5   6
ENDBRANCH   3   5
ENDBRANCH   2   3
ENDBRANCH   1   2
BRANCH   1  29
ATOM     29  C   UNL A   1      31.735  31.109  26.832  1.00  0.00     0.275 C 
BRANCH  29  30
ATOM     30  O   UNL A   1      32.956  31.798  26.499  1.00  0.00    -0.458 OA
BRANCH  30  31
ATOM     31  C   UNL A   1      33.499  32.531  27.497  1.00  0.00     0.338 C 
ATOM     32  O   UNL A   1      33.117  33.599  27.937  1.00  0.00    -0.246 OA
BRANCH  31  33
ATOM     33  C   UNL A   1      34.713  31.877  28.000  1.00  0.00     0.060 A 
ATOM     34  C   UNL A   1      34.712  30.512  28.290  1.00  0.00     0.016 A 
ATOM     35  C   UNL A   1      35.809  32.675  28.330  1.00  0.00     0.016 A 
ATOM     36  C   UNL A   1      35.789  29.952  28.973  1.00  0.00     0.010 A 
ATOM     37  C   UNL A   1      36.913  32.099  28.959  1.00  0.00     0.010 A 
ATOM     38  C   UNL A   1      36.899  30.740  29.314  1.00  0.00    -0.014 A 
BRANCH  38  39
ATOM     39  C   UNL A   1      38.039  30.152  30.061  1.00  0.00     0.031 A 
ATOM     40  C   UNL A   1      38.314  30.581  31.478  1.00  0.00     0.074 A 
ATOM     41  C   UNL A   1      38.833  29.249  29.455  1.00  0.00     0.049 A 
ATOM     42  N   UNL A   1      39.327  30.286  32.249  1.00  0.00    -0.248 NA
ATOM     43  C   UNL A   1      37.321  31.469  32.104  1.00  0.00     0.031 C 
ATOM     44  C   UNL A   1      38.650  28.745  28.092  1.00  0.00     0.029 A 
ATOM     45  N   UNL A   1      39.959  28.603  29.900  1.00  0.00    -0.354 N 
ATOM     46  C   UNL A   1      39.117  30.976  33.437  1.00  0.00     0.074 A 
ATOM     47  C   UNL A   1      37.880  31.712  33.281  1.00  0.00     0.031 C 
ATOM     48  C   UNL A   1      39.627  27.869  27.813  1.00  0.00     0.029 A 
ATOM     49  C   UNL A   1      40.539  27.795  28.950  1.00  0.00     0.049 A 
ATOM     50  H   UNL A   1      40.317  28.707  30.811  1.00  0.00     0.167 HD
ATOM     51  C   UNL A   1      39.889  30.995  34.552  1.00  0.00     0.034 A 
ATOM     52  C   UNL A   1      41.696  27.106  28.975  1.00  0.00     0.034 A 
ATOM     53  C   UNL A   1      41.107  30.234  34.698  1.00  0.00     0.049 A 
ATOM     54  C   UNL A   1      42.543  27.158  30.217  1.00  0.00     0.074 A 
ATOM     55  C   UNL A   1      41.946  30.152  35.797  1.00  0.00     0.029 A 
ATOM     56  N   UNL A   1      41.662  29.427  33.714  1.00  0.00    -0.354 N 
ATOM     57  N   UNL A   1      42.333  27.823  31.331  1.00  0.00    -0.248 NA
ATOM     58  C   UNL A   1      43.781  26.369  30.209  1.00  0.00     0.031 C 
ATOM     59  C   UNL A   1      43.034  29.337  35.458  1.00  0.00     0.029 A 
ATOM     60  C   UNL A   1      42.844  28.863  34.170  1.00  0.00     0.049 A 
ATOM     61  H   UNL A   1      41.273  29.277  32.822  1.00  0.00     0.167 HD
ATOM     62  C   UNL A   1      43.407  27.518  32.160  1.00  0.00     0.074 A 
ATOM     63  C   UNL A   1      44.250  26.595  31.427  1.00  0.00     0.031 C 
ATOM     64  C   UNL A   1      43.675  27.958  33.416  1.00  0.00     0.034 A 
BRANCH  51  65
ATOM     65  C   UNL A   1      39.471  31.906  35.678  1.00  0.00     0.023 A 
ATOM     66  C   UNL A   1      39.968  33.215  35.805  1.00  0.00     0.031 A 
ATOM     67  C   UNL A   1      38.553  31.450  36.642  1.00  0.00     0.131 A 
ATOM     68  C   UNL A   1      39.579  34.005  36.899  1.00  0.00     0.055 A 
ATOM     69  C   UNL A   1      38.125  32.262  37.693  1.00  0.00     0.041 A 
ATOM     70  F   UNL A   1      38.063  30.202  36.581  1.00  0.00    -0.206 F 
ATOM     71  C   UNL A   1      38.644  33.546  37.831  1.00  0.00     0.022 A 
BRANCH  68  72
ATOM     72  S   UNL A   1      40.381  35.615  37.141  1.00  0.00     0.124 S 
ATOM     73  O   UNL A   1      39.655  36.453  36.189  1.00  0.00    -0.237 OA
ATOM     74  O   UNL A   1      40.129  35.884  38.551  1.00  0.00    -0.237 OA
ATOM     75  O   UNL A   1      41.777  35.358  36.796  1.00  0.00    -0.744 OA
ENDBRANCH  68  72
ENDBRANCH  51  65
BRANCH  52  76
ATOM     76  C   UNL A   1      42.152  26.360  27.769  1.00  0.00     0.023 A 
ATOM     77  C   UNL A   1      41.802  25.016  27.568  1.00  0.00     0.031 A 
ATOM     78  C   UNL A   1      42.980  26.978  26.813  1.00  0.00     0.131 A 
ATOM     79  C   UNL A   1      42.310  24.322  26.458  1.00  0.00     0.055 A 
ATOM     80  C   UNL A   1      43.441  26.298  25.686  1.00  0.00     0.041 A 
ATOM     81  F   UNL A   1      43.340  28.263  26.957  1.00  0.00    -0.206 F 
ATOM     82  C   UNL A   1      43.116  24.957  25.510  1.00  0.00     0.022 A 
BRANCH  79  83
ATOM     83  S   UNL A   1      41.970  22.546  26.316  1.00  0.00     0.124 S 
ATOM     84  O   UNL A   1      42.656  22.208  25.075  1.00  0.00    -0.237 OA
ATOM     85  O   UNL A   1      42.567  22.026  27.542  1.00  0.00    -0.237 OA
ATOM     86  O   UNL A   1      40.511  22.483  26.260  1.00  0.00    -0.744 OA
ENDBRANCH  79  83
ENDBRANCH  52  76
BRANCH  64  87
ATOM     87  C   UNL A   1      44.915  27.410  34.072  1.00  0.00     0.023 A 
ATOM     88  C   UNL A   1      44.896  26.196  34.778  1.00  0.00     0.031 A 
ATOM     89  C   UNL A   1      46.121  28.129  34.014  1.00  0.00     0.131 A 
ATOM     90  C   UNL A   1      46.050  25.761  35.446  1.00  0.00     0.055 A 
ATOM     91  C   UNL A   1      47.280  27.667  34.638  1.00  0.00     0.041 A 
ATOM     92  F   UNL A   1      46.189  29.296  33.352  1.00  0.00    -0.206 F 
ATOM     93  C   UNL A   1      47.245  26.483  35.370  1.00  0.00     0.022 A 
BRANCH  90  94
ATOM     94  S   UNL A   1      45.948  24.278  36.486  1.00  0.00     0.124 S 
ATOM     95  O   UNL A   1      44.511  24.024  36.513  1.00  0.00    -0.237 OA
ATOM     96  O   UNL A   1      46.751  23.316  35.737  1.00  0.00    -0.237 OA
ATOM     97  O   UNL A   1      46.526  24.710  37.757  1.00  0.00    -0.744 OA
ENDBRANCH  90  94
ENDBRANCH  64  87
ENDBRANCH  38  39
ENDBRANCH  31  33
ENDBRANCH  30  31
ENDBRANCH  29  30
ENDBRANCH   1  29
TORSDOF 17
ENDMDL
