MODEL 1
REMARK VINA RESULT:      -8.1      0.000      0.000
REMARK SMILES CCCCCCNC(=O)Oc1cccc(-c2ccc([C@@H](C)C(=O)OCCOC(=O)c3ccc(-c4c5nc(c(-c6cc(S(=O)(=O)[O-])ccc6F)c6ccc([nH]6)c(-c6cc(S(=O)(=O)[O-])ccc6F)c6nc(c(-c7cc(S(=O)(=O)[O-])ccc7F)c7ccc4[nH]7)C=C6)C=C5)cc3)cc2[N+](=O)[O-])c1
REMARK SMILES IDX 20 1 21 2 19 3 16 4 17 5 94 6 18 7 93 8 15 9 11 10 12 11
REMARK SMILES IDX 98 12 13 13 14 14 10 15 8 16 7 17 9 19 6 20 5 21 4 22 3 23
REMARK SMILES IDX 2 24 1 25 95 26 96 27 97 28 22 29 23 30 24 31 25 32 26 33
REMARK SMILES IDX 27 34 28 35 29 36 30 37 31 38 92 39 32 40 91 41 33 42 34 43
REMARK SMILES IDX 35 44 85 45 36 46 90 47 84 48 86 49 37 50 89 51 83 52 82 53
REMARK SMILES IDX 38 55 70 56 50 57 69 58 51 59 54 60 68 61 87 62 52 63 53 64
REMARK SMILES IDX 67 66 88 67 55 68 39 69 40 70 48 71 41 72 47 73 49 74 46 75
REMARK SMILES IDX 42 76 43 77 44 78 45 79 71 80 72 81 80 82 73 83 79 84 81 85
REMARK SMILES IDX 78 86 74 87 75 88 76 89 77 90 56 91 57 92 65 93 58 94 64 95
REMARK SMILES IDX 66 96 63 97 59 98 60 99 61 100 62 101
REMARK H PARENT 7 18 86 54 54 65
REMARK Flexibility Score: inf
ROOT
ATOM      1  C   UNL A   1      44.797  23.981  34.182  1.00  0.00     0.126 C 
ATOM      2  C   UNL A   1      43.278  23.864  34.278  1.00  0.00     0.025 C 
ENDROOT
BRANCH   1   3
ATOM      3  C   UNL A   1      45.250  24.461  32.809  1.00  0.00    -0.027 A 
ATOM      4  C   UNL A   1      46.081  25.330  30.204  1.00  0.00     0.060 A 
ATOM      5  C   UNL A   1      46.661  25.845  31.379  1.00  0.00     0.016 A 
ATOM      6  C   UNL A   1      45.073  24.366  30.375  1.00  0.00     0.277 A 
ATOM      7  C   UNL A   1      46.263  25.414  32.652  1.00  0.00     0.006 A 
ATOM      8  C   UNL A   1      44.659  23.936  31.651  1.00  0.00     0.091 A 
BRANCH   4   9
ATOM      9  C   UNL A   1      46.578  25.811  28.903  1.00  0.00    -0.008 A 
ATOM     10  C   UNL A   1      46.333  27.091  26.860  1.00  0.00     0.133 A 
ATOM     11  C   UNL A   1      47.583  26.669  26.412  1.00  0.00     0.047 A 
ATOM     12  C   UNL A   1      45.821  26.668  28.090  1.00  0.00     0.056 A 
ATOM     13  C   UNL A   1      48.346  25.827  27.212  1.00  0.00     0.004 A 
ATOM     14  C   UNL A   1      47.845  25.401  28.445  1.00  0.00     0.009 A 
BRANCH  10  15
ATOM     15  O   UNL A   1      45.561  27.838  25.956  1.00  0.00    -0.410 OA
BRANCH  15  16
ATOM     16  C   UNL A   1      46.143  28.931  25.335  1.00  0.00     0.412 C 
ATOM     17  N   UNL A   1      45.959  30.098  26.026  1.00  0.00    -0.321 N 
ATOM     18  H   UNL A   1      46.356  30.910  25.634  1.00  0.00     0.167 HD
ATOM     19  O   UNL A   1      46.735  28.918  24.262  1.00  0.00    -0.224 OA
BRANCH  17  20
ATOM     20  C   UNL A   1      45.242  30.264  27.277  1.00  0.00     0.119 C 
BRANCH  20  21
ATOM     21  C   UNL A   1      45.908  31.279  28.205  1.00  0.00     0.021 C 
BRANCH  21  22
ATOM     22  C   UNL A   1      45.782  30.973  29.703  1.00  0.00     0.002 C 
BRANCH  22  23
ATOM     23  C   UNL A   1      46.061  29.523  30.112  1.00  0.00    -0.000 C 
BRANCH  23  24
ATOM     24  C   UNL A   1      47.380  29.287  30.851  1.00  0.00    -0.003 C 
ATOM     25  C   UNL A   1      48.099  30.572  31.228  1.00  0.00     0.004 C 
ENDBRANCH  23  24
ENDBRANCH  22  23
ENDBRANCH  21  22
ENDBRANCH  20  21
ENDBRANCH  17  20
ENDBRANCH  15  16
ENDBRANCH  10  15
ENDBRANCH   4   9
BRANCH   6  26
ATOM     26  N   UNL A   1      44.451  23.711  29.231  1.00  0.00     0.063 N 
ATOM     27  O   UNL A   1      45.191  23.041  28.500  1.00  0.00    -0.258 OA
ATOM     28  O   UNL A   1      43.248  23.930  29.033  1.00  0.00    -0.258 OA
ENDBRANCH   6  26
ENDBRANCH   1   3
BRANCH   1  29
ATOM     29  C   UNL A   1      45.449  22.703  34.701  1.00  0.00     0.313 C 
ATOM     30  O   UNL A   1      44.957  21.596  34.511  1.00  0.00    -0.252 OA
BRANCH  29  31
ATOM     31  O   UNL A   1      46.637  22.908  35.330  1.00  0.00    -0.462 OA
BRANCH  31  32
ATOM     32  C   UNL A   1      46.604  23.661  36.557  1.00  0.00     0.274 C 
BRANCH  32  33
ATOM     33  C   UNL A   1      47.556  24.861  36.503  1.00  0.00     0.275 C 
BRANCH  33  34
ATOM     34  O   UNL A   1      47.024  25.988  37.221  1.00  0.00    -0.458 OA
BRANCH  34  35
ATOM     35  C   UNL A   1      47.182  27.180  36.599  1.00  0.00     0.338 C 
ATOM     36  O   UNL A   1      48.172  27.892  36.621  1.00  0.00    -0.246 OA
BRANCH  35  37
ATOM     37  C   UNL A   1      46.021  27.451  35.739  1.00  0.00     0.060 A 
ATOM     38  C   UNL A   1      46.206  28.314  34.656  1.00  0.00     0.016 A 
ATOM     39  C   UNL A   1      44.755  26.943  36.033  1.00  0.00     0.016 A 
ATOM     40  C   UNL A   1      45.123  28.702  33.877  1.00  0.00     0.010 A 
ATOM     41  C   UNL A   1      43.666  27.326  35.241  1.00  0.00     0.010 A 
ATOM     42  C   UNL A   1      43.842  28.223  34.172  1.00  0.00    -0.014 A 
BRANCH  42  43
ATOM     43  C   UNL A   1      42.687  28.736  33.397  1.00  0.00     0.031 A 
ATOM     44  C   UNL A   1      41.770  29.754  34.016  1.00  0.00     0.074 A 
ATOM     45  C   UNL A   1      42.491  28.322  32.132  1.00  0.00     0.049 A 
ATOM     46  N   UNL A   1      40.692  30.308  33.524  1.00  0.00    -0.248 NA
ATOM     47  C   UNL A   1      42.112  30.196  35.374  1.00  0.00     0.031 C 
ATOM     48  C   UNL A   1      43.336  27.359  31.424  1.00  0.00     0.029 A 
ATOM     49  N   UNL A   1      41.522  28.654  31.221  1.00  0.00    -0.354 N 
ATOM     50  C   UNL A   1      40.215  31.156  34.519  1.00  0.00     0.074 A 
ATOM     51  C   UNL A   1      41.103  31.007  35.654  1.00  0.00     0.031 C 
ATOM     52  C   UNL A   1      42.845  27.175  30.188  1.00  0.00     0.029 A 
ATOM     53  C   UNL A   1      41.631  27.973  30.032  1.00  0.00     0.049 A 
ATOM     54  H   UNL A   1      40.817  29.317  31.400  1.00  0.00     0.167 HD
ATOM     55  C   UNL A   1      39.142  31.986  34.481  1.00  0.00     0.034 A 
ATOM     56  C   UNL A   1      40.828  27.970  28.950  1.00  0.00     0.034 A 
ATOM     57  C   UNL A   1      38.270  32.114  33.337  1.00  0.00     0.049 A 
ATOM     58  C   UNL A   1      39.615  28.862  28.943  1.00  0.00     0.074 A 
ATOM     59  C   UNL A   1      37.166  32.934  33.176  1.00  0.00     0.029 A 
ATOM     60  N   UNL A   1      38.395  31.388  32.155  1.00  0.00    -0.354 N 
ATOM     61  N   UNL A   1      39.174  29.663  29.886  1.00  0.00    -0.248 NA
ATOM     62  C   UNL A   1      38.797  28.858  27.724  1.00  0.00     0.031 C 
ATOM     63  C   UNL A   1      36.588  32.657  31.930  1.00  0.00     0.029 A 
ATOM     64  C   UNL A   1      37.371  31.717  31.278  1.00  0.00     0.049 A 
ATOM     65  H   UNL A   1      39.108  30.735  31.969  1.00  0.00     0.167 HD
ATOM     66  C   UNL A   1      38.033  30.268  29.369  1.00  0.00     0.074 A 
ATOM     67  C   UNL A   1      37.866  29.752  28.024  1.00  0.00     0.031 C 
ATOM     68  C   UNL A   1      37.202  31.171  29.949  1.00  0.00     0.034 A 
BRANCH  55  69
ATOM     69  C   UNL A   1      38.828  32.761  35.743  1.00  0.00     0.023 A 
ATOM     70  C   UNL A   1      39.277  34.079  35.942  1.00  0.00     0.031 A 
ATOM     71  C   UNL A   1      38.127  32.142  36.794  1.00  0.00     0.131 A 
ATOM     72  C   UNL A   1      39.101  34.699  37.190  1.00  0.00     0.055 A 
ATOM     73  C   UNL A   1      37.880  32.797  38.002  1.00  0.00     0.041 A 
ATOM     74  F   UNL A   1      37.692  30.878  36.676  1.00  0.00    -0.206 F 
ATOM     75  C   UNL A   1      38.385  34.077  38.214  1.00  0.00     0.022 A 
BRANCH  72  76
ATOM     76  S   UNL A   1      39.972  36.259  37.519  1.00  0.00     0.124 S 
ATOM     77  O   UNL A   1      41.258  35.781  38.017  1.00  0.00    -0.237 OA
ATOM     78  O   UNL A   1      39.985  36.895  36.207  1.00  0.00    -0.237 OA
ATOM     79  O   UNL A   1      39.134  36.916  38.521  1.00  0.00    -0.744 OA
ENDBRANCH  72  76
ENDBRANCH  55  69
BRANCH  56  80
ATOM     80  C   UNL A   1      41.122  27.055  27.813  1.00  0.00     0.023 A 
ATOM     81  C   UNL A   1      40.630  25.741  27.780  1.00  0.00     0.031 A 
ATOM     82  C   UNL A   1      41.908  27.497  26.733  1.00  0.00     0.131 A 
ATOM     83  C   UNL A   1      40.949  24.906  26.697  1.00  0.00     0.055 A 
ATOM     84  C   UNL A   1      42.187  26.675  25.640  1.00  0.00     0.041 A 
ATOM     85  F   UNL A   1      42.397  28.747  26.716  1.00  0.00    -0.206 F 
ATOM     86  C   UNL A   1      41.712  25.369  25.622  1.00  0.00     0.022 A 
BRANCH  83  87
ATOM     87  S   UNL A   1      40.385  23.182  26.729  1.00  0.00     0.124 S 
ATOM     88  O   UNL A   1      41.276  22.558  25.758  1.00  0.00    -0.237 OA
ATOM     89  O   UNL A   1      40.601  22.818  28.125  1.00  0.00    -0.237 OA
ATOM     90  O   UNL A   1      38.984  23.274  26.323  1.00  0.00    -0.744 OA
ENDBRANCH  83  87
ENDBRANCH  56  80
BRANCH  68  91
ATOM     91  C   UNL A   1      36.051  31.673  29.112  1.00  0.00     0.023 A 
ATOM     92  C   UNL A   1      35.073  30.801  28.600  1.00  0.00     0.031 A 
ATOM     93  C   UNL A   1      35.943  33.042  28.807  1.00  0.00     0.131 A 
ATOM     94  C   UNL A   1      34.057  31.300  27.770  1.00  0.00     0.055 A 
ATOM     95  C   UNL A   1      34.899  33.540  28.026  1.00  0.00     0.041 A 
ATOM     96  F   UNL A   1      36.850  33.918  29.266  1.00  0.00    -0.206 F 
ATOM     97  C   UNL A   1      33.956  32.666  27.492  1.00  0.00     0.022 A 
BRANCH  94  98
ATOM     98  S   UNL A   1      32.915  30.128  26.985  1.00  0.00     0.124 S 
ATOM     99  O   UNL A   1      33.525  29.943  25.672  1.00  0.00    -0.237 OA
ATOM    100  O   UNL A   1      32.976  28.982  27.885  1.00  0.00    -0.237 OA
ATOM    101  O   UNL A   1      31.641  30.843  26.980  1.00  0.00    -0.744 OA
ENDBRANCH  94  98
ENDBRANCH  68  91
ENDBRANCH  42  43
ENDBRANCH  35  37
ENDBRANCH  34  35
ENDBRANCH  33  34
ENDBRANCH  32  33
ENDBRANCH  31  32
ENDBRANCH  29  31
ENDBRANCH   1  29
TORSDOF 24
ENDMDL
MODEL 2
REMARK VINA RESULT:      -8.1      6.040     12.193
REMARK SMILES CCCCCCNC(=O)Oc1cccc(-c2ccc([C@@H](C)C(=O)OCCOC(=O)c3ccc(-c4c5nc(c(-c6cc(S(=O)(=O)[O-])ccc6F)c6ccc([nH]6)c(-c6cc(S(=O)(=O)[O-])ccc6F)c6nc(c(-c7cc(S(=O)(=O)[O-])ccc7F)c7ccc4[nH]7)C=C6)C=C5)cc3)cc2[N+](=O)[O-])c1
REMARK SMILES IDX 20 1 21 2 19 3 16 4 17 5 94 6 18 7 93 8 15 9 11 10 12 11
REMARK SMILES IDX 98 12 13 13 14 14 10 15 8 16 7 17 9 19 6 20 5 21 4 22 3 23
REMARK SMILES IDX 2 24 1 25 95 26 96 27 97 28 22 29 23 30 24 31 25 32 26 33
REMARK SMILES IDX 27 34 28 35 29 36 30 37 31 38 92 39 32 40 91 41 33 42 34 43
REMARK SMILES IDX 35 44 85 45 36 46 90 47 84 48 86 49 37 50 89 51 83 52 82 53
REMARK SMILES IDX 38 55 70 56 50 57 69 58 51 59 54 60 68 61 87 62 52 63 53 64
REMARK SMILES IDX 67 66 88 67 55 68 39 69 40 70 48 71 41 72 47 73 49 74 46 75
REMARK SMILES IDX 42 76 43 77 44 78 45 79 71 80 72 81 80 82 73 83 79 84 81 85
REMARK SMILES IDX 78 86 74 87 75 88 76 89 77 90 56 91 57 92 65 93 58 94 64 95
REMARK SMILES IDX 66 96 63 97 59 98 60 99 61 100 62 101
REMARK H PARENT 7 18 86 54 54 65
REMARK Flexibility Score: inf
ROOT
ATOM      1  C   UNL A   1      46.023  21.912  39.516  1.00  0.00     0.126 C 
ATOM      2  C   UNL A   1      45.308  23.175  39.989  1.00  0.00     0.025 C 
ENDROOT
BRANCH   1   3
ATOM      3  C   UNL A   1      45.793  20.736  40.455  1.00  0.00    -0.027 A 
ATOM      4  C   UNL A   1      45.377  18.493  42.195  1.00  0.00     0.060 A 
ATOM      5  C   UNL A   1      44.779  19.744  42.441  1.00  0.00     0.016 A 
ATOM      6  C   UNL A   1      46.188  18.401  41.052  1.00  0.00     0.277 A 
ATOM      7  C   UNL A   1      44.974  20.838  41.586  1.00  0.00     0.006 A 
ATOM      8  C   UNL A   1      46.398  19.498  40.194  1.00  0.00     0.091 A 
BRANCH   4   9
ATOM      9  C   UNL A   1      45.097  17.383  43.123  1.00  0.00    -0.008 A 
ATOM     10  C   UNL A   1      44.018  15.289  43.691  1.00  0.00     0.133 A 
ATOM     11  C   UNL A   1      44.587  15.307  44.963  1.00  0.00     0.047 A 
ATOM     12  C   UNL A   1      44.258  16.314  42.772  1.00  0.00     0.056 A 
ATOM     13  C   UNL A   1      45.427  16.356  45.319  1.00  0.00     0.004 A 
ATOM     14  C   UNL A   1      45.676  17.384  44.408  1.00  0.00     0.009 A 
BRANCH  10  15
ATOM     15  O   UNL A   1      43.084  14.272  43.435  1.00  0.00    -0.410 OA
BRANCH  15  16
ATOM     16  C   UNL A   1      41.855  14.621  42.900  1.00  0.00     0.412 C 
ATOM     17  N   UNL A   1      41.339  13.660  42.074  1.00  0.00    -0.321 N 
ATOM     18  H   UNL A   1      40.463  13.851  41.668  1.00  0.00     0.167 HD
ATOM     19  O   UNL A   1      41.266  15.680  43.084  1.00  0.00    -0.224 OA
BRANCH  17  20
ATOM     20  C   UNL A   1      41.949  12.388  41.733  1.00  0.00     0.119 C 
BRANCH  20  21
ATOM     21  C   UNL A   1      41.695  11.313  42.789  1.00  0.00     0.021 C 
BRANCH  21  22
ATOM     22  C   UNL A   1      42.953  10.644  43.355  1.00  0.00     0.002 C 
BRANCH  22  23
ATOM     23  C   UNL A   1      43.423  11.158  44.721  1.00  0.00    -0.000 C 
BRANCH  23  24
ATOM     24  C   UNL A   1      44.569  10.375  45.363  1.00  0.00    -0.003 C 
ATOM     25  C   UNL A   1      45.913  10.610  44.692  1.00  0.00     0.004 C 
ENDBRANCH  23  24
ENDBRANCH  22  23
ENDBRANCH  21  22
ENDBRANCH  20  21
ENDBRANCH  17  20
ENDBRANCH  15  16
ENDBRANCH  10  15
ENDBRANCH   4   9
BRANCH   6  26
ATOM     26  N   UNL A   1      46.800  17.138  40.658  1.00  0.00     0.063 N 
ATOM     27  O   UNL A   1      46.166  16.433  39.863  1.00  0.00    -0.258 OA
ATOM     28  O   UNL A   1      47.870  16.829  41.200  1.00  0.00    -0.258 OA
ENDBRANCH   6  26
ENDBRANCH   1   3
BRANCH   1  29
ATOM     29  C   UNL A   1      47.476  22.234  39.178  1.00  0.00     0.313 C 
ATOM     30  O   UNL A   1      48.106  21.603  38.335  1.00  0.00    -0.252 OA
BRANCH  29  31
ATOM     31  O   UNL A   1      47.971  23.308  39.848  1.00  0.00    -0.462 OA
BRANCH  31  32
ATOM     32  C   UNL A   1      48.706  24.277  39.077  1.00  0.00     0.274 C 
BRANCH  32  33
ATOM     33  C   UNL A   1      47.843  25.498  38.743  1.00  0.00     0.275 C 
BRANCH  33  34
ATOM     34  O   UNL A   1      47.192  25.352  37.469  1.00  0.00    -0.458 OA
BRANCH  34  35
ATOM     35  C   UNL A   1      47.630  26.201  36.510  1.00  0.00     0.338 C 
ATOM     36  O   UNL A   1      48.783  26.539  36.303  1.00  0.00    -0.246 OA
BRANCH  35  37
ATOM     37  C   UNL A   1      46.519  26.563  35.618  1.00  0.00     0.060 A 
ATOM     38  C   UNL A   1      46.660  27.716  34.843  1.00  0.00     0.016 A 
ATOM     39  C   UNL A   1      45.325  25.840  35.602  1.00  0.00     0.016 A 
ATOM     40  C   UNL A   1      45.600  28.175  34.071  1.00  0.00     0.010 A 
ATOM     41  C   UNL A   1      44.262  26.296  34.815  1.00  0.00     0.010 A 
ATOM     42  C   UNL A   1      44.387  27.478  34.063  1.00  0.00    -0.014 A 
BRANCH  42  43
ATOM     43  C   UNL A   1      43.237  28.045  33.319  1.00  0.00     0.031 A 
ATOM     44  C   UNL A   1      43.035  27.684  31.875  1.00  0.00     0.074 A 
ATOM     45  C   UNL A   1      42.358  28.844  33.952  1.00  0.00     0.049 A 
ATOM     46  N   UNL A   1      42.115  28.091  31.038  1.00  0.00    -0.248 NA
ATOM     47  C   UNL A   1      44.007  26.748  31.297  1.00  0.00     0.031 C 
ATOM     48  C   UNL A   1      42.443  29.236  35.360  1.00  0.00     0.029 A 
ATOM     49  N   UNL A   1      41.227  29.470  33.496  1.00  0.00    -0.354 N 
ATOM     50  C   UNL A   1      42.404  27.470  29.826  1.00  0.00     0.074 A 
ATOM     51  C   UNL A   1      43.611  26.695  30.034  1.00  0.00     0.031 C 
ATOM     52  C   UNL A   1      41.407  30.040  35.651  1.00  0.00     0.029 A 
ATOM     53  C   UNL A   1      40.612  30.252  34.444  1.00  0.00     0.049 A 
ATOM     54  H   UNL A   1      40.887  29.367  32.578  1.00  0.00     0.167 HD
ATOM     55  C   UNL A   1      41.721  27.537  28.656  1.00  0.00     0.034 A 
ATOM     56  C   UNL A   1      39.547  31.070  34.345  1.00  0.00     0.034 A 
ATOM     57  C   UNL A   1      40.521  28.322  28.475  1.00  0.00     0.049 A 
ATOM     58  C   UNL A   1      38.827  31.169  33.026  1.00  0.00     0.074 A 
ATOM     59  C   UNL A   1      39.734  28.452  27.344  1.00  0.00     0.029 A 
ATOM     60  N   UNL A   1      39.939  29.125  29.452  1.00  0.00    -0.354 N 
ATOM     61  N   UNL A   1      39.106  30.577  31.887  1.00  0.00    -0.248 NA
ATOM     62  C   UNL A   1      37.645  32.038  32.980  1.00  0.00     0.031 C 
ATOM     63  C   UNL A   1      38.720  29.379  27.615  1.00  0.00     0.029 A 
ATOM     64  C   UNL A   1      38.826  29.776  28.939  1.00  0.00     0.049 A 
ATOM     65  H   UNL A   1      40.271  29.218  30.375  1.00  0.00     0.167 HD
ATOM     66  C   UNL A   1      38.125  30.992  30.992  1.00  0.00     0.074 A 
ATOM     67  C   UNL A   1      37.239  31.871  31.730  1.00  0.00     0.031 C 
ATOM     68  C   UNL A   1      37.968  30.673  29.681  1.00  0.00     0.034 A 
BRANCH  55  69
ATOM     69  C   UNL A   1      42.305  26.791  27.476  1.00  0.00     0.023 A 
ATOM     70  C   UNL A   1      42.090  25.414  27.282  1.00  0.00     0.031 A 
ATOM     71  C   UNL A   1      43.149  27.456  26.568  1.00  0.00     0.131 A 
ATOM     72  C   UNL A   1      42.781  24.733  26.267  1.00  0.00     0.055 A 
ATOM     73  C   UNL A   1      43.765  26.789  25.508  1.00  0.00     0.041 A 
ATOM     74  F   UNL A   1      43.412  28.765  26.712  1.00  0.00    -0.206 F 
ATOM     75  C   UNL A   1      43.599  25.415  25.364  1.00  0.00     0.022 A 
BRANCH  72  76
ATOM     76  S   UNL A   1      42.737  22.917  26.249  1.00  0.00     0.124 S 
ATOM     77  O   UNL A   1      43.919  22.584  27.039  1.00  0.00    -0.237 OA
ATOM     78  O   UNL A   1      41.448  22.628  26.867  1.00  0.00    -0.237 OA
ATOM     79  O   UNL A   1      42.836  22.584  24.829  1.00  0.00    -0.744 OA
ENDBRANCH  72  76
ENDBRANCH  55  69
BRANCH  56  80
ATOM     80  C   UNL A   1      39.135  31.895  35.514  1.00  0.00     0.023 A 
ATOM     81  C   UNL A   1      38.380  31.356  36.566  1.00  0.00     0.031 A 
ATOM     82  C   UNL A   1      39.504  33.251  35.588  1.00  0.00     0.131 A 
ATOM     83  C   UNL A   1      37.997  32.177  37.639  1.00  0.00     0.055 A 
ATOM     84  C   UNL A   1      39.155  34.051  36.677  1.00  0.00     0.041 A 
ATOM     85  F   UNL A   1      40.232  33.811  34.609  1.00  0.00    -0.206 F 
ATOM     86  C   UNL A   1      38.391  33.516  37.708  1.00  0.00     0.022 A 
BRANCH  83  87
ATOM     87  S   UNL A   1      36.935  31.480  38.934  1.00  0.00     0.124 S 
ATOM     88  O   UNL A   1      36.840  30.083  38.524  1.00  0.00    -0.237 OA
ATOM     89  O   UNL A   1      37.712  31.743  40.140  1.00  0.00    -0.237 OA
ATOM     90  O   UNL A   1      35.699  32.251  38.813  1.00  0.00    -0.744 OA
ENDBRANCH  83  87
ENDBRANCH  56  80
BRANCH  68  91
ATOM     91  C   UNL A   1      36.772  31.265  28.975  1.00  0.00     0.023 A 
ATOM     92  C   UNL A   1      35.705  30.465  28.529  1.00  0.00     0.031 A 
ATOM     93  C   UNL A   1      36.710  32.649  28.731  1.00  0.00     0.131 A 
ATOM     94  C   UNL A   1      34.645  31.047  27.817  1.00  0.00     0.055 A 
ATOM     95  C   UNL A   1      35.627  33.230  28.070  1.00  0.00     0.041 A 
ATOM     96  F   UNL A   1      37.702  33.459  29.131  1.00  0.00    -0.206 F 
ATOM     97  C   UNL A   1      34.593  32.427  27.598  1.00  0.00     0.022 A 
BRANCH  94  98
ATOM     98  S   UNL A   1      33.374  29.967  27.104  1.00  0.00     0.124 S 
ATOM     99  O   UNL A   1      33.877  29.758  25.750  1.00  0.00    -0.237 OA
ATOM    100  O   UNL A   1      33.418  28.806  27.987  1.00  0.00    -0.237 OA
ATOM    101  O   UNL A   1      32.154  30.767  27.194  1.00  0.00    -0.744 OA
ENDBRANCH  94  98
ENDBRANCH  68  91
ENDBRANCH  42  43
ENDBRANCH  35  37
ENDBRANCH  34  35
ENDBRANCH  33  34
ENDBRANCH  32  33
ENDBRANCH  31  32
ENDBRANCH  29  31
ENDBRANCH   1  29
TORSDOF 24
ENDMDL
MODEL 3
REMARK VINA RESULT:      -7.7      4.979     13.227
REMARK SMILES CCCCCCNC(=O)Oc1cccc(-c2ccc([C@@H](C)C(=O)OCCOC(=O)c3ccc(-c4c5nc(c(-c6cc(S(=O)(=O)[O-])ccc6F)c6ccc([nH]6)c(-c6cc(S(=O)(=O)[O-])ccc6F)c6nc(c(-c7cc(S(=O)(=O)[O-])ccc7F)c7ccc4[nH]7)C=C6)C=C5)cc3)cc2[N+](=O)[O-])c1
REMARK SMILES IDX 20 1 21 2 19 3 16 4 17 5 94 6 18 7 93 8 15 9 11 10 12 11
REMARK SMILES IDX 98 12 13 13 14 14 10 15 8 16 7 17 9 19 6 20 5 21 4 22 3 23
REMARK SMILES IDX 2 24 1 25 95 26 96 27 97 28 22 29 23 30 24 31 25 32 26 33
REMARK SMILES IDX 27 34 28 35 29 36 30 37 31 38 92 39 32 40 91 41 33 42 34 43
REMARK SMILES IDX 35 44 85 45 36 46 90 47 84 48 86 49 37 50 89 51 83 52 82 53
REMARK SMILES IDX 38 55 70 56 50 57 69 58 51 59 54 60 68 61 87 62 52 63 53 64
REMARK SMILES IDX 67 66 88 67 55 68 39 69 40 70 48 71 41 72 47 73 49 74 46 75
REMARK SMILES IDX 42 76 43 77 44 78 45 79 71 80 72 81 80 82 73 83 79 84 81 85
REMARK SMILES IDX 78 86 74 87 75 88 76 89 77 90 56 91 57 92 65 93 58 94 64 95
REMARK SMILES IDX 66 96 63 97 59 98 60 99 61 100 62 101
REMARK H PARENT 7 18 86 54 54 65
REMARK Flexibility Score: inf
ROOT
ATOM      1  C   UNL A   1      35.443  32.497  28.848  1.00  0.00     0.126 C 
ATOM      2  C   UNL A   1      36.186  33.381  27.849  1.00  0.00     0.025 C 
ENDROOT
BRANCH   1   3
ATOM      3  C   UNL A   1      34.742  31.328  28.170  1.00  0.00    -0.027 A 
ATOM      4  C   UNL A   1      33.384  29.152  26.884  1.00  0.00     0.060 A 
ATOM      5  C   UNL A   1      34.529  28.948  27.677  1.00  0.00     0.016 A 
ATOM      6  C   UNL A   1      32.941  30.479  26.756  1.00  0.00     0.277 A 
ATOM      7  C   UNL A   1      35.188  30.009  28.314  1.00  0.00     0.006 A 
ATOM      8  C   UNL A   1      33.603  31.553  27.383  1.00  0.00     0.091 A 
BRANCH   4   9
ATOM      9  C   UNL A   1      32.730  27.981  26.274  1.00  0.00    -0.008 A 
ATOM     10  C   UNL A   1      32.662  26.158  24.679  1.00  0.00     0.133 A 
ATOM     11  C   UNL A   1      31.406  25.764  25.139  1.00  0.00     0.047 A 
ATOM     12  C   UNL A   1      33.326  27.257  25.230  1.00  0.00     0.056 A 
ATOM     13  C   UNL A   1      30.810  26.468  26.179  1.00  0.00     0.004 A 
ATOM     14  C   UNL A   1      31.466  27.567  26.738  1.00  0.00     0.009 A 
BRANCH  10  15
ATOM     15  O   UNL A   1      33.156  25.487  23.549  1.00  0.00    -0.410 OA
BRANCH  15  16
ATOM     16  C   UNL A   1      32.294  25.253  22.489  1.00  0.00     0.412 C 
ATOM     17  N   UNL A   1      31.662  24.042  22.573  1.00  0.00    -0.321 N 
ATOM     18  H   UNL A   1      31.032  23.822  21.849  1.00  0.00     0.167 HD
ATOM     19  O   UNL A   1      32.109  25.998  21.535  1.00  0.00    -0.224 OA
BRANCH  17  20
ATOM     20  C   UNL A   1      31.823  23.047  23.618  1.00  0.00     0.119 C 
BRANCH  20  21
ATOM     21  C   UNL A   1      32.928  22.039  23.305  1.00  0.00     0.021 C 
BRANCH  21  22
ATOM     22  C   UNL A   1      33.474  21.274  24.516  1.00  0.00     0.002 C 
BRANCH  22  23
ATOM     23  C   UNL A   1      33.850  19.809  24.265  1.00  0.00    -0.000 C 
BRANCH  23  24
ATOM     24  C   UNL A   1      32.710  18.905  23.794  1.00  0.00    -0.003 C 
ATOM     25  C   UNL A   1      33.125  17.454  23.613  1.00  0.00     0.004 C 
ENDBRANCH  23  24
ENDBRANCH  22  23
ENDBRANCH  21  22
ENDBRANCH  20  21
ENDBRANCH  17  20
ENDBRANCH  15  16
ENDBRANCH  10  15
ENDBRANCH   4   9
BRANCH   6  26
ATOM     26  N   UNL A   1      31.726  30.803  26.018  1.00  0.00     0.063 N 
ATOM     27  O   UNL A   1      30.944  31.601  26.551  1.00  0.00    -0.258 OA
ATOM     28  O   UNL A   1      31.529  30.204  24.952  1.00  0.00    -0.258 OA
ENDBRANCH   6  26
ENDBRANCH   1   3
BRANCH   1  29
ATOM     29  C   UNL A   1      34.584  33.362  29.765  1.00  0.00     0.313 C 
ATOM     30  O   UNL A   1      34.071  34.410  29.383  1.00  0.00    -0.252 OA
BRANCH  29  31
ATOM     31  O   UNL A   1      34.399  32.835  31.004  1.00  0.00    -0.462 OA
BRANCH  31  32
ATOM     32  C   UNL A   1      34.484  33.743  32.119  1.00  0.00     0.274 C 
BRANCH  32  33
ATOM     33  C   UNL A   1      35.262  33.126  33.286  1.00  0.00     0.275 C 
BRANCH  33  34
ATOM     34  O   UNL A   1      36.662  33.004  32.982  1.00  0.00    -0.458 OA
BRANCH  34  35
ATOM     35  C   UNL A   1      37.263  31.911  33.510  1.00  0.00     0.338 C 
ATOM     36  O   UNL A   1      37.009  31.381  34.578  1.00  0.00    -0.246 OA
BRANCH  35  37
ATOM     37  C   UNL A   1      38.194  31.332  32.531  1.00  0.00     0.060 A 
ATOM     38  C   UNL A   1      39.228  30.530  33.019  1.00  0.00     0.016 A 
ATOM     39  C   UNL A   1      38.112  31.636  31.172  1.00  0.00     0.016 A 
ATOM     40  C   UNL A   1      40.208  30.051  32.157  1.00  0.00     0.010 A 
ATOM     41  C   UNL A   1      39.093  31.143  30.303  1.00  0.00     0.010 A 
ATOM     42  C   UNL A   1      40.157  30.366  30.796  1.00  0.00    -0.014 A 
BRANCH  42  43
ATOM     43  C   UNL A   1      41.271  29.937  29.916  1.00  0.00     0.031 A 
ATOM     44  C   UNL A   1      41.223  28.584  29.264  1.00  0.00     0.074 A 
ATOM     45  C   UNL A   1      42.295  30.775  29.674  1.00  0.00     0.049 A 
ATOM     46  N   UNL A   1      42.102  28.005  28.487  1.00  0.00    -0.248 NA
ATOM     47  C   UNL A   1      40.029  27.774  29.534  1.00  0.00     0.031 C 
ATOM     48  C   UNL A   1      42.427  32.122  30.232  1.00  0.00     0.029 A 
ATOM     49  N   UNL A   1      43.416  30.620  28.900  1.00  0.00    -0.354 N 
ATOM     50  C   UNL A   1      41.574  26.754  28.184  1.00  0.00     0.074 A 
ATOM     51  C   UNL A   1      40.318  26.649  28.899  1.00  0.00     0.031 C 
ATOM     52  C   UNL A   1      43.569  32.668  29.784  1.00  0.00     0.029 A 
ATOM     53  C   UNL A   1      44.266  31.698  28.943  1.00  0.00     0.049 A 
ATOM     54  H   UNL A   1      43.593  29.814  28.363  1.00  0.00     0.167 HD
ATOM     55  C   UNL A   1      42.088  25.790  27.378  1.00  0.00     0.034 A 
ATOM     56  C   UNL A   1      45.483  31.874  28.392  1.00  0.00     0.034 A 
ATOM     57  C   UNL A   1      43.345  25.920  26.679  1.00  0.00     0.049 A 
ATOM     58  C   UNL A   1      46.060  30.776  27.539  1.00  0.00     0.074 A 
ATOM     59  C   UNL A   1      43.957  25.020  25.823  1.00  0.00     0.029 A 
ATOM     60  N   UNL A   1      44.196  27.018  26.767  1.00  0.00    -0.354 N 
ATOM     61  N   UNL A   1      45.553  29.597  27.256  1.00  0.00    -0.248 NA
ATOM     62  C   UNL A   1      47.368  31.032  26.924  1.00  0.00     0.031 C 
ATOM     63  C   UNL A   1      45.201  25.543  25.447  1.00  0.00     0.029 A 
ATOM     64  C   UNL A   1      45.338  26.804  26.008  1.00  0.00     0.049 A 
ATOM     65  H   UNL A   1      44.014  27.831  27.292  1.00  0.00     0.167 HD
ATOM     66  C   UNL A   1      46.474  28.977  26.418  1.00  0.00     0.074 A 
ATOM     67  C   UNL A   1      47.559  29.921  26.229  1.00  0.00     0.031 C 
ATOM     68  C   UNL A   1      46.426  27.744  25.853  1.00  0.00     0.034 A 
BRANCH  55  69
ATOM     69  C   UNL A   1      41.312  24.495  27.276  1.00  0.00     0.023 A 
ATOM     70  C   UNL A   1      40.137  24.386  26.508  1.00  0.00     0.031 A 
ATOM     71  C   UNL A   1      41.716  23.369  28.016  1.00  0.00     0.131 A 
ATOM     72  C   UNL A   1      39.364  23.215  26.571  1.00  0.00     0.055 A 
ATOM     73  C   UNL A   1      40.988  22.178  28.005  1.00  0.00     0.041 A 
ATOM     74  F   UNL A   1      42.815  23.416  28.786  1.00  0.00    -0.206 F 
ATOM     75  C   UNL A   1      39.793  22.102  27.296  1.00  0.00     0.022 A 
BRANCH  72  76
ATOM     76  S   UNL A   1      37.703  23.227  25.837  1.00  0.00     0.124 S 
ATOM     77  O   UNL A   1      37.352  21.810  25.875  1.00  0.00    -0.237 OA
ATOM     78  O   UNL A   1      36.964  24.097  26.745  1.00  0.00    -0.237 OA
ATOM     79  O   UNL A   1      37.922  23.767  24.497  1.00  0.00    -0.744 OA
ENDBRANCH  72  76
ENDBRANCH  55  69
BRANCH  56  80
ATOM     80  C   UNL A   1      46.252  33.116  28.677  1.00  0.00     0.023 A 
ATOM     81  C   UNL A   1      47.227  33.164  29.684  1.00  0.00     0.031 A 
ATOM     82  C   UNL A   1      46.013  34.284  27.929  1.00  0.00     0.131 A 
ATOM     83  C   UNL A   1      47.914  34.364  29.932  1.00  0.00     0.055 A 
ATOM     84  C   UNL A   1      46.728  35.462  28.152  1.00  0.00     0.041 A 
ATOM     85  F   UNL A   1      45.094  34.287  26.950  1.00  0.00    -0.206 F 
ATOM     86  C   UNL A   1      47.680  35.508  29.164  1.00  0.00     0.022 A 
BRANCH  83  87
ATOM     87  S   UNL A   1      49.095  34.425  31.307  1.00  0.00     0.124 S 
ATOM     88  O   UNL A   1      49.454  35.838  31.330  1.00  0.00    -0.237 OA
ATOM     89  O   UNL A   1      48.287  33.950  32.424  1.00  0.00    -0.237 OA
ATOM     90  O   UNL A   1      50.160  33.518  30.883  1.00  0.00    -0.744 OA
ENDBRANCH  83  87
ENDBRANCH  56  80
BRANCH  68  91
ATOM     91  C   UNL A   1      47.578  27.362  24.954  1.00  0.00     0.023 A 
ATOM     92  C   UNL A   1      47.572  27.655  23.579  1.00  0.00     0.031 A 
ATOM     93  C   UNL A   1      48.688  26.679  25.481  1.00  0.00     0.131 A 
ATOM     94  C   UNL A   1      48.632  27.222  22.767  1.00  0.00     0.055 A 
ATOM     95  C   UNL A   1      49.765  26.299  24.679  1.00  0.00     0.041 A 
ATOM     96  F   UNL A   1      48.745  26.370  26.786  1.00  0.00    -0.206 F 
ATOM     97  C   UNL A   1      49.735  26.559  23.312  1.00  0.00     0.022 A 
BRANCH  94  98
ATOM     98  S   UNL A   1      48.513  27.462  20.973  1.00  0.00     0.124 S 
ATOM     99  O   UNL A   1      47.202  28.089  20.836  1.00  0.00    -0.237 OA
ATOM    100  O   UNL A   1      49.661  28.317  20.694  1.00  0.00    -0.237 OA
ATOM    101  O   UNL A   1      48.608  26.105  20.439  1.00  0.00    -0.744 OA
ENDBRANCH  94  98
ENDBRANCH  68  91
ENDBRANCH  42  43
ENDBRANCH  35  37
ENDBRANCH  34  35
ENDBRANCH  33  34
ENDBRANCH  32  33
ENDBRANCH  31  32
ENDBRANCH  29  31
ENDBRANCH   1  29
TORSDOF 24
ENDMDL
