MODEL 1
REMARK VINA RESULT:     -12.7      0.000      0.000
REMARK SMILES Cc1c(Cl)cccc1NC(=O)NCc1cn([C@@H]2C[NH2+][C@H](C(=O)OCCOC(=O)c3ccc(-c4c5nc(c(-c6cc(S(=O)(=O)[O-])ccc6F)c6ccc([nH]6)c(-c6cc(S(=O)(=O)[O-])ccc6F)c6nc(c(-c7cc(S(=O)(=O)[O-])ccc7F)c7ccc4[nH]7)C=C6)C=C5)cc3)C2)nn1
REMARK SMILES IDX 24 1 23 2 21 3 22 4 20 5 17 6 18 7 92 8 19 9 16 12 14 13
REMARK SMILES IDX 15 14 94 15 93 16 13 17 12 18 9 19 10 20 11 22 8 24 1 25
REMARK SMILES IDX 2 26 3 27 4 28 5 29 7 30 6 31 25 32 26 33 27 34 28 35 29 36
REMARK SMILES IDX 30 37 91 38 31 39 90 40 32 41 33 42 34 43 84 44 35 45 89 46
REMARK SMILES IDX 83 47 85 48 36 49 88 50 82 51 81 52 37 54 69 55 49 56 68 57
REMARK SMILES IDX 50 58 53 59 67 60 86 61 51 62 52 63 66 65 87 66 54 67 38 68
REMARK SMILES IDX 39 69 47 70 40 71 46 72 48 73 45 74 41 75 42 76 43 77 44 78
REMARK SMILES IDX 70 79 71 80 79 81 72 82 78 83 80 84 77 85 73 86 74 87 75 88
REMARK SMILES IDX 76 89 55 90 56 91 64 92 57 93 63 94 65 95 62 96 58 97 59 98
REMARK SMILES IDX 60 99 61 100
REMARK H PARENT 19 10 19 11 9 21 12 23 85 53 53 64
REMARK Flexibility Score: inf
ROOT
ATOM      1  C   UNL A   1      33.152  29.940  27.552  1.00  0.00     0.274 C 
ENDROOT
BRANCH   1   2
ATOM      2  O   UNL A   1      31.894  29.872  26.861  1.00  0.00    -0.458 OA
BRANCH   2   3
ATOM      3  C   UNL A   1      31.768  28.893  25.923  1.00  0.00     0.365 C 
ATOM      4  O   UNL A   1      31.397  27.749  26.169  1.00  0.00    -0.245 OA
BRANCH   3   5
ATOM      5  C   UNL A   1      32.058  29.392  24.493  1.00  0.00     0.295 C 
ATOM      6  C   UNL A   1      32.670  27.916  22.650  1.00  0.00     0.170 C 
ATOM      7  C   UNL A   1      33.885  28.303  23.487  1.00  0.00     0.289 C 
ATOM      8  C   UNL A   1      31.475  28.457  23.435  1.00  0.00     0.110 C 
ATOM      9  N   UNL A   1      33.506  29.517  24.198  1.00  0.00    -0.333 N 
ATOM     10  H   UNL A   1      33.679  30.336  23.614  1.00  0.00     0.347 HD
ATOM     11  H   UNL A   1      34.050  29.631  25.053  1.00  0.00     0.347 HD
BRANCH   6  12
ATOM     12  N   UNL A   1      32.607  26.488  22.440  1.00  0.00    -0.243 N 
ATOM     13  C   UNL A   1      32.113  24.396  22.629  1.00  0.00     0.102 A 
ATOM     14  C   UNL A   1      31.639  25.657  22.903  1.00  0.00     0.137 A 
ATOM     15  N   UNL A   1      33.293  24.500  21.947  1.00  0.00    -0.134 NA
ATOM     16  N   UNL A   1      33.589  25.796  21.836  1.00  0.00    -0.067 NA
BRANCH  13  17
ATOM     17  C   UNL A   1      31.447  23.162  23.079  1.00  0.00     0.178 C 
BRANCH  17  18
ATOM     18  N   UNL A   1      30.775  23.222  24.341  1.00  0.00    -0.332 N 
ATOM     19  N   UNL A   1      32.375  23.130  26.143  1.00  0.00    -0.308 N 
ATOM     20  C   UNL A   1      31.174  23.407  25.601  1.00  0.00     0.319 C 
ATOM     21  H   UNL A   1      32.407  23.399  27.089  1.00  0.00     0.171 HD
ATOM     22  O   UNL A   1      30.306  23.794  26.395  1.00  0.00    -0.248 OA
ATOM     23  H   UNL A   1      29.801  23.101  24.262  1.00  0.00     0.165 HD
BRANCH  19  24
ATOM     24  C   UNL A   1      33.601  22.562  25.739  1.00  0.00     0.047 A 
ATOM     25  C   UNL A   1      34.642  24.898  25.497  1.00  0.00     0.048 C 
ATOM     26  C   UNL A   1      34.729  23.391  25.529  1.00  0.00    -0.009 A 
ATOM     27  C   UNL A   1      35.980  22.780  25.278  1.00  0.00     0.046 A 
ATOM     28  Cl  UNL A   1      37.422  23.707  25.027  1.00  0.00    -0.084 Cl
ATOM     29  C   UNL A   1      36.107  21.393  25.202  1.00  0.00     0.021 A 
ATOM     30  C   UNL A   1      33.725  21.206  25.436  1.00  0.00     0.026 A 
ATOM     31  C   UNL A   1      34.968  20.605  25.241  1.00  0.00     0.004 A 
ENDBRANCH  19  24
ENDBRANCH  17  18
ENDBRANCH  13  17
ENDBRANCH   6  12
ENDBRANCH   3   5
ENDBRANCH   2   3
ENDBRANCH   1   2
BRANCH   1  32
ATOM     32  C   UNL A   1      33.645  31.381  27.608  1.00  0.00     0.275 C 
BRANCH  32  33
ATOM     33  O   UNL A   1      35.070  31.460  27.590  1.00  0.00    -0.458 OA
BRANCH  33  34
ATOM     34  C   UNL A   1      35.640  31.595  28.813  1.00  0.00     0.338 C 
ATOM     35  O   UNL A   1      35.227  32.258  29.744  1.00  0.00    -0.246 OA
BRANCH  34  36
ATOM     36  C   UNL A   1      36.957  30.947  28.821  1.00  0.00     0.060 A 
ATOM     37  C   UNL A   1      37.020  29.587  28.504  1.00  0.00     0.016 A 
ATOM     38  C   UNL A   1      38.055  31.630  29.353  1.00  0.00     0.016 A 
ATOM     39  C   UNL A   1      38.169  28.883  28.815  1.00  0.00     0.010 A 
ATOM     40  C   UNL A   1      39.195  30.927  29.674  1.00  0.00     0.010 A 
ATOM     41  C   UNL A   1      39.225  29.551  29.447  1.00  0.00    -0.014 A 
BRANCH  41  42
ATOM     42  C   UNL A   1      40.435  28.805  29.747  1.00  0.00     0.031 A 
ATOM     43  C   UNL A   1      40.732  28.701  31.196  1.00  0.00     0.074 A 
ATOM     44  C   UNL A   1      41.127  28.125  28.813  1.00  0.00     0.049 A 
ATOM     45  N   UNL A   1      41.777  29.118  31.825  1.00  0.00    -0.248 NA
ATOM     46  C   UNL A   1      39.671  28.181  32.075  1.00  0.00     0.031 C 
ATOM     47  C   UNL A   1      40.769  27.936  27.405  1.00  0.00     0.029 A 
ATOM     48  N   UNL A   1      42.243  27.355  28.958  1.00  0.00    -0.354 N 
ATOM     49  C   UNL A   1      41.611  28.708  33.143  1.00  0.00     0.074 A 
ATOM     50  C   UNL A   1      40.235  28.311  33.273  1.00  0.00     0.031 C 
ATOM     51  C   UNL A   1      41.521  26.943  26.884  1.00  0.00     0.029 A 
ATOM     52  C   UNL A   1      42.494  26.516  27.878  1.00  0.00     0.049 A 
ATOM     53  H   UNL A   1      42.819  27.389  29.755  1.00  0.00     0.167 HD
ATOM     54  C   UNL A   1      42.681  28.491  33.953  1.00  0.00     0.034 A 
ATOM     55  C   UNL A   1      43.395  25.501  27.815  1.00  0.00     0.034 A 
ATOM     56  C   UNL A   1      43.853  29.181  33.467  1.00  0.00     0.049 A 
ATOM     57  C   UNL A   1      44.421  25.760  28.850  1.00  0.00     0.074 A 
ATOM     58  C   UNL A   1      44.156  30.504  33.206  1.00  0.00     0.029 A 
ATOM     59  N   UNL A   1      44.813  28.444  32.813  1.00  0.00    -0.354 N 
ATOM     60  N   UNL A   1      45.236  26.778  28.812  1.00  0.00    -0.248 NA
ATOM     61  C   UNL A   1      44.275  25.141  30.158  1.00  0.00     0.031 C 
ATOM     62  C   UNL A   1      44.975  30.474  32.039  1.00  0.00     0.029 A 
ATOM     63  C   UNL A   1      45.180  29.138  31.686  1.00  0.00     0.049 A 
ATOM     64  H   UNL A   1      45.172  27.574  33.101  1.00  0.00     0.167 HD
ATOM     65  C   UNL A   1      45.342  27.201  30.128  1.00  0.00     0.074 A 
ATOM     66  C   UNL A   1      44.848  26.079  30.919  1.00  0.00     0.031 C 
ATOM     67  C   UNL A   1      45.554  28.517  30.427  1.00  0.00     0.034 A 
BRANCH  54  68
ATOM     68  C   UNL A   1      42.750  27.375  34.971  1.00  0.00     0.023 A 
ATOM     69  C   UNL A   1      43.482  26.222  34.629  1.00  0.00     0.031 A 
ATOM     70  C   UNL A   1      41.921  27.258  36.112  1.00  0.00     0.131 A 
ATOM     71  C   UNL A   1      43.316  25.024  35.345  1.00  0.00     0.055 A 
ATOM     72  C   UNL A   1      41.815  26.086  36.864  1.00  0.00     0.041 A 
ATOM     73  F   UNL A   1      41.091  28.231  36.510  1.00  0.00    -0.206 F 
ATOM     74  C   UNL A   1      42.493  24.950  36.466  1.00  0.00     0.022 A 
BRANCH  71  75
ATOM     75  S   UNL A   1      44.054  23.512  34.677  1.00  0.00     0.124 S 
ATOM     76  O   UNL A   1      44.458  22.816  35.895  1.00  0.00    -0.237 OA
ATOM     77  O   UNL A   1      42.934  22.932  33.943  1.00  0.00    -0.237 OA
ATOM     78  O   UNL A   1      45.152  24.008  33.850  1.00  0.00    -0.744 OA
ENDBRANCH  71  75
ENDBRANCH  54  68
BRANCH  55  79
ATOM     79  C   UNL A   1      43.226  24.199  27.118  1.00  0.00     0.023 A 
ATOM     80  C   UNL A   1      44.095  23.751  26.103  1.00  0.00     0.031 A 
ATOM     81  C   UNL A   1      42.303  23.256  27.628  1.00  0.00     0.131 A 
ATOM     82  C   UNL A   1      44.016  22.416  25.640  1.00  0.00     0.055 A 
ATOM     83  C   UNL A   1      42.223  21.945  27.159  1.00  0.00     0.041 A 
ATOM     84  F   UNL A   1      41.502  23.557  28.662  1.00  0.00    -0.206 F 
ATOM     85  C   UNL A   1      43.086  21.515  26.166  1.00  0.00     0.022 A 
BRANCH  82  86
ATOM     86  S   UNL A   1      45.195  21.802  24.394  1.00  0.00     0.124 S 
ATOM     87  O   UNL A   1      45.275  22.919  23.461  1.00  0.00    -0.237 OA
ATOM     88  O   UNL A   1      46.385  21.538  25.195  1.00  0.00    -0.237 OA
ATOM     89  O   UNL A   1      44.540  20.606  23.863  1.00  0.00    -0.744 OA
ENDBRANCH  82  86
ENDBRANCH  55  79
BRANCH  67  90
ATOM     90  C   UNL A   1      46.002  29.435  29.303  1.00  0.00     0.023 A 
ATOM     91  C   UNL A   1      45.133  30.217  28.505  1.00  0.00     0.031 A 
ATOM     92  C   UNL A   1      47.384  29.591  29.101  1.00  0.00     0.131 A 
ATOM     93  C   UNL A   1      45.659  31.093  27.534  1.00  0.00     0.055 A 
ATOM     94  C   UNL A   1      47.901  30.477  28.156  1.00  0.00     0.041 A 
ATOM     95  F   UNL A   1      48.264  28.903  29.846  1.00  0.00    -0.206 F 
ATOM     96  C   UNL A   1      47.040  31.226  27.362  1.00  0.00     0.022 A 
BRANCH  93  97
ATOM     97  S   UNL A   1      44.549  32.067  26.466  1.00  0.00     0.124 S 
ATOM     98  O   UNL A   1      43.532  31.104  26.061  1.00  0.00    -0.237 OA
ATOM     99  O   UNL A   1      44.103  33.132  27.360  1.00  0.00    -0.237 OA
ATOM    100  O   UNL A   1      45.427  32.515  25.382  1.00  0.00    -0.744 OA
ENDBRANCH  93  97
ENDBRANCH  67  90
ENDBRANCH  41  42
ENDBRANCH  34  36
ENDBRANCH  33  34
ENDBRANCH  32  33
ENDBRANCH   1  32
TORSDOF 18
ENDMDL
MODEL 2
REMARK VINA RESULT:     -12.4      4.963      7.397
REMARK SMILES Cc1c(Cl)cccc1NC(=O)NCc1cn([C@@H]2C[NH2+][C@H](C(=O)OCCOC(=O)c3ccc(-c4c5nc(c(-c6cc(S(=O)(=O)[O-])ccc6F)c6ccc([nH]6)c(-c6cc(S(=O)(=O)[O-])ccc6F)c6nc(c(-c7cc(S(=O)(=O)[O-])ccc7F)c7ccc4[nH]7)C=C6)C=C5)cc3)C2)nn1
REMARK SMILES IDX 24 1 23 2 21 3 22 4 20 5 17 6 18 7 92 8 19 9 16 12 14 13
REMARK SMILES IDX 15 14 94 15 93 16 13 17 12 18 9 19 10 20 11 22 8 24 1 25
REMARK SMILES IDX 2 26 3 27 4 28 5 29 7 30 6 31 25 32 26 33 27 34 28 35 29 36
REMARK SMILES IDX 30 37 91 38 31 39 90 40 32 41 33 42 34 43 84 44 35 45 89 46
REMARK SMILES IDX 83 47 85 48 36 49 88 50 82 51 81 52 37 54 69 55 49 56 68 57
REMARK SMILES IDX 50 58 53 59 67 60 86 61 51 62 52 63 66 65 87 66 54 67 38 68
REMARK SMILES IDX 39 69 47 70 40 71 46 72 48 73 45 74 41 75 42 76 43 77 44 78
REMARK SMILES IDX 70 79 71 80 79 81 72 82 78 83 80 84 77 85 73 86 74 87 75 88
REMARK SMILES IDX 76 89 55 90 56 91 64 92 57 93 63 94 65 95 62 96 58 97 59 98
REMARK SMILES IDX 60 99 61 100
REMARK H PARENT 19 10 19 11 9 21 12 23 85 53 53 64
REMARK Flexibility Score: inf
ROOT
ATOM      1  C   UNL A   1      33.858  34.644  28.967  1.00  0.00     0.274 C 
ENDROOT
BRANCH   1   2
ATOM      2  O   UNL A   1      33.078  34.841  30.157  1.00  0.00    -0.458 OA
BRANCH   2   3
ATOM      3  C   UNL A   1      33.155  36.072  30.737  1.00  0.00     0.365 C 
ATOM      4  O   UNL A   1      33.149  37.128  30.109  1.00  0.00    -0.245 OA
BRANCH   3   5
ATOM      5  C   UNL A   1      33.163  36.011  32.277  1.00  0.00     0.295 C 
ATOM      6  C   UNL A   1      34.670  34.585  33.561  1.00  0.00     0.170 C 
ATOM      7  C   UNL A   1      33.423  33.827  33.113  1.00  0.00     0.289 C 
ATOM      8  C   UNL A   1      34.582  35.929  32.837  1.00  0.00     0.110 C 
ATOM      9  N   UNL A   1      32.424  34.845  32.821  1.00  0.00    -0.333 N 
ATOM     10  H   UNL A   1      31.927  35.107  33.673  1.00  0.00     0.347 HD
ATOM     11  H   UNL A   1      31.730  34.503  32.156  1.00  0.00     0.347 HD
BRANCH   6  12
ATOM     12  N   UNL A   1      35.875  33.853  33.247  1.00  0.00    -0.243 N 
ATOM     13  C   UNL A   1      37.410  32.338  33.184  1.00  0.00     0.102 A 
ATOM     14  C   UNL A   1      36.071  32.524  33.433  1.00  0.00     0.137 A 
ATOM     15  N   UNL A   1      37.959  33.523  32.780  1.00  0.00    -0.134 NA
ATOM     16  N   UNL A   1      37.001  34.452  32.823  1.00  0.00    -0.067 NA
BRANCH  13  17
ATOM     17  C   UNL A   1      38.106  31.058  33.396  1.00  0.00     0.178 C 
BRANCH  17  18
ATOM     18  N   UNL A   1      37.994  30.477  34.699  1.00  0.00    -0.332 N 
ATOM     19  N   UNL A   1      39.236  31.782  36.302  1.00  0.00    -0.308 N 
ATOM     20  C   UNL A   1      38.300  30.889  35.931  1.00  0.00     0.319 C 
ATOM     21  H   UNL A   1      39.224  31.923  37.277  1.00  0.00     0.171 HD
ATOM     22  O   UNL A   1      37.716  30.310  36.858  1.00  0.00    -0.248 OA
ATOM     23  H   UNL A   1      37.604  29.574  34.683  1.00  0.00     0.165 HD
BRANCH  19  24
ATOM     24  C   UNL A   1      40.230  32.572  35.690  1.00  0.00     0.047 A 
ATOM     25  C   UNL A   1      38.919  34.711  36.245  1.00  0.00     0.048 C 
ATOM     26  C   UNL A   1      40.146  33.984  35.748  1.00  0.00    -0.009 A 
ATOM     27  C   UNL A   1      41.235  34.748  35.264  1.00  0.00     0.046 A 
ATOM     28  Cl  UNL A   1      41.235  36.479  35.309  1.00  0.00    -0.084 Cl
ATOM     29  C   UNL A   1      42.358  34.136  34.707  1.00  0.00     0.021 A 
ATOM     30  C   UNL A   1      41.258  32.013  34.931  1.00  0.00     0.026 A 
ATOM     31  C   UNL A   1      42.352  32.766  34.503  1.00  0.00     0.004 A 
ENDBRANCH  19  24
ENDBRANCH  17  18
ENDBRANCH  13  17
ENDBRANCH   6  12
ENDBRANCH   3   5
ENDBRANCH   2   3
ENDBRANCH   1   2
BRANCH   1  32
ATOM     32  C   UNL A   1      35.302  34.316  29.332  1.00  0.00     0.275 C 
BRANCH  32  33
ATOM     33  O   UNL A   1      35.725  33.072  28.774  1.00  0.00    -0.458 OA
BRANCH  33  34
ATOM     34  C   UNL A   1      35.751  32.042  29.655  1.00  0.00     0.338 C 
ATOM     35  O   UNL A   1      34.955  31.822  30.547  1.00  0.00    -0.246 OA
BRANCH  34  36
ATOM     36  C   UNL A   1      36.999  31.286  29.499  1.00  0.00     0.060 A 
ATOM     37  C   UNL A   1      36.917  29.893  29.422  1.00  0.00     0.016 A 
ATOM     38  C   UNL A   1      38.224  31.943  29.657  1.00  0.00     0.016 A 
ATOM     39  C   UNL A   1      38.066  29.147  29.602  1.00  0.00     0.010 A 
ATOM     40  C   UNL A   1      39.367  31.199  29.849  1.00  0.00     0.010 A 
ATOM     41  C   UNL A   1      39.271  29.807  29.868  1.00  0.00    -0.014 A 
BRANCH  41  42
ATOM     42  C   UNL A   1      40.476  29.013  30.033  1.00  0.00     0.031 A 
ATOM     43  C   UNL A   1      40.851  28.776  31.448  1.00  0.00     0.074 A 
ATOM     44  C   UNL A   1      41.097  28.402  29.006  1.00  0.00     0.049 A 
ATOM     45  N   UNL A   1      41.940  29.114  32.049  1.00  0.00    -0.248 NA
ATOM     46  C   UNL A   1      39.827  28.204  32.339  1.00  0.00     0.031 C 
ATOM     47  C   UNL A   1      40.656  28.344  27.609  1.00  0.00     0.029 A 
ATOM     48  N   UNL A   1      42.199  27.599  29.019  1.00  0.00    -0.354 N 
ATOM     49  C   UNL A   1      41.837  28.594  33.334  1.00  0.00     0.074 A 
ATOM     50  C   UNL A   1      40.461  28.217  33.509  1.00  0.00     0.031 C 
ATOM     51  C   UNL A   1      41.351  27.384  26.962  1.00  0.00     0.029 A 
ATOM     52  C   UNL A   1      42.367  26.852  27.857  1.00  0.00     0.049 A 
ATOM     53  H   UNL A   1      42.819  27.550  29.781  1.00  0.00     0.167 HD
ATOM     54  C   UNL A   1      42.944  28.285  34.059  1.00  0.00     0.034 A 
ATOM     55  C   UNL A   1      43.235  25.827  27.656  1.00  0.00     0.034 A 
ATOM     56  C   UNL A   1      44.105  28.988  33.567  1.00  0.00     0.049 A 
ATOM     57  C   UNL A   1      44.324  25.972  28.648  1.00  0.00     0.074 A 
ATOM     58  C   UNL A   1      44.428  30.322  33.403  1.00  0.00     0.029 A 
ATOM     59  N   UNL A   1      45.007  28.291  32.798  1.00  0.00    -0.354 N 
ATOM     60  N   UNL A   1      45.162  26.972  28.651  1.00  0.00    -0.248 NA
ATOM     61  C   UNL A   1      44.235  25.245  29.904  1.00  0.00     0.031 C 
ATOM     62  C   UNL A   1      45.180  30.377  32.192  1.00  0.00     0.029 A 
ATOM     63  C   UNL A   1      45.329  29.073  31.715  1.00  0.00     0.049 A 
ATOM     64  H   UNL A   1      45.359  27.391  32.989  1.00  0.00     0.167 HD
ATOM     65  C   UNL A   1      45.352  27.276  29.989  1.00  0.00     0.074 A 
ATOM     66  C   UNL A   1      44.874  26.100  30.709  1.00  0.00     0.031 C 
ATOM     67  C   UNL A   1      45.616  28.556  30.387  1.00  0.00     0.034 A 
BRANCH  54  68
ATOM     68  C   UNL A   1      43.041  27.083  34.972  1.00  0.00     0.023 A 
ATOM     69  C   UNL A   1      43.746  25.959  34.501  1.00  0.00     0.031 A 
ATOM     70  C   UNL A   1      42.255  26.872  36.130  1.00  0.00     0.131 A 
ATOM     71  C   UNL A   1      43.595  24.704  35.116  1.00  0.00     0.055 A 
ATOM     72  C   UNL A   1      42.166  25.639  36.780  1.00  0.00     0.041 A 
ATOM     73  F   UNL A   1      41.452  27.812  36.644  1.00  0.00    -0.206 F 
ATOM     74  C   UNL A   1      42.815  24.537  36.257  1.00  0.00     0.022 A 
BRANCH  71  75
ATOM     75  S   UNL A   1      44.290  23.251  34.288  1.00  0.00     0.124 S 
ATOM     76  O   UNL A   1      45.544  23.781  33.763  1.00  0.00    -0.237 OA
ATOM     77  O   UNL A   1      44.401  22.303  35.392  1.00  0.00    -0.237 OA
ATOM     78  O   UNL A   1      43.283  22.921  33.282  1.00  0.00    -0.744 OA
ENDBRANCH  71  75
ENDBRANCH  54  68
BRANCH  55  79
ATOM     79  C   UNL A   1      42.993  24.594  26.861  1.00  0.00     0.023 A 
ATOM     80  C   UNL A   1      43.964  24.021  26.015  1.00  0.00     0.031 A 
ATOM     81  C   UNL A   1      41.836  23.822  27.116  1.00  0.00     0.131 A 
ATOM     82  C   UNL A   1      43.755  22.735  25.464  1.00  0.00     0.055 A 
ATOM     83  C   UNL A   1      41.631  22.559  26.561  1.00  0.00     0.041 A 
ATOM     84  F   UNL A   1      40.901  24.238  27.985  1.00  0.00    -0.206 F 
ATOM     85  C   UNL A   1      42.595  22.005  25.737  1.00  0.00     0.022 A 
BRANCH  82  86
ATOM     86  S   UNL A   1      45.044  21.947  24.445  1.00  0.00     0.124 S 
ATOM     87  O   UNL A   1      44.374  20.742  23.970  1.00  0.00    -0.237 OA
ATOM     88  O   UNL A   1      45.320  22.973  23.445  1.00  0.00    -0.237 OA
ATOM     89  O   UNL A   1      46.133  21.711  25.393  1.00  0.00    -0.744 OA
ENDBRANCH  82  86
ENDBRANCH  55  79
BRANCH  67  90
ATOM     90  C   UNL A   1      46.024  29.559  29.323  1.00  0.00     0.023 A 
ATOM     91  C   UNL A   1      45.124  30.251  28.478  1.00  0.00     0.031 A 
ATOM     92  C   UNL A   1      47.386  29.894  29.232  1.00  0.00     0.131 A 
ATOM     93  C   UNL A   1      45.604  31.217  27.571  1.00  0.00     0.055 A 
ATOM     94  C   UNL A   1      47.855  30.868  28.350  1.00  0.00     0.041 A 
ATOM     95  F   UNL A   1      48.290  29.298  30.027  1.00  0.00    -0.206 F 
ATOM     96  C   UNL A   1      46.966  31.528  27.509  1.00  0.00     0.022 A 
BRANCH  93  97
ATOM     97  S   UNL A   1      44.461  32.078  26.442  1.00  0.00     0.124 S 
ATOM     98  O   UNL A   1      43.472  31.059  26.114  1.00  0.00    -0.237 OA
ATOM     99  O   UNL A   1      43.986  33.190  27.261  1.00  0.00    -0.237 OA
ATOM    100  O   UNL A   1      45.320  32.473  25.324  1.00  0.00    -0.744 OA
ENDBRANCH  93  97
ENDBRANCH  67  90
ENDBRANCH  41  42
ENDBRANCH  34  36
ENDBRANCH  33  34
ENDBRANCH  32  33
ENDBRANCH   1  32
TORSDOF 18
ENDMDL
MODEL 3
REMARK VINA RESULT:     -12.2      3.257      9.319
REMARK SMILES Cc1c(Cl)cccc1NC(=O)NCc1cn([C@@H]2C[NH2+][C@H](C(=O)OCCOC(=O)c3ccc(-c4c5nc(c(-c6cc(S(=O)(=O)[O-])ccc6F)c6ccc([nH]6)c(-c6cc(S(=O)(=O)[O-])ccc6F)c6nc(c(-c7cc(S(=O)(=O)[O-])ccc7F)c7ccc4[nH]7)C=C6)C=C5)cc3)C2)nn1
REMARK SMILES IDX 24 1 23 2 21 3 22 4 20 5 17 6 18 7 92 8 19 9 16 12 14 13
REMARK SMILES IDX 15 14 94 15 93 16 13 17 12 18 9 19 10 20 11 22 8 24 1 25
REMARK SMILES IDX 2 26 3 27 4 28 5 29 7 30 6 31 25 32 26 33 27 34 28 35 29 36
REMARK SMILES IDX 30 37 91 38 31 39 90 40 32 41 33 42 34 43 84 44 35 45 89 46
REMARK SMILES IDX 83 47 85 48 36 49 88 50 82 51 81 52 37 54 69 55 49 56 68 57
REMARK SMILES IDX 50 58 53 59 67 60 86 61 51 62 52 63 66 65 87 66 54 67 38 68
REMARK SMILES IDX 39 69 47 70 40 71 46 72 48 73 45 74 41 75 42 76 43 77 44 78
REMARK SMILES IDX 70 79 71 80 79 81 72 82 78 83 80 84 77 85 73 86 74 87 75 88
REMARK SMILES IDX 76 89 55 90 56 91 64 92 57 93 63 94 65 95 62 96 58 97 59 98
REMARK SMILES IDX 60 99 61 100
REMARK H PARENT 19 10 19 11 9 21 12 23 85 53 53 64
REMARK Flexibility Score: inf
ROOT
ATOM      1  C   UNL A   1      38.364  22.248  25.800  1.00  0.00     0.274 C 
ENDROOT
BRANCH   1   2
ATOM      2  O   UNL A   1      37.367  21.302  25.382  1.00  0.00    -0.458 OA
BRANCH   2   3
ATOM      3  C   UNL A   1      36.170  21.817  24.985  1.00  0.00     0.365 C 
ATOM      4  O   UNL A   1      36.034  22.582  24.033  1.00  0.00    -0.245 OA
BRANCH   3   5
ATOM      5  C   UNL A   1      34.981  21.271  25.800  1.00  0.00     0.295 C 
ATOM      6  C   UNL A   1      32.848  22.434  26.013  1.00  0.00     0.170 C 
ATOM      7  C   UNL A   1      33.865  22.935  27.033  1.00  0.00     0.289 C 
ATOM      8  C   UNL A   1      33.648  21.511  25.093  1.00  0.00     0.110 C 
ATOM      9  N   UNL A   1      34.865  21.882  27.147  1.00  0.00    -0.333 N 
ATOM     10  H   UNL A   1      34.565  21.183  27.827  1.00  0.00     0.347 HD
ATOM     11  H   UNL A   1      35.760  22.252  27.464  1.00  0.00     0.347 HD
BRANCH   6  12
ATOM     12  N   UNL A   1      32.223  23.529  25.308  1.00  0.00    -0.243 N 
ATOM     13  C   UNL A   1      31.113  25.323  24.852  1.00  0.00     0.102 A 
ATOM     14  C   UNL A   1      31.816  24.701  25.857  1.00  0.00     0.137 A 
ATOM     15  N   UNL A   1      31.184  24.561  23.719  1.00  0.00    -0.134 NA
ATOM     16  N   UNL A   1      31.872  23.455  24.012  1.00  0.00    -0.067 NA
BRANCH  13  17
ATOM     17  C   UNL A   1      30.366  26.577  25.039  1.00  0.00     0.178 C 
BRANCH  17  18
ATOM     18  N   UNL A   1      30.006  27.290  23.851  1.00  0.00    -0.332 N 
ATOM     19  N   UNL A   1      31.362  29.271  23.624  1.00  0.00    -0.308 N 
ATOM     20  C   UNL A   1      30.552  28.297  23.167  1.00  0.00     0.319 C 
ATOM     21  H   UNL A   1      31.647  29.866  22.893  1.00  0.00     0.171 HD
ATOM     22  O   UNL A   1      30.199  28.406  21.985  1.00  0.00    -0.248 OA
ATOM     23  H   UNL A   1      29.168  26.964  23.449  1.00  0.00     0.165 HD
BRANCH  19  24
ATOM     24  C   UNL A   1      31.916  29.681  24.853  1.00  0.00     0.047 A 
ATOM     25  C   UNL A   1      33.786  27.934  24.631  1.00  0.00     0.048 C 
ATOM     26  C   UNL A   1      33.139  29.123  25.298  1.00  0.00    -0.009 A 
ATOM     27  C   UNL A   1      33.749  29.666  26.454  1.00  0.00     0.046 A 
ATOM     28  Cl  UNL A   1      35.254  29.065  27.067  1.00  0.00    -0.084 Cl
ATOM     29  C   UNL A   1      33.152  30.704  27.169  1.00  0.00     0.021 A 
ATOM     30  C   UNL A   1      31.250  30.555  25.712  1.00  0.00     0.026 A 
ATOM     31  C   UNL A   1      31.879  31.123  26.819  1.00  0.00     0.004 A 
ENDBRANCH  19  24
ENDBRANCH  17  18
ENDBRANCH  13  17
ENDBRANCH   6  12
ENDBRANCH   3   5
ENDBRANCH   2   3
ENDBRANCH   1   2
BRANCH   1  32
ATOM     32  C   UNL A   1      39.529  21.526  26.466  1.00  0.00     0.275 C 
BRANCH  32  33
ATOM     33  O   UNL A   1      40.209  22.358  27.406  1.00  0.00    -0.458 OA
BRANCH  33  34
ATOM     34  C   UNL A   1      41.416  22.810  26.986  1.00  0.00     0.338 C 
ATOM     35  O   UNL A   1      42.325  22.148  26.526  1.00  0.00    -0.246 OA
BRANCH  34  36
ATOM     36  C   UNL A   1      41.558  24.231  27.322  1.00  0.00     0.060 A 
ATOM     37  C   UNL A   1      42.556  24.593  28.231  1.00  0.00     0.016 A 
ATOM     38  C   UNL A   1      40.573  25.135  26.912  1.00  0.00     0.016 A 
ATOM     39  C   UNL A   1      42.507  25.848  28.809  1.00  0.00     0.010 A 
ATOM     40  C   UNL A   1      40.517  26.381  27.497  1.00  0.00     0.010 A 
ATOM     41  C   UNL A   1      41.456  26.710  28.475  1.00  0.00    -0.014 A 
BRANCH  41  42
ATOM     42  C   UNL A   1      41.428  28.034  29.072  1.00  0.00     0.031 A 
ATOM     43  C   UNL A   1      42.454  28.959  28.532  1.00  0.00     0.074 A 
ATOM     44  C   UNL A   1      40.454  28.440  29.909  1.00  0.00     0.049 A 
ATOM     45  N   UNL A   1      43.403  29.554  29.171  1.00  0.00    -0.248 NA
ATOM     46  C   UNL A   1      42.508  29.140  27.071  1.00  0.00     0.031 C 
ATOM     47  C   UNL A   1      39.248  27.701  30.292  1.00  0.00     0.029 A 
ATOM     48  N   UNL A   1      40.279  29.655  30.503  1.00  0.00    -0.354 N 
ATOM     49  C   UNL A   1      44.032  30.367  28.235  1.00  0.00     0.074 A 
ATOM     50  C   UNL A   1      43.569  29.935  26.945  1.00  0.00     0.031 C 
ATOM     51  C   UNL A   1      38.371  28.550  30.871  1.00  0.00     0.029 A 
ATOM     52  C   UNL A   1      39.001  29.854  31.015  1.00  0.00     0.049 A 
ATOM     53  H   UNL A   1      40.992  30.330  30.565  1.00  0.00     0.167 HD
ATOM     54  C   UNL A   1      44.692  31.494  28.613  1.00  0.00     0.034 A 
ATOM     55  C   UNL A   1      38.468  31.017  31.470  1.00  0.00     0.034 A 
ATOM     56  C   UNL A   1      45.054  31.445  30.010  1.00  0.00     0.049 A 
ATOM     57  C   UNL A   1      39.596  31.903  31.837  1.00  0.00     0.074 A 
ATOM     58  C   UNL A   1      45.816  30.587  30.780  1.00  0.00     0.029 A 
ATOM     59  N   UNL A   1      44.298  32.171  30.901  1.00  0.00    -0.354 N 
ATOM     60  N   UNL A   1      40.422  31.643  32.813  1.00  0.00    -0.248 NA
ATOM     61  C   UNL A   1      40.084  32.864  30.861  1.00  0.00     0.031 C 
ATOM     62  C   UNL A   1      45.138  30.509  32.032  1.00  0.00     0.029 A 
ATOM     63  C   UNL A   1      44.036  31.367  31.984  1.00  0.00     0.049 A 
ATOM     64  H   UNL A   1      43.998  33.101  30.783  1.00  0.00     0.167 HD
ATOM     65  C   UNL A   1      41.665  32.038  32.344  1.00  0.00     0.074 A 
ATOM     66  C   UNL A   1      41.375  32.905  31.207  1.00  0.00     0.031 C 
ATOM     67  C   UNL A   1      42.803  31.401  32.750  1.00  0.00     0.034 A 
BRANCH  54  68
ATOM     68  C   UNL A   1      44.686  32.777  27.813  1.00  0.00     0.023 A 
ATOM     69  C   UNL A   1      43.913  33.848  28.300  1.00  0.00     0.031 A 
ATOM     70  C   UNL A   1      45.151  32.912  26.483  1.00  0.00     0.131 A 
ATOM     71  C   UNL A   1      43.573  34.929  27.467  1.00  0.00     0.055 A 
ATOM     72  C   UNL A   1      44.872  34.023  25.684  1.00  0.00     0.041 A 
ATOM     73  F   UNL A   1      45.815  31.941  25.844  1.00  0.00    -0.206 F 
ATOM     74  C   UNL A   1      44.054  35.028  26.164  1.00  0.00     0.022 A 
BRANCH  71  75
ATOM     75  S   UNL A   1      42.340  36.116  28.057  1.00  0.00     0.124 S 
ATOM     76  O   UNL A   1      41.332  35.233  28.635  1.00  0.00    -0.237 OA
ATOM     77  O   UNL A   1      43.118  36.912  29.001  1.00  0.00    -0.237 OA
ATOM     78  O   UNL A   1      41.932  36.814  26.840  1.00  0.00    -0.744 OA
ENDBRANCH  71  75
ENDBRANCH  54  68
BRANCH  55  79
ATOM     79  C   UNL A   1      37.065  31.481  31.308  1.00  0.00     0.023 A 
ATOM     80  C   UNL A   1      36.348  32.135  32.331  1.00  0.00     0.031 A 
ATOM     81  C   UNL A   1      36.480  31.482  30.020  1.00  0.00     0.131 A 
ATOM     82  C   UNL A   1      35.105  32.748  32.045  1.00  0.00     0.055 A 
ATOM     83  C   UNL A   1      35.249  32.079  29.748  1.00  0.00     0.041 A 
ATOM     84  F   UNL A   1      37.130  30.972  28.962  1.00  0.00    -0.206 F 
ATOM     85  C   UNL A   1      34.558  32.723  30.759  1.00  0.00     0.022 A 
BRANCH  82  86
ATOM     86  S   UNL A   1      34.215  33.674  33.337  1.00  0.00     0.124 S 
ATOM     87  O   UNL A   1      34.251  35.039  32.825  1.00  0.00    -0.237 OA
ATOM     88  O   UNL A   1      32.912  33.019  33.349  1.00  0.00    -0.237 OA
ATOM     89  O   UNL A   1      35.022  33.448  34.537  1.00  0.00    -0.744 OA
ENDBRANCH  82  86
ENDBRANCH  55  79
BRANCH  67  90
ATOM     90  C   UNL A   1      42.711  30.489  33.962  1.00  0.00     0.023 A 
ATOM     91  C   UNL A   1      42.548  29.085  33.905  1.00  0.00     0.031 A 
ATOM     92  C   UNL A   1      42.891  31.071  35.229  1.00  0.00     0.131 A 
ATOM     93  C   UNL A   1      42.547  28.324  35.091  1.00  0.00     0.055 A 
ATOM     94  C   UNL A   1      42.914  30.311  36.398  1.00  0.00     0.041 A 
ATOM     95  F   UNL A   1      43.082  32.394  35.351  1.00  0.00    -0.206 F 
ATOM     96  C   UNL A   1      42.733  28.934  36.335  1.00  0.00     0.022 A 
BRANCH  93  97
ATOM     97  S   UNL A   1      42.289  26.520  35.035  1.00  0.00     0.124 S 
ATOM     98  O   UNL A   1      40.853  26.386  34.820  1.00  0.00    -0.237 OA
ATOM     99  O   UNL A   1      43.143  26.112  33.922  1.00  0.00    -0.237 OA
ATOM    100  O   UNL A   1      42.751  26.069  36.349  1.00  0.00    -0.744 OA
ENDBRANCH  93  97
ENDBRANCH  67  90
ENDBRANCH  41  42
ENDBRANCH  34  36
ENDBRANCH  33  34
ENDBRANCH  32  33
ENDBRANCH   1  32
TORSDOF 18
ENDMDL
