MODEL 1
REMARK VINA RESULT:     -13.5      0.000      0.000
REMARK SMILES CC1(C)O[C@H]2C[C@@H]3[C@@H]4CCC5=CC(=O)C=C[C@]5(C)[C@@]4(F)[C@H](O)C[C@@]3(C)[C@@]2(C(=O)OCCOC(=O)c2ccc(-c3c4nc(c(-c5cc(S(=O)(=O)[O-])ccc5F)c5ccc([nH]5)c(-c5cc(S(=O)(=O)[O-])ccc5F)c5nc(c(-c6cc(S(=O)(=O)[O-])ccc6F)c6ccc3[nH]6)C=C5)C=C4)cc2)O1
REMARK SMILES IDX 31 1 30 2 29 3 27 4 28 5 26 6 1 7 2 8 3 9 4 10 98 11 5 12
REMARK SMILES IDX 6 13 24 14 7 15 23 16 25 17 8 18 21 19 9 20 19 21 10 22
REMARK SMILES IDX 17 23 20 24 11 25 16 26 18 27 12 28 15 29 13 30 14 31 22 32
REMARK SMILES IDX 32 34 33 35 34 36 35 37 36 38 97 39 37 40 96 41 38 42 39 43
REMARK SMILES IDX 40 44 90 45 41 46 95 47 89 48 91 49 42 50 94 51 88 52 87 53
REMARK SMILES IDX 43 55 75 56 55 57 74 58 56 59 59 60 73 61 92 62 57 63 58 64
REMARK SMILES IDX 72 66 93 67 60 68 44 69 45 70 53 71 46 72 52 73 54 74 51 75
REMARK SMILES IDX 47 76 48 77 49 78 50 79 76 80 77 81 85 82 78 83 84 84 86 85
REMARK SMILES IDX 83 86 79 87 80 88 81 89 82 90 61 91 62 92 70 93 63 94 69 95
REMARK SMILES IDX 71 96 68 97 64 98 65 99 66 100 67 101
REMARK H PARENT 22 33 91 54 59 65
REMARK Flexibility Score: inf
ROOT
ATOM      1  C   UNL A   1      31.758  31.084  26.356  1.00  0.00     0.275 C 
ENDROOT
BRANCH   1   2
ATOM      2  C   UNL A   1      31.844  30.018  25.273  1.00  0.00     0.274 C 
BRANCH   2   3
ATOM      3  O   UNL A   1      31.054  28.874  25.645  1.00  0.00    -0.460 OA
BRANCH   3   4
ATOM      4  C   UNL A   1      31.712  27.747  26.060  1.00  0.00     0.342 C 
ATOM      5  O   UNL A   1      32.292  27.627  27.130  1.00  0.00    -0.249 OA
BRANCH   4   6
ATOM      6  C   UNL A   1      31.723  26.714  24.931  1.00  0.00     0.200 C 
ATOM      7  C   UNL A   1      33.535  25.826  22.095  1.00  0.00     0.075 C 
ATOM      8  C   UNL A   1      33.156  26.967  23.065  1.00  0.00     0.165 C 
ATOM      9  C   UNL A   1      34.260  28.002  22.908  1.00  0.00     0.075 C 
ATOM     10  O   UNL A   1      31.890  27.514  22.699  1.00  0.00    -0.344 OA
ATOM     11  O   UNL A   1      33.094  26.524  24.445  1.00  0.00    -0.329 OA
ATOM     12  C   UNL A   1      30.926  27.017  23.634  1.00  0.00     0.166 C 
ATOM     13  C   UNL A   1      30.345  25.626  23.136  1.00  0.00     0.040 C 
ATOM     14  C   UNL A   1      31.039  25.368  25.436  1.00  0.00     0.016 C 
ATOM     15  C   UNL A   1      31.059  24.648  24.078  1.00  0.00     0.008 C 
ATOM     16  C   UNL A   1      31.736  24.583  26.547  1.00  0.00     0.046 C 
ATOM     17  C   UNL A   1      29.598  25.656  25.956  1.00  0.00     0.015 C 
ATOM     18  C   UNL A   1      31.539  23.214  23.851  1.00  0.00     0.035 C 
ATOM     19  C   UNL A   1      32.745  23.553  26.069  1.00  0.00     0.154 C 
ATOM     20  C   UNL A   1      30.759  22.295  22.934  1.00  0.00     0.012 C 
ATOM     21  C   UNL A   1      32.087  22.500  25.109  1.00  0.00     0.152 C 
ATOM     22  C   UNL A   1      31.777  21.302  22.347  1.00  0.00     0.032 C 
ATOM     23  C   UNL A   1      33.067  21.327  24.676  1.00  0.00     0.044 C 
ATOM     24  F   UNL A   1      31.002  21.957  25.752  1.00  0.00    -0.239 F 
ATOM     25  C   UNL A   1      32.591  20.575  23.401  1.00  0.00    -0.053 C 
ATOM     26  C   UNL A   1      33.277  20.311  25.800  1.00  0.00    -0.009 C 
ATOM     27  C   UNL A   1      34.481  21.908  24.367  1.00  0.00     0.024 C 
ATOM     28  C   UNL A   1      32.938  19.293  23.180  1.00  0.00     0.052 C 
ATOM     29  C   UNL A   1      33.589  19.025  25.587  1.00  0.00     0.048 C 
ATOM     30  C   UNL A   1      33.651  18.504  24.208  1.00  0.00     0.178 C 
ATOM     31  O   UNL A   1      34.199  17.442  23.943  1.00  0.00    -0.290 OA
BRANCH  19  32
ATOM     32  O   UNL A   1      33.310  22.952  27.239  1.00  0.00    -0.390 OA
ATOM     33  H   UNL A   1      33.856  23.603  27.707  1.00  0.00     0.211 HD
ENDBRANCH  19  32
ENDBRANCH   4   6
ENDBRANCH   3   4
ENDBRANCH   2   3
ENDBRANCH   1   2
BRANCH   1  34
ATOM     34  O   UNL A   1      32.836  30.874  27.279  1.00  0.00    -0.458 OA
BRANCH  34  35
ATOM     35  C   UNL A   1      33.537  31.972  27.617  1.00  0.00     0.338 C 
ATOM     36  O   UNL A   1      33.146  33.138  27.614  1.00  0.00    -0.246 OA
BRANCH  35  37
ATOM     37  C   UNL A   1      34.880  31.573  28.053  1.00  0.00     0.060 A 
ATOM     38  C   UNL A   1      35.103  30.262  28.482  1.00  0.00     0.016 A 
ATOM     39  C   UNL A   1      35.875  32.535  28.193  1.00  0.00     0.016 A 
ATOM     40  C   UNL A   1      36.285  29.921  29.123  1.00  0.00     0.010 A 
ATOM     41  C   UNL A   1      37.099  32.169  28.753  1.00  0.00     0.010 A 
ATOM     42  C   UNL A   1      37.304  30.866  29.248  1.00  0.00    -0.014 A 
BRANCH  42  43
ATOM     43  C   UNL A   1      38.565  30.525  29.946  1.00  0.00     0.031 A 
ATOM     44  C   UNL A   1      39.534  29.587  29.291  1.00  0.00     0.074 A 
ATOM     45  C   UNL A   1      38.829  31.043  31.161  1.00  0.00     0.049 A 
ATOM     46  N   UNL A   1      40.533  28.928  29.814  1.00  0.00    -0.248 NA
ATOM     47  C   UNL A   1      39.337  29.350  27.853  1.00  0.00     0.031 C 
ATOM     48  C   UNL A   1      38.013  32.044  31.853  1.00  0.00     0.029 A 
ATOM     49  N   UNL A   1      39.852  30.787  32.036  1.00  0.00    -0.354 N 
ATOM     50  C   UNL A   1      41.051  28.150  28.784  1.00  0.00     0.074 A 
ATOM     51  C   UNL A   1      40.253  28.424  27.607  1.00  0.00     0.031 C 
ATOM     52  C   UNL A   1      38.567  32.314  33.044  1.00  0.00     0.029 A 
ATOM     53  C   UNL A   1      39.714  31.436  33.241  1.00  0.00     0.049 A 
ATOM     54  H   UNL A   1      40.610  30.196  31.823  1.00  0.00     0.167 HD
ATOM     55  C   UNL A   1      42.092  27.281  28.832  1.00  0.00     0.034 A 
ATOM     56  C   UNL A   1      40.388  31.285  34.396  1.00  0.00     0.034 A 
ATOM     57  C   UNL A   1      42.877  27.054  30.021  1.00  0.00     0.049 A 
ATOM     58  C   UNL A   1      41.488  30.258  34.455  1.00  0.00     0.074 A 
ATOM     59  C   UNL A   1      43.939  26.185  30.207  1.00  0.00     0.029 A 
ATOM     60  N   UNL A   1      42.690  27.711  31.232  1.00  0.00    -0.354 N 
ATOM     61  N   UNL A   1      41.913  29.449  33.510  1.00  0.00    -0.248 NA
ATOM     62  C   UNL A   1      42.189  30.113  35.735  1.00  0.00     0.031 C 
ATOM     63  C   UNL A   1      44.355  26.279  31.540  1.00  0.00     0.029 A 
ATOM     64  C   UNL A   1      43.602  27.256  32.171  1.00  0.00     0.049 A 
ATOM     65  H   UNL A   1      42.006  28.401  31.399  1.00  0.00     0.167 HD
ATOM     66  C   UNL A   1      42.947  28.714  34.079  1.00  0.00     0.074 A 
ATOM     67  C   UNL A   1      43.088  29.185  35.443  1.00  0.00     0.031 C 
ATOM     68  C   UNL A   1      43.715  27.740  33.527  1.00  0.00     0.034 A 
BRANCH  55  69
ATOM     69  C   UNL A   1      42.372  26.467  27.593  1.00  0.00     0.023 A 
ATOM     70  C   UNL A   1      41.924  25.143  27.450  1.00  0.00     0.031 A 
ATOM     71  C   UNL A   1      43.150  27.014  26.556  1.00  0.00     0.131 A 
ATOM     72  C   UNL A   1      42.316  24.388  26.333  1.00  0.00     0.055 A 
ATOM     73  C   UNL A   1      43.472  26.283  25.411  1.00  0.00     0.041 A 
ATOM     74  F   UNL A   1      43.630  28.265  26.648  1.00  0.00    -0.206 F 
ATOM     75  C   UNL A   1      43.068  24.957  25.300  1.00  0.00     0.022 A 
BRANCH  72  76
ATOM     76  S   UNL A   1      41.955  22.611  26.314  1.00  0.00     0.124 S 
ATOM     77  O   UNL A   1      40.497  22.604  26.407  1.00  0.00    -0.237 OA
ATOM     78  O   UNL A   1      42.515  22.188  25.036  1.00  0.00    -0.237 OA
ATOM     79  O   UNL A   1      42.649  22.107  27.497  1.00  0.00    -0.744 OA
ENDBRANCH  72  76
ENDBRANCH  55  69
BRANCH  56  80
ATOM     80  C   UNL A   1      39.989  32.057  35.606  1.00  0.00     0.023 A 
ATOM     81  C   UNL A   1      39.040  31.553  36.507  1.00  0.00     0.031 A 
ATOM     82  C   UNL A   1      40.541  33.327  35.868  1.00  0.00     0.131 A 
ATOM     83  C   UNL A   1      38.644  32.328  37.609  1.00  0.00     0.055 A 
ATOM     84  C   UNL A   1      40.183  34.068  36.994  1.00  0.00     0.041 A 
ATOM     85  F   UNL A   1      41.454  33.855  35.038  1.00  0.00    -0.206 F 
ATOM     86  C   UNL A   1      39.220  33.574  37.867  1.00  0.00     0.022 A 
BRANCH  83  87
ATOM     87  S   UNL A   1      37.307  31.711  38.667  1.00  0.00     0.124 S 
ATOM     88  O   UNL A   1      37.937  31.726  39.982  1.00  0.00    -0.237 OA
ATOM     89  O   UNL A   1      36.261  32.704  38.444  1.00  0.00    -0.237 OA
ATOM     90  O   UNL A   1      37.028  30.383  38.124  1.00  0.00    -0.744 OA
ENDBRANCH  83  87
ENDBRANCH  56  80
BRANCH  68  91
ATOM     91  C   UNL A   1      44.811  27.173  34.391  1.00  0.00     0.023 A 
ATOM     92  C   UNL A   1      44.632  25.992  35.132  1.00  0.00     0.031 A 
ATOM     93  C   UNL A   1      46.047  27.836  34.480  1.00  0.00     0.131 A 
ATOM     94  C   UNL A   1      45.660  25.536  35.970  1.00  0.00     0.055 A 
ATOM     95  C   UNL A   1      47.083  27.349  35.276  1.00  0.00     0.041 A 
ATOM     96  F   UNL A   1      46.266  28.969  33.793  1.00  0.00    -0.206 F 
ATOM     97  C   UNL A   1      46.889  26.199  36.035  1.00  0.00     0.022 A 
BRANCH  94  98
ATOM     98  S   UNL A   1      45.344  24.104  37.036  1.00  0.00     0.124 S 
ATOM     99  O   UNL A   1      46.696  23.666  37.366  1.00  0.00    -0.237 OA
ATOM    100  O   UNL A   1      44.580  24.693  38.132  1.00  0.00    -0.237 OA
ATOM    101  O   UNL A   1      44.590  23.194  36.176  1.00  0.00    -0.744 OA
ENDBRANCH  94  98
ENDBRANCH  68  91
ENDBRANCH  42  43
ENDBRANCH  35  37
ENDBRANCH  34  35
ENDBRANCH   1  34
TORSDOF 15
ENDMDL
MODEL 2
REMARK VINA RESULT:     -13.4      4.844     10.135
REMARK SMILES CC1(C)O[C@H]2C[C@@H]3[C@@H]4CCC5=CC(=O)C=C[C@]5(C)[C@@]4(F)[C@H](O)C[C@@]3(C)[C@@]2(C(=O)OCCOC(=O)c2ccc(-c3c4nc(c(-c5cc(S(=O)(=O)[O-])ccc5F)c5ccc([nH]5)c(-c5cc(S(=O)(=O)[O-])ccc5F)c5nc(c(-c6cc(S(=O)(=O)[O-])ccc6F)c6ccc3[nH]6)C=C5)C=C4)cc2)O1
REMARK SMILES IDX 31 1 30 2 29 3 27 4 28 5 26 6 1 7 2 8 3 9 4 10 98 11 5 12
REMARK SMILES IDX 6 13 24 14 7 15 23 16 25 17 8 18 21 19 9 20 19 21 10 22
REMARK SMILES IDX 17 23 20 24 11 25 16 26 18 27 12 28 15 29 13 30 14 31 22 32
REMARK SMILES IDX 32 34 33 35 34 36 35 37 36 38 97 39 37 40 96 41 38 42 39 43
REMARK SMILES IDX 40 44 90 45 41 46 95 47 89 48 91 49 42 50 94 51 88 52 87 53
REMARK SMILES IDX 43 55 75 56 55 57 74 58 56 59 59 60 73 61 92 62 57 63 58 64
REMARK SMILES IDX 72 66 93 67 60 68 44 69 45 70 53 71 46 72 52 73 54 74 51 75
REMARK SMILES IDX 47 76 48 77 49 78 50 79 76 80 77 81 85 82 78 83 84 84 86 85
REMARK SMILES IDX 83 86 79 87 80 88 81 89 82 90 61 91 62 92 70 93 63 94 69 95
REMARK SMILES IDX 71 96 68 97 64 98 65 99 66 100 67 101
REMARK H PARENT 22 33 91 54 59 65
REMARK Flexibility Score: inf
ROOT
ATOM      1  C   UNL A   1      37.281  20.541  25.055  1.00  0.00     0.275 C 
ENDROOT
BRANCH   1   2
ATOM      2  C   UNL A   1      35.878  21.034  25.380  1.00  0.00     0.274 C 
BRANCH   2   3
ATOM      3  O   UNL A   1      35.206  21.435  24.173  1.00  0.00    -0.460 OA
BRANCH   3   4
ATOM      4  C   UNL A   1      35.065  22.776  23.931  1.00  0.00     0.342 C 
ATOM      5  O   UNL A   1      35.977  23.536  23.641  1.00  0.00    -0.249 OA
BRANCH   4   6
ATOM      6  C   UNL A   1      33.620  23.197  24.209  1.00  0.00     0.200 C 
ATOM      7  C   UNL A   1      31.509  24.050  26.843  1.00  0.00     0.075 C 
ATOM      8  C   UNL A   1      32.780  23.280  26.420  1.00  0.00     0.165 C 
ATOM      9  C   UNL A   1      33.588  23.118  27.699  1.00  0.00     0.075 C 
ATOM     10  O   UNL A   1      32.420  22.008  25.882  1.00  0.00    -0.344 OA
ATOM     11  O   UNL A   1      33.564  24.001  25.435  1.00  0.00    -0.329 OA
ATOM     12  C   UNL A   1      32.556  22.096  24.459  1.00  0.00     0.166 C 
ATOM     13  C   UNL A   1      31.207  22.628  23.811  1.00  0.00     0.040 C 
ATOM     14  C   UNL A   1      33.031  23.947  22.934  1.00  0.00     0.016 C 
ATOM     15  C   UNL A   1      31.592  24.070  23.459  1.00  0.00     0.008 C 
ATOM     16  C   UNL A   1      33.650  25.289  22.543  1.00  0.00     0.046 C 
ATOM     17  C   UNL A   1      33.147  23.040  21.672  1.00  0.00     0.015 C 
ATOM     18  C   UNL A   1      30.754  25.349  23.432  1.00  0.00     0.035 C 
ATOM     19  C   UNL A   1      33.012  26.504  23.195  1.00  0.00     0.154 C 
ATOM     20  C   UNL A   1      29.292  25.283  23.043  1.00  0.00     0.012 C 
ATOM     21  C   UNL A   1      31.478  26.596  22.872  1.00  0.00     0.152 C 
ATOM     22  C   UNL A   1      28.594  26.441  23.777  1.00  0.00     0.032 C 
ATOM     23  C   UNL A   1      30.785  27.914  23.426  1.00  0.00     0.044 C 
ATOM     24  F   UNL A   1      31.327  26.554  21.509  1.00  0.00    -0.239 F 
ATOM     25  C   UNL A   1      29.238  27.792  23.525  1.00  0.00    -0.053 C 
ATOM     26  C   UNL A   1      31.132  29.142  22.583  1.00  0.00    -0.009 C 
ATOM     27  C   UNL A   1      31.315  28.226  24.860  1.00  0.00     0.024 C 
ATOM     28  C   UNL A   1      28.449  28.881  23.450  1.00  0.00     0.052 C 
ATOM     29  C   UNL A   1      30.337  30.215  22.477  1.00  0.00     0.048 C 
ATOM     30  C   UNL A   1      29.007  30.210  23.116  1.00  0.00     0.178 C 
ATOM     31  O   UNL A   1      28.372  31.241  23.294  1.00  0.00    -0.290 OA
BRANCH  19  32
ATOM     32  O   UNL A   1      33.739  27.649  22.738  1.00  0.00    -0.390 OA
ATOM     33  H   UNL A   1      33.790  27.635  21.770  1.00  0.00     0.211 HD
ENDBRANCH  19  32
ENDBRANCH   4   6
ENDBRANCH   3   4
ENDBRANCH   2   3
ENDBRANCH   1   2
BRANCH   1  34
ATOM     34  O   UNL A   1      38.201  21.617  25.290  1.00  0.00    -0.458 OA
BRANCH  34  35
ATOM     35  C   UNL A   1      39.277  21.313  26.039  1.00  0.00     0.338 C 
ATOM     36  O   UNL A   1      39.815  20.214  26.160  1.00  0.00    -0.246 OA
BRANCH  35  37
ATOM     37  C   UNL A   1      39.774  22.530  26.690  1.00  0.00     0.060 A 
ATOM     38  C   UNL A   1      39.379  23.780  26.205  1.00  0.00     0.016 A 
ATOM     39  C   UNL A   1      40.756  22.437  27.671  1.00  0.00     0.016 A 
ATOM     40  C   UNL A   1      40.014  24.936  26.635  1.00  0.00     0.010 A 
ATOM     41  C   UNL A   1      41.329  23.607  28.171  1.00  0.00     0.010 A 
ATOM     42  C   UNL A   1      40.982  24.863  27.638  1.00  0.00    -0.014 A 
BRANCH  42  43
ATOM     43  C   UNL A   1      41.683  26.085  28.095  1.00  0.00     0.031 A 
ATOM     44  C   UNL A   1      40.929  27.108  28.893  1.00  0.00     0.074 A 
ATOM     45  C   UNL A   1      42.979  26.279  27.787  1.00  0.00     0.049 A 
ATOM     46  N   UNL A   1      41.233  28.352  29.145  1.00  0.00    -0.248 NA
ATOM     47  C   UNL A   1      39.649  26.666  29.469  1.00  0.00     0.031 C 
ATOM     48  C   UNL A   1      43.844  25.312  27.107  1.00  0.00     0.029 A 
ATOM     49  N   UNL A   1      43.792  27.363  27.993  1.00  0.00    -0.354 N 
ATOM     50  C   UNL A   1      40.156  28.865  29.861  1.00  0.00     0.074 A 
ATOM     51  C   UNL A   1      39.194  27.792  30.001  1.00  0.00     0.031 C 
ATOM     52  C   UNL A   1      45.064  25.847  26.951  1.00  0.00     0.029 A 
ATOM     53  C   UNL A   1      45.038  27.225  27.426  1.00  0.00     0.049 A 
ATOM     54  H   UNL A   1      43.511  28.162  28.495  1.00  0.00     0.167 HD
ATOM     55  C   UNL A   1      39.992  30.122  30.342  1.00  0.00     0.034 A 
ATOM     56  C   UNL A   1      46.019  28.129  27.244  1.00  0.00     0.034 A 
ATOM     57  C   UNL A   1      40.987  31.159  30.200  1.00  0.00     0.049 A 
ATOM     58  C   UNL A   1      45.788  29.542  27.713  1.00  0.00     0.074 A 
ATOM     59  C   UNL A   1      40.933  32.477  30.620  1.00  0.00     0.029 A 
ATOM     60  N   UNL A   1      42.228  30.988  29.595  1.00  0.00    -0.354 N 
ATOM     61  N   UNL A   1      44.730  30.054  28.299  1.00  0.00    -0.248 NA
ATOM     62  C   UNL A   1      46.875  30.500  27.482  1.00  0.00     0.031 C 
ATOM     63  C   UNL A   1      42.115  33.113  30.223  1.00  0.00     0.029 A 
ATOM     64  C   UNL A   1      42.938  32.178  29.615  1.00  0.00     0.049 A 
ATOM     65  H   UNL A   1      42.555  30.143  29.208  1.00  0.00     0.167 HD
ATOM     66  C   UNL A   1      45.034  31.391  28.528  1.00  0.00     0.074 A 
ATOM     67  C   UNL A   1      46.378  31.601  28.026  1.00  0.00     0.031 C 
ATOM     68  C   UNL A   1      44.276  32.359  29.103  1.00  0.00     0.034 A 
BRANCH  55  69
ATOM     69  C   UNL A   1      38.667  30.452  30.981  1.00  0.00     0.023 A 
ATOM     70  C   UNL A   1      37.619  31.055  30.265  1.00  0.00     0.031 A 
ATOM     71  C   UNL A   1      38.468  30.204  32.352  1.00  0.00     0.131 A 
ATOM     72  C   UNL A   1      36.451  31.454  30.935  1.00  0.00     0.055 A 
ATOM     73  C   UNL A   1      37.274  30.533  32.997  1.00  0.00     0.041 A 
ATOM     74  F   UNL A   1      39.442  29.655  33.095  1.00  0.00    -0.206 F 
ATOM     75  C   UNL A   1      36.262  31.176  32.292  1.00  0.00     0.022 A 
BRANCH  72  76
ATOM     76  S   UNL A   1      35.243  32.473  30.045  1.00  0.00     0.124 S 
ATOM     77  O   UNL A   1      36.054  33.626  29.660  1.00  0.00    -0.237 OA
ATOM     78  O   UNL A   1      34.828  31.594  28.958  1.00  0.00    -0.237 OA
ATOM     79  O   UNL A   1      34.219  32.749  31.050  1.00  0.00    -0.744 OA
ENDBRANCH  72  76
ENDBRANCH  55  69
BRANCH  56  80
ATOM     80  C   UNL A   1      47.264  27.752  26.517  1.00  0.00     0.023 A 
ATOM     81  C   UNL A   1      47.359  27.891  25.125  1.00  0.00     0.031 A 
ATOM     82  C   UNL A   1      48.373  27.225  27.206  1.00  0.00     0.131 A 
ATOM     83  C   UNL A   1      48.525  27.476  24.461  1.00  0.00     0.055 A 
ATOM     84  C   UNL A   1      49.548  26.865  26.547  1.00  0.00     0.041 A 
ATOM     85  F   UNL A   1      48.334  27.071  28.539  1.00  0.00    -0.206 F 
ATOM     86  C   UNL A   1      49.625  26.979  25.163  1.00  0.00     0.022 A 
BRANCH  83  87
ATOM     87  S   UNL A   1      48.556  27.531  22.648  1.00  0.00     0.124 S 
ATOM     88  O   UNL A   1      49.791  28.263  22.394  1.00  0.00    -0.237 OA
ATOM     89  O   UNL A   1      48.567  26.112  22.303  1.00  0.00    -0.237 OA
ATOM     90  O   UNL A   1      47.326  28.242  22.307  1.00  0.00    -0.744 OA
ENDBRANCH  83  87
ENDBRANCH  56  80
BRANCH  68  91
ATOM     91  C   UNL A   1      44.919  33.712  29.268  1.00  0.00     0.023 A 
ATOM     92  C   UNL A   1      44.900  34.670  28.240  1.00  0.00     0.031 A 
ATOM     93  C   UNL A   1      45.571  34.034  30.471  1.00  0.00     0.131 A 
ATOM     94  C   UNL A   1      45.566  35.891  28.419  1.00  0.00     0.055 A 
ATOM     95  C   UNL A   1      46.187  35.271  30.660  1.00  0.00     0.041 A 
ATOM     96  F   UNL A   1      45.617  33.152  31.481  1.00  0.00    -0.206 F 
ATOM     97  C   UNL A   1      46.196  36.204  29.627  1.00  0.00     0.022 A 
BRANCH  94  98
ATOM     98  S   UNL A   1      45.665  37.042  27.020  1.00  0.00     0.124 S 
ATOM     99  O   UNL A   1      44.281  37.487  26.894  1.00  0.00    -0.237 OA
ATOM    100  O   UNL A   1      46.614  38.041  27.503  1.00  0.00    -0.237 OA
ATOM    101  O   UNL A   1      46.150  36.208  25.922  1.00  0.00    -0.744 OA
ENDBRANCH  94  98
ENDBRANCH  68  91
ENDBRANCH  42  43
ENDBRANCH  35  37
ENDBRANCH  34  35
ENDBRANCH   1  34
TORSDOF 15
ENDMDL
MODEL 3
REMARK VINA RESULT:     -13.2      4.802      7.941
REMARK SMILES CC1(C)O[C@H]2C[C@@H]3[C@@H]4CCC5=CC(=O)C=C[C@]5(C)[C@@]4(F)[C@H](O)C[C@@]3(C)[C@@]2(C(=O)OCCOC(=O)c2ccc(-c3c4nc(c(-c5cc(S(=O)(=O)[O-])ccc5F)c5ccc([nH]5)c(-c5cc(S(=O)(=O)[O-])ccc5F)c5nc(c(-c6cc(S(=O)(=O)[O-])ccc6F)c6ccc3[nH]6)C=C5)C=C4)cc2)O1
REMARK SMILES IDX 31 1 30 2 29 3 27 4 28 5 26 6 1 7 2 8 3 9 4 10 98 11 5 12
REMARK SMILES IDX 6 13 24 14 7 15 23 16 25 17 8 18 21 19 9 20 19 21 10 22
REMARK SMILES IDX 17 23 20 24 11 25 16 26 18 27 12 28 15 29 13 30 14 31 22 32
REMARK SMILES IDX 32 34 33 35 34 36 35 37 36 38 97 39 37 40 96 41 38 42 39 43
REMARK SMILES IDX 40 44 90 45 41 46 95 47 89 48 91 49 42 50 94 51 88 52 87 53
REMARK SMILES IDX 43 55 75 56 55 57 74 58 56 59 59 60 73 61 92 62 57 63 58 64
REMARK SMILES IDX 72 66 93 67 60 68 44 69 45 70 53 71 46 72 52 73 54 74 51 75
REMARK SMILES IDX 47 76 48 77 49 78 50 79 76 80 77 81 85 82 78 83 84 84 86 85
REMARK SMILES IDX 83 86 79 87 80 88 81 89 82 90 61 91 62 92 70 93 63 94 69 95
REMARK SMILES IDX 71 96 68 97 64 98 65 99 66 100 67 101
REMARK H PARENT 22 33 91 54 59 65
REMARK Flexibility Score: inf
ROOT
ATOM      1  C   UNL A   1      37.306  20.179  25.058  1.00  0.00     0.275 C 
ENDROOT
BRANCH   1   2
ATOM      2  C   UNL A   1      35.981  20.839  25.412  1.00  0.00     0.274 C 
BRANCH   2   3
ATOM      3  O   UNL A   1      35.333  21.313  24.218  1.00  0.00    -0.460 OA
BRANCH   3   4
ATOM      4  C   UNL A   1      35.206  22.667  24.051  1.00  0.00     0.342 C 
ATOM      5  O   UNL A   1      36.131  23.437  23.837  1.00  0.00    -0.249 OA
BRANCH   4   6
ATOM      6  C   UNL A   1      33.754  23.081  24.304  1.00  0.00     0.200 C 
ATOM      7  C   UNL A   1      31.587  23.897  26.903  1.00  0.00     0.075 C 
ATOM      8  C   UNL A   1      32.869  23.136  26.498  1.00  0.00     0.165 C 
ATOM      9  C   UNL A   1      33.651  22.963  27.792  1.00  0.00     0.075 C 
ATOM     10  O   UNL A   1      32.525  21.869  25.939  1.00  0.00    -0.344 OA
ATOM     11  O   UNL A   1      33.670  23.871  25.537  1.00  0.00    -0.329 OA
ATOM     12  C   UNL A   1      32.689  21.973  24.519  1.00  0.00     0.166 C 
ATOM     13  C   UNL A   1      31.352  22.508  23.850  1.00  0.00     0.040 C 
ATOM     14  C   UNL A   1      33.190  23.843  23.025  1.00  0.00     0.016 C 
ATOM     15  C   UNL A   1      31.739  23.956  23.522  1.00  0.00     0.008 C 
ATOM     16  C   UNL A   1      33.811  25.191  22.662  1.00  0.00     0.046 C 
ATOM     17  C   UNL A   1      33.334  22.950  21.756  1.00  0.00     0.015 C 
ATOM     18  C   UNL A   1      30.898  25.232  23.492  1.00  0.00     0.035 C 
ATOM     19  C   UNL A   1      33.156  26.397  23.314  1.00  0.00     0.154 C 
ATOM     20  C   UNL A   1      29.444  25.165  23.072  1.00  0.00     0.012 C 
ATOM     21  C   UNL A   1      31.629  26.487  22.961  1.00  0.00     0.152 C 
ATOM     22  C   UNL A   1      28.727  26.313  23.804  1.00  0.00     0.032 C 
ATOM     23  C   UNL A   1      30.920  27.796  23.515  1.00  0.00     0.044 C 
ATOM     24  F   UNL A   1      31.506  26.460  21.594  1.00  0.00    -0.239 F 
ATOM     25  C   UNL A   1      29.371  27.669  23.581  1.00  0.00    -0.053 C 
ATOM     26  C   UNL A   1      31.280  29.035  22.693  1.00  0.00    -0.009 C 
ATOM     27  C   UNL A   1      31.419  28.095  24.963  1.00  0.00     0.024 C 
ATOM     28  C   UNL A   1      28.580  28.755  23.502  1.00  0.00     0.052 C 
ATOM     29  C   UNL A   1      30.483  30.107  22.582  1.00  0.00     0.048 C 
ATOM     30  C   UNL A   1      29.140  30.090  23.195  1.00  0.00     0.178 C 
ATOM     31  O   UNL A   1      28.498  31.117  23.370  1.00  0.00    -0.290 OA
BRANCH  19  32
ATOM     32  O   UNL A   1      33.888  27.549  22.885  1.00  0.00    -0.390 OA
ATOM     33  H   UNL A   1      33.336  28.081  22.291  1.00  0.00     0.211 HD
ENDBRANCH  19  32
ENDBRANCH   4   6
ENDBRANCH   3   4
ENDBRANCH   2   3
ENDBRANCH   1   2
BRANCH   1  34
ATOM     34  O   UNL A   1      38.329  21.185  25.082  1.00  0.00    -0.458 OA
BRANCH  34  35
ATOM     35  C   UNL A   1      39.248  21.060  26.057  1.00  0.00     0.338 C 
ATOM     36  O   UNL A   1      39.728  20.020  26.501  1.00  0.00    -0.246 OA
BRANCH  35  37
ATOM     37  C   UNL A   1      39.655  22.394  26.513  1.00  0.00     0.060 A 
ATOM     38  C   UNL A   1      38.913  23.511  26.119  1.00  0.00     0.016 A 
ATOM     39  C   UNL A   1      40.858  22.556  27.191  1.00  0.00     0.016 A 
ATOM     40  C   UNL A   1      39.403  24.792  26.326  1.00  0.00     0.010 A 
ATOM     41  C   UNL A   1      41.306  23.845  27.482  1.00  0.00     0.010 A 
ATOM     42  C   UNL A   1      40.596  24.973  27.028  1.00  0.00    -0.014 A 
BRANCH  42  43
ATOM     43  C   UNL A   1      41.144  26.333  27.242  1.00  0.00     0.031 A 
ATOM     44  C   UNL A   1      42.511  26.662  26.720  1.00  0.00     0.074 A 
ATOM     45  C   UNL A   1      40.426  27.257  27.908  1.00  0.00     0.049 A 
ATOM     46  N   UNL A   1      43.300  27.655  27.028  1.00  0.00    -0.248 NA
ATOM     47  C   UNL A   1      43.068  25.731  25.726  1.00  0.00     0.031 C 
ATOM     48  C   UNL A   1      39.047  27.087  28.373  1.00  0.00     0.029 A 
ATOM     49  N   UNL A   1      40.764  28.518  28.324  1.00  0.00    -0.354 N 
ATOM     50  C   UNL A   1      44.473  27.442  26.311  1.00  0.00     0.074 A 
ATOM     51  C   UNL A   1      44.287  26.223  25.553  1.00  0.00     0.031 C 
ATOM     52  C   UNL A   1      38.659  28.202  29.010  1.00  0.00     0.029 A 
ATOM     53  C   UNL A   1      39.790  29.119  29.087  1.00  0.00     0.049 A 
ATOM     54  H   UNL A   1      41.619  28.950  28.100  1.00  0.00     0.167 HD
ATOM     55  C   UNL A   1      45.600  28.196  26.305  1.00  0.00     0.034 A 
ATOM     56  C   UNL A   1      39.829  30.244  29.825  1.00  0.00     0.034 A 
ATOM     57  C   UNL A   1      45.737  29.419  27.059  1.00  0.00     0.049 A 
ATOM     58  C   UNL A   1      41.115  31.027  29.871  1.00  0.00     0.074 A 
ATOM     59  C   UNL A   1      46.832  30.260  27.157  1.00  0.00     0.029 A 
ATOM     60  N   UNL A   1      44.736  29.983  27.843  1.00  0.00    -0.354 N 
ATOM     61  N   UNL A   1      42.258  30.771  29.274  1.00  0.00    -0.248 NA
ATOM     62  C   UNL A   1      41.122  32.238  30.698  1.00  0.00     0.031 C 
ATOM     63  C   UNL A   1      46.511  31.299  28.039  1.00  0.00     0.029 A 
ATOM     64  C   UNL A   1      45.193  31.147  28.440  1.00  0.00     0.049 A 
ATOM     65  H   UNL A   1      43.832  29.608  27.959  1.00  0.00     0.167 HD
ATOM     66  C   UNL A   1      43.114  31.805  29.638  1.00  0.00     0.074 A 
ATOM     67  C   UNL A   1      42.351  32.691  30.495  1.00  0.00     0.031 C 
ATOM     68  C   UNL A   1      44.411  32.009  29.295  1.00  0.00     0.034 A 
BRANCH  55  69
ATOM     69  C   UNL A   1      46.781  27.670  25.528  1.00  0.00     0.023 A 
ATOM     70  C   UNL A   1      47.047  28.069  24.208  1.00  0.00     0.031 A 
ATOM     71  C   UNL A   1      47.629  26.707  26.108  1.00  0.00     0.131 A 
ATOM     72  C   UNL A   1      48.086  27.457  23.487  1.00  0.00     0.055 A 
ATOM     73  C   UNL A   1      48.708  26.160  25.412  1.00  0.00     0.041 A 
ATOM     74  F   UNL A   1      47.409  26.267  27.357  1.00  0.00    -0.206 F 
ATOM     75  C   UNL A   1      48.933  26.522  24.089  1.00  0.00     0.022 A 
BRANCH  72  76
ATOM     76  S   UNL A   1      48.225  27.791  21.710  1.00  0.00     0.124 S 
ATOM     77  O   UNL A   1      48.586  26.475  21.189  1.00  0.00    -0.237 OA
ATOM     78  O   UNL A   1      46.889  28.267  21.372  1.00  0.00    -0.237 OA
ATOM     79  O   UNL A   1      49.284  28.795  21.631  1.00  0.00    -0.744 OA
ENDBRANCH  72  76
ENDBRANCH  55  69
BRANCH  56  80
ATOM     80  C   UNL A   1      38.651  30.648  30.644  1.00  0.00     0.023 A 
ATOM     81  C   UNL A   1      37.581  31.354  30.074  1.00  0.00     0.031 A 
ATOM     82  C   UNL A   1      38.590  30.351  32.019  1.00  0.00     0.131 A 
ATOM     83  C   UNL A   1      36.511  31.768  30.883  1.00  0.00     0.055 A 
ATOM     84  C   UNL A   1      37.499  30.719  32.806  1.00  0.00     0.041 A 
ATOM     85  F   UNL A   1      39.588  29.677  32.613  1.00  0.00    -0.206 F 
ATOM     86  C   UNL A   1      36.455  31.443  32.240  1.00  0.00     0.022 A 
BRANCH  83  87
ATOM     87  S   UNL A   1      35.220  32.806  30.146  1.00  0.00     0.124 S 
ATOM     88  O   UNL A   1      35.979  33.984  29.741  1.00  0.00    -0.237 OA
ATOM     89  O   UNL A   1      34.727  31.957  29.066  1.00  0.00    -0.237 OA
ATOM     90  O   UNL A   1      34.281  33.016  31.246  1.00  0.00    -0.744 OA
ENDBRANCH  83  87
ENDBRANCH  56  80
BRANCH  68  91
ATOM     91  C   UNL A   1      45.054  33.272  29.804  1.00  0.00     0.023 A 
ATOM     92  C   UNL A   1      44.932  34.493  29.120  1.00  0.00     0.031 A 
ATOM     93  C   UNL A   1      45.812  33.243  30.988  1.00  0.00     0.131 A 
ATOM     94  C   UNL A   1      45.601  35.628  29.601  1.00  0.00     0.055 A 
ATOM     95  C   UNL A   1      46.432  34.387  31.489  1.00  0.00     0.041 A 
ATOM     96  F   UNL A   1      45.960  32.100  31.677  1.00  0.00    -0.206 F 
ATOM     97  C   UNL A   1      46.337  35.586  30.788  1.00  0.00     0.022 A 
BRANCH  94  98
ATOM     98  S   UNL A   1      45.559  37.147  28.611  1.00  0.00     0.124 S 
ATOM     99  O   UNL A   1      46.406  38.042  29.393  1.00  0.00    -0.237 OA
ATOM    100  O   UNL A   1      46.110  36.704  27.334  1.00  0.00    -0.237 OA
ATOM    101  O   UNL A   1      44.142  37.501  28.584  1.00  0.00    -0.744 OA
ENDBRANCH  94  98
ENDBRANCH  68  91
ENDBRANCH  42  43
ENDBRANCH  35  37
ENDBRANCH  34  35
ENDBRANCH   1  34
TORSDOF 15
ENDMDL
