MODEL 1
REMARK VINA RESULT:     -10.9      0.000      0.000
REMARK SMILES COCCCNC(=O)/C(C#N)=C/c1ccc(C(=O)OCCOC(=O)c2ccc(-c3c4nc(c(-c5cc(S(=O)(=O)[O-])ccc5F)c5ccc([nH]5)c(-c5cc(S(=O)(=O)[O-])ccc5F)c5nc(c(-c6cc(S(=O)(=O)[O-])ccc6F)c6ccc3[nH]6)C=C5)C=C4)cc2)cc1
REMARK SMILES IDX 19 1 17 2 18 3 16 4 13 5 14 6 89 7 15 8 88 9 12 10 9 11 7 12
REMARK SMILES IDX 6 13 8 15 5 16 4 17 3 18 2 19 1 20 10 21 11 22 20 23 21 24
REMARK SMILES IDX 22 25 23 26 24 27 25 28 26 29 87 30 27 31 86 32 28 33 29 34
REMARK SMILES IDX 30 35 80 36 31 37 85 38 79 39 81 40 32 41 84 42 78 43 77 44
REMARK SMILES IDX 33 46 65 47 45 48 64 49 46 50 49 51 63 52 82 53 47 54 48 55
REMARK SMILES IDX 62 57 83 58 50 59 34 60 35 61 43 62 36 63 42 64 44 65 41 66
REMARK SMILES IDX 37 67 38 68 39 69 40 70 66 71 67 72 75 73 68 74 74 75 76 76
REMARK SMILES IDX 73 77 69 78 70 79 71 80 72 81 51 82 52 83 60 84 53 85 59 86
REMARK SMILES IDX 61 87 58 88 54 89 55 90 56 91 57 92
REMARK H PARENT 6 14 81 45 49 56
REMARK Flexibility Score: inf
ROOT
ATOM      1  O   UNL A   1      35.367  20.496  25.085  1.00  0.00    -0.458 OA
ENDROOT
BRANCH   1   2
ATOM      2  C   UNL A   1      34.102  20.352  24.619  1.00  0.00     0.338 C 
ATOM      3  O   UNL A   1      33.418  19.344  24.694  1.00  0.00    -0.246 OA
BRANCH   2   4
ATOM      4  C   UNL A   1      33.599  21.632  24.065  1.00  0.00     0.060 A 
ATOM      5  C   UNL A   1      32.692  24.157  23.285  1.00  0.00    -0.024 A 
ATOM      6  C   UNL A   1      34.052  23.956  23.499  1.00  0.00     0.009 A 
ATOM      7  C   UNL A   1      31.801  23.073  23.351  1.00  0.00     0.009 A 
ATOM      8  C   UNL A   1      34.490  22.708  23.930  1.00  0.00     0.016 A 
ATOM      9  C   UNL A   1      32.253  21.812  23.746  1.00  0.00     0.016 A 
BRANCH   5  10
ATOM     10  C   UNL A   1      32.202  25.541  23.315  1.00  0.00     0.033 C 
ATOM     11  C   UNL A   1      32.098  26.245  22.165  1.00  0.00     0.117 C 
BRANCH  11  12
ATOM     12  C   UNL A   1      31.475  27.601  22.239  1.00  0.00     0.261 C 
ATOM     13  N   UNL A   1      32.191  28.736  22.495  1.00  0.00    -0.351 N 
ATOM     14  H   UNL A   1      31.665  29.565  22.423  1.00  0.00     0.163 HD
ATOM     15  O   UNL A   1      30.261  27.746  22.076  1.00  0.00    -0.268 OA
BRANCH  13  16
ATOM     16  C   UNL A   1      33.584  28.946  22.854  1.00  0.00     0.118 C 
BRANCH  16  17
ATOM     17  C   UNL A   1      33.967  28.453  24.242  1.00  0.00     0.050 C 
BRANCH  17  18
ATOM     18  C   UNL A   1      33.001  28.764  25.375  1.00  0.00     0.161 C 
BRANCH  18  19
ATOM     19  O   UNL A   1      32.363  30.031  25.248  1.00  0.00    -0.385 OA
ATOM     20  C   UNL A   1      31.963  30.617  26.476  1.00  0.00     0.194 C 
ENDBRANCH  18  19
ENDBRANCH  17  18
ENDBRANCH  16  17
ENDBRANCH  13  16
ENDBRANCH  11  12
BRANCH  11  21
ATOM     21  C   UNL A   1      32.554  25.677  20.939  1.00  0.00     0.105 C 
ATOM     22  N   UNL A   1      32.903  25.256  19.914  1.00  0.00    -0.192 NA
ENDBRANCH  11  21
ENDBRANCH   5  10
ENDBRANCH   2   4
ENDBRANCH   1   2
BRANCH   1  23
ATOM     23  C   UNL A   1      36.206  19.330  24.988  1.00  0.00     0.275 C 
BRANCH  23  24
ATOM     24  C   UNL A   1      37.657  19.727  24.710  1.00  0.00     0.275 C 
BRANCH  24  25
ATOM     25  O   UNL A   1      38.038  20.890  25.470  1.00  0.00    -0.458 OA
BRANCH  25  26
ATOM     26  C   UNL A   1      39.251  20.801  26.062  1.00  0.00     0.338 C 
ATOM     27  O   UNL A   1      39.996  19.834  26.070  1.00  0.00    -0.246 OA
BRANCH  26  28
ATOM     28  C   UNL A   1      39.648  22.091  26.639  1.00  0.00     0.060 A 
ATOM     29  C   UNL A   1      38.987  23.223  26.187  1.00  0.00     0.016 A 
ATOM     30  C   UNL A   1      40.799  22.222  27.408  1.00  0.00     0.016 A 
ATOM     31  C   UNL A   1      39.561  24.477  26.332  1.00  0.00     0.010 A 
ATOM     32  C   UNL A   1      41.279  23.506  27.709  1.00  0.00     0.010 A 
ATOM     33  C   UNL A   1      40.697  24.652  27.132  1.00  0.00    -0.014 A 
BRANCH  33  34
ATOM     34  C   UNL A   1      41.256  26.021  27.354  1.00  0.00     0.031 A 
ATOM     35  C   UNL A   1      42.604  26.402  26.791  1.00  0.00     0.074 A 
ATOM     36  C   UNL A   1      40.551  26.936  28.057  1.00  0.00     0.049 A 
ATOM     37  N   UNL A   1      43.336  27.460  27.035  1.00  0.00    -0.248 NA
ATOM     38  C   UNL A   1      43.220  25.458  25.847  1.00  0.00     0.031 C 
ATOM     39  C   UNL A   1      39.210  26.730  28.615  1.00  0.00     0.029 A 
ATOM     40  N   UNL A   1      40.855  28.225  28.422  1.00  0.00    -0.354 N 
ATOM     41  C   UNL A   1      44.518  27.284  26.320  1.00  0.00     0.074 A 
ATOM     42  C   UNL A   1      44.412  26.001  25.655  1.00  0.00     0.031 C 
ATOM     43  C   UNL A   1      38.789  27.860  29.197  1.00  0.00     0.029 A 
ATOM     44  C   UNL A   1      39.876  28.827  29.183  1.00  0.00     0.049 A 
ATOM     45  H   UNL A   1      41.691  28.676  28.165  1.00  0.00     0.167 HD
ATOM     46  C   UNL A   1      45.587  28.115  26.230  1.00  0.00     0.034 A 
ATOM     47  C   UNL A   1      39.866  29.993  29.858  1.00  0.00     0.034 A 
ATOM     48  C   UNL A   1      45.657  29.403  26.882  1.00  0.00     0.049 A 
ATOM     49  C   UNL A   1      41.099  30.853  29.821  1.00  0.00     0.074 A 
ATOM     50  C   UNL A   1      46.681  30.333  26.843  1.00  0.00     0.029 A 
ATOM     51  N   UNL A   1      44.665  29.943  27.693  1.00  0.00    -0.354 N 
ATOM     52  N   UNL A   1      42.227  30.652  29.180  1.00  0.00    -0.248 NA
ATOM     53  C   UNL A   1      41.061  32.093  30.605  1.00  0.00     0.031 C 
ATOM     54  C   UNL A   1      46.352  31.387  27.701  1.00  0.00     0.029 A 
ATOM     55  C   UNL A   1      45.075  31.171  28.194  1.00  0.00     0.049 A 
ATOM     56  H   UNL A   1      43.799  29.517  27.884  1.00  0.00     0.167 HD
ATOM     57  C   UNL A   1      43.023  31.757  29.462  1.00  0.00     0.074 A 
ATOM     58  C   UNL A   1      42.238  32.628  30.313  1.00  0.00     0.031 C 
ATOM     59  C   UNL A   1      44.288  32.027  29.051  1.00  0.00     0.034 A 
BRANCH  46  60
ATOM     60  C   UNL A   1      46.792  27.631  25.454  1.00  0.00     0.023 A 
ATOM     61  C   UNL A   1      47.048  28.036  24.132  1.00  0.00     0.031 A 
ATOM     62  C   UNL A   1      47.691  26.721  26.043  1.00  0.00     0.131 A 
ATOM     63  C   UNL A   1      48.119  27.473  23.421  1.00  0.00     0.055 A 
ATOM     64  C   UNL A   1      48.810  26.238  25.361  1.00  0.00     0.041 A 
ATOM     65  F   UNL A   1      47.492  26.275  27.294  1.00  0.00    -0.206 F 
ATOM     66  C   UNL A   1      49.020  26.600  24.035  1.00  0.00     0.022 A 
BRANCH  63  67
ATOM     67  S   UNL A   1      48.222  27.768  21.634  1.00  0.00     0.124 S 
ATOM     68  O   UNL A   1      49.245  28.810  21.566  1.00  0.00    -0.237 OA
ATOM     69  O   UNL A   1      48.609  26.460  21.119  1.00  0.00    -0.237 OA
ATOM     70  O   UNL A   1      46.874  28.207  21.280  1.00  0.00    -0.744 OA
ENDBRANCH  63  67
ENDBRANCH  46  60
BRANCH  47  71
ATOM     71  C   UNL A   1      38.684  30.376  30.685  1.00  0.00     0.023 A 
ATOM     72  C   UNL A   1      37.634  31.130  30.139  1.00  0.00     0.031 A 
ATOM     73  C   UNL A   1      38.603  30.026  32.047  1.00  0.00     0.131 A 
ATOM     74  C   UNL A   1      36.573  31.546  30.959  1.00  0.00     0.055 A 
ATOM     75  C   UNL A   1      37.510  30.380  32.839  1.00  0.00     0.041 A 
ATOM     76  F   UNL A   1      39.582  29.314  32.626  1.00  0.00    -0.206 F 
ATOM     77  C   UNL A   1      36.492  31.157  32.298  1.00  0.00     0.022 A 
BRANCH  74  78
ATOM     78  S   UNL A   1      35.351  32.697  30.274  1.00  0.00     0.124 S 
ATOM     79  O   UNL A   1      36.183  33.849  29.945  1.00  0.00    -0.237 OA
ATOM     80  O   UNL A   1      34.823  31.941  29.143  1.00  0.00    -0.237 OA
ATOM     81  O   UNL A   1      34.415  32.897  31.379  1.00  0.00    -0.744 OA
ENDBRANCH  74  78
ENDBRANCH  47  71
BRANCH  59  82
ATOM     82  C   UNL A   1      44.877  33.350  29.476  1.00  0.00     0.023 A 
ATOM     83  C   UNL A   1      44.713  34.517  28.710  1.00  0.00     0.031 A 
ATOM     84  C   UNL A   1      45.633  33.438  30.659  1.00  0.00     0.131 A 
ATOM     85  C   UNL A   1      45.350  35.705  29.101  1.00  0.00     0.055 A 
ATOM     86  C   UNL A   1      46.197  34.641  31.084  1.00  0.00     0.041 A 
ATOM     87  F   UNL A   1      45.832  32.354  31.426  1.00  0.00    -0.206 F 
ATOM     88  C   UNL A   1      46.071  35.780  30.295  1.00  0.00     0.022 A 
BRANCH  85  89
ATOM     89  S   UNL A   1      45.324  37.119  27.966  1.00  0.00     0.124 S 
ATOM     90  O   UNL A   1      45.870  36.535  26.744  1.00  0.00    -0.237 OA
ATOM     91  O   UNL A   1      43.906  37.463  27.928  1.00  0.00    -0.237 OA
ATOM     92  O   UNL A   1      46.183  38.102  28.623  1.00  0.00    -0.744 OA
ENDBRANCH  85  89
ENDBRANCH  59  82
ENDBRANCH  33  34
ENDBRANCH  26  28
ENDBRANCH  25  26
ENDBRANCH  24  25
ENDBRANCH  23  24
ENDBRANCH   1  23
TORSDOF 21
ENDMDL
MODEL 2
REMARK VINA RESULT:     -10.9      1.908      2.679
REMARK SMILES COCCCNC(=O)/C(C#N)=C/c1ccc(C(=O)OCCOC(=O)c2ccc(-c3c4nc(c(-c5cc(S(=O)(=O)[O-])ccc5F)c5ccc([nH]5)c(-c5cc(S(=O)(=O)[O-])ccc5F)c5nc(c(-c6cc(S(=O)(=O)[O-])ccc6F)c6ccc3[nH]6)C=C5)C=C4)cc2)cc1
REMARK SMILES IDX 19 1 17 2 18 3 16 4 13 5 14 6 89 7 15 8 88 9 12 10 9 11 7 12
REMARK SMILES IDX 6 13 8 15 5 16 4 17 3 18 2 19 1 20 10 21 11 22 20 23 21 24
REMARK SMILES IDX 22 25 23 26 24 27 25 28 26 29 87 30 27 31 86 32 28 33 29 34
REMARK SMILES IDX 30 35 80 36 31 37 85 38 79 39 81 40 32 41 84 42 78 43 77 44
REMARK SMILES IDX 33 46 65 47 45 48 64 49 46 50 49 51 63 52 82 53 47 54 48 55
REMARK SMILES IDX 62 57 83 58 50 59 34 60 35 61 43 62 36 63 42 64 44 65 41 66
REMARK SMILES IDX 37 67 38 68 39 69 40 70 66 71 67 72 75 73 68 74 74 75 76 76
REMARK SMILES IDX 73 77 69 78 70 79 71 80 72 81 51 82 52 83 60 84 53 85 59 86
REMARK SMILES IDX 61 87 58 88 54 89 55 90 56 91 57 92
REMARK H PARENT 6 14 81 45 49 56
REMARK Flexibility Score: inf
ROOT
ATOM      1  O   UNL A   1      35.190  21.620  24.243  1.00  0.00    -0.458 OA
ENDROOT
BRANCH   1   2
ATOM      2  C   UNL A   1      35.694  22.740  23.667  1.00  0.00     0.338 C 
ATOM      3  O   UNL A   1      36.645  22.791  22.905  1.00  0.00    -0.246 OA
BRANCH   2   4
ATOM      4  C   UNL A   1      34.872  23.923  24.018  1.00  0.00     0.060 A 
ATOM      5  C   UNL A   1      33.483  26.301  24.487  1.00  0.00    -0.024 A 
ATOM      6  C   UNL A   1      33.263  25.604  23.302  1.00  0.00     0.009 A 
ATOM      7  C   UNL A   1      34.309  25.754  25.483  1.00  0.00     0.009 A 
ATOM      8  C   UNL A   1      33.992  24.445  23.058  1.00  0.00     0.016 A 
ATOM      9  C   UNL A   1      35.007  24.569  25.247  1.00  0.00     0.016 A 
BRANCH   5  10
ATOM     10  C   UNL A   1      33.101  27.719  24.515  1.00  0.00     0.033 C 
ATOM     11  C   UNL A   1      32.050  28.119  25.267  1.00  0.00     0.117 C 
BRANCH  11  12
ATOM     12  C   UNL A   1      31.786  29.587  25.358  1.00  0.00     0.261 C 
ATOM     13  N   UNL A   1      30.842  30.222  24.603  1.00  0.00    -0.351 N 
ATOM     14  H   UNL A   1      30.715  31.171  24.835  1.00  0.00     0.163 HD
ATOM     15  O   UNL A   1      32.434  30.296  26.132  1.00  0.00    -0.268 OA
BRANCH  13  16
ATOM     16  C   UNL A   1      29.989  29.757  23.521  1.00  0.00     0.118 C 
BRANCH  16  17
ATOM     17  C   UNL A   1      28.615  30.408  23.467  1.00  0.00     0.050 C 
BRANCH  17  18
ATOM     18  C   UNL A   1      27.765  30.124  22.239  1.00  0.00     0.161 C 
BRANCH  18  19
ATOM     19  O   UNL A   1      28.390  30.497  21.015  1.00  0.00    -0.385 OA
ATOM     20  C   UNL A   1      28.026  31.780  20.532  1.00  0.00     0.194 C 
ENDBRANCH  18  19
ENDBRANCH  17  18
ENDBRANCH  16  17
ENDBRANCH  13  16
ENDBRANCH  11  12
BRANCH  11  21
ATOM     21  C   UNL A   1      31.256  27.153  25.952  1.00  0.00     0.105 C 
ATOM     22  N   UNL A   1      30.572  26.406  26.520  1.00  0.00    -0.192 NA
ENDBRANCH  11  21
ENDBRANCH   5  10
ENDBRANCH   2   4
ENDBRANCH   1   2
BRANCH   1  23
ATOM     23  C   UNL A   1      35.894  21.144  25.405  1.00  0.00     0.275 C 
BRANCH  23  24
ATOM     24  C   UNL A   1      37.047  20.221  25.001  1.00  0.00     0.275 C 
BRANCH  24  25
ATOM     25  O   UNL A   1      38.289  20.945  24.905  1.00  0.00    -0.458 OA
BRANCH  25  26
ATOM     26  C   UNL A   1      39.133  20.752  25.944  1.00  0.00     0.338 C 
ATOM     27  O   UNL A   1      39.596  19.690  26.327  1.00  0.00    -0.246 OA
BRANCH  26  28
ATOM     28  C   UNL A   1      39.538  22.034  26.535  1.00  0.00     0.060 A 
ATOM     29  C   UNL A   1      38.874  23.172  26.105  1.00  0.00     0.016 A 
ATOM     30  C   UNL A   1      40.698  22.153  27.292  1.00  0.00     0.016 A 
ATOM     31  C   UNL A   1      39.452  24.424  26.261  1.00  0.00     0.010 A 
ATOM     32  C   UNL A   1      41.183  23.431  27.605  1.00  0.00     0.010 A 
ATOM     33  C   UNL A   1      40.596  24.586  27.050  1.00  0.00    -0.014 A 
BRANCH  33  34
ATOM     34  C   UNL A   1      41.160  25.951  27.285  1.00  0.00     0.031 A 
ATOM     35  C   UNL A   1      42.511  26.332  26.728  1.00  0.00     0.074 A 
ATOM     36  C   UNL A   1      40.457  26.862  27.995  1.00  0.00     0.049 A 
ATOM     37  N   UNL A   1      43.246  27.385  26.982  1.00  0.00    -0.248 NA
ATOM     38  C   UNL A   1      43.125  25.393  25.777  1.00  0.00     0.031 C 
ATOM     39  C   UNL A   1      39.114  26.656  28.548  1.00  0.00     0.029 A 
ATOM     40  N   UNL A   1      40.764  28.148  28.371  1.00  0.00    -0.354 N 
ATOM     41  C   UNL A   1      44.428  27.210  26.268  1.00  0.00     0.074 A 
ATOM     42  C   UNL A   1      44.320  25.934  25.593  1.00  0.00     0.031 C 
ATOM     43  C   UNL A   1      38.696  27.783  29.138  1.00  0.00     0.029 A 
ATOM     44  C   UNL A   1      39.786  28.747  29.134  1.00  0.00     0.049 A 
ATOM     45  H   UNL A   1      41.603  28.597  28.119  1.00  0.00     0.167 HD
ATOM     46  C   UNL A   1      45.501  28.039  26.187  1.00  0.00     0.034 A 
ATOM     47  C   UNL A   1      39.779  29.907  29.819  1.00  0.00     0.034 A 
ATOM     48  C   UNL A   1      45.574  29.321  26.850  1.00  0.00     0.049 A 
ATOM     49  C   UNL A   1      41.015  30.763  29.792  1.00  0.00     0.074 A 
ATOM     50  C   UNL A   1      46.602  30.247  26.822  1.00  0.00     0.029 A 
ATOM     51  N   UNL A   1      44.583  29.858  27.664  1.00  0.00    -0.354 N 
ATOM     52  N   UNL A   1      42.144  30.563  29.152  1.00  0.00    -0.248 NA
ATOM     53  C   UNL A   1      40.981  31.996  30.587  1.00  0.00     0.031 C 
ATOM     54  C   UNL A   1      46.274  31.295  27.687  1.00  0.00     0.029 A 
ATOM     55  C   UNL A   1      44.995  31.080  28.176  1.00  0.00     0.049 A 
ATOM     56  H   UNL A   1      43.714  29.433  27.849  1.00  0.00     0.167 HD
ATOM     57  C   UNL A   1      42.943  31.663  29.445  1.00  0.00     0.074 A 
ATOM     58  C   UNL A   1      42.159  32.529  30.302  1.00  0.00     0.031 C 
ATOM     59  C   UNL A   1      44.211  31.932  29.039  1.00  0.00     0.034 A 
BRANCH  46  60
ATOM     60  C   UNL A   1      46.706  27.556  25.410  1.00  0.00     0.023 A 
ATOM     61  C   UNL A   1      46.994  28.011  24.111  1.00  0.00     0.031 A 
ATOM     62  C   UNL A   1      47.571  26.598  25.973  1.00  0.00     0.131 A 
ATOM     63  C   UNL A   1      48.062  27.451  23.393  1.00  0.00     0.055 A 
ATOM     64  C   UNL A   1      48.688  26.116  25.288  1.00  0.00     0.041 A 
ATOM     65  F   UNL A   1      47.340  26.104  27.200  1.00  0.00    -0.206 F 
ATOM     66  C   UNL A   1      48.930  26.529  23.982  1.00  0.00     0.022 A 
BRANCH  63  67
ATOM     67  S   UNL A   1      48.202  27.821  21.622  1.00  0.00     0.124 S 
ATOM     68  O   UNL A   1      49.201  28.888  21.623  1.00  0.00    -0.237 OA
ATOM     69  O   UNL A   1      48.634  26.543  21.066  1.00  0.00    -0.237 OA
ATOM     70  O   UNL A   1      46.853  28.241  21.251  1.00  0.00    -0.744 OA
ENDBRANCH  63  67
ENDBRANCH  46  60
BRANCH  47  71
ATOM     71  C   UNL A   1      38.597  30.288  30.647  1.00  0.00     0.023 A 
ATOM     72  C   UNL A   1      37.565  31.075  30.114  1.00  0.00     0.031 A 
ATOM     73  C   UNL A   1      38.498  29.901  31.998  1.00  0.00     0.131 A 
ATOM     74  C   UNL A   1      36.504  31.486  30.937  1.00  0.00     0.055 A 
ATOM     75  C   UNL A   1      37.405  30.252  32.790  1.00  0.00     0.041 A 
ATOM     76  F   UNL A   1      39.460  29.156  32.565  1.00  0.00    -0.206 F 
ATOM     77  C   UNL A   1      36.405  31.062  32.264  1.00  0.00     0.022 A 
BRANCH  74  78
ATOM     78  S   UNL A   1      35.308  32.677  30.274  1.00  0.00     0.124 S 
ATOM     79  O   UNL A   1      34.779  31.955  29.123  1.00  0.00    -0.237 OA
ATOM     80  O   UNL A   1      34.396  32.848  31.400  1.00  0.00    -0.237 OA
ATOM     81  O   UNL A   1      36.130  33.843  29.957  1.00  0.00    -0.744 OA
ENDBRANCH  74  78
ENDBRANCH  47  71
BRANCH  59  82
ATOM     82  C   UNL A   1      44.803  33.249  29.476  1.00  0.00     0.023 A 
ATOM     83  C   UNL A   1      45.536  33.375  30.669  1.00  0.00     0.031 A 
ATOM     84  C   UNL A   1      44.613  34.402  28.693  1.00  0.00     0.131 A 
ATOM     85  C   UNL A   1      45.996  34.637  31.076  1.00  0.00     0.055 A 
ATOM     86  C   UNL A   1      45.141  35.639  29.064  1.00  0.00     0.041 A 
ATOM     87  F   UNL A   1      43.912  34.344  27.549  1.00  0.00    -0.206 F 
ATOM     88  C   UNL A   1      45.823  35.764  30.269  1.00  0.00     0.022 A 
BRANCH  85  89
ATOM     89  S   UNL A   1      46.716  34.806  32.731  1.00  0.00     0.124 S 
ATOM     90  O   UNL A   1      46.107  33.685  33.441  1.00  0.00    -0.237 OA
ATOM     91  O   UNL A   1      48.146  34.689  32.464  1.00  0.00    -0.237 OA
ATOM     92  O   UNL A   1      46.273  36.130  33.164  1.00  0.00    -0.744 OA
ENDBRANCH  85  89
ENDBRANCH  59  82
ENDBRANCH  33  34
ENDBRANCH  26  28
ENDBRANCH  25  26
ENDBRANCH  24  25
ENDBRANCH  23  24
ENDBRANCH   1  23
TORSDOF 21
ENDMDL
MODEL 3
REMARK VINA RESULT:     -10.7      1.029      7.588
REMARK SMILES COCCCNC(=O)/C(C#N)=C/c1ccc(C(=O)OCCOC(=O)c2ccc(-c3c4nc(c(-c5cc(S(=O)(=O)[O-])ccc5F)c5ccc([nH]5)c(-c5cc(S(=O)(=O)[O-])ccc5F)c5nc(c(-c6cc(S(=O)(=O)[O-])ccc6F)c6ccc3[nH]6)C=C5)C=C4)cc2)cc1
REMARK SMILES IDX 19 1 17 2 18 3 16 4 13 5 14 6 89 7 15 8 88 9 12 10 9 11 7 12
REMARK SMILES IDX 6 13 8 15 5 16 4 17 3 18 2 19 1 20 10 21 11 22 20 23 21 24
REMARK SMILES IDX 22 25 23 26 24 27 25 28 26 29 87 30 27 31 86 32 28 33 29 34
REMARK SMILES IDX 30 35 80 36 31 37 85 38 79 39 81 40 32 41 84 42 78 43 77 44
REMARK SMILES IDX 33 46 65 47 45 48 64 49 46 50 49 51 63 52 82 53 47 54 48 55
REMARK SMILES IDX 62 57 83 58 50 59 34 60 35 61 43 62 36 63 42 64 44 65 41 66
REMARK SMILES IDX 37 67 38 68 39 69 40 70 66 71 67 72 75 73 68 74 74 75 76 76
REMARK SMILES IDX 73 77 69 78 70 79 71 80 72 81 51 82 52 83 60 84 53 85 59 86
REMARK SMILES IDX 61 87 58 88 54 89 55 90 56 91 57 92
REMARK H PARENT 6 14 81 45 49 56
REMARK Flexibility Score: inf
ROOT
ATOM      1  O   UNL A   1      34.454  19.158  24.959  1.00  0.00    -0.458 OA
ENDROOT
BRANCH   1   2
ATOM      2  C   UNL A   1      33.115  19.241  25.154  1.00  0.00     0.338 C 
ATOM      3  O   UNL A   1      32.427  18.448  25.774  1.00  0.00    -0.246 OA
BRANCH   2   4
ATOM      4  C   UNL A   1      32.580  20.499  24.577  1.00  0.00     0.060 A 
ATOM      5  C   UNL A   1      31.840  22.920  23.395  1.00  0.00    -0.024 A 
ATOM      6  C   UNL A   1      32.104  21.818  22.587  1.00  0.00     0.009 A 
ATOM      7  C   UNL A   1      31.836  22.782  24.794  1.00  0.00     0.009 A 
ATOM      8  C   UNL A   1      32.515  20.630  23.181  1.00  0.00     0.016 A 
ATOM      9  C   UNL A   1      32.210  21.574  25.384  1.00  0.00     0.016 A 
BRANCH   5  10
ATOM     10  C   UNL A   1      31.892  24.245  22.767  1.00  0.00     0.033 C 
ATOM     11  C   UNL A   1      33.087  24.805  22.472  1.00  0.00     0.117 C 
BRANCH  11  12
ATOM     12  C   UNL A   1      33.078  26.096  21.718  1.00  0.00     0.261 C 
ATOM     13  N   UNL A   1      33.316  27.304  22.309  1.00  0.00    -0.351 N 
ATOM     14  H   UNL A   1      33.369  28.056  21.676  1.00  0.00     0.163 HD
ATOM     15  O   UNL A   1      32.841  26.118  20.509  1.00  0.00    -0.268 OA
BRANCH  13  16
ATOM     16  C   UNL A   1      33.506  27.685  23.699  1.00  0.00     0.118 C 
BRANCH  16  17
ATOM     17  C   UNL A   1      32.753  28.936  24.127  1.00  0.00     0.050 C 
BRANCH  17  18
ATOM     18  C   UNL A   1      31.308  28.754  24.566  1.00  0.00     0.161 C 
BRANCH  18  19
ATOM     19  O   UNL A   1      30.361  29.260  23.630  1.00  0.00    -0.385 OA
ATOM     20  C   UNL A   1      29.779  28.277  22.789  1.00  0.00     0.194 C 
ENDBRANCH  18  19
ENDBRANCH  17  18
ENDBRANCH  16  17
ENDBRANCH  13  16
ENDBRANCH  11  12
BRANCH  11  21
ATOM     21  C   UNL A   1      34.294  24.152  22.858  1.00  0.00     0.105 C 
ATOM     22  N   UNL A   1      35.286  23.659  23.210  1.00  0.00    -0.192 NA
ENDBRANCH  11  21
ENDBRANCH   5  10
ENDBRANCH   2   4
ENDBRANCH   1   2
BRANCH   1  23
ATOM     23  C   UNL A   1      35.204  20.352  25.250  1.00  0.00     0.275 C 
BRANCH  23  24
ATOM     24  C   UNL A   1      36.697  20.131  25.001  1.00  0.00     0.275 C 
BRANCH  24  25
ATOM     25  O   UNL A   1      37.463  21.307  25.330  1.00  0.00    -0.458 OA
BRANCH  25  26
ATOM     26  C   UNL A   1      38.715  21.054  25.773  1.00  0.00     0.338 C 
ATOM     27  O   UNL A   1      39.388  20.061  25.549  1.00  0.00    -0.246 OA
BRANCH  26  28
ATOM     28  C   UNL A   1      39.253  22.205  26.510  1.00  0.00     0.060 A 
ATOM     29  C   UNL A   1      38.767  23.460  26.174  1.00  0.00     0.016 A 
ATOM     30  C   UNL A   1      40.375  22.092  27.322  1.00  0.00     0.016 A 
ATOM     31  C   UNL A   1      39.495  24.600  26.482  1.00  0.00     0.010 A 
ATOM     32  C   UNL A   1      41.005  23.256  27.786  1.00  0.00     0.010 A 
ATOM     33  C   UNL A   1      40.606  24.529  27.329  1.00  0.00    -0.014 A 
BRANCH  33  34
ATOM     34  C   UNL A   1      41.330  25.775  27.727  1.00  0.00     0.031 A 
ATOM     35  C   UNL A   1      40.644  26.829  28.563  1.00  0.00     0.074 A 
ATOM     36  C   UNL A   1      42.613  25.965  27.346  1.00  0.00     0.049 A 
ATOM     37  N   UNL A   1      41.034  28.048  28.844  1.00  0.00    -0.248 NA
ATOM     38  C   UNL A   1      39.340  26.473  29.141  1.00  0.00     0.031 C 
ATOM     39  C   UNL A   1      43.423  25.009  26.583  1.00  0.00     0.029 A 
ATOM     40  N   UNL A   1      43.470  27.020  27.550  1.00  0.00    -0.354 N 
ATOM     41  C   UNL A   1      40.001  28.621  29.582  1.00  0.00     0.074 A 
ATOM     42  C   UNL A   1      38.958  27.621  29.680  1.00  0.00     0.031 C 
ATOM     43  C   UNL A   1      44.663  25.493  26.434  1.00  0.00     0.029 A 
ATOM     44  C   UNL A   1      44.704  26.848  26.961  1.00  0.00     0.049 A 
ATOM     45  H   UNL A   1      43.226  27.821  28.067  1.00  0.00     0.167 HD
ATOM     46  C   UNL A   1      39.934  29.864  30.124  1.00  0.00     0.034 A 
ATOM     47  C   UNL A   1      45.734  27.700  26.793  1.00  0.00     0.034 A 
ATOM     48  C   UNL A   1      41.002  30.835  30.034  1.00  0.00     0.049 A 
ATOM     49  C   UNL A   1      45.599  29.102  27.318  1.00  0.00     0.074 A 
ATOM     50  C   UNL A   1      41.048  32.114  30.561  1.00  0.00     0.029 A 
ATOM     51  N   UNL A   1      42.208  30.637  29.373  1.00  0.00    -0.354 N 
ATOM     52  N   UNL A   1      44.598  29.646  27.972  1.00  0.00    -0.248 NA
ATOM     53  C   UNL A   1      46.727  30.009  27.075  1.00  0.00     0.031 C 
ATOM     54  C   UNL A   1      42.236  32.720  30.142  1.00  0.00     0.029 A 
ATOM     55  C   UNL A   1      42.984  31.786  29.443  1.00  0.00     0.049 A 
ATOM     56  H   UNL A   1      42.475  29.804  28.922  1.00  0.00     0.167 HD
ATOM     57  C   UNL A   1      44.991  30.952  28.244  1.00  0.00     0.074 A 
ATOM     58  C   UNL A   1      46.325  31.105  27.701  1.00  0.00     0.031 C 
ATOM     59  C   UNL A   1      44.309  31.933  28.888  1.00  0.00     0.034 A 
BRANCH  46  60
ATOM     60  C   UNL A   1      38.644  30.267  30.801  1.00  0.00     0.023 A 
ATOM     61  C   UNL A   1      37.600  30.908  30.111  1.00  0.00     0.031 A 
ATOM     62  C   UNL A   1      38.465  30.028  32.178  1.00  0.00     0.131 A 
ATOM     63  C   UNL A   1      36.469  31.358  30.810  1.00  0.00     0.055 A 
ATOM     64  C   UNL A   1      37.296  30.394  32.847  1.00  0.00     0.041 A 
ATOM     65  F   UNL A   1      39.432  29.442  32.902  1.00  0.00    -0.206 F 
ATOM     66  C   UNL A   1      36.295  31.080  32.167  1.00  0.00     0.022 A 
BRANCH  63  67
ATOM     67  S   UNL A   1      35.306  32.459  29.956  1.00  0.00     0.124 S 
ATOM     68  O   UNL A   1      36.179  33.566  29.571  1.00  0.00    -0.237 OA
ATOM     69  O   UNL A   1      34.819  31.621  28.867  1.00  0.00    -0.237 OA
ATOM     70  O   UNL A   1      34.321  32.783  30.986  1.00  0.00    -0.744 OA
ENDBRANCH  63  67
ENDBRANCH  46  60
BRANCH  47  71
ATOM     71  C   UNL A   1      46.947  27.276  26.032  1.00  0.00     0.023 A 
ATOM     72  C   UNL A   1      47.145  27.684  24.704  1.00  0.00     0.031 A 
ATOM     73  C   UNL A   1      47.910  26.425  26.609  1.00  0.00     0.131 A 
ATOM     74  C   UNL A   1      48.253  27.207  23.985  1.00  0.00     0.055 A 
ATOM     75  C   UNL A   1      49.046  26.013  25.913  1.00  0.00     0.041 A 
ATOM     76  F   UNL A   1      47.768  25.995  27.873  1.00  0.00    -0.206 F 
ATOM     77  C   UNL A   1      49.216  26.393  24.586  1.00  0.00     0.022 A 
BRANCH  74  78
ATOM     78  S   UNL A   1      48.359  27.578  22.214  1.00  0.00     0.124 S 
ATOM     79  O   UNL A   1      47.072  28.220  21.969  1.00  0.00    -0.237 OA
ATOM     80  O   UNL A   1      49.530  28.446  22.155  1.00  0.00    -0.237 OA
ATOM     81  O   UNL A   1      48.528  26.262  21.599  1.00  0.00    -0.744 OA
ENDBRANCH  74  78
ENDBRANCH  47  71
BRANCH  59  82
ATOM     82  C   UNL A   1      45.027  33.246  29.087  1.00  0.00     0.023 A 
ATOM     83  C   UNL A   1      44.844  34.333  28.214  1.00  0.00     0.031 A 
ATOM     84  C   UNL A   1      45.925  33.404  30.158  1.00  0.00     0.131 A 
ATOM     85  C   UNL A   1      45.596  35.504  28.390  1.00  0.00     0.055 A 
ATOM     86  C   UNL A   1      46.610  34.599  30.374  1.00  0.00     0.041 A 
ATOM     87  F   UNL A   1      46.147  32.396  31.018  1.00  0.00    -0.206 F 
ATOM     88  C   UNL A   1      46.460  35.652  29.478  1.00  0.00     0.022 A 
BRANCH  85  89
ATOM     89  S   UNL A   1      45.521  36.786  27.109  1.00  0.00     0.124 S 
ATOM     90  O   UNL A   1      46.332  36.198  26.047  1.00  0.00    -0.237 OA
ATOM     91  O   UNL A   1      44.090  36.876  26.840  1.00  0.00    -0.237 OA
ATOM     92  O   UNL A   1      46.105  37.957  27.761  1.00  0.00    -0.744 OA
ENDBRANCH  85  89
ENDBRANCH  59  82
ENDBRANCH  33  34
ENDBRANCH  26  28
ENDBRANCH  25  26
ENDBRANCH  24  25
ENDBRANCH  23  24
ENDBRANCH   1  23
TORSDOF 21
ENDMDL
