MODEL 1
REMARK VINA RESULT:     -12.6      0.000      0.000
REMARK SMILES O=C(OCCOC(=O)c1cc(-c2ccccc2)nc(Nc2nc3ccccc3s2)n1)c1ccc(-c2c3nc(c(-c4cc(S(=O)(=O)[O-])ccc4F)c4ccc([nH]4)c(-c4cc(S(=O)(=O)[O-])ccc4F)c4nc(c(-c5cc(S(=O)(=O)[O-])ccc5F)c5ccc2[nH]5)C=C4)C=C3)cc1
REMARK SMILES IDX 4 1 3 2 2 3 1 4 31 5 32 6 93 7 33 8 92 9 34 10 35 11 36 12
REMARK SMILES IDX 86 13 37 14 91 15 85 16 87 17 38 18 90 19 84 20 83 21 39 23
REMARK SMILES IDX 71 24 51 25 70 26 52 27 55 28 69 29 88 30 53 31 54 32 68 34
REMARK SMILES IDX 89 35 56 36 40 37 41 38 49 39 42 40 48 41 50 42 47 43 43 44
REMARK SMILES IDX 44 45 45 46 46 47 72 48 73 49 81 50 74 51 80 52 82 53 79 54
REMARK SMILES IDX 75 55 76 56 77 57 78 58 57 59 58 60 66 61 59 62 65 63 67 64
REMARK SMILES IDX 64 65 60 66 61 67 62 68 63 69 5 70 6 71 7 72 8 73 9 74 10 75
REMARK SMILES IDX 30 76 11 77 19 78 18 79 12 80 13 81 17 82 14 83 16 84 15 85
REMARK SMILES IDX 20 86 21 88 22 89 29 90 23 91 28 92 24 93 27 94 25 95 26 96
REMARK H PARENT 87 22 55 33 20 87
REMARK Flexibility Score: inf
ROOT
ATOM      1  C   UNL A   1      38.587  19.507  25.707  1.00  0.00     0.275 C 
ENDROOT
BRANCH   1   2
ATOM      2  O   UNL A   1      40.012  19.368  25.766  1.00  0.00    -0.458 OA
BRANCH   2   3
ATOM      3  C   UNL A   1      40.909  19.915  26.619  1.00  0.00     0.338 C 
ATOM      4  O   UNL A   1      41.537  19.156  27.350  1.00  0.00    -0.246 OA
BRANCH   3   5
ATOM      5  C   UNL A   1      41.136  21.389  26.780  1.00  0.00     0.060 A 
ATOM      6  C   UNL A   1      41.105  22.337  25.754  1.00  0.00     0.016 A 
ATOM      7  C   UNL A   1      41.419  21.849  28.075  1.00  0.00     0.016 A 
ATOM      8  C   UNL A   1      41.253  23.706  26.012  1.00  0.00     0.010 A 
ATOM      9  C   UNL A   1      41.580  23.215  28.339  1.00  0.00     0.010 A 
ATOM     10  C   UNL A   1      41.480  24.162  27.308  1.00  0.00    -0.014 A 
BRANCH  10  11
ATOM     11  C   UNL A   1      41.828  25.591  27.546  1.00  0.00     0.031 A 
ATOM     12  C   UNL A   1      43.217  26.012  27.127  1.00  0.00     0.074 A 
ATOM     13  C   UNL A   1      40.934  26.465  28.073  1.00  0.00     0.049 A 
ATOM     14  N   UNL A   1      43.815  27.161  27.271  1.00  0.00    -0.248 NA
ATOM     15  C   UNL A   1      44.038  25.005  26.417  1.00  0.00     0.031 C 
ATOM     16  C   UNL A   1      39.527  26.171  28.376  1.00  0.00     0.029 A 
ATOM     17  N   UNL A   1      41.067  27.771  28.489  1.00  0.00    -0.354 N 
ATOM     18  C   UNL A   1      45.044  27.032  26.629  1.00  0.00     0.074 A 
ATOM     19  C   UNL A   1      45.158  25.668  26.180  1.00  0.00     0.031 C 
ATOM     20  C   UNL A   1      38.964  27.220  29.011  1.00  0.00     0.029 A 
ATOM     21  C   UNL A   1      39.960  28.270  29.169  1.00  0.00     0.049 A 
ATOM     22  H   UNL A   1      41.876  28.307  28.321  1.00  0.00     0.167 HD
ATOM     23  C   UNL A   1      45.967  27.995  26.397  1.00  0.00     0.034 A 
ATOM     24  C   UNL A   1      39.811  29.424  29.863  1.00  0.00     0.034 A 
ATOM     25  C   UNL A   1      45.801  29.335  26.896  1.00  0.00     0.049 A 
ATOM     26  C   UNL A   1      40.986  30.364  29.828  1.00  0.00     0.074 A 
ATOM     27  C   UNL A   1      46.616  30.435  26.719  1.00  0.00     0.029 A 
ATOM     28  N   UNL A   1      44.738  29.745  27.698  1.00  0.00    -0.354 N 
ATOM     29  N   UNL A   1      42.145  30.217  29.225  1.00  0.00    -0.248 NA
ATOM     30  C   UNL A   1      40.811  31.640  30.523  1.00  0.00     0.031 C 
ATOM     31  C   UNL A   1      46.091  31.483  27.480  1.00  0.00     0.029 A 
ATOM     32  C   UNL A   1      44.903  31.066  28.064  1.00  0.00     0.049 A 
ATOM     33  H   UNL A   1      43.981  29.175  27.965  1.00  0.00     0.167 HD
ATOM     34  C   UNL A   1      42.810  31.423  29.396  1.00  0.00     0.074 A 
ATOM     35  C   UNL A   1      41.938  32.258  30.205  1.00  0.00     0.031 C 
ATOM     36  C   UNL A   1      44.001  31.833  28.890  1.00  0.00     0.034 A 
BRANCH  23  37
ATOM     37  C   UNL A   1      47.203  27.631  25.608  1.00  0.00     0.023 A 
ATOM     38  C   UNL A   1      47.308  27.892  24.227  1.00  0.00     0.031 A 
ATOM     39  C   UNL A   1      48.297  27.015  26.240  1.00  0.00     0.131 A 
ATOM     40  C   UNL A   1      48.455  27.497  23.518  1.00  0.00     0.055 A 
ATOM     41  C   UNL A   1      49.462  26.681  25.542  1.00  0.00     0.041 A 
ATOM     42  F   UNL A   1      48.249  26.716  27.547  1.00  0.00    -0.206 F 
ATOM     43  C   UNL A   1      49.542  26.914  24.172  1.00  0.00     0.022 A 
BRANCH  40  44
ATOM     44  S   UNL A   1      48.475  27.668  21.711  1.00  0.00     0.124 S 
ATOM     45  O   UNL A   1      48.679  26.286  21.284  1.00  0.00    -0.237 OA
ATOM     46  O   UNL A   1      47.160  28.234  21.431  1.00  0.00    -0.237 OA
ATOM     47  O   UNL A   1      49.603  28.562  21.461  1.00  0.00    -0.744 OA
ENDBRANCH  40  44
ENDBRANCH  23  37
BRANCH  24  48
ATOM     48  C   UNL A   1      38.596  29.788  30.679  1.00  0.00     0.023 A 
ATOM     49  C   UNL A   1      37.530  30.549  30.185  1.00  0.00     0.031 A 
ATOM     50  C   UNL A   1      38.588  29.581  32.068  1.00  0.00     0.131 A 
ATOM     51  C   UNL A   1      36.501  30.974  31.062  1.00  0.00     0.055 A 
ATOM     52  C   UNL A   1      37.494  29.838  32.898  1.00  0.00     0.041 A 
ATOM     53  F   UNL A   1      39.729  29.307  32.698  1.00  0.00    -0.206 F 
ATOM     54  C   UNL A   1      36.421  30.534  32.386  1.00  0.00     0.022 A 
BRANCH  51  55
ATOM     55  S   UNL A   1      35.453  32.382  30.579  1.00  0.00     0.124 S 
ATOM     56  O   UNL A   1      36.376  33.499  30.758  1.00  0.00    -0.237 OA
ATOM     57  O   UNL A   1      35.101  32.045  29.206  1.00  0.00    -0.237 OA
ATOM     58  O   UNL A   1      34.350  32.332  31.537  1.00  0.00    -0.744 OA
ENDBRANCH  51  55
ENDBRANCH  24  48
BRANCH  36  59
ATOM     59  C   UNL A   1      44.356  33.268  29.144  1.00  0.00     0.023 A 
ATOM     60  C   UNL A   1      43.844  34.302  28.349  1.00  0.00     0.031 A 
ATOM     61  C   UNL A   1      45.247  33.592  30.182  1.00  0.00     0.131 A 
ATOM     62  C   UNL A   1      44.285  35.612  28.558  1.00  0.00     0.055 A 
ATOM     63  C   UNL A   1      45.617  34.908  30.439  1.00  0.00     0.041 A 
ATOM     64  F   UNL A   1      45.768  32.630  30.962  1.00  0.00    -0.206 F 
ATOM     65  C   UNL A   1      45.148  35.926  29.614  1.00  0.00     0.022 A 
BRANCH  62  66
ATOM     66  S   UNL A   1      43.812  36.876  27.353  1.00  0.00     0.124 S 
ATOM     67  O   UNL A   1      43.009  37.782  28.168  1.00  0.00    -0.237 OA
ATOM     68  O   UNL A   1      45.105  37.391  26.916  1.00  0.00    -0.237 OA
ATOM     69  O   UNL A   1      43.069  36.124  26.344  1.00  0.00    -0.744 OA
ENDBRANCH  62  66
ENDBRANCH  36  59
ENDBRANCH  10  11
ENDBRANCH   3   5
ENDBRANCH   2   3
ENDBRANCH   1   2
BRANCH   1  70
ATOM     70  C   UNL A   1      38.092  20.752  24.965  1.00  0.00     0.275 C 
BRANCH  70  71
ATOM     71  O   UNL A   1      36.863  21.282  25.487  1.00  0.00    -0.457 OA
BRANCH  71  72
ATOM     72  C   UNL A   1      36.846  22.625  25.720  1.00  0.00     0.357 C 
ATOM     73  O   UNL A   1      37.818  23.306  26.017  1.00  0.00    -0.244 OA
BRANCH  72  74
ATOM     74  C   UNL A   1      35.474  23.164  25.484  1.00  0.00     0.154 A 
ATOM     75  C   UNL A   1      35.203  24.504  25.658  1.00  0.00     0.065 A 
ATOM     76  N   UNL A   1      34.545  22.241  25.129  1.00  0.00    -0.206 NA
ATOM     77  C   UNL A   1      33.894  24.843  25.433  1.00  0.00     0.077 A 
ATOM     78  C   UNL A   1      33.296  22.679  24.959  1.00  0.00     0.230 A 
ATOM     79  N   UNL A   1      32.968  23.953  25.042  1.00  0.00    -0.213 NA
BRANCH  77  80
ATOM     80  C   UNL A   1      33.290  26.155  25.583  1.00  0.00     0.000 A 
ATOM     81  C   UNL A   1      32.197  26.290  26.471  1.00  0.00     0.010 A 
ATOM     82  C   UNL A   1      33.619  27.216  24.742  1.00  0.00     0.010 A 
ATOM     83  C   UNL A   1      31.409  27.423  26.481  1.00  0.00     0.001 A 
ATOM     84  C   UNL A   1      32.796  28.335  24.716  1.00  0.00     0.001 A 
ATOM     85  C   UNL A   1      31.678  28.411  25.556  1.00  0.00     0.000 A 
ENDBRANCH  77  80
BRANCH  78  86
ATOM     86  N   UNL A   1      32.219  21.873  24.649  1.00  0.00    -0.300 N 
ATOM     87  H   UNL A   1      31.341  22.303  24.536  1.00  0.00     0.172 HD
BRANCH  86  88
ATOM     88  C   UNL A   1      32.291  20.551  24.495  1.00  0.00     0.190 A 
ATOM     89  N   UNL A   1      32.185  19.674  25.463  1.00  0.00    -0.220 NA
ATOM     90  S   UNL A   1      32.486  19.872  22.928  1.00  0.00    -0.097 S 
ATOM     91  C   UNL A   1      32.598  18.442  25.021  1.00  0.00     0.084 A 
ATOM     92  C   UNL A   1      32.891  18.369  23.661  1.00  0.00     0.056 A 
ATOM     93  C   UNL A   1      32.800  17.306  25.824  1.00  0.00     0.030 A 
ATOM     94  C   UNL A   1      33.444  17.221  23.082  1.00  0.00     0.021 A 
ATOM     95  C   UNL A   1      33.410  16.178  25.276  1.00  0.00     0.002 A 
ATOM     96  C   UNL A   1      33.739  16.144  23.925  1.00  0.00     0.002 A 
ENDBRANCH  86  88
ENDBRANCH  78  86
ENDBRANCH  72  74
ENDBRANCH  71  72
ENDBRANCH  70  71
ENDBRANCH   1  70
TORSDOF 17
ENDMDL
MODEL 2
REMARK VINA RESULT:     -12.5      5.158     11.293
REMARK SMILES O=C(OCCOC(=O)c1cc(-c2ccccc2)nc(Nc2nc3ccccc3s2)n1)c1ccc(-c2c3nc(c(-c4cc(S(=O)(=O)[O-])ccc4F)c4ccc([nH]4)c(-c4cc(S(=O)(=O)[O-])ccc4F)c4nc(c(-c5cc(S(=O)(=O)[O-])ccc5F)c5ccc2[nH]5)C=C4)C=C3)cc1
REMARK SMILES IDX 4 1 3 2 2 3 1 4 31 5 32 6 93 7 33 8 92 9 34 10 35 11 36 12
REMARK SMILES IDX 86 13 37 14 91 15 85 16 87 17 38 18 90 19 84 20 83 21 39 23
REMARK SMILES IDX 71 24 51 25 70 26 52 27 55 28 69 29 88 30 53 31 54 32 68 34
REMARK SMILES IDX 89 35 56 36 40 37 41 38 49 39 42 40 48 41 50 42 47 43 43 44
REMARK SMILES IDX 44 45 45 46 46 47 72 48 73 49 81 50 74 51 80 52 82 53 79 54
REMARK SMILES IDX 75 55 76 56 77 57 78 58 57 59 58 60 66 61 59 62 65 63 67 64
REMARK SMILES IDX 64 65 60 66 61 67 62 68 63 69 5 70 6 71 7 72 8 73 9 74 10 75
REMARK SMILES IDX 30 76 11 77 19 78 18 79 12 80 13 81 17 82 14 83 16 84 15 85
REMARK SMILES IDX 20 86 21 88 22 89 29 90 23 91 28 92 24 93 27 94 25 95 26 96
REMARK H PARENT 87 22 55 33 20 87
REMARK Flexibility Score: inf
ROOT
ATOM      1  C   UNL A   1      31.893  32.460  26.694  1.00  0.00     0.275 C 
ENDROOT
BRANCH   1   2
ATOM      2  O   UNL A   1      32.305  33.323  27.762  1.00  0.00    -0.458 OA
BRANCH   2   3
ATOM      3  C   UNL A   1      33.495  33.930  27.986  1.00  0.00     0.338 C 
ATOM      4  O   UNL A   1      33.620  35.092  27.615  1.00  0.00    -0.246 OA
BRANCH   3   5
ATOM      5  C   UNL A   1      34.689  33.255  28.592  1.00  0.00     0.060 A 
ATOM      6  C   UNL A   1      36.015  33.417  28.183  1.00  0.00     0.016 A 
ATOM      7  C   UNL A   1      34.445  32.371  29.655  1.00  0.00     0.016 A 
ATOM      8  C   UNL A   1      37.075  32.802  28.861  1.00  0.00     0.010 A 
ATOM      9  C   UNL A   1      35.499  31.744  30.330  1.00  0.00     0.010 A 
ATOM     10  C   UNL A   1      36.832  31.968  29.950  1.00  0.00    -0.014 A 
BRANCH  10  11
ATOM     11  C   UNL A   1      37.941  31.169  30.541  1.00  0.00     0.031 A 
ATOM     12  C   UNL A   1      38.399  31.590  31.917  1.00  0.00     0.074 A 
ATOM     13  C   UNL A   1      38.477  30.105  29.893  1.00  0.00     0.049 A 
ATOM     14  N   UNL A   1      39.378  31.127  32.644  1.00  0.00    -0.248 NA
ATOM     15  C   UNL A   1      37.626  32.662  32.583  1.00  0.00     0.031 C 
ATOM     16  C   UNL A   1      37.997  29.547  28.621  1.00  0.00     0.029 A 
ATOM     17  N   UNL A   1      39.566  29.312  30.179  1.00  0.00    -0.354 N 
ATOM     18  C   UNL A   1      39.303  31.807  33.858  1.00  0.00     0.074 A 
ATOM     19  C   UNL A   1      38.251  32.785  33.743  1.00  0.00     0.031 C 
ATOM     20  C   UNL A   1      38.838  28.581  28.196  1.00  0.00     0.029 A 
ATOM     21  C   UNL A   1      39.923  28.439  29.156  1.00  0.00     0.049 A 
ATOM     22  H   UNL A   1      40.052  29.358  31.034  1.00  0.00     0.167 HD
ATOM     23  C   UNL A   1      40.025  31.585  34.981  1.00  0.00     0.034 A 
ATOM     24  C   UNL A   1      41.023  27.660  29.019  1.00  0.00     0.034 A 
ATOM     25  C   UNL A   1      41.080  30.607  35.020  1.00  0.00     0.049 A 
ATOM     26  C   UNL A   1      41.973  27.660  30.186  1.00  0.00     0.074 A 
ATOM     27  C   UNL A   1      41.878  30.232  36.081  1.00  0.00     0.029 A 
ATOM     28  N   UNL A   1      41.493  29.859  33.920  1.00  0.00    -0.354 N 
ATOM     29  N   UNL A   1      41.890  28.320  31.320  1.00  0.00    -0.248 NA
ATOM     30  C   UNL A   1      43.133  26.775  30.073  1.00  0.00     0.031 C 
ATOM     31  C   UNL A   1      42.825  29.321  35.603  1.00  0.00     0.029 A 
ATOM     32  C   UNL A   1      42.566  29.062  34.264  1.00  0.00     0.049 A 
ATOM     33  H   UNL A   1      41.080  29.895  33.026  1.00  0.00     0.167 HD
ATOM     34  C   UNL A   1      42.946  27.863  32.096  1.00  0.00     0.074 A 
ATOM     35  C   UNL A   1      43.676  26.914  31.272  1.00  0.00     0.031 C 
ATOM     36  C   UNL A   1      43.259  28.150  33.385  1.00  0.00     0.034 A 
BRANCH  23  37
ATOM     37  C   UNL A   1      39.713  32.407  36.209  1.00  0.00     0.023 A 
ATOM     38  C   UNL A   1      38.750  31.998  37.154  1.00  0.00     0.031 A 
ATOM     39  C   UNL A   1      40.384  33.619  36.447  1.00  0.00     0.131 A 
ATOM     40  C   UNL A   1      38.455  32.812  38.261  1.00  0.00     0.055 A 
ATOM     41  C   UNL A   1      40.132  34.395  37.583  1.00  0.00     0.041 A 
ATOM     42  F   UNL A   1      41.292  34.078  35.572  1.00  0.00    -0.206 F 
ATOM     43  C   UNL A   1      39.157  33.997  38.493  1.00  0.00     0.022 A 
BRANCH  40  44
ATOM     44  S   UNL A   1      37.075  32.353  39.347  1.00  0.00     0.124 S 
ATOM     45  O   UNL A   1      35.921  32.738  38.540  1.00  0.00    -0.237 OA
ATOM     46  O   UNL A   1      37.276  30.919  39.528  1.00  0.00    -0.237 OA
ATOM     47  O   UNL A   1      37.290  33.167  40.541  1.00  0.00    -0.744 OA
ENDBRANCH  40  44
ENDBRANCH  23  37
BRANCH  24  48
ATOM     48  C   UNL A   1      41.363  26.858  27.788  1.00  0.00     0.023 A 
ATOM     49  C   UNL A   1      41.229  25.467  27.708  1.00  0.00     0.031 A 
ATOM     50  C   UNL A   1      42.070  27.451  26.729  1.00  0.00     0.131 A 
ATOM     51  C   UNL A   1      41.714  24.776  26.569  1.00  0.00     0.055 A 
ATOM     52  C   UNL A   1      42.385  26.805  25.531  1.00  0.00     0.041 A 
ATOM     53  F   UNL A   1      42.658  28.632  26.911  1.00  0.00    -0.206 F 
ATOM     54  C   UNL A   1      42.190  25.445  25.439  1.00  0.00     0.022 A 
BRANCH  51  55
ATOM     55  S   UNL A   1      42.051  22.992  26.695  1.00  0.00     0.124 S 
ATOM     56  O   UNL A   1      43.210  22.858  25.818  1.00  0.00    -0.237 OA
ATOM     57  O   UNL A   1      42.295  22.826  28.121  1.00  0.00    -0.237 OA
ATOM     58  O   UNL A   1      40.823  22.376  26.195  1.00  0.00    -0.744 OA
ENDBRANCH  51  55
ENDBRANCH  24  48
BRANCH  36  59
ATOM     59  C   UNL A   1      44.386  27.353  33.973  1.00  0.00     0.023 A 
ATOM     60  C   UNL A   1      44.161  26.129  34.617  1.00  0.00     0.031 A 
ATOM     61  C   UNL A   1      45.699  27.854  33.911  1.00  0.00     0.131 A 
ATOM     62  C   UNL A   1      45.229  25.475  35.239  1.00  0.00     0.055 A 
ATOM     63  C   UNL A   1      46.770  27.156  34.460  1.00  0.00     0.041 A 
ATOM     64  F   UNL A   1      45.956  29.028  33.311  1.00  0.00    -0.206 F 
ATOM     65  C   UNL A   1      46.535  25.966  35.144  1.00  0.00     0.022 A 
BRANCH  62  66
ATOM     66  S   UNL A   1      44.862  24.041  36.281  1.00  0.00     0.124 S 
ATOM     67  O   UNL A   1      44.349  24.674  37.492  1.00  0.00    -0.237 OA
ATOM     68  O   UNL A   1      43.884  23.315  35.479  1.00  0.00    -0.237 OA
ATOM     69  O   UNL A   1      46.159  23.384  36.425  1.00  0.00    -0.744 OA
ENDBRANCH  62  66
ENDBRANCH  36  59
ENDBRANCH  10  11
ENDBRANCH   3   5
ENDBRANCH   2   3
ENDBRANCH   1   2
BRANCH   1  70
ATOM     70  C   UNL A   1      32.148  30.970  26.936  1.00  0.00     0.275 C 
BRANCH  70  71
ATOM     71  O   UNL A   1      33.166  30.416  26.087  1.00  0.00    -0.457 OA
BRANCH  71  72
ATOM     72  C   UNL A   1      33.758  29.273  26.538  1.00  0.00     0.357 C 
ATOM     73  O   UNL A   1      34.326  29.144  27.613  1.00  0.00    -0.244 OA
BRANCH  72  74
ATOM     74  C   UNL A   1      33.546  28.170  25.554  1.00  0.00     0.154 A 
ATOM     75  C   UNL A   1      34.198  26.964  25.693  1.00  0.00     0.065 A 
ATOM     76  N   UNL A   1      32.708  28.466  24.528  1.00  0.00    -0.206 NA
ATOM     77  C   UNL A   1      33.926  26.062  24.698  1.00  0.00     0.077 A 
ATOM     78  C   UNL A   1      32.533  27.520  23.602  1.00  0.00     0.230 A 
ATOM     79  N   UNL A   1      33.070  26.320  23.697  1.00  0.00    -0.213 NA
BRANCH  77  80
ATOM     80  C   UNL A   1      34.493  24.736  24.538  1.00  0.00     0.000 A 
ATOM     81  C   UNL A   1      35.238  24.194  25.611  1.00  0.00     0.010 A 
ATOM     82  C   UNL A   1      34.495  24.080  23.309  1.00  0.00     0.010 A 
ATOM     83  C   UNL A   1      36.019  23.067  25.454  1.00  0.00     0.001 A 
ATOM     84  C   UNL A   1      35.320  22.975  23.136  1.00  0.00     0.001 A 
ATOM     85  C   UNL A   1      36.103  22.504  24.197  1.00  0.00     0.000 A 
ENDBRANCH  77  80
BRANCH  78  86
ATOM     86  N   UNL A   1      31.761  27.669  22.468  1.00  0.00    -0.300 N 
ATOM     87  H   UNL A   1      32.022  27.164  21.664  1.00  0.00     0.172 HD
BRANCH  86  88
ATOM     88  C   UNL A   1      30.684  28.451  22.391  1.00  0.00     0.190 A 
ATOM     89  N   UNL A   1      30.592  29.533  21.658  1.00  0.00    -0.220 NA
ATOM     90  S   UNL A   1      29.254  28.042  23.251  1.00  0.00    -0.097 S 
ATOM     91  C   UNL A   1      29.485  30.254  22.030  1.00  0.00     0.084 A 
ATOM     92  C   UNL A   1      28.662  29.631  22.966  1.00  0.00     0.056 A 
ATOM     93  C   UNL A   1      29.166  31.553  21.599  1.00  0.00     0.030 A 
ATOM     94  C   UNL A   1      27.565  30.286  23.540  1.00  0.00     0.021 A 
ATOM     95  C   UNL A   1      28.118  32.241  22.209  1.00  0.00     0.002 A 
ATOM     96  C   UNL A   1      27.337  31.617  23.177  1.00  0.00     0.002 A 
ENDBRANCH  86  88
ENDBRANCH  78  86
ENDBRANCH  72  74
ENDBRANCH  71  72
ENDBRANCH  70  71
ENDBRANCH   1  70
TORSDOF 17
ENDMDL
MODEL 3
REMARK VINA RESULT:     -12.4      1.530      1.903
REMARK SMILES O=C(OCCOC(=O)c1cc(-c2ccccc2)nc(Nc2nc3ccccc3s2)n1)c1ccc(-c2c3nc(c(-c4cc(S(=O)(=O)[O-])ccc4F)c4ccc([nH]4)c(-c4cc(S(=O)(=O)[O-])ccc4F)c4nc(c(-c5cc(S(=O)(=O)[O-])ccc5F)c5ccc2[nH]5)C=C4)C=C3)cc1
REMARK SMILES IDX 4 1 3 2 2 3 1 4 31 5 32 6 93 7 33 8 92 9 34 10 35 11 36 12
REMARK SMILES IDX 86 13 37 14 91 15 85 16 87 17 38 18 90 19 84 20 83 21 39 23
REMARK SMILES IDX 71 24 51 25 70 26 52 27 55 28 69 29 88 30 53 31 54 32 68 34
REMARK SMILES IDX 89 35 56 36 40 37 41 38 49 39 42 40 48 41 50 42 47 43 43 44
REMARK SMILES IDX 44 45 45 46 46 47 72 48 73 49 81 50 74 51 80 52 82 53 79 54
REMARK SMILES IDX 75 55 76 56 77 57 78 58 57 59 58 60 66 61 59 62 65 63 67 64
REMARK SMILES IDX 64 65 60 66 61 67 62 68 63 69 5 70 6 71 7 72 8 73 9 74 10 75
REMARK SMILES IDX 30 76 11 77 19 78 18 79 12 80 13 81 17 82 14 83 16 84 15 85
REMARK SMILES IDX 20 86 21 88 22 89 29 90 23 91 28 92 24 93 27 94 25 95 26 96
REMARK H PARENT 87 22 55 33 20 87
REMARK Flexibility Score: inf
ROOT
ATOM      1  C   UNL A   1      38.649  19.565  25.757  1.00  0.00     0.275 C 
ENDROOT
BRANCH   1   2
ATOM      2  O   UNL A   1      40.026  19.202  25.594  1.00  0.00    -0.458 OA
BRANCH   2   3
ATOM      3  C   UNL A   1      41.116  19.562  26.312  1.00  0.00     0.338 C 
ATOM      4  O   UNL A   1      41.826  18.666  26.757  1.00  0.00    -0.246 OA
BRANCH   3   5
ATOM      5  C   UNL A   1      41.472  20.977  26.657  1.00  0.00     0.060 A 
ATOM      6  C   UNL A   1      41.528  21.515  27.946  1.00  0.00     0.016 A 
ATOM      7  C   UNL A   1      41.759  21.838  25.586  1.00  0.00     0.016 A 
ATOM      8  C   UNL A   1      41.947  22.831  28.176  1.00  0.00     0.010 A 
ATOM      9  C   UNL A   1      42.167  23.159  25.809  1.00  0.00     0.010 A 
ATOM     10  C   UNL A   1      42.283  23.665  27.113  1.00  0.00    -0.014 A 
BRANCH  10  11
ATOM     11  C   UNL A   1      42.538  25.113  27.350  1.00  0.00     0.031 A 
ATOM     12  C   UNL A   1      43.923  25.607  27.004  1.00  0.00     0.074 A 
ATOM     13  C   UNL A   1      41.569  25.941  27.815  1.00  0.00     0.049 A 
ATOM     14  N   UNL A   1      44.447  26.790  27.165  1.00  0.00    -0.248 NA
ATOM     15  C   UNL A   1      44.836  24.640  26.354  1.00  0.00     0.031 C 
ATOM     16  C   UNL A   1      40.165  25.572  28.043  1.00  0.00     0.029 A 
ATOM     17  N   UNL A   1      41.605  27.257  28.220  1.00  0.00    -0.354 N 
ATOM     18  C   UNL A   1      45.716  26.723  26.594  1.00  0.00     0.074 A 
ATOM     19  C   UNL A   1      45.930  25.362  26.171  1.00  0.00     0.031 C 
ATOM     20  C   UNL A   1      39.510  26.595  28.631  1.00  0.00     0.029 A 
ATOM     21  C   UNL A   1      40.436  27.700  28.830  1.00  0.00     0.049 A 
ATOM     22  H   UNL A   1      42.392  27.836  28.090  1.00  0.00     0.167 HD
ATOM     23  C   UNL A   1      46.596  27.733  26.402  1.00  0.00     0.034 A 
ATOM     24  C   UNL A   1      40.184  28.852  29.499  1.00  0.00     0.034 A 
ATOM     25  C   UNL A   1      46.329  29.067  26.872  1.00  0.00     0.049 A 
ATOM     26  C   UNL A   1      41.306  29.855  29.517  1.00  0.00     0.074 A 
ATOM     27  C   UNL A   1      47.091  30.208  26.726  1.00  0.00     0.029 A 
ATOM     28  N   UNL A   1      45.201  29.425  27.608  1.00  0.00    -0.354 N 
ATOM     29  N   UNL A   1      42.503  29.767  28.982  1.00  0.00    -0.248 NA
ATOM     30  C   UNL A   1      41.022  31.127  30.184  1.00  0.00     0.031 C 
ATOM     31  C   UNL A   1      46.466  31.234  27.443  1.00  0.00     0.029 A 
ATOM     32  C   UNL A   1      45.271  30.757  27.965  1.00  0.00     0.049 A 
ATOM     33  H   UNL A   1      44.462  28.816  27.840  1.00  0.00     0.167 HD
ATOM     34  C   UNL A   1      43.090  31.010  29.173  1.00  0.00     0.074 A 
ATOM     35  C   UNL A   1      42.129  31.803  29.921  1.00  0.00     0.031 C 
ATOM     36  C   UNL A   1      44.284  31.481  28.729  1.00  0.00     0.034 A 
BRANCH  23  37
ATOM     37  C   UNL A   1      47.892  27.430  25.688  1.00  0.00     0.023 A 
ATOM     38  C   UNL A   1      49.036  26.984  26.379  1.00  0.00     0.031 A 
ATOM     39  C   UNL A   1      47.993  27.587  24.294  1.00  0.00     0.131 A 
ATOM     40  C   UNL A   1      50.237  26.757  25.686  1.00  0.00     0.055 A 
ATOM     41  C   UNL A   1      49.173  27.300  23.601  1.00  0.00     0.041 A 
ATOM     42  F   UNL A   1      46.948  28.035  23.582  1.00  0.00    -0.206 F 
ATOM     43  C   UNL A   1      50.306  26.890  24.298  1.00  0.00     0.022 A 
BRANCH  40  44
ATOM     44  S   UNL A   1      51.740  26.376  26.631  1.00  0.00     0.124 S 
ATOM     45  O   UNL A   1      51.749  24.916  26.599  1.00  0.00    -0.237 OA
ATOM     46  O   UNL A   1      52.782  27.037  25.853  1.00  0.00    -0.237 OA
ATOM     47  O   UNL A   1      51.479  26.961  27.945  1.00  0.00    -0.744 OA
ENDBRANCH  40  44
ENDBRANCH  23  37
BRANCH  24  48
ATOM     48  C   UNL A   1      38.907  29.156  30.241  1.00  0.00     0.023 A 
ATOM     49  C   UNL A   1      37.912  30.011  29.753  1.00  0.00     0.031 A 
ATOM     50  C   UNL A   1      38.763  28.778  31.587  1.00  0.00     0.131 A 
ATOM     51  C   UNL A   1      36.815  30.361  30.580  1.00  0.00     0.055 A 
ATOM     52  C   UNL A   1      37.602  28.971  32.339  1.00  0.00     0.041 A 
ATOM     53  F   UNL A   1      39.832  28.387  32.277  1.00  0.00    -0.206 F 
ATOM     54  C   UNL A   1      36.600  29.763  31.824  1.00  0.00     0.022 A 
BRANCH  51  55
ATOM     55  S   UNL A   1      35.853  31.854  30.187  1.00  0.00     0.124 S 
ATOM     56  O   UNL A   1      35.166  31.438  28.968  1.00  0.00    -0.237 OA
ATOM     57  O   UNL A   1      35.026  32.008  31.376  1.00  0.00    -0.237 OA
ATOM     58  O   UNL A   1      36.876  32.881  30.000  1.00  0.00    -0.744 OA
ENDBRANCH  51  55
ENDBRANCH  24  48
BRANCH  36  59
ATOM     59  C   UNL A   1      44.544  32.936  28.983  1.00  0.00     0.023 A 
ATOM     60  C   UNL A   1      43.912  33.936  28.231  1.00  0.00     0.031 A 
ATOM     61  C   UNL A   1      45.465  33.316  29.975  1.00  0.00     0.131 A 
ATOM     62  C   UNL A   1      44.265  35.273  28.435  1.00  0.00     0.055 A 
ATOM     63  C   UNL A   1      45.750  34.654  30.229  1.00  0.00     0.041 A 
ATOM     64  F   UNL A   1      46.099  32.388  30.711  1.00  0.00    -0.206 F 
ATOM     65  C   UNL A   1      45.160  35.641  29.445  1.00  0.00     0.022 A 
BRANCH  62  66
ATOM     66  S   UNL A   1      43.632  36.510  27.275  1.00  0.00     0.124 S 
ATOM     67  O   UNL A   1      44.809  37.344  27.054  1.00  0.00    -0.237 OA
ATOM     68  O   UNL A   1      43.211  35.691  26.144  1.00  0.00    -0.237 OA
ATOM     69  O   UNL A   1      42.548  37.150  28.017  1.00  0.00    -0.744 OA
ENDBRANCH  62  66
ENDBRANCH  36  59
ENDBRANCH  10  11
ENDBRANCH   3   5
ENDBRANCH   2   3
ENDBRANCH   1   2
BRANCH   1  70
ATOM     70  C   UNL A   1      38.229  20.840  25.020  1.00  0.00     0.275 C 
BRANCH  70  71
ATOM     71  O   UNL A   1      36.940  21.336  25.418  1.00  0.00    -0.457 OA
BRANCH  71  72
ATOM     72  C   UNL A   1      36.877  22.668  25.699  1.00  0.00     0.357 C 
ATOM     73  O   UNL A   1      37.838  23.397  25.905  1.00  0.00    -0.244 OA
BRANCH  72  74
ATOM     74  C   UNL A   1      35.459  23.132  25.645  1.00  0.00     0.154 A 
ATOM     75  C   UNL A   1      35.144  24.464  25.811  1.00  0.00     0.065 A 
ATOM     76  N   UNL A   1      34.538  22.152  25.458  1.00  0.00    -0.206 NA
ATOM     77  C   UNL A   1      33.801  24.731  25.765  1.00  0.00     0.077 A 
ATOM     78  C   UNL A   1      33.257  22.524  25.454  1.00  0.00     0.230 A 
ATOM     79  N   UNL A   1      32.878  23.783  25.541  1.00  0.00    -0.213 NA
BRANCH  77  80
ATOM     80  C   UNL A   1      33.156  26.018  25.956  1.00  0.00     0.000 A 
ATOM     81  C   UNL A   1      33.957  27.182  25.893  1.00  0.00     0.010 A 
ATOM     82  C   UNL A   1      31.836  26.122  26.390  1.00  0.00     0.010 A 
ATOM     83  C   UNL A   1      33.485  28.409  26.312  1.00  0.00     0.001 A 
ATOM     84  C   UNL A   1      31.377  27.347  26.860  1.00  0.00     0.001 A 
ATOM     85  C   UNL A   1      32.217  28.467  26.853  1.00  0.00     0.000 A 
ENDBRANCH  77  80
BRANCH  78  86
ATOM     86  N   UNL A   1      32.191  21.656  25.329  1.00  0.00    -0.300 N 
ATOM     87  H   UNL A   1      31.291  22.000  25.531  1.00  0.00     0.172 HD
BRANCH  86  88
ATOM     88  C   UNL A   1      32.301  20.381  24.953  1.00  0.00     0.190 A 
ATOM     89  N   UNL A   1      32.275  19.353  25.765  1.00  0.00    -0.220 NA
ATOM     90  S   UNL A   1      32.438  19.979  23.288  1.00  0.00    -0.097 S 
ATOM     91  C   UNL A   1      32.707  18.229  25.106  1.00  0.00     0.084 A 
ATOM     92  C   UNL A   1      32.932  18.395  23.741  1.00  0.00     0.056 A 
ATOM     93  C   UNL A   1      32.990  16.986  25.698  1.00  0.00     0.030 A 
ATOM     94  C   UNL A   1      33.494  17.382  22.954  1.00  0.00     0.021 A 
ATOM     95  C   UNL A   1      33.610  15.991  24.942  1.00  0.00     0.002 A 
ATOM     96  C   UNL A   1      33.869  16.194  23.591  1.00  0.00     0.002 A 
ENDBRANCH  86  88
ENDBRANCH  78  86
ENDBRANCH  72  74
ENDBRANCH  71  72
ENDBRANCH  70  71
ENDBRANCH   1  70
TORSDOF 17
ENDMDL
