MODEL 1
REMARK VINA RESULT:     -12.2      0.000      0.000
REMARK SMILES C[C@@H]1[NH2+]CC[C@@H]1C(=O)Nc1cc(F)ccc1C(=O)OCCOC(=O)c1ccc(-c2c3nc(c(-c4cc(S(=O)(=O)[O-])ccc4F)c4ccc([nH]4)c(-c4cc(S(=O)(=O)[O-])ccc4F)c4nc(c(-c5cc(S(=O)(=O)[O-])ccc5F)c5ccc2[nH]5)C=C4)C=C3)cc1
REMARK SMILES IDX 21 1 20 2 19 3 17 4 18 5 16 6 10 7 11 8 12 9 15 10 13 11
REMARK SMILES IDX 14 12 9 13 7 14 8 15 6 17 1 18 2 19 3 20 4 21 5 24 22 25
REMARK SMILES IDX 23 26 24 27 25 28 26 29 87 30 27 31 86 32 28 33 29 34 30 35
REMARK SMILES IDX 80 36 31 37 85 38 79 39 81 40 32 41 84 42 78 43 77 44 33 46
REMARK SMILES IDX 65 47 45 48 64 49 46 50 49 51 63 52 82 53 47 54 48 55 62 57
REMARK SMILES IDX 83 58 50 59 34 60 35 61 43 62 36 63 42 64 44 65 41 66 37 67
REMARK SMILES IDX 38 68 39 69 40 70 66 71 67 72 75 73 68 74 74 75 76 76 73 77
REMARK SMILES IDX 69 78 70 79 71 80 72 81 51 82 52 83 60 84 53 85 59 86 61 87
REMARK SMILES IDX 58 88 54 89 55 90 56 91 57 92
REMARK H PARENT 9 16 3 22 3 23 81 45 49 56
REMARK Flexibility Score: inf
ROOT
ATOM      1  C   UNL A   1      31.737  29.804  25.420  1.00  0.00     0.275 C 
ENDROOT
BRANCH   1   2
ATOM      2  C   UNL A   1      32.760  29.190  24.464  1.00  0.00     0.275 C 
BRANCH   2   3
ATOM      3  O   UNL A   1      33.137  27.863  24.895  1.00  0.00    -0.458 OA
BRANCH   3   4
ATOM      4  C   UNL A   1      32.851  26.851  24.038  1.00  0.00     0.340 C 
ATOM      5  O   UNL A   1      33.230  26.771  22.879  1.00  0.00    -0.246 OA
BRANCH   4   6
ATOM      6  C   UNL A   1      32.092  25.755  24.712  1.00  0.00     0.083 A 
ATOM      7  C   UNL A   1      32.231  24.374  24.419  1.00  0.00     0.058 A 
ATOM      8  C   UNL A   1      31.405  23.494  25.111  1.00  0.00     0.066 A 
ATOM      9  C   UNL A   1      30.519  23.937  26.095  1.00  0.00     0.125 A 
ATOM     10  C   UNL A   1      31.193  26.183  25.715  1.00  0.00     0.021 A 
ATOM     11  F   UNL A   1      29.796  23.037  26.773  1.00  0.00    -0.207 F 
ATOM     12  C   UNL A   1      30.395  25.277  26.399  1.00  0.00     0.040 A 
BRANCH   7  13
ATOM     13  N   UNL A   1      33.234  23.957  23.520  1.00  0.00    -0.325 N 
ATOM     14  C   UNL A   1      34.500  23.468  23.544  1.00  0.00     0.233 C 
ATOM     15  O   UNL A   1      35.009  23.368  22.416  1.00  0.00    -0.274 OA
ATOM     16  H   UNL A   1      32.920  24.048  22.591  1.00  0.00     0.169 HD
BRANCH  14  17
ATOM     17  C   UNL A   1      35.266  22.974  24.777  1.00  0.00     0.142 C 
ATOM     18  C   UNL A   1      33.885  20.782  24.754  1.00  0.00     0.076 C 
ATOM     19  C   UNL A   1      35.147  21.505  25.207  1.00  0.00     0.192 C 
ATOM     20  N   UNL A   1      35.259  21.509  26.682  1.00  0.00    -0.343 N 
ATOM     21  C   UNL A   1      34.538  22.700  27.112  1.00  0.00     0.261 C 
ATOM     22  H   UNL A   1      36.238  21.561  26.965  1.00  0.00     0.346 HD
ATOM     23  H   UNL A   1      34.878  20.660  27.097  1.00  0.00     0.346 HD
ATOM     24  C   UNL A   1      34.825  23.744  26.050  1.00  0.00     0.081 C 
ENDBRANCH  14  17
ENDBRANCH   7  13
ENDBRANCH   4   6
ENDBRANCH   3   4
ENDBRANCH   2   3
ENDBRANCH   1   2
BRANCH   1  25
ATOM     25  O   UNL A   1      32.287  29.875  26.748  1.00  0.00    -0.458 OA
BRANCH  25  26
ATOM     26  C   UNL A   1      32.853  31.060  27.073  1.00  0.00     0.338 C 
ATOM     27  O   UNL A   1      32.296  32.141  27.172  1.00  0.00    -0.246 OA
BRANCH  26  28
ATOM     28  C   UNL A   1      34.277  30.878  27.403  1.00  0.00     0.060 A 
ATOM     29  C   UNL A   1      34.740  29.585  27.611  1.00  0.00     0.016 A 
ATOM     30  C   UNL A   1      35.080  31.965  27.736  1.00  0.00     0.016 A 
ATOM     31  C   UNL A   1      35.928  29.374  28.310  1.00  0.00     0.010 A 
ATOM     32  C   UNL A   1      36.343  31.742  28.302  1.00  0.00     0.010 A 
ATOM     33  C   UNL A   1      36.761  30.445  28.664  1.00  0.00    -0.014 A 
BRANCH  33  34
ATOM     34  C   UNL A   1      38.005  30.226  29.474  1.00  0.00     0.031 A 
ATOM     35  C   UNL A   1      39.141  29.402  28.903  1.00  0.00     0.074 A 
ATOM     36  C   UNL A   1      38.168  30.780  30.696  1.00  0.00     0.049 A 
ATOM     37  N   UNL A   1      40.161  28.858  29.517  1.00  0.00    -0.248 NA
ATOM     38  C   UNL A   1      39.111  29.139  27.455  1.00  0.00     0.031 C 
ATOM     39  C   UNL A   1      37.219  31.672  31.366  1.00  0.00     0.029 A 
ATOM     40  N   UNL A   1      39.210  30.689  31.593  1.00  0.00    -0.354 N 
ATOM     41  C   UNL A   1      40.842  28.119  28.551  1.00  0.00     0.074 A 
ATOM     42  C   UNL A   1      40.119  28.290  27.308  1.00  0.00     0.031 C 
ATOM     43  C   UNL A   1      37.751  32.103  32.518  1.00  0.00     0.029 A 
ATOM     44  C   UNL A   1      39.010  31.408  32.750  1.00  0.00     0.049 A 
ATOM     45  H   UNL A   1      40.021  30.158  31.423  1.00  0.00     0.167 HD
ATOM     46  C   UNL A   1      41.960  27.366  28.691  1.00  0.00     0.034 A 
ATOM     47  C   UNL A   1      39.710  31.457  33.902  1.00  0.00     0.034 A 
ATOM     48  C   UNL A   1      42.723  27.280  29.912  1.00  0.00     0.049 A 
ATOM     49  C   UNL A   1      40.913  30.570  34.063  1.00  0.00     0.074 A 
ATOM     50  C   UNL A   1      43.877  26.554  30.156  1.00  0.00     0.029 A 
ATOM     51  N   UNL A   1      42.430  27.964  31.082  1.00  0.00    -0.354 N 
ATOM     52  N   UNL A   1      41.455  29.753  33.191  1.00  0.00    -0.248 NA
ATOM     53  C   UNL A   1      41.573  30.576  35.376  1.00  0.00     0.031 C 
ATOM     54  C   UNL A   1      44.252  26.759  31.488  1.00  0.00     0.029 A 
ATOM     55  C   UNL A   1      43.369  27.663  32.056  1.00  0.00     0.049 A 
ATOM     56  H   UNL A   1      41.668  28.575  31.204  1.00  0.00     0.167 HD
ATOM     57  C   UNL A   1      42.518  29.147  33.851  1.00  0.00     0.074 A 
ATOM     58  C   UNL A   1      42.554  29.704  35.187  1.00  0.00     0.031 C 
ATOM     59  C   UNL A   1      43.385  28.212  33.389  1.00  0.00     0.034 A 
BRANCH  46  60
ATOM     60  C   UNL A   1      42.402  26.527  27.519  1.00  0.00     0.023 A 
ATOM     61  C   UNL A   1      42.030  25.181  27.372  1.00  0.00     0.031 A 
ATOM     62  C   UNL A   1      43.199  27.105  26.512  1.00  0.00     0.131 A 
ATOM     63  C   UNL A   1      42.490  24.447  26.266  1.00  0.00     0.055 A 
ATOM     64  C   UNL A   1      43.598  26.389  25.383  1.00  0.00     0.041 A 
ATOM     65  F   UNL A   1      43.598  28.384  26.610  1.00  0.00    -0.206 F 
ATOM     66  C   UNL A   1      43.251  25.049  25.259  1.00  0.00     0.022 A 
BRANCH  63  67
ATOM     67  S   UNL A   1      42.152  22.667  26.199  1.00  0.00     0.124 S 
ATOM     68  O   UNL A   1      42.808  22.291  24.948  1.00  0.00    -0.237 OA
ATOM     69  O   UNL A   1      42.779  22.177  27.420  1.00  0.00    -0.237 OA
ATOM     70  O   UNL A   1      40.692  22.595  26.176  1.00  0.00    -0.744 OA
ENDBRANCH  63  67
ENDBRANCH  46  60
BRANCH  47  71
ATOM     71  C   UNL A   1      39.225  32.301  35.032  1.00  0.00     0.023 A 
ATOM     72  C   UNL A   1      38.581  31.731  36.140  1.00  0.00     0.031 A 
ATOM     73  C   UNL A   1      39.413  33.697  35.023  1.00  0.00     0.131 A 
ATOM     74  C   UNL A   1      38.146  32.552  37.192  1.00  0.00     0.055 A 
ATOM     75  C   UNL A   1      39.021  34.502  36.092  1.00  0.00     0.041 A 
ATOM     76  F   UNL A   1      40.021  34.292  33.984  1.00  0.00    -0.206 F 
ATOM     77  C   UNL A   1      38.380  33.930  37.185  1.00  0.00     0.022 A 
BRANCH  74  78
ATOM     78  S   UNL A   1      37.245  31.799  38.575  1.00  0.00     0.124 S 
ATOM     79  O   UNL A   1      38.187  31.980  39.675  1.00  0.00    -0.237 OA
ATOM     80  O   UNL A   1      36.032  32.607  38.627  1.00  0.00    -0.237 OA
ATOM     81  O   UNL A   1      37.050  30.417  38.141  1.00  0.00    -0.744 OA
ENDBRANCH  74  78
ENDBRANCH  47  71
BRANCH  59  82
ATOM     82  C   UNL A   1      44.463  27.746  34.328  1.00  0.00     0.023 A 
ATOM     83  C   UNL A   1      44.282  26.621  35.149  1.00  0.00     0.031 A 
ATOM     84  C   UNL A   1      45.701  28.411  34.369  1.00  0.00     0.131 A 
ATOM     85  C   UNL A   1      45.319  26.207  35.999  1.00  0.00     0.055 A 
ATOM     86  C   UNL A   1      46.743  27.969  35.182  1.00  0.00     0.041 A 
ATOM     87  F   UNL A   1      45.920  29.491  33.600  1.00  0.00    -0.206 F 
ATOM     88  C   UNL A   1      46.553  26.864  36.008  1.00  0.00     0.022 A 
BRANCH  85  89
ATOM     89  S   UNL A   1      45.026  24.811  37.118  1.00  0.00     0.124 S 
ATOM     90  O   UNL A   1      46.149  24.924  38.041  1.00  0.00    -0.237 OA
ATOM     91  O   UNL A   1      43.711  25.121  37.673  1.00  0.00    -0.237 OA
ATOM     92  O   UNL A   1      45.063  23.649  36.233  1.00  0.00    -0.744 OA
ENDBRANCH  85  89
ENDBRANCH  59  82
ENDBRANCH  33  34
ENDBRANCH  26  28
ENDBRANCH  25  26
ENDBRANCH   1  25
TORSDOF 16
ENDMDL
MODEL 2
REMARK VINA RESULT:     -12.1      2.151      3.545
REMARK SMILES C[C@@H]1[NH2+]CC[C@@H]1C(=O)Nc1cc(F)ccc1C(=O)OCCOC(=O)c1ccc(-c2c3nc(c(-c4cc(S(=O)(=O)[O-])ccc4F)c4ccc([nH]4)c(-c4cc(S(=O)(=O)[O-])ccc4F)c4nc(c(-c5cc(S(=O)(=O)[O-])ccc5F)c5ccc2[nH]5)C=C4)C=C3)cc1
REMARK SMILES IDX 21 1 20 2 19 3 17 4 18 5 16 6 10 7 11 8 12 9 15 10 13 11
REMARK SMILES IDX 14 12 9 13 7 14 8 15 6 17 1 18 2 19 3 20 4 21 5 24 22 25
REMARK SMILES IDX 23 26 24 27 25 28 26 29 87 30 27 31 86 32 28 33 29 34 30 35
REMARK SMILES IDX 80 36 31 37 85 38 79 39 81 40 32 41 84 42 78 43 77 44 33 46
REMARK SMILES IDX 65 47 45 48 64 49 46 50 49 51 63 52 82 53 47 54 48 55 62 57
REMARK SMILES IDX 83 58 50 59 34 60 35 61 43 62 36 63 42 64 44 65 41 66 37 67
REMARK SMILES IDX 38 68 39 69 40 70 66 71 67 72 75 73 68 74 74 75 76 76 73 77
REMARK SMILES IDX 69 78 70 79 71 80 72 81 51 82 52 83 60 84 53 85 59 86 61 87
REMARK SMILES IDX 58 88 54 89 55 90 56 91 57 92
REMARK H PARENT 9 16 3 22 3 23 81 45 49 56
REMARK Flexibility Score: inf
ROOT
ATOM      1  C   UNL A   1      31.737  29.747  27.027  1.00  0.00     0.275 C 
ENDROOT
BRANCH   1   2
ATOM      2  C   UNL A   1      31.719  28.301  27.524  1.00  0.00     0.275 C 
BRANCH   2   3
ATOM      3  O   UNL A   1      32.254  27.405  26.525  1.00  0.00    -0.458 OA
BRANCH   3   4
ATOM      4  C   UNL A   1      31.354  26.620  25.881  1.00  0.00     0.340 C 
ATOM      5  O   UNL A   1      30.304  26.208  26.351  1.00  0.00    -0.246 OA
BRANCH   4   6
ATOM      6  C   UNL A   1      31.738  26.396  24.455  1.00  0.00     0.083 A 
ATOM      7  C   UNL A   1      30.834  26.398  23.362  1.00  0.00     0.058 A 
ATOM      8  C   UNL A   1      31.359  26.120  22.104  1.00  0.00     0.066 A 
ATOM      9  C   UNL A   1      32.726  25.908  21.909  1.00  0.00     0.125 A 
ATOM     10  C   UNL A   1      33.119  26.185  24.236  1.00  0.00     0.021 A 
ATOM     11  F   UNL A   1      33.183  25.709  20.667  1.00  0.00    -0.207 F 
ATOM     12  C   UNL A   1      33.613  25.927  22.965  1.00  0.00     0.040 A 
BRANCH   7  13
ATOM     13  N   UNL A   1      29.487  26.753  23.582  1.00  0.00    -0.325 N 
ATOM     14  C   UNL A   1      28.629  27.765  23.296  1.00  0.00     0.233 C 
ATOM     15  O   UNL A   1      27.523  27.643  23.848  1.00  0.00    -0.274 OA
ATOM     16  H   UNL A   1      29.029  26.053  24.103  1.00  0.00     0.169 HD
BRANCH  14  17
ATOM     17  C   UNL A   1      28.877  28.928  22.327  1.00  0.00     0.142 C 
ATOM     18  C   UNL A   1      30.443  30.038  24.067  1.00  0.00     0.076 C 
ATOM     19  C   UNL A   1      30.010  29.923  22.611  1.00  0.00     0.192 C 
ATOM     20  N   UNL A   1      29.541  31.224  22.089  1.00  0.00    -0.343 N 
ATOM     21  C   UNL A   1      28.119  31.268  22.407  1.00  0.00     0.261 C 
ATOM     22  H   UNL A   1      29.684  31.278  21.080  1.00  0.00     0.346 HD
ATOM     23  H   UNL A   1      30.049  32.007  22.499  1.00  0.00     0.346 HD
ATOM     24  C   UNL A   1      27.628  29.844  22.229  1.00  0.00     0.081 C 
ENDBRANCH  14  17
ENDBRANCH   7  13
ENDBRANCH   4   6
ENDBRANCH   3   4
ENDBRANCH   2   3
ENDBRANCH   1   2
BRANCH   1  25
ATOM     25  O   UNL A   1      33.069  30.111  26.623  1.00  0.00    -0.458 OA
BRANCH  25  26
ATOM     26  C   UNL A   1      33.603  31.165  27.284  1.00  0.00     0.338 C 
ATOM     27  O   UNL A   1      33.022  32.168  27.662  1.00  0.00    -0.246 OA
BRANCH  26  28
ATOM     28  C   UNL A   1      35.021  30.914  27.594  1.00  0.00     0.060 A 
ATOM     29  C   UNL A   1      35.439  29.596  27.723  1.00  0.00     0.016 A 
ATOM     30  C   UNL A   1      35.863  31.951  27.985  1.00  0.00     0.016 A 
ATOM     31  C   UNL A   1      36.621  29.303  28.402  1.00  0.00     0.010 A 
ATOM     32  C   UNL A   1      37.119  31.651  28.530  1.00  0.00     0.010 A 
ATOM     33  C   UNL A   1      37.492  30.322  28.813  1.00  0.00    -0.014 A 
BRANCH  33  34
ATOM     34  C   UNL A   1      38.732  30.013  29.602  1.00  0.00     0.031 A 
ATOM     35  C   UNL A   1      39.794  29.108  29.013  1.00  0.00     0.074 A 
ATOM     36  C   UNL A   1      38.956  30.553  30.820  1.00  0.00     0.049 A 
ATOM     37  N   UNL A   1      40.782  28.491  29.609  1.00  0.00    -0.248 NA
ATOM     38  C   UNL A   1      39.720  28.847  27.566  1.00  0.00     0.031 C 
ATOM     39  C   UNL A   1      38.086  31.512  31.505  1.00  0.00     0.029 A 
ATOM     40  N   UNL A   1      40.003  30.387  31.699  1.00  0.00    -0.354 N 
ATOM     41  C   UNL A   1      41.390  27.704  28.633  1.00  0.00     0.074 A 
ATOM     42  C   UNL A   1      40.661  27.927  27.403  1.00  0.00     0.031 C 
ATOM     43  C   UNL A   1      38.667  31.904  32.647  1.00  0.00     0.029 A 
ATOM     44  C   UNL A   1      39.877  31.119  32.858  1.00  0.00     0.049 A 
ATOM     45  H   UNL A   1      40.770  29.798  31.516  1.00  0.00     0.167 HD
ATOM     46  C   UNL A   1      42.453  26.871  28.755  1.00  0.00     0.034 A 
ATOM     47  C   UNL A   1      40.598  31.117  33.999  1.00  0.00     0.034 A 
ATOM     48  C   UNL A   1      43.228  26.730  29.963  1.00  0.00     0.049 A 
ATOM     49  C   UNL A   1      41.736  30.144  34.140  1.00  0.00     0.074 A 
ATOM     50  C   UNL A   1      44.330  25.921  30.189  1.00  0.00     0.029 A 
ATOM     51  N   UNL A   1      43.007  27.434  31.137  1.00  0.00    -0.354 N 
ATOM     52  N   UNL A   1      42.201  29.290  33.259  1.00  0.00    -0.248 NA
ATOM     53  C   UNL A   1      42.417  30.102  35.441  1.00  0.00     0.031 C 
ATOM     54  C   UNL A   1      44.742  26.099  31.513  1.00  0.00     0.029 A 
ATOM     55  C   UNL A   1      43.938  27.065  32.095  1.00  0.00     0.049 A 
ATOM     56  H   UNL A   1      42.293  28.099  31.271  1.00  0.00     0.167 HD
ATOM     57  C   UNL A   1      43.229  28.608  33.902  1.00  0.00     0.074 A 
ATOM     58  C   UNL A   1      43.328  29.161  35.237  1.00  0.00     0.031 C 
ATOM     59  C   UNL A   1      44.016  27.612  33.427  1.00  0.00     0.034 A 
BRANCH  46  60
ATOM     60  C   UNL A   1      42.812  26.001  27.577  1.00  0.00     0.023 A 
ATOM     61  C   UNL A   1      42.317  24.696  27.424  1.00  0.00     0.031 A 
ATOM     62  C   UNL A   1      43.655  26.510  26.570  1.00  0.00     0.131 A 
ATOM     63  C   UNL A   1      42.705  23.930  26.313  1.00  0.00     0.055 A 
ATOM     64  C   UNL A   1      43.983  25.767  25.435  1.00  0.00     0.041 A 
ATOM     65  F   UNL A   1      44.171  27.746  26.673  1.00  0.00    -0.206 F 
ATOM     66  C   UNL A   1      43.514  24.465  25.306  1.00  0.00     0.022 A 
BRANCH  63  67
ATOM     67  S   UNL A   1      42.203  22.189  26.237  1.00  0.00     0.124 S 
ATOM     68  O   UNL A   1      42.898  21.737  25.033  1.00  0.00    -0.237 OA
ATOM     69  O   UNL A   1      42.705  21.658  27.499  1.00  0.00    -0.237 OA
ATOM     70  O   UNL A   1      40.748  22.254  26.123  1.00  0.00    -0.744 OA
ENDBRANCH  63  67
ENDBRANCH  46  60
BRANCH  47  71
ATOM     71  C   UNL A   1      40.196  31.995  35.135  1.00  0.00     0.023 A 
ATOM     72  C   UNL A   1      39.226  31.583  36.062  1.00  0.00     0.031 A 
ATOM     73  C   UNL A   1      40.789  33.258  35.317  1.00  0.00     0.131 A 
ATOM     74  C   UNL A   1      38.877  32.429  37.127  1.00  0.00     0.055 A 
ATOM     75  C   UNL A   1      40.473  34.074  36.403  1.00  0.00     0.041 A 
ATOM     76  F   UNL A   1      41.721  33.700  34.456  1.00  0.00    -0.206 F 
ATOM     77  C   UNL A   1      39.509  33.661  37.316  1.00  0.00     0.022 A 
BRANCH  74  78
ATOM     78  S   UNL A   1      37.564  31.906  38.264  1.00  0.00     0.124 S 
ATOM     79  O   UNL A   1      36.529  32.901  37.998  1.00  0.00    -0.237 OA
ATOM     80  O   UNL A   1      37.284  30.550  37.806  1.00  0.00    -0.237 OA
ATOM     81  O   UNL A   1      38.195  31.998  39.579  1.00  0.00    -0.744 OA
ENDBRANCH  74  78
ENDBRANCH  47  71
BRANCH  59  82
ATOM     82  C   UNL A   1      45.074  27.068  34.348  1.00  0.00     0.023 A 
ATOM     83  C   UNL A   1      44.862  25.898  35.095  1.00  0.00     0.031 A 
ATOM     84  C   UNL A   1      46.323  27.707  34.444  1.00  0.00     0.131 A 
ATOM     85  C   UNL A   1      45.880  25.413  35.930  1.00  0.00     0.055 A 
ATOM     86  C   UNL A   1      47.346  27.195  35.241  1.00  0.00     0.041 A 
ATOM     87  F   UNL A   1      46.571  28.827  33.747  1.00  0.00    -0.206 F 
ATOM     88  C   UNL A   1      47.126  26.045  35.994  1.00  0.00     0.022 A 
BRANCH  85  89
ATOM     89  S   UNL A   1      45.547  23.957  36.957  1.00  0.00     0.124 S 
ATOM     90  O   UNL A   1      44.632  23.197  36.114  1.00  0.00    -0.237 OA
ATOM     91  O   UNL A   1      46.878  23.383  37.133  1.00  0.00    -0.237 OA
ATOM     92  O   UNL A   1      44.954  24.520  38.168  1.00  0.00    -0.744 OA
ENDBRANCH  85  89
ENDBRANCH  59  82
ENDBRANCH  33  34
ENDBRANCH  26  28
ENDBRANCH  25  26
ENDBRANCH   1  25
TORSDOF 16
ENDMDL
MODEL 3
REMARK VINA RESULT:     -12.0      4.992      9.861
REMARK SMILES C[C@@H]1[NH2+]CC[C@@H]1C(=O)Nc1cc(F)ccc1C(=O)OCCOC(=O)c1ccc(-c2c3nc(c(-c4cc(S(=O)(=O)[O-])ccc4F)c4ccc([nH]4)c(-c4cc(S(=O)(=O)[O-])ccc4F)c4nc(c(-c5cc(S(=O)(=O)[O-])ccc5F)c5ccc2[nH]5)C=C4)C=C3)cc1
REMARK SMILES IDX 21 1 20 2 19 3 17 4 18 5 16 6 10 7 11 8 12 9 15 10 13 11
REMARK SMILES IDX 14 12 9 13 7 14 8 15 6 17 1 18 2 19 3 20 4 21 5 24 22 25
REMARK SMILES IDX 23 26 24 27 25 28 26 29 87 30 27 31 86 32 28 33 29 34 30 35
REMARK SMILES IDX 80 36 31 37 85 38 79 39 81 40 32 41 84 42 78 43 77 44 33 46
REMARK SMILES IDX 65 47 45 48 64 49 46 50 49 51 63 52 82 53 47 54 48 55 62 57
REMARK SMILES IDX 83 58 50 59 34 60 35 61 43 62 36 63 42 64 44 65 41 66 37 67
REMARK SMILES IDX 38 68 39 69 40 70 66 71 67 72 75 73 68 74 74 75 76 76 73 77
REMARK SMILES IDX 69 78 70 79 71 80 72 81 51 82 52 83 60 84 53 85 59 86 61 87
REMARK SMILES IDX 58 88 54 89 55 90 56 91 57 92
REMARK H PARENT 9 16 3 22 3 23 81 45 49 56
REMARK Flexibility Score: inf
ROOT
ATOM      1  C   UNL A   1      36.156  21.138  24.832  1.00  0.00     0.275 C 
ENDROOT
BRANCH   1   2
ATOM      2  C   UNL A   1      35.042  22.181  24.935  1.00  0.00     0.275 C 
BRANCH   2   3
ATOM      3  O   UNL A   1      34.200  22.153  23.761  1.00  0.00    -0.458 OA
BRANCH   3   4
ATOM      4  C   UNL A   1      32.964  21.617  23.923  1.00  0.00     0.340 C 
ATOM      5  O   UNL A   1      32.647  20.467  23.658  1.00  0.00    -0.246 OA
BRANCH   4   6
ATOM      6  C   UNL A   1      32.029  22.576  24.585  1.00  0.00     0.083 A 
ATOM      7  C   UNL A   1      31.846  23.928  24.197  1.00  0.00     0.058 A 
ATOM      8  C   UNL A   1      30.969  24.692  24.959  1.00  0.00     0.066 A 
ATOM      9  C   UNL A   1      30.251  24.144  26.024  1.00  0.00     0.125 A 
ATOM     10  C   UNL A   1      31.288  22.037  25.661  1.00  0.00     0.021 A 
ATOM     11  F   UNL A   1      29.373  24.912  26.681  1.00  0.00    -0.207 F 
ATOM     12  C   UNL A   1      30.408  22.824  26.392  1.00  0.00     0.040 A 
BRANCH   7  13
ATOM     13  N   UNL A   1      32.484  24.404  23.033  1.00  0.00    -0.325 N 
ATOM     14  C   UNL A   1      32.962  25.567  22.523  1.00  0.00     0.233 C 
ATOM     15  O   UNL A   1      33.345  25.467  21.347  1.00  0.00    -0.274 OA
ATOM     16  H   UNL A   1      32.625  23.667  22.394  1.00  0.00     0.169 HD
BRANCH  14  17
ATOM     17  C   UNL A   1      33.138  26.892  23.276  1.00  0.00     0.142 C 
ATOM     18  C   UNL A   1      30.765  27.624  22.536  1.00  0.00     0.076 C 
ATOM     19  C   UNL A   1      31.921  27.798  23.513  1.00  0.00     0.192 C 
ATOM     20  N   UNL A   1      32.441  29.182  23.483  1.00  0.00    -0.343 N 
ATOM     21  C   UNL A   1      33.453  29.183  22.435  1.00  0.00     0.261 C 
ATOM     22  H   UNL A   1      32.856  29.427  24.383  1.00  0.00     0.346 HD
ATOM     23  H   UNL A   1      31.704  29.864  23.306  1.00  0.00     0.346 HD
ATOM     24  C   UNL A   1      34.126  27.827  22.530  1.00  0.00     0.081 C 
ENDBRANCH  14  17
ENDBRANCH   7  13
ENDBRANCH   4   6
ENDBRANCH   3   4
ENDBRANCH   2   3
ENDBRANCH   1   2
BRANCH   1  25
ATOM     25  O   UNL A   1      37.429  21.793  24.684  1.00  0.00    -0.458 OA
BRANCH  25  26
ATOM     26  C   UNL A   1      38.412  21.328  25.490  1.00  0.00     0.338 C 
ATOM     27  O   UNL A   1      38.877  20.201  25.511  1.00  0.00    -0.246 OA
BRANCH  26  28
ATOM     28  C   UNL A   1      38.952  22.417  26.322  1.00  0.00     0.060 A 
ATOM     29  C   UNL A   1      38.445  23.696  26.138  1.00  0.00     0.016 A 
ATOM     30  C   UNL A   1      40.096  22.228  27.093  1.00  0.00     0.016 A 
ATOM     31  C   UNL A   1      39.171  24.804  26.573  1.00  0.00     0.010 A 
ATOM     32  C   UNL A   1      40.738  23.339  27.658  1.00  0.00     0.010 A 
ATOM     33  C   UNL A   1      40.328  24.653  27.350  1.00  0.00    -0.014 A 
BRANCH  33  34
ATOM     34  C   UNL A   1      41.147  25.841  27.762  1.00  0.00     0.031 A 
ATOM     35  C   UNL A   1      40.542  26.896  28.664  1.00  0.00     0.074 A 
ATOM     36  C   UNL A   1      42.437  25.984  27.386  1.00  0.00     0.049 A 
ATOM     37  N   UNL A   1      40.955  28.115  28.908  1.00  0.00    -0.248 NA
ATOM     38  C   UNL A   1      39.298  26.541  29.366  1.00  0.00     0.031 C 
ATOM     39  C   UNL A   1      43.210  25.026  26.592  1.00  0.00     0.029 A 
ATOM     40  N   UNL A   1      43.341  26.991  27.640  1.00  0.00    -0.354 N 
ATOM     41  C   UNL A   1      39.980  28.696  29.716  1.00  0.00     0.074 A 
ATOM     42  C   UNL A   1      38.957  27.694  29.925  1.00  0.00     0.031 C 
ATOM     43  C   UNL A   1      44.477  25.449  26.493  1.00  0.00     0.029 A 
ATOM     44  C   UNL A   1      44.582  26.778  27.081  1.00  0.00     0.049 A 
ATOM     45  H   UNL A   1      43.121  27.791  28.170  1.00  0.00     0.167 HD
ATOM     46  C   UNL A   1      39.941  29.951  30.230  1.00  0.00     0.034 A 
ATOM     47  C   UNL A   1      45.665  27.576  26.980  1.00  0.00     0.034 A 
ATOM     48  C   UNL A   1      41.011  30.908  30.093  1.00  0.00     0.049 A 
ATOM     49  C   UNL A   1      45.584  28.984  27.501  1.00  0.00     0.074 A 
ATOM     50  C   UNL A   1      41.076  32.202  30.584  1.00  0.00     0.029 A 
ATOM     51  N   UNL A   1      42.213  30.669  29.445  1.00  0.00    -0.354 N 
ATOM     52  N   UNL A   1      44.592  29.574  28.126  1.00  0.00    -0.248 NA
ATOM     53  C   UNL A   1      46.749  29.848  27.266  1.00  0.00     0.031 C 
ATOM     54  C   UNL A   1      42.295  32.761  30.189  1.00  0.00     0.029 A 
ATOM     55  C   UNL A   1      43.018  31.796  29.507  1.00  0.00     0.049 A 
ATOM     56  H   UNL A   1      42.461  29.823  29.006  1.00  0.00     0.167 HD
ATOM     57  C   UNL A   1      45.014  30.879  28.355  1.00  0.00     0.074 A 
ATOM     58  C   UNL A   1      46.355  30.986  27.820  1.00  0.00     0.031 C 
ATOM     59  C   UNL A   1      44.347  31.896  28.955  1.00  0.00     0.034 A 
BRANCH  46  60
ATOM     60  C   UNL A   1      38.685  30.388  30.940  1.00  0.00     0.023 A 
ATOM     61  C   UNL A   1      37.643  31.061  30.282  1.00  0.00     0.031 A 
ATOM     62  C   UNL A   1      38.524  30.099  32.309  1.00  0.00     0.131 A 
ATOM     63  C   UNL A   1      36.506  31.460  31.004  1.00  0.00     0.055 A 
ATOM     64  C   UNL A   1      37.363  30.439  33.005  1.00  0.00     0.041 A 
ATOM     65  F   UNL A   1      39.496  29.472  32.991  1.00  0.00    -0.206 F 
ATOM     66  C   UNL A   1      36.349  31.131  32.354  1.00  0.00     0.022 A 
BRANCH  63  67
ATOM     67  S   UNL A   1      35.263  32.489  30.176  1.00  0.00     0.124 S 
ATOM     68  O   UNL A   1      34.822  31.605  29.100  1.00  0.00    -0.237 OA
ATOM     69  O   UNL A   1      34.294  32.734  31.238  1.00  0.00    -0.237 OA
ATOM     70  O   UNL A   1      36.022  33.661  29.742  1.00  0.00    -0.744 OA
ENDBRANCH  63  67
ENDBRANCH  46  60
BRANCH  47  71
ATOM     71  C   UNL A   1      46.880  27.093  26.264  1.00  0.00     0.023 A 
ATOM     72  C   UNL A   1      47.956  26.524  26.962  1.00  0.00     0.031 A 
ATOM     73  C   UNL A   1      46.975  27.183  24.862  1.00  0.00     0.131 A 
ATOM     74  C   UNL A   1      49.082  26.069  26.256  1.00  0.00     0.055 A 
ATOM     75  C   UNL A   1      48.075  26.687  24.163  1.00  0.00     0.041 A 
ATOM     76  F   UNL A   1      45.974  27.722  24.147  1.00  0.00    -0.206 F 
ATOM     77  C   UNL A   1      49.140  26.128  24.861  1.00  0.00     0.022 A 
BRANCH  74  78
ATOM     78  S   UNL A   1      50.492  25.412  27.189  1.00  0.00     0.124 S 
ATOM     79  O   UNL A   1      51.481  25.219  26.133  1.00  0.00    -0.237 OA
ATOM     80  O   UNL A   1      50.763  26.490  28.134  1.00  0.00    -0.237 OA
ATOM     81  O   UNL A   1      49.965  24.185  27.783  1.00  0.00    -0.744 OA
ENDBRANCH  74  78
ENDBRANCH  47  71
BRANCH  59  82
ATOM     82  C   UNL A   1      45.065  33.211  29.086  1.00  0.00     0.023 A 
ATOM     83  C   UNL A   1      44.874  34.244  28.155  1.00  0.00     0.031 A 
ATOM     84  C   UNL A   1      45.916  33.444  30.181  1.00  0.00     0.131 A 
ATOM     85  C   UNL A   1      45.549  35.463  28.323  1.00  0.00     0.055 A 
ATOM     86  C   UNL A   1      46.549  34.673  30.366  1.00  0.00     0.041 A 
ATOM     87  F   UNL A   1      46.127  32.486  31.097  1.00  0.00    -0.206 F 
ATOM     88  C   UNL A   1      46.371  35.689  29.431  1.00  0.00     0.022 A 
BRANCH  85  89
ATOM     89  S   UNL A   1      45.361  36.746  27.056  1.00  0.00     0.124 S 
ATOM     90  O   UNL A   1      46.295  36.295  26.030  1.00  0.00    -0.237 OA
ATOM     91  O   UNL A   1      43.945  36.650  26.715  1.00  0.00    -0.237 OA
ATOM     92  O   UNL A   1      45.746  37.972  27.750  1.00  0.00    -0.744 OA
ENDBRANCH  85  89
ENDBRANCH  59  82
ENDBRANCH  33  34
ENDBRANCH  26  28
ENDBRANCH  25  26
ENDBRANCH   1  25
TORSDOF 16
ENDMDL
