MODEL 1
REMARK VINA RESULT:     -12.4      0.000      0.000
REMARK SMILES CC(C)(C)OC(=O)N1CCC[C@H]1C(=O)N[C@@H](Cc1ccccc1)C(=O)OCCOC(=O)c1ccc(-c2c3nc(c(-c4cc(S(=O)(=O)[O-])ccc4F)c4ccc([nH]4)c(-c4cc(S(=O)(=O)[O-])ccc4F)c4nc(c(-c5cc(S(=O)(=O)[O-])ccc5F)c5ccc2[nH]5)C=C4)C=C3)cc1
REMARK SMILES IDX 27 1 26 2 24 3 25 4 16 5 15 6 13 7 14 8 12 10 8 11 9 12
REMARK SMILES IDX 10 13 11 14 6 15 7 16 5 17 2 18 1 19 3 20 4 21 17 22 18 23
REMARK SMILES IDX 19 24 23 25 20 26 22 27 21 28 28 29 29 30 30 31 31 32 32 33
REMARK SMILES IDX 33 34 94 35 34 36 93 37 35 38 36 39 37 40 87 41 38 42 92 43
REMARK SMILES IDX 86 44 88 45 39 46 91 47 85 48 84 49 40 51 72 52 52 53 71 54
REMARK SMILES IDX 53 55 56 56 70 57 89 58 54 59 55 60 69 62 90 63 57 64 41 65
REMARK SMILES IDX 42 66 50 67 43 68 49 69 51 70 48 71 44 72 45 73 46 74 47 75
REMARK SMILES IDX 73 76 74 77 82 78 75 79 81 80 83 81 80 82 76 83 77 84 78 85
REMARK SMILES IDX 79 86 58 87 59 88 67 89 60 90 66 91 68 92 65 93 61 94 62 95
REMARK SMILES IDX 63 96 64 97
REMARK H PARENT 15 9 88 50 56 61
REMARK Flexibility Score: inf
ROOT
ATOM      1  C   UNL A   1      35.148  21.741  26.494  1.00  0.00     0.274 C 
ENDROOT
BRANCH   1   2
ATOM      2  O   UNL A   1      34.131  22.662  26.049  1.00  0.00    -0.461 OA
BRANCH   2   3
ATOM      3  C   UNL A   1      32.995  22.650  26.805  1.00  0.00     0.329 C 
ATOM      4  O   UNL A   1      32.972  22.463  28.020  1.00  0.00    -0.250 OA
BRANCH   3   5
ATOM      5  C   UNL A   1      31.708  22.675  25.972  1.00  0.00     0.196 C 
BRANCH   5   6
ATOM      6  N   UNL A   1      30.867  23.858  26.182  1.00  0.00    -0.341 N 
ATOM      7  C   UNL A   1      30.999  25.146  25.725  1.00  0.00     0.243 C 
ATOM      8  O   UNL A   1      30.028  25.890  25.907  1.00  0.00    -0.273 OA
ATOM      9  H   UNL A   1      30.076  23.703  26.746  1.00  0.00     0.164 HD
BRANCH   7  10
ATOM     10  C   UNL A   1      32.317  25.654  25.026  1.00  0.00     0.178 C 
ATOM     11  N   UNL A   1      32.199  26.891  24.217  1.00  0.00    -0.296 N 
ATOM     12  C   UNL A   1      32.417  28.008  25.110  1.00  0.00     0.124 C 
ATOM     13  C   UNL A   1      33.598  27.549  25.932  1.00  0.00     0.024 C 
ATOM     14  C   UNL A   1      33.298  26.068  26.165  1.00  0.00     0.037 C 
BRANCH  11  15
ATOM     15  C   UNL A   1      31.179  26.995  23.285  1.00  0.00     0.410 C 
ATOM     16  O   UNL A   1      31.182  26.197  22.343  1.00  0.00    -0.224 OA
BRANCH  15  17
ATOM     17  O   UNL A   1      30.238  28.183  23.403  1.00  0.00    -0.444 OA
BRANCH  17  18
ATOM     18  C   UNL A   1      29.012  29.700  22.912  1.00  0.00     0.106 C 
ATOM     19  C   UNL A   1      27.368  29.503  22.950  1.00  0.00     0.056 C 
ATOM     20  C   UNL A   1      29.029  30.418  21.366  1.00  0.00     0.056 C 
ATOM     21  C   UNL A   1      29.069  31.142  23.775  1.00  0.00     0.056 C 
ENDBRANCH  17  18
ENDBRANCH  15  17
ENDBRANCH  11  15
ENDBRANCH   7  10
ENDBRANCH   5   6
BRANCH   5  22
ATOM     22  C   UNL A   1      32.116  22.476  24.487  1.00  0.00     0.072 C 
BRANCH  22  23
ATOM     23  C   UNL A   1      32.167  21.040  23.979  1.00  0.00    -0.045 A 
ATOM     24  C   UNL A   1      32.127  20.760  22.610  1.00  0.00     0.004 A 
ATOM     25  C   UNL A   1      32.253  19.958  24.875  1.00  0.00     0.004 A 
ATOM     26  C   UNL A   1      32.223  19.440  22.154  1.00  0.00     0.000 A 
ATOM     27  C   UNL A   1      32.402  18.648  24.420  1.00  0.00     0.000 A 
ATOM     28  C   UNL A   1      32.388  18.389  23.055  1.00  0.00     0.000 A 
ENDBRANCH  22  23
ENDBRANCH   5  22
ENDBRANCH   3   5
ENDBRANCH   2   3
ENDBRANCH   1   2
BRANCH   1  29
ATOM     29  C   UNL A   1      35.545  20.781  25.379  1.00  0.00     0.275 C 
BRANCH  29  30
ATOM     30  O   UNL A   1      36.716  21.293  24.736  1.00  0.00    -0.458 OA
BRANCH  30  31
ATOM     31  C   UNL A   1      37.864  20.720  25.146  1.00  0.00     0.338 C 
ATOM     32  O   UNL A   1      38.183  19.550  25.033  1.00  0.00    -0.246 OA
BRANCH  31  33
ATOM     33  C   UNL A   1      38.709  21.749  25.772  1.00  0.00     0.060 A 
ATOM     34  C   UNL A   1      40.148  21.363  26.815  1.00  0.00     0.016 A 
ATOM     35  C   UNL A   1      38.122  23.475  25.658  1.00  0.00     0.016 A 
ATOM     36  C   UNL A   1      41.035  22.700  27.680  1.00  0.00     0.010 A 
ATOM     37  C   UNL A   1      39.035  24.791  26.500  1.00  0.00     0.010 A 
ATOM     38  C   UNL A   1      40.505  24.426  27.522  1.00  0.00    -0.014 A 
BRANCH  38  39
ATOM     39  C   UNL A   1      41.354  25.594  28.082  1.00  0.00     0.031 A 
ATOM     40  C   UNL A   1      40.691  26.766  28.795  1.00  0.00     0.074 A 
ATOM     41  C   UNL A   1      42.682  25.742  27.821  1.00  0.00     0.049 A 
ATOM     42  N   UNL A   1      41.129  27.980  29.049  1.00  0.00    -0.248 NA
ATOM     43  C   UNL A   1      39.332  26.538  29.275  1.00  0.00     0.031 C 
ATOM     44  C   UNL A   1      43.553  24.791  27.131  1.00  0.00     0.029 A 
ATOM     45  N   UNL A   1      43.527  26.825  28.027  1.00  0.00    -0.354 N 
ATOM     46  C   UNL A   1      40.078  28.652  29.681  1.00  0.00     0.074 A 
ATOM     47  C   UNL A   1      38.966  27.730  29.711  1.00  0.00     0.031 C 
ATOM     48  C   UNL A   1      44.762  25.329  26.926  1.00  0.00     0.029 A 
ATOM     49  C   UNL A   1      44.764  26.692  27.425  1.00  0.00     0.049 A 
ATOM     50  H   UNL A   1      43.268  27.614  28.555  1.00  0.00     0.167 HD
ATOM     51  C   UNL A   1      40.025  29.900  30.217  1.00  0.00     0.034 A 
ATOM     52  C   UNL A   1      45.786  27.552  27.223  1.00  0.00     0.034 A 
ATOM     53  C   UNL A   1      41.122  30.835  30.225  1.00  0.00     0.049 A 
ATOM     54  C   UNL A   1      45.706  28.955  27.750  1.00  0.00     0.074 A 
ATOM     55  C   UNL A   1      41.176  32.101  30.789  1.00  0.00     0.029 A 
ATOM     56  N   UNL A   1      42.356  30.613  29.638  1.00  0.00    -0.354 N 
ATOM     57  N   UNL A   1      44.709  29.552  28.356  1.00  0.00    -0.248 NA
ATOM     58  C   UNL A   1      46.901  29.796  27.582  1.00  0.00     0.031 C 
ATOM     59  C   UNL A   1      42.424  32.663  30.495  1.00  0.00     0.029 A 
ATOM     60  C   UNL A   1      43.170  31.724  29.804  1.00  0.00     0.049 A 
ATOM     61  H   UNL A   1      42.618  29.787  29.171  1.00  0.00     0.167 HD
ATOM     62  C   UNL A   1      45.174  30.823  28.680  1.00  0.00     0.074 A 
ATOM     63  C   UNL A   1      46.536  30.909  28.200  1.00  0.00     0.031 C 
ATOM     64  C   UNL A   1      44.527  31.821  29.329  1.00  0.00     0.034 A 
BRANCH  51  65
ATOM     65  C   UNL A   1      38.708  30.335  30.829  1.00  0.00     0.023 A 
ATOM     66  C   UNL A   1      37.728  30.999  30.070  1.00  0.00     0.031 A 
ATOM     67  C   UNL A   1      38.448  30.124  32.195  1.00  0.00     0.131 A 
ATOM     68  C   UNL A   1      36.585  31.516  30.698  1.00  0.00     0.055 A 
ATOM     69  C   UNL A   1      37.265  30.563  32.797  1.00  0.00     0.041 A 
ATOM     70  F   UNL A   1      39.348  29.506  32.975  1.00  0.00    -0.206 F 
ATOM     71  C   UNL A   1      36.334  31.282  32.052  1.00  0.00     0.022 A 
BRANCH  68  72
ATOM     72  S   UNL A   1      35.519  32.640  29.754  1.00  0.00     0.124 S 
ATOM     73  O   UNL A   1      34.801  31.706  28.889  1.00  0.00    -0.237 OA
ATOM     74  O   UNL A   1      34.729  33.277  30.800  1.00  0.00    -0.237 OA
ATOM     75  O   UNL A   1      36.468  33.513  29.064  1.00  0.00    -0.744 OA
ENDBRANCH  68  72
ENDBRANCH  51  65
BRANCH  52  76
ATOM     76  C   UNL A   1      46.985  27.119  26.442  1.00  0.00     0.023 A 
ATOM     77  C   UNL A   1      48.052  26.454  27.064  1.00  0.00     0.031 A 
ATOM     78  C   UNL A   1      47.087  27.390  25.065  1.00  0.00     0.131 A 
ATOM     79  C   UNL A   1      49.192  26.111  26.320  1.00  0.00     0.055 A 
ATOM     80  C   UNL A   1      48.205  27.007  24.319  1.00  0.00     0.041 A 
ATOM     81  F   UNL A   1      46.089  28.016  24.420  1.00  0.00    -0.206 F 
ATOM     82  C   UNL A   1      49.271  26.372  24.950  1.00  0.00     0.022 A 
BRANCH  79  83
ATOM     83  S   UNL A   1      50.603  25.369  27.186  1.00  0.00     0.124 S 
ATOM     84  O   UNL A   1      51.472  24.997  26.077  1.00  0.00    -0.237 OA
ATOM     85  O   UNL A   1      51.060  26.476  28.019  1.00  0.00    -0.237 OA
ATOM     86  O   UNL A   1      50.006  24.251  27.914  1.00  0.00    -0.744 OA
ENDBRANCH  79  83
ENDBRANCH  52  76
BRANCH  64  87
ATOM     87  C   UNL A   1      45.312  33.071  29.624  1.00  0.00     0.023 A 
ATOM     88  C   UNL A   1      45.330  34.161  28.739  1.00  0.00     0.031 A 
ATOM     89  C   UNL A   1      46.082  33.156  30.799  1.00  0.00     0.131 A 
ATOM     90  C   UNL A   1      46.144  35.271  29.016  1.00  0.00     0.055 A 
ATOM     91  C   UNL A   1      46.847  34.283  31.095  1.00  0.00     0.041 A 
ATOM     92  F   UNL A   1      46.103  32.139  31.676  1.00  0.00    -0.206 F 
ATOM     93  C   UNL A   1      46.892  35.345  30.195  1.00  0.00     0.022 A 
BRANCH  90  94
ATOM     94  S   UNL A   1      46.280  36.583  27.772  1.00  0.00     0.124 S 
ATOM     95  O   UNL A   1      47.721  36.635  27.544  1.00  0.00    -0.237 OA
ATOM     96  O   UNL A   1      45.478  36.056  26.673  1.00  0.00    -0.237 OA
ATOM     97  O   UNL A   1      45.717  37.753  28.444  1.00  0.00    -0.744 OA
ENDBRANCH  90  94
ENDBRANCH  64  87
ENDBRANCH  38  39
ENDBRANCH  31  33
ENDBRANCH  30  31
ENDBRANCH  29  30
ENDBRANCH   1  29
TORSDOF 21
ENDMDL
MODEL 2
REMARK VINA RESULT:     -11.8      1.967      2.259
REMARK SMILES CC(C)(C)OC(=O)N1CCC[C@H]1C(=O)N[C@@H](Cc1ccccc1)C(=O)OCCOC(=O)c1ccc(-c2c3nc(c(-c4cc(S(=O)(=O)[O-])ccc4F)c4ccc([nH]4)c(-c4cc(S(=O)(=O)[O-])ccc4F)c4nc(c(-c5cc(S(=O)(=O)[O-])ccc5F)c5ccc2[nH]5)C=C4)C=C3)cc1
REMARK SMILES IDX 27 1 26 2 24 3 25 4 16 5 15 6 13 7 14 8 12 10 8 11 9 12
REMARK SMILES IDX 10 13 11 14 6 15 7 16 5 17 2 18 1 19 3 20 4 21 17 22 18 23
REMARK SMILES IDX 19 24 23 25 20 26 22 27 21 28 28 29 29 30 30 31 31 32 32 33
REMARK SMILES IDX 33 34 94 35 34 36 93 37 35 38 36 39 37 40 87 41 38 42 92 43
REMARK SMILES IDX 86 44 88 45 39 46 91 47 85 48 84 49 40 51 72 52 52 53 71 54
REMARK SMILES IDX 53 55 56 56 70 57 89 58 54 59 55 60 69 62 90 63 57 64 41 65
REMARK SMILES IDX 42 66 50 67 43 68 49 69 51 70 48 71 44 72 45 73 46 74 47 75
REMARK SMILES IDX 73 76 74 77 82 78 75 79 81 80 83 81 80 82 76 83 77 84 78 85
REMARK SMILES IDX 79 86 58 87 59 88 67 89 60 90 66 91 68 92 65 93 61 94 62 95
REMARK SMILES IDX 63 96 64 97
REMARK H PARENT 15 9 88 50 56 61
REMARK Flexibility Score: inf
ROOT
ATOM      1  C   UNL A   1      35.917  21.884  25.285  1.00  0.00     0.274 C 
ENDROOT
BRANCH   1   2
ATOM      2  O   UNL A   1      34.507  21.625  25.128  1.00  0.00    -0.461 OA
BRANCH   2   3
ATOM      3  C   UNL A   1      33.808  21.604  26.300  1.00  0.00     0.329 C 
ATOM      4  O   UNL A   1      34.326  21.588  27.416  1.00  0.00    -0.250 OA
BRANCH   3   5
ATOM      5  C   UNL A   1      32.303  21.382  26.110  1.00  0.00     0.196 C 
BRANCH   5   6
ATOM      6  N   UNL A   1      31.462  22.508  26.527  1.00  0.00    -0.341 N 
ATOM      7  C   UNL A   1      31.425  23.810  26.096  1.00  0.00     0.243 C 
ATOM      8  O   UNL A   1      30.475  24.491  26.499  1.00  0.00    -0.273 OA
ATOM      9  H   UNL A   1      30.815  22.294  27.237  1.00  0.00     0.164 HD
BRANCH   7  10
ATOM     10  C   UNL A   1      32.539  24.412  25.157  1.00  0.00     0.178 C 
ATOM     11  N   UNL A   1      32.125  25.527  24.272  1.00  0.00    -0.296 N 
ATOM     12  C   UNL A   1      32.301  26.753  25.020  1.00  0.00     0.124 C 
ATOM     13  C   UNL A   1      33.642  26.547  25.683  1.00  0.00     0.024 C 
ATOM     14  C   UNL A   1      33.601  25.073  26.088  1.00  0.00     0.037 C 
BRANCH  11  15
ATOM     15  C   UNL A   1      30.978  25.392  23.507  1.00  0.00     0.410 C 
ATOM     16  O   UNL A   1      30.653  24.253  23.160  1.00  0.00    -0.224 OA
BRANCH  15  17
ATOM     17  O   UNL A   1      30.307  26.665  23.015  1.00  0.00    -0.444 OA
BRANCH  17  18
ATOM     18  C   UNL A   1      29.636  28.559  22.941  1.00  0.00     0.106 C 
ATOM     19  C   UNL A   1      28.018  28.888  23.062  1.00  0.00     0.056 C 
ATOM     20  C   UNL A   1      29.878  29.556  21.579  1.00  0.00     0.056 C 
ATOM     21  C   UNL A   1      30.162  29.684  24.076  1.00  0.00     0.056 C 
ENDBRANCH  17  18
ENDBRANCH  15  17
ENDBRANCH  11  15
ENDBRANCH   7  10
ENDBRANCH   5   6
BRANCH   5  22
ATOM     22  C   UNL A   1      32.081  20.975  24.628  1.00  0.00     0.072 C 
BRANCH  22  23
ATOM     23  C   UNL A   1      32.412  19.535  24.258  1.00  0.00    -0.045 A 
ATOM     24  C   UNL A   1      32.422  19.120  22.923  1.00  0.00     0.004 A 
ATOM     25  C   UNL A   1      32.711  18.583  25.250  1.00  0.00     0.004 A 
ATOM     26  C   UNL A   1      32.774  17.806  22.592  1.00  0.00     0.000 A 
ATOM     27  C   UNL A   1      33.113  17.289  24.918  1.00  0.00     0.000 A 
ATOM     28  C   UNL A   1      33.145  16.900  23.585  1.00  0.00     0.000 A 
ENDBRANCH  22  23
ENDBRANCH   5  22
ENDBRANCH   3   5
ENDBRANCH   2   3
ENDBRANCH   1   2
BRANCH   1  29
ATOM     29  C   UNL A   1      36.740  20.634  24.998  1.00  0.00     0.275 C 
BRANCH  29  30
ATOM     30  O   UNL A   1      38.097  21.027  24.772  1.00  0.00    -0.458 OA
BRANCH  30  31
ATOM     31  C   UNL A   1      38.962  20.581  25.704  1.00  0.00     0.338 C 
ATOM     32  O   UNL A   1      39.161  19.424  26.029  1.00  0.00    -0.246 OA
BRANCH  31  33
ATOM     33  C   UNL A   1      39.656  21.736  26.295  1.00  0.00     0.060 A 
ATOM     34  C   UNL A   1      41.036  21.579  27.470  1.00  0.00     0.016 A 
ATOM     35  C   UNL A   1      38.926  23.381  25.983  1.00  0.00     0.016 A 
ATOM     36  C   UNL A   1      41.725  23.064  28.272  1.00  0.00     0.010 A 
ATOM     37  C   UNL A   1      39.645  24.845  26.767  1.00  0.00     0.010 A 
ATOM     38  C   UNL A   1      41.056  24.711  27.922  1.00  0.00    -0.014 A 
BRANCH  38  39
ATOM     39  C   UNL A   1      41.747  25.999  28.433  1.00  0.00     0.031 A 
ATOM     40  C   UNL A   1      40.931  27.126  29.053  1.00  0.00     0.074 A 
ATOM     41  C   UNL A   1      43.059  26.281  28.203  1.00  0.00     0.049 A 
ATOM     42  N   UNL A   1      41.221  28.395  29.245  1.00  0.00    -0.248 NA
ATOM     43  C   UNL A   1      39.590  26.772  29.505  1.00  0.00     0.031 C 
ATOM     44  C   UNL A   1      44.056  25.398  27.599  1.00  0.00     0.029 A 
ATOM     45  N   UNL A   1      43.769  27.463  28.368  1.00  0.00    -0.354 N 
ATOM     46  C   UNL A   1      40.079  28.978  29.803  1.00  0.00     0.074 A 
ATOM     47  C   UNL A   1      39.077  27.939  29.857  1.00  0.00     0.031 C 
ATOM     48  C   UNL A   1      45.203  26.057  27.398  1.00  0.00     0.029 A 
ATOM     49  C   UNL A   1      45.034  27.438  27.812  1.00  0.00     0.049 A 
ATOM     50  H   UNL A   1      43.404  28.248  28.838  1.00  0.00     0.167 HD
ATOM     51  C   UNL A   1      39.867  30.241  30.259  1.00  0.00     0.034 A 
ATOM     52  C   UNL A   1      45.960  28.396  27.588  1.00  0.00     0.034 A 
ATOM     53  C   UNL A   1      40.851  31.294  30.243  1.00  0.00     0.049 A 
ATOM     54  C   UNL A   1      45.704  29.809  28.026  1.00  0.00     0.074 A 
ATOM     55  C   UNL A   1      40.743  32.587  30.729  1.00  0.00     0.029 A 
ATOM     56  N   UNL A   1      42.123  31.180  29.707  1.00  0.00    -0.354 N 
ATOM     57  N   UNL A   1      44.625  30.322  28.564  1.00  0.00    -0.248 NA
ATOM     58  C   UNL A   1      46.803  30.769  27.842  1.00  0.00     0.031 C 
ATOM     59  C   UNL A   1      41.930  33.271  30.439  1.00  0.00     0.029 A 
ATOM     60  C   UNL A   1      42.801  32.384  29.829  1.00  0.00     0.049 A 
ATOM     61  H   UNL A   1      42.493  30.363  29.300  1.00  0.00     0.167 HD
ATOM     62  C   UNL A   1      44.933  31.654  28.823  1.00  0.00     0.074 A 
ATOM     63  C   UNL A   1      46.293  31.867  28.380  1.00  0.00     0.031 C 
ATOM     64  C   UNL A   1      44.154  32.608  29.390  1.00  0.00     0.034 A 
BRANCH  51  65
ATOM     65  C   UNL A   1      38.488  30.557  30.804  1.00  0.00     0.023 A 
ATOM     66  C   UNL A   1      37.503  31.163  30.004  1.00  0.00     0.031 A 
ATOM     67  C   UNL A   1      38.170  30.292  32.148  1.00  0.00     0.131 A 
ATOM     68  C   UNL A   1      36.290  31.574  30.576  1.00  0.00     0.055 A 
ATOM     69  C   UNL A   1      36.925  30.623  32.690  1.00  0.00     0.041 A 
ATOM     70  F   UNL A   1      39.071  29.725  32.965  1.00  0.00    -0.206 F 
ATOM     71  C   UNL A   1      35.983  31.287  31.908  1.00  0.00     0.022 A 
BRANCH  68  72
ATOM     72  S   UNL A   1      35.193  32.636  29.597  1.00  0.00     0.124 S 
ATOM     73  O   UNL A   1      34.229  33.072  30.606  1.00  0.00    -0.237 OA
ATOM     74  O   UNL A   1      36.105  33.660  29.102  1.00  0.00    -0.237 OA
ATOM     75  O   UNL A   1      34.656  31.732  28.582  1.00  0.00    -0.744 OA
ENDBRANCH  68  72
ENDBRANCH  51  65
BRANCH  52  76
ATOM     76  C   UNL A   1      47.228  28.059  26.871  1.00  0.00     0.023 A 
ATOM     77  C   UNL A   1      47.280  28.031  25.469  1.00  0.00     0.031 A 
ATOM     78  C   UNL A   1      48.398  27.735  27.583  1.00  0.00     0.131 A 
ATOM     79  C   UNL A   1      48.466  27.653  24.820  1.00  0.00     0.055 A 
ATOM     80  C   UNL A   1      49.589  27.403  26.932  1.00  0.00     0.041 A 
ATOM     81  F   UNL A   1      48.403  27.756  28.925  1.00  0.00    -0.206 F 
ATOM     82  C   UNL A   1      49.624  27.350  25.542  1.00  0.00     0.022 A 
BRANCH  79  83
ATOM     83  S   UNL A   1      48.458  27.504  23.013  1.00  0.00     0.124 S 
ATOM     84  O   UNL A   1      47.253  28.243  22.658  1.00  0.00    -0.237 OA
ATOM     85  O   UNL A   1      49.726  28.129  22.653  1.00  0.00    -0.237 OA
ATOM     86  O   UNL A   1      48.393  26.060  22.791  1.00  0.00    -0.744 OA
ENDBRANCH  79  83
ENDBRANCH  52  76
BRANCH  64  87
ATOM     87  C   UNL A   1      44.784  33.954  29.631  1.00  0.00     0.023 A 
ATOM     88  C   UNL A   1      45.449  34.257  30.831  1.00  0.00     0.031 A 
ATOM     89  C   UNL A   1      44.687  34.960  28.653  1.00  0.00     0.131 A 
ATOM     90  C   UNL A   1      45.947  35.551  31.044  1.00  0.00     0.055 A 
ATOM     91  C   UNL A   1      45.230  36.229  28.849  1.00  0.00     0.041 A 
ATOM     92  F   UNL A   1      44.057  34.723  27.491  1.00  0.00    -0.206 F 
ATOM     93  C   UNL A   1      45.854  36.536  30.056  1.00  0.00     0.022 A 
BRANCH  90  94
ATOM     94  S   UNL A   1      46.644  35.960  32.668  1.00  0.00     0.124 S 
ATOM     95  O   UNL A   1      46.320  34.768  33.445  1.00  0.00    -0.237 OA
ATOM     96  O   UNL A   1      48.057  36.158  32.360  1.00  0.00    -0.237 OA
ATOM     97  O   UNL A   1      45.920  37.170  33.057  1.00  0.00    -0.744 OA
ENDBRANCH  90  94
ENDBRANCH  64  87
ENDBRANCH  38  39
ENDBRANCH  31  33
ENDBRANCH  30  31
ENDBRANCH  29  30
ENDBRANCH   1  29
TORSDOF 21
ENDMDL
MODEL 3
REMARK VINA RESULT:     -11.7      4.375      9.574
REMARK SMILES CC(C)(C)OC(=O)N1CCC[C@H]1C(=O)N[C@@H](Cc1ccccc1)C(=O)OCCOC(=O)c1ccc(-c2c3nc(c(-c4cc(S(=O)(=O)[O-])ccc4F)c4ccc([nH]4)c(-c4cc(S(=O)(=O)[O-])ccc4F)c4nc(c(-c5cc(S(=O)(=O)[O-])ccc5F)c5ccc2[nH]5)C=C4)C=C3)cc1
REMARK SMILES IDX 27 1 26 2 24 3 25 4 16 5 15 6 13 7 14 8 12 10 8 11 9 12
REMARK SMILES IDX 10 13 11 14 6 15 7 16 5 17 2 18 1 19 3 20 4 21 17 22 18 23
REMARK SMILES IDX 19 24 23 25 20 26 22 27 21 28 28 29 29 30 30 31 31 32 32 33
REMARK SMILES IDX 33 34 94 35 34 36 93 37 35 38 36 39 37 40 87 41 38 42 92 43
REMARK SMILES IDX 86 44 88 45 39 46 91 47 85 48 84 49 40 51 72 52 52 53 71 54
REMARK SMILES IDX 53 55 56 56 70 57 89 58 54 59 55 60 69 62 90 63 57 64 41 65
REMARK SMILES IDX 42 66 50 67 43 68 49 69 51 70 48 71 44 72 45 73 46 74 47 75
REMARK SMILES IDX 73 76 74 77 82 78 75 79 81 80 83 81 80 82 76 83 77 84 78 85
REMARK SMILES IDX 79 86 58 87 59 88 67 89 60 90 66 91 68 92 65 93 61 94 62 95
REMARK SMILES IDX 63 96 64 97
REMARK H PARENT 15 9 88 50 56 61
REMARK Flexibility Score: inf
ROOT
ATOM      1  C   UNL A   1      31.320  28.646  24.389  1.00  0.00     0.274 C 
ENDROOT
BRANCH   1   2
ATOM      2  O   UNL A   1      30.320  27.673  24.760  1.00  0.00    -0.461 OA
BRANCH   2   3
ATOM      3  C   UNL A   1      30.729  26.786  25.712  1.00  0.00     0.329 C 
ATOM      4  O   UNL A   1      30.841  27.053  26.908  1.00  0.00    -0.250 OA
BRANCH   3   5
ATOM      5  C   UNL A   1      31.252  25.466  25.132  1.00  0.00     0.196 C 
BRANCH   5   6
ATOM      6  N   UNL A   1      31.117  24.310  26.024  1.00  0.00    -0.341 N 
ATOM      7  C   UNL A   1      32.037  23.682  26.826  1.00  0.00     0.243 C 
ATOM      8  O   UNL A   1      31.588  22.845  27.617  1.00  0.00    -0.273 OA
ATOM      9  H   UNL A   1      30.215  23.918  26.051  1.00  0.00     0.164 HD
BRANCH   7  10
ATOM     10  C   UNL A   1      33.579  23.994  26.732  1.00  0.00     0.178 C 
ATOM     11  N   UNL A   1      34.435  22.923  26.166  1.00  0.00    -0.296 N 
ATOM     12  C   UNL A   1      34.459  23.109  24.732  1.00  0.00     0.124 C 
ATOM     13  C   UNL A   1      34.635  24.603  24.594  1.00  0.00     0.024 C 
ATOM     14  C   UNL A   1      33.740  25.156  25.705  1.00  0.00     0.037 C 
BRANCH  11  15
ATOM     15  C   UNL A   1      34.310  21.631  26.651  1.00  0.00     0.410 C 
ATOM     16  O   UNL A   1      34.486  21.455  27.860  1.00  0.00    -0.224 OA
BRANCH  15  17
ATOM     17  O   UNL A   1      34.135  20.513  25.636  1.00  0.00    -0.444 OA
BRANCH  17  18
ATOM     18  C   UNL A   1      33.529  18.802  24.770  1.00  0.00     0.106 C 
ATOM     19  C   UNL A   1      34.631  17.720  24.175  1.00  0.00     0.056 C 
ATOM     20  C   UNL A   1      32.553  18.787  23.373  1.00  0.00     0.056 C 
ATOM     21  C   UNL A   1      32.604  17.700  25.641  1.00  0.00     0.056 C 
ENDBRANCH  17  18
ENDBRANCH  15  17
ENDBRANCH  11  15
ENDBRANCH   7  10
ENDBRANCH   5   6
BRANCH   5  22
ATOM     22  C   UNL A   1      30.556  25.259  23.759  1.00  0.00     0.072 C 
BRANCH  22  23
ATOM     23  C   UNL A   1      31.459  24.921  22.580  1.00  0.00    -0.045 A 
ATOM     24  C   UNL A   1      31.768  25.882  21.613  1.00  0.00     0.004 A 
ATOM     25  C   UNL A   1      32.004  23.632  22.429  1.00  0.00     0.004 A 
ATOM     26  C   UNL A   1      32.636  25.575  20.559  1.00  0.00     0.000 A 
ATOM     27  C   UNL A   1      32.910  23.340  21.411  1.00  0.00     0.000 A 
ATOM     28  C   UNL A   1      33.228  24.315  20.473  1.00  0.00     0.000 A 
ENDBRANCH  22  23
ENDBRANCH   5  22
ENDBRANCH   3   5
ENDBRANCH   2   3
ENDBRANCH   1   2
BRANCH   1  29
ATOM     29  C   UNL A   1      31.054  29.988  25.059  1.00  0.00     0.275 C 
BRANCH  29  30
ATOM     30  O   UNL A   1      32.308  30.556  25.451  1.00  0.00    -0.458 OA
BRANCH  30  31
ATOM     31  C   UNL A   1      32.254  31.277  26.588  1.00  0.00     0.338 C 
ATOM     32  O   UNL A   1      31.301  31.901  27.018  1.00  0.00    -0.246 OA
BRANCH  31  33
ATOM     33  C   UNL A   1      33.561  31.200  27.259  1.00  0.00     0.060 A 
ATOM     34  C   UNL A   1      34.568  32.661  27.658  1.00  0.00     0.016 A 
ATOM     35  C   UNL A   1      34.272  29.532  27.483  1.00  0.00     0.016 A 
ATOM     36  C   UNL A   1      36.245  32.455  28.342  1.00  0.00     0.010 A 
ATOM     37  C   UNL A   1      35.927  29.350  28.192  1.00  0.00     0.010 A 
ATOM     38  C   UNL A   1      36.939  30.806  28.634  1.00  0.00    -0.014 A 
BRANCH  38  39
ATOM     39  C   UNL A   1      38.273  30.605  29.395  1.00  0.00     0.031 A 
ATOM     40  C   UNL A   1      39.301  29.592  28.907  1.00  0.00     0.074 A 
ATOM     41  C   UNL A   1      38.529  31.163  30.609  1.00  0.00     0.049 A 
ATOM     42  N   UNL A   1      40.308  29.019  29.530  1.00  0.00    -0.248 NA
ATOM     43  C   UNL A   1      39.159  29.150  27.523  1.00  0.00     0.031 C 
ATOM     44  C   UNL A   1      37.703  32.138  31.322  1.00  0.00     0.029 A 
ATOM     45  N   UNL A   1      39.540  30.904  31.526  1.00  0.00    -0.354 N 
ATOM     46  C   UNL A   1      40.881  28.131  28.614  1.00  0.00     0.074 A 
ATOM     47  C   UNL A   1      40.069  28.197  27.421  1.00  0.00     0.031 C 
ATOM     48  C   UNL A   1      38.190  32.355  32.549  1.00  0.00     0.029 A 
ATOM     49  C   UNL A   1      39.348  31.505  32.756  1.00  0.00     0.049 A 
ATOM     50  H   UNL A   1      40.323  30.345  31.317  1.00  0.00     0.167 HD
ATOM     51  C   UNL A   1      41.988  27.348  28.718  1.00  0.00     0.034 A 
ATOM     52  C   UNL A   1      39.968  31.375  33.949  1.00  0.00     0.034 A 
ATOM     53  C   UNL A   1      42.833  27.276  29.883  1.00  0.00     0.049 A 
ATOM     54  C   UNL A   1      41.148  30.458  34.091  1.00  0.00     0.074 A 
ATOM     55  C   UNL A   1      44.001  26.551  30.062  1.00  0.00     0.029 A 
ATOM     56  N   UNL A   1      42.601  27.948  31.072  1.00  0.00    -0.354 N 
ATOM     57  N   UNL A   1      41.673  29.649  33.205  1.00  0.00    -0.248 NA
ATOM     58  C   UNL A   1      41.830  30.453  35.394  1.00  0.00     0.031 C 
ATOM     59  C   UNL A   1      44.445  26.742  31.376  1.00  0.00     0.029 A 
ATOM     60  C   UNL A   1      43.588  27.636  31.996  1.00  0.00     0.049 A 
ATOM     61  H   UNL A   1      41.846  28.557  31.238  1.00  0.00     0.167 HD
ATOM     62  C   UNL A   1      42.774  29.072  33.830  1.00  0.00     0.074 A 
ATOM     63  C   UNL A   1      42.836  29.622  35.167  1.00  0.00     0.031 C 
ATOM     64  C   UNL A   1      43.659  28.176  33.329  1.00  0.00     0.034 A 
BRANCH  51  65
ATOM     65  C   UNL A   1      42.335  26.480  27.526  1.00  0.00     0.023 A 
ATOM     66  C   UNL A   1      41.858  25.161  27.412  1.00  0.00     0.031 A 
ATOM     67  C   UNL A   1      43.189  26.957  26.515  1.00  0.00     0.131 A 
ATOM     68  C   UNL A   1      42.314  24.337  26.373  1.00  0.00     0.055 A 
ATOM     69  C   UNL A   1      43.569  26.159  25.432  1.00  0.00     0.041 A 
ATOM     70  F   UNL A   1      43.687  28.202  26.572  1.00  0.00    -0.206 F 
ATOM     71  C   UNL A   1      43.148  24.833  25.368  1.00  0.00     0.022 A 
BRANCH  68  72
ATOM     72  S   UNL A   1      41.936  22.565  26.451  1.00  0.00     0.124 S 
ATOM     73  O   UNL A   1      40.480  22.570  26.317  1.00  0.00    -0.237 OA
ATOM     74  O   UNL A   1      42.679  22.033  25.315  1.00  0.00    -0.237 OA
ATOM     75  O   UNL A   1      42.432  22.166  27.767  1.00  0.00    -0.744 OA
ENDBRANCH  68  72
ENDBRANCH  51  65
BRANCH  52  76
ATOM     76  C   UNL A   1      39.456  32.118  35.142  1.00  0.00     0.023 A 
ATOM     77  C   UNL A   1      39.858  33.438  35.398  1.00  0.00     0.031 A 
ATOM     78  C   UNL A   1      38.578  31.505  36.054  1.00  0.00     0.131 A 
ATOM     79  C   UNL A   1      39.410  34.093  36.557  1.00  0.00     0.055 A 
ATOM     80  C   UNL A   1      38.099  32.176  37.182  1.00  0.00     0.041 A 
ATOM     81  F   UNL A   1      38.156  30.247  35.849  1.00  0.00    -0.206 F 
ATOM     82  C   UNL A   1      38.524  33.476  37.444  1.00  0.00     0.022 A 
BRANCH  79  83
ATOM     83  S   UNL A   1      40.053  35.750  36.921  1.00  0.00     0.124 S 
ATOM     84  O   UNL A   1      39.357  36.074  38.160  1.00  0.00    -0.237 OA
ATOM     85  O   UNL A   1      41.485  35.498  37.034  1.00  0.00    -0.237 OA
ATOM     86  O   UNL A   1      39.652  36.534  35.754  1.00  0.00    -0.744 OA
ENDBRANCH  79  83
ENDBRANCH  52  76
BRANCH  64  87
ATOM     87  C   UNL A   1      44.816  27.788  34.210  1.00  0.00     0.023 A 
ATOM     88  C   UNL A   1      46.018  28.515  34.216  1.00  0.00     0.031 A 
ATOM     89  C   UNL A   1      44.723  26.652  35.034  1.00  0.00     0.131 A 
ATOM     90  C   UNL A   1      47.100  28.068  34.991  1.00  0.00     0.055 A 
ATOM     91  C   UNL A   1      45.783  26.242  35.842  1.00  0.00     0.041 A 
ATOM     92  F   UNL A   1      43.597  25.920  35.061  1.00  0.00    -0.206 F 
ATOM     93  C   UNL A   1      46.985  26.944  35.814  1.00  0.00     0.022 A 
BRANCH  90  94
ATOM     94  S   UNL A   1      48.691  28.925  34.844  1.00  0.00     0.124 S 
ATOM     95  O   UNL A   1      48.394  30.220  35.448  1.00  0.00    -0.237 OA
ATOM     96  O   UNL A   1      49.585  28.056  35.604  1.00  0.00    -0.237 OA
ATOM     97  O   UNL A   1      48.934  28.955  33.403  1.00  0.00    -0.744 OA
ENDBRANCH  90  94
ENDBRANCH  64  87
ENDBRANCH  38  39
ENDBRANCH  31  33
ENDBRANCH  30  31
ENDBRANCH  29  30
ENDBRANCH   1  29
TORSDOF 21
ENDMDL
