MODEL 1
REMARK VINA RESULT:     -11.6      0.000      0.000
REMARK SMILES CC(C)(C)OC(=O)N[C@@H](Cc1c[nH]c2cccc(Cl)c12)C(=O)OCCOC(=O)c1ccc(-c2c3nc(c(-c4cc(S(=O)(=O)[O-])ccc4F)c4ccc([nH]4)c(-c4cc(S(=O)(=O)[O-])ccc4F)c4nc(c(-c5cc(S(=O)(=O)[O-])ccc5F)c5ccc2[nH]5)C=C4)C=C3)cc1
REMARK SMILES IDX 24 1 23 2 21 3 22 4 9 5 8 6 6 7 7 8 5 10 2 11 1 12 3 13 4 14
REMARK SMILES IDX 10 15 11 16 12 17 20 18 13 19 14 20 18 21 15 23 17 24 19 25
REMARK SMILES IDX 16 26 25 27 26 28 27 29 28 30 29 31 30 32 91 33 31 34 90 35
REMARK SMILES IDX 32 36 33 37 34 38 84 39 35 40 89 41 83 42 85 43 36 44 88 45
REMARK SMILES IDX 82 46 81 47 37 49 69 50 49 51 68 52 50 53 53 54 67 55 86 56
REMARK SMILES IDX 51 57 52 58 66 60 87 61 54 62 38 63 39 64 47 65 40 66 46 67
REMARK SMILES IDX 48 68 45 69 41 70 42 71 43 72 44 73 70 74 71 75 79 76 72 77
REMARK SMILES IDX 78 78 80 79 77 80 73 81 74 82 75 83 76 84 55 85 56 86 64 87
REMARK SMILES IDX 57 88 63 89 65 90 62 91 58 92 59 93 60 94 61 95
REMARK H PARENT 8 9 13 22 85 48 53 59
REMARK Flexibility Score: inf
ROOT
ATOM      1  C   UNL A   1      33.559  29.191  27.253  1.00  0.00     0.274 C 
ENDROOT
BRANCH   1   2
ATOM      2  O   UNL A   1      32.444  28.893  26.391  1.00  0.00    -0.461 OA
BRANCH   2   3
ATOM      3  C   UNL A   1      31.771  27.725  26.624  1.00  0.00     0.329 C 
ATOM      4  O   UNL A   1      31.013  27.545  27.573  1.00  0.00    -0.250 OA
BRANCH   3   5
ATOM      5  C   UNL A   1      32.213  26.594  25.674  1.00  0.00     0.200 C 
BRANCH   5   6
ATOM      6  N   UNL A   1      32.553  25.342  26.355  1.00  0.00    -0.308 N 
ATOM      7  C   UNL A   1      33.431  24.366  25.988  1.00  0.00     0.408 C 
ATOM      8  O   UNL A   1      33.519  23.335  26.649  1.00  0.00    -0.225 OA
ATOM      9  H   UNL A   1      32.076  25.183  27.201  1.00  0.00     0.168 HD
BRANCH   7  10
ATOM     10  O   UNL A   1      34.146  24.644  24.870  1.00  0.00    -0.444 OA
BRANCH  10  11
ATOM     11  C   UNL A   1      33.849  23.959  23.611  1.00  0.00     0.106 C 
ATOM     12  C   UNL A   1      35.093  23.104  23.313  1.00  0.00     0.056 C 
ATOM     13  C   UNL A   1      33.672  24.978  22.481  1.00  0.00     0.056 C 
ATOM     14  C   UNL A   1      32.633  23.025  23.683  1.00  0.00     0.056 C 
ENDBRANCH  10  11
ENDBRANCH   7  10
ENDBRANCH   5   6
BRANCH   5  15
ATOM     15  C   UNL A   1      31.054  26.399  24.667  1.00  0.00     0.075 C 
BRANCH  15  16
ATOM     16  C   UNL A   1      30.976  27.502  23.633  1.00  0.00    -0.018 A 
ATOM     17  C   UNL A   1      32.083  28.117  23.070  1.00  0.00     0.087 A 
ATOM     18  C   UNL A   1      29.814  28.196  23.130  1.00  0.00     0.021 A 
ATOM     19  N   UNL A   1      31.662  29.198  22.353  1.00  0.00    -0.361 N 
ATOM     20  C   UNL A   1      30.291  29.281  22.381  1.00  0.00     0.047 A 
ATOM     21  C   UNL A   1      28.408  28.084  23.244  1.00  0.00     0.050 A 
ATOM     22  H   UNL A   1      32.255  29.829  21.883  1.00  0.00     0.166 HD
ATOM     23  C   UNL A   1      29.452  30.246  21.804  1.00  0.00     0.027 A 
ATOM     24  C   UNL A   1      27.551  29.035  22.685  1.00  0.00     0.021 A 
ATOM     25  Cl  UNL A   1      27.757  26.709  24.021  1.00  0.00    -0.084 Cl
ATOM     26  C   UNL A   1      28.074  30.111  21.978  1.00  0.00     0.004 A 
ENDBRANCH  15  16
ENDBRANCH   5  15
ENDBRANCH   3   5
ENDBRANCH   2   3
ENDBRANCH   1   2
BRANCH   1  27
ATOM     27  C   UNL A   1      33.899  30.676  27.215  1.00  0.00     0.275 C 
BRANCH  27  28
ATOM     28  O   UNL A   1      35.296  30.870  27.422  1.00  0.00    -0.458 OA
BRANCH  28  29
ATOM     29  C   UNL A   1      35.549  31.775  28.392  1.00  0.00     0.338 C 
ATOM     30  O   UNL A   1      35.221  32.951  28.408  1.00  0.00    -0.246 OA
BRANCH  29  31
ATOM     31  C   UNL A   1      36.451  31.226  29.392  1.00  0.00     0.060 A 
ATOM     32  C   UNL A   1      37.657  31.908  29.544  1.00  0.00     0.016 A 
ATOM     33  C   UNL A   1      36.307  29.862  29.665  1.00  0.00     0.016 A 
ATOM     34  C   UNL A   1      38.793  31.154  29.695  1.00  0.00     0.010 A 
ATOM     35  C   UNL A   1      37.448  29.112  29.794  1.00  0.00     0.010 A 
ATOM     36  C   UNL A   1      38.675  29.761  29.698  1.00  0.00    -0.014 A 
BRANCH  36  37
ATOM     37  C   UNL A   1      39.905  29.005  29.699  1.00  0.00     0.031 A 
ATOM     38  C   UNL A   1      40.328  28.655  31.069  1.00  0.00     0.074 A 
ATOM     39  C   UNL A   1      40.534  28.629  28.573  1.00  0.00     0.049 A 
ATOM     40  N   UNL A   1      41.335  29.127  31.726  1.00  0.00    -0.248 NA
ATOM     41  C   UNL A   1      39.382  27.873  31.879  1.00  0.00     0.031 C 
ATOM     42  C   UNL A   1      40.067  28.701  27.187  1.00  0.00     0.029 A 
ATOM     43  N   UNL A   1      41.725  27.991  28.456  1.00  0.00    -0.354 N 
ATOM     44  C   UNL A   1      41.260  28.536  32.979  1.00  0.00     0.074 A 
ATOM     45  C   UNL A   1      39.944  27.958  33.083  1.00  0.00     0.031 C 
ATOM     46  C   UNL A   1      40.845  27.900  26.418  1.00  0.00     0.029 A 
ATOM     47  C   UNL A   1      41.932  27.379  27.230  1.00  0.00     0.049 A 
ATOM     48  H   UNL A   1      42.388  27.965  29.183  1.00  0.00     0.167 HD
ATOM     49  C   UNL A   1      42.364  28.347  33.752  1.00  0.00     0.034 A 
ATOM     50  C   UNL A   1      42.865  26.425  26.974  1.00  0.00     0.034 A 
ATOM     51  C   UNL A   1      43.475  29.127  33.286  1.00  0.00     0.049 A 
ATOM     52  C   UNL A   1      43.883  26.495  28.056  1.00  0.00     0.074 A 
ATOM     53  C   UNL A   1      43.728  30.481  33.185  1.00  0.00     0.029 A 
ATOM     54  N   UNL A   1      44.378  28.504  32.457  1.00  0.00    -0.354 N 
ATOM     55  N   UNL A   1      44.715  27.488  28.204  1.00  0.00    -0.248 NA
ATOM     56  C   UNL A   1      43.656  25.687  29.249  1.00  0.00     0.031 C 
ATOM     57  C   UNL A   1      44.458  30.633  31.974  1.00  0.00     0.029 A 
ATOM     58  C   UNL A   1      44.664  29.364  31.427  1.00  0.00     0.049 A 
ATOM     59  H   UNL A   1      44.752  27.603  32.581  1.00  0.00     0.167 HD
ATOM     60  C   UNL A   1      44.762  27.701  29.573  1.00  0.00     0.074 A 
ATOM     61  C   UNL A   1      44.161  26.511  30.171  1.00  0.00     0.031 C 
ATOM     62  C   UNL A   1      45.004  28.943  30.085  1.00  0.00     0.034 A 
BRANCH  49  63
ATOM     63  C   UNL A   1      42.505  27.188  34.695  1.00  0.00     0.023 A 
ATOM     64  C   UNL A   1      43.262  26.044  34.370  1.00  0.00     0.031 A 
ATOM     65  C   UNL A   1      42.073  27.286  36.027  1.00  0.00     0.131 A 
ATOM     66  C   UNL A   1      43.523  25.042  35.307  1.00  0.00     0.055 A 
ATOM     67  C   UNL A   1      42.395  26.319  36.987  1.00  0.00     0.041 A 
ATOM     68  F   UNL A   1      41.370  28.350  36.447  1.00  0.00    -0.206 F 
ATOM     69  C   UNL A   1      43.119  25.186  36.629  1.00  0.00     0.022 A 
BRANCH  66  70
ATOM     70  S   UNL A   1      44.419  23.545  34.812  1.00  0.00     0.124 S 
ATOM     71  O   UNL A   1      43.381  22.787  34.125  1.00  0.00    -0.237 OA
ATOM     72  O   UNL A   1      45.470  24.099  33.962  1.00  0.00    -0.237 OA
ATOM     73  O   UNL A   1      44.881  22.987  36.080  1.00  0.00    -0.744 OA
ENDBRANCH  66  70
ENDBRANCH  49  63
BRANCH  50  74
ATOM     74  C   UNL A   1      42.638  25.168  26.217  1.00  0.00     0.023 A 
ATOM     75  C   UNL A   1      41.637  24.268  26.627  1.00  0.00     0.031 A 
ATOM     76  C   UNL A   1      43.602  24.689  25.312  1.00  0.00     0.131 A 
ATOM     77  C   UNL A   1      41.661  22.933  26.205  1.00  0.00     0.055 A 
ATOM     78  C   UNL A   1      43.615  23.358  24.878  1.00  0.00     0.041 A 
ATOM     79  F   UNL A   1      44.600  25.484  24.897  1.00  0.00    -0.206 F 
ATOM     80  C   UNL A   1      42.651  22.467  25.338  1.00  0.00     0.022 A 
BRANCH  77  81
ATOM     81  S   UNL A   1      40.433  21.763  26.850  1.00  0.00     0.124 S 
ATOM     82  O   UNL A   1      40.780  21.692  28.268  1.00  0.00    -0.237 OA
ATOM     83  O   UNL A   1      39.182  22.444  26.541  1.00  0.00    -0.237 OA
ATOM     84  O   UNL A   1      40.699  20.543  26.093  1.00  0.00    -0.744 OA
ENDBRANCH  77  81
ENDBRANCH  50  74
BRANCH  62  85
ATOM     85  C   UNL A   1      45.435  30.039  29.139  1.00  0.00     0.023 A 
ATOM     86  C   UNL A   1      46.799  30.362  29.121  1.00  0.00     0.031 A 
ATOM     87  C   UNL A   1      44.549  30.900  28.464  1.00  0.00     0.131 A 
ATOM     88  C   UNL A   1      47.239  31.529  28.487  1.00  0.00     0.055 A 
ATOM     89  C   UNL A   1      44.998  32.033  27.778  1.00  0.00     0.041 A 
ATOM     90  F   UNL A   1      43.223  30.722  28.521  1.00  0.00    -0.206 F 
ATOM     91  C   UNL A   1      46.350  32.362  27.802  1.00  0.00     0.022 A 
BRANCH  88  92
ATOM     92  S   UNL A   1      48.960  32.058  28.660  1.00  0.00     0.124 S 
ATOM     93  O   UNL A   1      49.398  31.311  29.835  1.00  0.00    -0.237 OA
ATOM     94  O   UNL A   1      49.542  31.629  27.390  1.00  0.00    -0.237 OA
ATOM     95  O   UNL A   1      48.869  33.505  28.840  1.00  0.00    -0.744 OA
ENDBRANCH  88  92
ENDBRANCH  62  85
ENDBRANCH  36  37
ENDBRANCH  29  31
ENDBRANCH  28  29
ENDBRANCH  27  28
ENDBRANCH   1  27
TORSDOF 19
ENDMDL
MODEL 2
REMARK VINA RESULT:     -11.5      3.478      8.019
REMARK SMILES CC(C)(C)OC(=O)N[C@@H](Cc1c[nH]c2cccc(Cl)c12)C(=O)OCCOC(=O)c1ccc(-c2c3nc(c(-c4cc(S(=O)(=O)[O-])ccc4F)c4ccc([nH]4)c(-c4cc(S(=O)(=O)[O-])ccc4F)c4nc(c(-c5cc(S(=O)(=O)[O-])ccc5F)c5ccc2[nH]5)C=C4)C=C3)cc1
REMARK SMILES IDX 24 1 23 2 21 3 22 4 9 5 8 6 6 7 7 8 5 10 2 11 1 12 3 13 4 14
REMARK SMILES IDX 10 15 11 16 12 17 20 18 13 19 14 20 18 21 15 23 17 24 19 25
REMARK SMILES IDX 16 26 25 27 26 28 27 29 28 30 29 31 30 32 91 33 31 34 90 35
REMARK SMILES IDX 32 36 33 37 34 38 84 39 35 40 89 41 83 42 85 43 36 44 88 45
REMARK SMILES IDX 82 46 81 47 37 49 69 50 49 51 68 52 50 53 53 54 67 55 86 56
REMARK SMILES IDX 51 57 52 58 66 60 87 61 54 62 38 63 39 64 47 65 40 66 46 67
REMARK SMILES IDX 48 68 45 69 41 70 42 71 43 72 44 73 70 74 71 75 79 76 72 77
REMARK SMILES IDX 78 78 80 79 77 80 73 81 74 82 75 83 76 84 55 85 56 86 64 87
REMARK SMILES IDX 57 88 63 89 65 90 62 91 58 92 59 93 60 94 61 95
REMARK H PARENT 8 9 13 22 85 48 53 59
REMARK Flexibility Score: inf
ROOT
ATOM      1  C   UNL A   1      37.089  22.893  25.590  1.00  0.00     0.274 C 
ENDROOT
BRANCH   1   2
ATOM      2  O   UNL A   1      36.235  22.141  24.707  1.00  0.00    -0.461 OA
BRANCH   2   3
ATOM      3  C   UNL A   1      35.706  22.807  23.636  1.00  0.00     0.329 C 
ATOM      4  O   UNL A   1      36.321  23.043  22.600  1.00  0.00    -0.250 OA
BRANCH   3   5
ATOM      5  C   UNL A   1      34.315  23.399  23.941  1.00  0.00     0.200 C 
BRANCH   5   6
ATOM      6  N   UNL A   1      34.064  24.694  23.304  1.00  0.00    -0.308 N 
ATOM      7  C   UNL A   1      33.315  25.746  23.741  1.00  0.00     0.408 C 
ATOM      8  O   UNL A   1      33.149  26.726  23.022  1.00  0.00    -0.225 OA
ATOM      9  H   UNL A   1      34.501  24.822  22.431  1.00  0.00     0.168 HD
BRANCH   7  10
ATOM     10  O   UNL A   1      32.797  25.587  24.984  1.00  0.00    -0.444 OA
BRANCH  10  11
ATOM     11  C   UNL A   1      31.373  25.304  25.164  1.00  0.00     0.106 C 
ATOM     12  C   UNL A   1      30.744  26.642  25.591  1.00  0.00     0.056 C 
ATOM     13  C   UNL A   1      31.171  24.286  26.290  1.00  0.00     0.056 C 
ATOM     14  C   UNL A   1      30.667  24.832  23.884  1.00  0.00     0.056 C 
ENDBRANCH  10  11
ENDBRANCH   7  10
ENDBRANCH   5   6
BRANCH   5  15
ATOM     15  C   UNL A   1      33.285  22.334  23.492  1.00  0.00     0.075 C 
BRANCH  15  16
ATOM     16  C   UNL A   1      33.079  21.240  24.518  1.00  0.00    -0.018 A 
ATOM     17  C   UNL A   1      33.253  21.413  25.883  1.00  0.00     0.087 A 
ATOM     18  C   UNL A   1      32.794  19.840  24.309  1.00  0.00     0.021 A 
ATOM     19  N   UNL A   1      33.200  20.192  26.486  1.00  0.00    -0.361 N 
ATOM     20  C   UNL A   1      32.936  19.214  25.557  1.00  0.00     0.047 A 
ATOM     21  C   UNL A   1      32.479  18.995  23.219  1.00  0.00     0.050 A 
ATOM     22  H   UNL A   1      33.332  20.032  27.449  1.00  0.00     0.166 HD
ATOM     23  C   UNL A   1      32.825  17.828  25.739  1.00  0.00     0.027 A 
ATOM     24  C   UNL A   1      32.371  17.611  23.373  1.00  0.00     0.021 A 
ATOM     25  Cl  UNL A   1      32.152  19.708  21.701  1.00  0.00    -0.084 Cl
ATOM     26  C   UNL A   1      32.551  17.035  24.624  1.00  0.00     0.004 A 
ENDBRANCH  15  16
ENDBRANCH   5  15
ENDBRANCH   3   5
ENDBRANCH   2   3
ENDBRANCH   1   2
BRANCH   1  27
ATOM     27  C   UNL A   1      38.194  22.013  26.163  1.00  0.00     0.275 C 
BRANCH  27  28
ATOM     28  O   UNL A   1      38.900  21.356  25.113  1.00  0.00    -0.458 OA
BRANCH  28  29
ATOM     29  C   UNL A   1      39.682  20.354  25.570  1.00  0.00     0.338 C 
ATOM     30  O   UNL A   1      39.419  19.162  25.588  1.00  0.00    -0.246 OA
BRANCH  29  31
ATOM     31  C   UNL A   1      40.861  20.880  26.238  1.00  0.00     0.060 A 
ATOM     32  C   UNL A   1      40.865  20.756  27.626  1.00  0.00     0.016 A 
ATOM     33  C   UNL A   1      41.549  21.892  25.561  1.00  0.00     0.016 A 
ATOM     34  C   UNL A   1      41.325  21.824  28.354  1.00  0.00     0.010 A 
ATOM     35  C   UNL A   1      41.987  22.967  26.294  1.00  0.00     0.010 A 
ATOM     36  C   UNL A   1      41.768  22.958  27.667  1.00  0.00    -0.014 A 
BRANCH  36  37
ATOM     37  C   UNL A   1      42.093  24.116  28.467  1.00  0.00     0.031 A 
ATOM     38  C   UNL A   1      41.117  25.206  28.270  1.00  0.00     0.074 A 
ATOM     39  C   UNL A   1      43.129  24.148  29.321  1.00  0.00     0.049 A 
ATOM     40  N   UNL A   1      41.306  26.332  27.666  1.00  0.00    -0.248 NA
ATOM     41  C   UNL A   1      39.709  24.901  28.569  1.00  0.00     0.031 C 
ATOM     42  C   UNL A   1      43.987  23.050  29.774  1.00  0.00     0.029 A 
ATOM     43  N   UNL A   1      43.572  25.197  30.057  1.00  0.00    -0.354 N 
ATOM     44  C   UNL A   1      40.073  26.968  27.691  1.00  0.00     0.074 A 
ATOM     45  C   UNL A   1      39.101  25.969  28.055  1.00  0.00     0.031 C 
ATOM     46  C   UNL A   1      44.657  23.444  30.883  1.00  0.00     0.029 A 
ATOM     47  C   UNL A   1      44.379  24.849  31.128  1.00  0.00     0.049 A 
ATOM     48  H   UNL A   1      43.339  26.130  29.847  1.00  0.00     0.167 HD
ATOM     49  C   UNL A   1      39.964  28.324  27.651  1.00  0.00     0.034 A 
ATOM     50  C   UNL A   1      44.674  25.651  32.184  1.00  0.00     0.034 A 
ATOM     51  C   UNL A   1      41.190  28.941  27.230  1.00  0.00     0.049 A 
ATOM     52  C   UNL A   1      44.385  27.052  31.776  1.00  0.00     0.074 A 
ATOM     53  C   UNL A   1      41.925  28.926  26.061  1.00  0.00     0.029 A 
ATOM     54  N   UNL A   1      42.040  29.389  28.213  1.00  0.00    -0.354 N 
ATOM     55  N   UNL A   1      45.082  27.705  30.888  1.00  0.00    -0.248 NA
ATOM     56  C   UNL A   1      43.038  27.557  32.008  1.00  0.00     0.031 C 
ATOM     57  C   UNL A   1      43.285  28.931  26.478  1.00  0.00     0.029 A 
ATOM     58  C   UNL A   1      43.313  29.007  27.873  1.00  0.00     0.049 A 
ATOM     59  H   UNL A   1      41.781  29.892  29.018  1.00  0.00     0.167 HD
ATOM     60  C   UNL A   1      44.136  28.396  30.144  1.00  0.00     0.074 A 
ATOM     61  C   UNL A   1      42.906  28.337  30.932  1.00  0.00     0.031 C 
ATOM     62  C   UNL A   1      44.352  28.690  28.829  1.00  0.00     0.034 A 
BRANCH  49  63
ATOM     63  C   UNL A   1      38.857  29.069  28.338  1.00  0.00     0.023 A 
ATOM     64  C   UNL A   1      38.767  29.153  29.741  1.00  0.00     0.031 A 
ATOM     65  C   UNL A   1      37.989  29.900  27.611  1.00  0.00     0.131 A 
ATOM     66  C   UNL A   1      37.832  29.977  30.373  1.00  0.00     0.055 A 
ATOM     67  C   UNL A   1      37.101  30.781  28.241  1.00  0.00     0.041 A 
ATOM     68  F   UNL A   1      38.015  29.918  26.269  1.00  0.00    -0.206 F 
ATOM     69  C   UNL A   1      37.014  30.819  29.629  1.00  0.00     0.022 A 
BRANCH  66  70
ATOM     70  S   UNL A   1      37.692  29.974  32.181  1.00  0.00     0.124 S 
ATOM     71  O   UNL A   1      37.276  28.602  32.448  1.00  0.00    -0.237 OA
ATOM     72  O   UNL A   1      39.054  30.316  32.582  1.00  0.00    -0.237 OA
ATOM     73  O   UNL A   1      36.692  31.005  32.448  1.00  0.00    -0.744 OA
ENDBRANCH  66  70
ENDBRANCH  49  63
BRANCH  50  74
ATOM     74  C   UNL A   1      44.649  25.250  33.614  1.00  0.00     0.023 A 
ATOM     75  C   UNL A   1      43.501  25.484  34.393  1.00  0.00     0.031 A 
ATOM     76  C   UNL A   1      45.841  24.954  34.299  1.00  0.00     0.131 A 
ATOM     77  C   UNL A   1      43.576  25.496  35.791  1.00  0.00     0.055 A 
ATOM     78  C   UNL A   1      45.912  24.950  35.698  1.00  0.00     0.041 A 
ATOM     79  F   UNL A   1      46.981  24.745  33.623  1.00  0.00    -0.206 F 
ATOM     80  C   UNL A   1      44.779  25.239  36.452  1.00  0.00     0.022 A 
BRANCH  77  81
ATOM     81  S   UNL A   1      42.109  25.926  36.768  1.00  0.00     0.124 S 
ATOM     82  O   UNL A   1      41.415  26.871  35.896  1.00  0.00    -0.237 OA
ATOM     83  O   UNL A   1      41.466  24.627  36.927  1.00  0.00    -0.237 OA
ATOM     84  O   UNL A   1      42.672  26.512  37.982  1.00  0.00    -0.744 OA
ENDBRANCH  77  81
ENDBRANCH  50  74
BRANCH  62  85
ATOM     85  C   UNL A   1      45.725  28.442  28.254  1.00  0.00     0.023 A 
ATOM     86  C   UNL A   1      45.992  27.150  27.778  1.00  0.00     0.031 A 
ATOM     87  C   UNL A   1      46.810  29.332  28.375  1.00  0.00     0.131 A 
ATOM     88  C   UNL A   1      47.304  26.764  27.484  1.00  0.00     0.055 A 
ATOM     89  C   UNL A   1      48.112  28.964  28.020  1.00  0.00     0.041 A 
ATOM     90  F   UNL A   1      46.659  30.546  28.917  1.00  0.00    -0.206 F 
ATOM     91  C   UNL A   1      48.367  27.666  27.588  1.00  0.00     0.022 A 
BRANCH  88  92
ATOM     92  S   UNL A   1      47.672  25.037  27.092  1.00  0.00     0.124 S 
ATOM     93  O   UNL A   1      46.482  24.347  27.582  1.00  0.00    -0.237 OA
ATOM     94  O   UNL A   1      47.820  25.077  25.638  1.00  0.00    -0.237 OA
ATOM     95  O   UNL A   1      48.901  24.760  27.830  1.00  0.00    -0.744 OA
ENDBRANCH  88  92
ENDBRANCH  62  85
ENDBRANCH  36  37
ENDBRANCH  29  31
ENDBRANCH  28  29
ENDBRANCH  27  28
ENDBRANCH   1  27
TORSDOF 19
ENDMDL
MODEL 3
REMARK VINA RESULT:     -11.2      1.769      2.119
REMARK SMILES CC(C)(C)OC(=O)N[C@@H](Cc1c[nH]c2cccc(Cl)c12)C(=O)OCCOC(=O)c1ccc(-c2c3nc(c(-c4cc(S(=O)(=O)[O-])ccc4F)c4ccc([nH]4)c(-c4cc(S(=O)(=O)[O-])ccc4F)c4nc(c(-c5cc(S(=O)(=O)[O-])ccc5F)c5ccc2[nH]5)C=C4)C=C3)cc1
REMARK SMILES IDX 24 1 23 2 21 3 22 4 9 5 8 6 6 7 7 8 5 10 2 11 1 12 3 13 4 14
REMARK SMILES IDX 10 15 11 16 12 17 20 18 13 19 14 20 18 21 15 23 17 24 19 25
REMARK SMILES IDX 16 26 25 27 26 28 27 29 28 30 29 31 30 32 91 33 31 34 90 35
REMARK SMILES IDX 32 36 33 37 34 38 84 39 35 40 89 41 83 42 85 43 36 44 88 45
REMARK SMILES IDX 82 46 81 47 37 49 69 50 49 51 68 52 50 53 53 54 67 55 86 56
REMARK SMILES IDX 51 57 52 58 66 60 87 61 54 62 38 63 39 64 47 65 40 66 46 67
REMARK SMILES IDX 48 68 45 69 41 70 42 71 43 72 44 73 70 74 71 75 79 76 72 77
REMARK SMILES IDX 78 78 80 79 77 80 73 81 74 82 75 83 76 84 55 85 56 86 64 87
REMARK SMILES IDX 57 88 63 89 65 90 62 91 58 92 59 93 60 94 61 95
REMARK H PARENT 8 9 13 22 85 48 53 59
REMARK Flexibility Score: inf
ROOT
ATOM      1  C   UNL A   1      33.763  28.727  27.335  1.00  0.00     0.274 C 
ENDROOT
BRANCH   1   2
ATOM      2  O   UNL A   1      32.993  28.146  26.266  1.00  0.00    -0.461 OA
BRANCH   2   3
ATOM      3  C   UNL A   1      31.941  27.346  26.618  1.00  0.00     0.329 C 
ATOM      4  O   UNL A   1      31.056  27.680  27.401  1.00  0.00    -0.250 OA
BRANCH   3   5
ATOM      5  C   UNL A   1      32.088  25.910  26.077  1.00  0.00     0.200 C 
BRANCH   5   6
ATOM      6  N   UNL A   1      31.268  24.920  26.780  1.00  0.00    -0.308 N 
ATOM      7  C   UNL A   1      31.244  23.563  26.650  1.00  0.00     0.408 C 
ATOM      8  O   UNL A   1      30.418  22.899  27.269  1.00  0.00    -0.225 OA
ATOM      9  H   UNL A   1      30.643  25.290  27.444  1.00  0.00     0.168 HD
BRANCH   7  10
ATOM     10  O   UNL A   1      32.174  23.064  25.799  1.00  0.00    -0.444 OA
BRANCH  10  11
ATOM     11  C   UNL A   1      33.328  22.325  26.312  1.00  0.00     0.106 C 
ATOM     12  C   UNL A   1      34.540  22.886  25.547  1.00  0.00     0.056 C 
ATOM     13  C   UNL A   1      33.191  20.835  25.991  1.00  0.00     0.056 C 
ATOM     14  C   UNL A   1      33.577  22.527  27.815  1.00  0.00     0.056 C 
ENDBRANCH  10  11
ENDBRANCH   7  10
ENDBRANCH   5   6
BRANCH   5  15
ATOM     15  C   UNL A   1      31.734  25.978  24.572  1.00  0.00     0.075 C 
BRANCH  15  16
ATOM     16  C   UNL A   1      30.347  26.528  24.314  1.00  0.00    -0.018 A 
ATOM     17  C   UNL A   1      29.175  25.863  24.639  1.00  0.00     0.087 A 
ATOM     18  C   UNL A   1      29.963  27.729  23.609  1.00  0.00     0.021 A 
ATOM     19  N   UNL A   1      28.127  26.531  24.079  1.00  0.00    -0.361 N 
ATOM     20  C   UNL A   1      28.573  27.661  23.436  1.00  0.00     0.047 A 
ATOM     21  C   UNL A   1      30.609  28.854  23.044  1.00  0.00     0.050 A 
ATOM     22  H   UNL A   1      27.185  26.246  24.128  1.00  0.00     0.166 HD
ATOM     23  C   UNL A   1      27.840  28.612  22.710  1.00  0.00     0.027 A 
ATOM     24  C   UNL A   1      29.904  29.810  22.311  1.00  0.00     0.021 A 
ATOM     25  Cl  UNL A   1      32.278  29.071  23.340  1.00  0.00    -0.084 Cl
ATOM     26  C   UNL A   1      28.531  29.682  22.141  1.00  0.00     0.004 A 
ENDBRANCH  15  16
ENDBRANCH   5  15
ENDBRANCH   3   5
ENDBRANCH   2   3
ENDBRANCH   1   2
BRANCH   1  27
ATOM     27  C   UNL A   1      34.084  30.189  27.048  1.00  0.00     0.275 C 
BRANCH  27  28
ATOM     28  O   UNL A   1      35.487  30.418  27.150  1.00  0.00    -0.458 OA
BRANCH  28  29
ATOM     29  C   UNL A   1      35.777  31.471  27.946  1.00  0.00     0.338 C 
ATOM     30  O   UNL A   1      35.467  32.638  27.767  1.00  0.00    -0.246 OA
BRANCH  29  31
ATOM     31  C   UNL A   1      36.694  31.084  29.005  1.00  0.00     0.060 A 
ATOM     32  C   UNL A   1      37.858  31.846  29.094  1.00  0.00     0.016 A 
ATOM     33  C   UNL A   1      36.622  29.751  29.422  1.00  0.00     0.016 A 
ATOM     34  C   UNL A   1      39.032  31.179  29.334  1.00  0.00     0.010 A 
ATOM     35  C   UNL A   1      37.802  29.085  29.640  1.00  0.00     0.010 A 
ATOM     36  C   UNL A   1      38.992  29.790  29.485  1.00  0.00    -0.014 A 
BRANCH  36  37
ATOM     37  C   UNL A   1      40.262  29.109  29.577  1.00  0.00     0.031 A 
ATOM     38  C   UNL A   1      40.561  28.699  30.963  1.00  0.00     0.074 A 
ATOM     39  C   UNL A   1      41.030  28.844  28.506  1.00  0.00     0.049 A 
ATOM     40  N   UNL A   1      41.460  29.187  31.752  1.00  0.00    -0.248 NA
ATOM     41  C   UNL A   1      39.588  27.811  31.619  1.00  0.00     0.031 C 
ATOM     42  C   UNL A   1      40.708  28.977  27.084  1.00  0.00     0.029 A 
ATOM     43  N   UNL A   1      42.266  28.287  28.484  1.00  0.00    -0.354 N 
ATOM     44  C   UNL A   1      41.292  28.513  32.953  1.00  0.00     0.074 A 
ATOM     45  C   UNL A   1      40.013  27.853  32.880  1.00  0.00     0.031 C 
ATOM     46  C   UNL A   1      41.613  28.274  26.361  1.00  0.00     0.029 A 
ATOM     47  C   UNL A   1      42.641  27.768  27.255  1.00  0.00     0.049 A 
ATOM     48  H   UNL A   1      42.849  28.255  29.277  1.00  0.00     0.167 HD
ATOM     49  C   UNL A   1      42.318  28.342  33.830  1.00  0.00     0.034 A 
ATOM     50  C   UNL A   1      43.656  26.890  27.049  1.00  0.00     0.034 A 
ATOM     51  C   UNL A   1      43.419  29.215  33.533  1.00  0.00     0.049 A 
ATOM     52  C   UNL A   1      44.549  26.951  28.238  1.00  0.00     0.074 A 
ATOM     53  C   UNL A   1      43.591  30.585  33.538  1.00  0.00     0.029 A 
ATOM     54  N   UNL A   1      44.443  28.701  32.774  1.00  0.00    -0.354 N 
ATOM     55  N   UNL A   1      45.293  27.980  28.531  1.00  0.00    -0.248 NA
ATOM     56  C   UNL A   1      44.251  26.057  29.350  1.00  0.00     0.031 C 
ATOM     57  C   UNL A   1      44.433  30.857  32.425  1.00  0.00     0.029 A 
ATOM     58  C   UNL A   1      44.778  29.640  31.832  1.00  0.00     0.049 A 
ATOM     59  H   UNL A   1      44.861  27.817  32.886  1.00  0.00     0.167 HD
ATOM     60  C   UNL A   1      45.181  28.108  29.908  1.00  0.00     0.074 A 
ATOM     61  C   UNL A   1      44.600  26.848  30.368  1.00  0.00     0.031 C 
ATOM     62  C   UNL A   1      45.285  29.327  30.513  1.00  0.00     0.034 A 
BRANCH  49  63
ATOM     63  C   UNL A   1      42.436  27.135  34.715  1.00  0.00     0.023 A 
ATOM     64  C   UNL A   1      43.195  26.006  34.348  1.00  0.00     0.031 A 
ATOM     65  C   UNL A   1      41.977  27.167  36.042  1.00  0.00     0.131 A 
ATOM     66  C   UNL A   1      43.433  24.956  35.237  1.00  0.00     0.055 A 
ATOM     67  C   UNL A   1      42.276  26.150  36.957  1.00  0.00     0.041 A 
ATOM     68  F   UNL A   1      41.271  28.212  36.501  1.00  0.00    -0.206 F 
ATOM     69  C   UNL A   1      43.002  25.034  36.556  1.00  0.00     0.022 A 
BRANCH  66  70
ATOM     70  S   UNL A   1      44.332  23.481  34.684  1.00  0.00     0.124 S 
ATOM     71  O   UNL A   1      43.423  22.931  33.685  1.00  0.00    -0.237 OA
ATOM     72  O   UNL A   1      45.567  24.067  34.166  1.00  0.00    -0.237 OA
ATOM     73  O   UNL A   1      44.486  22.695  35.905  1.00  0.00    -0.744 OA
ENDBRANCH  66  70
ENDBRANCH  49  63
BRANCH  50  74
ATOM     74  C   UNL A   1      43.594  25.673  26.200  1.00  0.00     0.023 A 
ATOM     75  C   UNL A   1      42.699  24.635  26.520  1.00  0.00     0.031 A 
ATOM     76  C   UNL A   1      44.625  25.375  25.292  1.00  0.00     0.131 A 
ATOM     77  C   UNL A   1      42.888  23.345  26.007  1.00  0.00     0.055 A 
ATOM     78  C   UNL A   1      44.804  24.089  24.767  1.00  0.00     0.041 A 
ATOM     79  F   UNL A   1      45.530  26.308  24.961  1.00  0.00    -0.206 F 
ATOM     80  C   UNL A   1      43.942  23.061  25.138  1.00  0.00     0.022 A 
BRANCH  77  81
ATOM     81  S   UNL A   1      41.795  21.997  26.536  1.00  0.00     0.124 S 
ATOM     82  O   UNL A   1      42.044  21.934  27.975  1.00  0.00    -0.237 OA
ATOM     83  O   UNL A   1      40.485  22.506  26.147  1.00  0.00    -0.237 OA
ATOM     84  O   UNL A   1      42.284  20.849  25.778  1.00  0.00    -0.744 OA
ENDBRANCH  77  81
ENDBRANCH  50  74
BRANCH  62  85
ATOM     85  C   UNL A   1      45.739  30.504  29.684  1.00  0.00     0.023 A 
ATOM     86  C   UNL A   1      44.862  30.957  28.688  1.00  0.00     0.031 A 
ATOM     87  C   UNL A   1      47.051  31.017  29.683  1.00  0.00     0.131 A 
ATOM     88  C   UNL A   1      45.307  31.851  27.709  1.00  0.00     0.055 A 
ATOM     89  C   UNL A   1      47.476  31.959  28.741  1.00  0.00     0.041 A 
ATOM     90  F   UNL A   1      47.979  30.560  30.532  1.00  0.00    -0.206 F 
ATOM     91  C   UNL A   1      46.606  32.368  27.735  1.00  0.00     0.022 A 
BRANCH  88  92
ATOM     92  S   UNL A   1      44.246  32.253  26.301  1.00  0.00     0.124 S 
ATOM     93  O   UNL A   1      43.543  33.443  26.772  1.00  0.00    -0.237 OA
ATOM     94  O   UNL A   1      45.220  32.480  25.236  1.00  0.00    -0.237 OA
ATOM     95  O   UNL A   1      43.413  31.065  26.134  1.00  0.00    -0.744 OA
ENDBRANCH  88  92
ENDBRANCH  62  85
ENDBRANCH  36  37
ENDBRANCH  29  31
ENDBRANCH  28  29
ENDBRANCH  27  28
ENDBRANCH   1  27
TORSDOF 19
ENDMDL
