MODEL 1
REMARK VINA RESULT:     -10.7      0.000      0.000
REMARK SMILES CC[C@@H](C(=O)Nc1ccc(OC(C)=O)cc1C(=O)OCCOC(=O)c1ccc(-c2c3nc(c(-c4cc(S(=O)(=O)[O-])ccc4F)c4ccc([nH]4)c(-c4cc(S(=O)(=O)[O-])ccc4F)c4nc(c(-c5cc(S(=O)(=O)[O-])ccc5F)c5ccc2[nH]5)C=C4)C=C3)cc1)c1ccccc1
REMARK SMILES IDX 20 1 19 2 17 3 18 4 16 5 7 6 8 7 9 8 15 9 10 10 6 11 4 12
REMARK SMILES IDX 5 13 3 15 2 16 1 17 88 18 89 19 93 20 90 21 92 22 91 23
REMARK SMILES IDX 11 24 12 25 13 26 14 27 21 28 22 29 23 30 24 31 25 32 26 33
REMARK SMILES IDX 87 34 27 35 86 36 28 37 29 38 30 39 80 40 31 41 85 42 79 43
REMARK SMILES IDX 81 44 32 45 84 46 78 47 77 48 33 50 65 51 45 52 64 53 46 54
REMARK SMILES IDX 49 55 63 56 82 57 47 58 48 59 62 61 83 62 50 63 34 64 35 65
REMARK SMILES IDX 43 66 36 67 42 68 44 69 41 70 37 71 38 72 39 73 40 74 66 75
REMARK SMILES IDX 67 76 75 77 68 78 74 79 76 80 73 81 69 82 70 83 71 84 72 85
REMARK SMILES IDX 51 86 52 87 60 88 53 89 59 90 61 91 58 92 54 93 55 94 56 95
REMARK SMILES IDX 57 96
REMARK H PARENT 6 14 81 49 49 60
REMARK Flexibility Score: inf
ROOT
ATOM      1  C   UNL A   1      36.259  21.813  24.118  1.00  0.00     0.275 C 
ENDROOT
BRANCH   1   2
ATOM      2  O   UNL A   1      35.023  22.302  24.684  1.00  0.00    -0.458 OA
BRANCH   2   3
ATOM      3  C   UNL A   1      34.927  23.643  24.644  1.00  0.00     0.340 C 
ATOM      4  O   UNL A   1      35.598  24.429  25.291  1.00  0.00    -0.246 OA
BRANCH   3   5
ATOM      5  C   UNL A   1      33.886  24.167  23.769  1.00  0.00     0.087 A 
ATOM      6  C   UNL A   1      32.554  23.727  23.814  1.00  0.00     0.056 A 
ATOM      7  C   UNL A   1      31.622  24.324  22.952  1.00  0.00     0.031 A 
ATOM      8  C   UNL A   1      31.970  25.444  22.189  1.00  0.00     0.049 A 
ATOM      9  C   UNL A   1      34.251  25.266  22.976  1.00  0.00     0.065 A 
ATOM     10  C   UNL A   1      33.274  25.929  22.245  1.00  0.00     0.131 A 
BRANCH   6  11
ATOM     11  N   UNL A   1      32.052  22.702  24.639  1.00  0.00    -0.325 N 
ATOM     12  C   UNL A   1      32.001  22.607  26.009  1.00  0.00     0.231 C 
ATOM     13  O   UNL A   1      32.470  21.566  26.484  1.00  0.00    -0.274 OA
ATOM     14  H   UNL A   1      31.675  21.931  24.157  1.00  0.00     0.169 HD
BRANCH  12  15
ATOM     15  C   UNL A   1      31.068  23.572  26.827  1.00  0.00     0.108 C 
BRANCH  15  16
ATOM     16  C   UNL A   1      29.538  23.448  26.731  1.00  0.00     0.015 C 
ATOM     17  C   UNL A   1      28.900  22.324  27.529  1.00  0.00     0.005 C 
ENDBRANCH  15  16
BRANCH  15  18
ATOM     18  C   UNL A   1      31.349  25.058  26.518  1.00  0.00    -0.036 A 
ATOM     19  C   UNL A   1      32.620  25.628  26.697  1.00  0.00     0.004 A 
ATOM     20  C   UNL A   1      30.363  25.822  25.871  1.00  0.00     0.004 A 
ATOM     21  C   UNL A   1      32.893  26.926  26.265  1.00  0.00     0.000 A 
ATOM     22  C   UNL A   1      30.643  27.114  25.421  1.00  0.00     0.000 A 
ATOM     23  C   UNL A   1      31.907  27.666  25.621  1.00  0.00     0.000 A 
ENDBRANCH  15  18
ENDBRANCH  12  15
ENDBRANCH   6  11
BRANCH  10  24
ATOM     24  O   UNL A   1      33.608  27.071  21.514  1.00  0.00    -0.427 OA
BRANCH  24  25
ATOM     25  C   UNL A   1      33.620  28.220  22.293  1.00  0.00     0.308 C 
ATOM     26  C   UNL A   1      32.273  28.880  22.428  1.00  0.00     0.139 C 
ATOM     27  O   UNL A   1      34.635  28.628  22.846  1.00  0.00    -0.252 OA
ENDBRANCH  24  25
ENDBRANCH  10  24
ENDBRANCH   3   5
ENDBRANCH   2   3
ENDBRANCH   1   2
BRANCH   1  28
ATOM     28  C   UNL A   1      37.277  21.315  25.151  1.00  0.00     0.275 C 
BRANCH  28  29
ATOM     29  O   UNL A   1      38.471  22.126  25.179  1.00  0.00    -0.458 OA
BRANCH  29  30
ATOM     30  C   UNL A   1      39.350  21.836  26.167  1.00  0.00     0.338 C 
ATOM     31  O   UNL A   1      39.809  20.734  26.423  1.00  0.00    -0.246 OA
BRANCH  30  32
ATOM     32  C   UNL A   1      39.720  23.030  26.959  1.00  0.00     0.060 A 
ATOM     33  C   UNL A   1      39.171  24.283  26.684  1.00  0.00     0.016 A 
ATOM     34  C   UNL A   1      40.792  22.935  27.844  1.00  0.00     0.016 A 
ATOM     35  C   UNL A   1      39.758  25.444  27.184  1.00  0.00     0.010 A 
ATOM     36  C   UNL A   1      41.323  24.095  28.419  1.00  0.00     0.010 A 
ATOM     37  C   UNL A   1      40.848  25.369  28.050  1.00  0.00    -0.014 A 
BRANCH  37  38
ATOM     38  C   UNL A   1      41.592  26.589  28.465  1.00  0.00     0.031 A 
ATOM     39  C   UNL A   1      40.869  27.617  29.292  1.00  0.00     0.074 A 
ATOM     40  C   UNL A   1      42.889  26.790  28.159  1.00  0.00     0.049 A 
ATOM     41  N   UNL A   1      41.108  28.892  29.433  1.00  0.00    -0.248 NA
ATOM     42  C   UNL A   1      39.696  27.135  30.038  1.00  0.00     0.031 C 
ATOM     43  C   UNL A   1      43.778  25.828  27.509  1.00  0.00     0.029 A 
ATOM     44  N   UNL A   1      43.686  27.892  28.360  1.00  0.00    -0.354 N 
ATOM     45  C   UNL A   1      40.055  29.389  30.195  1.00  0.00     0.074 A 
ATOM     46  C   UNL A   1      39.196  28.267  30.510  1.00  0.00     0.031 C 
ATOM     47  C   UNL A   1      45.001  26.367  27.392  1.00  0.00     0.029 A 
ATOM     48  C   UNL A   1      44.946  27.758  27.827  1.00  0.00     0.049 A 
ATOM     49  H   UNL A   1      43.384  28.698  28.838  1.00  0.00     0.167 HD
ATOM     50  C   UNL A   1      39.822  30.674  30.562  1.00  0.00     0.034 A 
ATOM     51  C   UNL A   1      45.916  28.675  27.625  1.00  0.00     0.034 A 
ATOM     52  C   UNL A   1      40.744  31.749  30.278  1.00  0.00     0.049 A 
ATOM     53  C   UNL A   1      45.623  30.113  27.968  1.00  0.00     0.074 A 
ATOM     54  C   UNL A   1      40.615  33.100  30.545  1.00  0.00     0.029 A 
ATOM     55  N   UNL A   1      41.988  31.580  29.682  1.00  0.00    -0.354 N 
ATOM     56  N   UNL A   1      44.538  30.631  28.499  1.00  0.00    -0.248 NA
ATOM     57  C   UNL A   1      46.663  31.096  27.640  1.00  0.00     0.031 C 
ATOM     58  C   UNL A   1      41.763  33.751  30.073  1.00  0.00     0.029 A 
ATOM     59  C   UNL A   1      42.633  32.798  29.567  1.00  0.00     0.049 A 
ATOM     60  H   UNL A   1      42.357  30.717  29.384  1.00  0.00     0.167 HD
ATOM     61  C   UNL A   1      44.770  32.001  28.573  1.00  0.00     0.074 A 
ATOM     62  C   UNL A   1      46.102  32.226  28.046  1.00  0.00     0.031 C 
ATOM     63  C   UNL A   1      43.958  32.988  29.028  1.00  0.00     0.034 A 
BRANCH  50  64
ATOM     64  C   UNL A   1      38.490  30.983  31.200  1.00  0.00     0.023 A 
ATOM     65  C   UNL A   1      37.413  31.524  30.479  1.00  0.00     0.031 A 
ATOM     66  C   UNL A   1      38.325  30.796  32.585  1.00  0.00     0.131 A 
ATOM     67  C   UNL A   1      36.254  31.936  31.157  1.00  0.00     0.055 A 
ATOM     68  C   UNL A   1      37.137  31.130  33.241  1.00  0.00     0.041 A 
ATOM     69  F   UNL A   1      39.326  30.309  33.335  1.00  0.00    -0.206 F 
ATOM     70  C   UNL A   1      36.100  31.720  32.529  1.00  0.00     0.022 A 
BRANCH  67  71
ATOM     71  S   UNL A   1      35.018  32.907  30.251  1.00  0.00     0.124 S 
ATOM     72  O   UNL A   1      34.493  31.917  29.314  1.00  0.00    -0.237 OA
ATOM     73  O   UNL A   1      34.110  33.327  31.312  1.00  0.00    -0.237 OA
ATOM     74  O   UNL A   1      35.803  33.978  29.641  1.00  0.00    -0.744 OA
ENDBRANCH  67  71
ENDBRANCH  50  64
BRANCH  51  75
ATOM     75  C   UNL A   1      47.192  28.291  26.957  1.00  0.00     0.023 A 
ATOM     76  C   UNL A   1      47.262  28.134  25.563  1.00  0.00     0.031 A 
ATOM     77  C   UNL A   1      48.360  28.054  27.706  1.00  0.00     0.131 A 
ATOM     78  C   UNL A   1      48.469  27.736  24.966  1.00  0.00     0.055 A 
ATOM     79  C   UNL A   1      49.570  27.711  27.102  1.00  0.00     0.041 A 
ATOM     80  F   UNL A   1      48.348  28.180  29.042  1.00  0.00    -0.206 F 
ATOM     81  C   UNL A   1      49.627  27.541  25.723  1.00  0.00     0.022 A 
BRANCH  78  82
ATOM     82  S   UNL A   1      48.494  27.414  23.180  1.00  0.00     0.124 S 
ATOM     83  O   UNL A   1      48.342  25.965  23.137  1.00  0.00    -0.237 OA
ATOM     84  O   UNL A   1      47.351  28.194  22.716  1.00  0.00    -0.237 OA
ATOM     85  O   UNL A   1      49.800  27.918  22.762  1.00  0.00    -0.744 OA
ENDBRANCH  78  82
ENDBRANCH  51  75
BRANCH  63  86
ATOM     86  C   UNL A   1      44.518  34.384  29.018  1.00  0.00     0.023 A 
ATOM     87  C   UNL A   1      45.240  34.895  30.109  1.00  0.00     0.031 A 
ATOM     88  C   UNL A   1      44.323  35.210  27.898  1.00  0.00     0.131 A 
ATOM     89  C   UNL A   1      45.712  36.215  30.071  1.00  0.00     0.055 A 
ATOM     90  C   UNL A   1      44.830  36.507  27.849  1.00  0.00     0.041 A 
ATOM     91  F   UNL A   1      43.639  34.762  26.833  1.00  0.00    -0.206 F 
ATOM     92  C   UNL A   1      45.522  37.020  28.944  1.00  0.00     0.022 A 
BRANCH  89  93
ATOM     93  S   UNL A   1      46.539  36.890  31.538  1.00  0.00     0.124 S 
ATOM     94  O   UNL A   1      46.572  38.318  31.236  1.00  0.00    -0.237 OA
ATOM     95  O   UNL A   1      45.644  36.486  32.618  1.00  0.00    -0.237 OA
ATOM     96  O   UNL A   1      47.841  36.224  31.533  1.00  0.00    -0.744 OA
ENDBRANCH  89  93
ENDBRANCH  63  86
ENDBRANCH  37  38
ENDBRANCH  30  32
ENDBRANCH  29  30
ENDBRANCH  28  29
ENDBRANCH   1  28
TORSDOF 20
ENDMDL
MODEL 2
REMARK VINA RESULT:     -10.6      1.521      2.790
REMARK SMILES CC[C@@H](C(=O)Nc1ccc(OC(C)=O)cc1C(=O)OCCOC(=O)c1ccc(-c2c3nc(c(-c4cc(S(=O)(=O)[O-])ccc4F)c4ccc([nH]4)c(-c4cc(S(=O)(=O)[O-])ccc4F)c4nc(c(-c5cc(S(=O)(=O)[O-])ccc5F)c5ccc2[nH]5)C=C4)C=C3)cc1)c1ccccc1
REMARK SMILES IDX 20 1 19 2 17 3 18 4 16 5 7 6 8 7 9 8 15 9 10 10 6 11 4 12
REMARK SMILES IDX 5 13 3 15 2 16 1 17 88 18 89 19 93 20 90 21 92 22 91 23
REMARK SMILES IDX 11 24 12 25 13 26 14 27 21 28 22 29 23 30 24 31 25 32 26 33
REMARK SMILES IDX 87 34 27 35 86 36 28 37 29 38 30 39 80 40 31 41 85 42 79 43
REMARK SMILES IDX 81 44 32 45 84 46 78 47 77 48 33 50 65 51 45 52 64 53 46 54
REMARK SMILES IDX 49 55 63 56 82 57 47 58 48 59 62 61 83 62 50 63 34 64 35 65
REMARK SMILES IDX 43 66 36 67 42 68 44 69 41 70 37 71 38 72 39 73 40 74 66 75
REMARK SMILES IDX 67 76 75 77 68 78 74 79 76 80 73 81 69 82 70 83 71 84 72 85
REMARK SMILES IDX 51 86 52 87 60 88 53 89 59 90 61 91 58 92 54 93 55 94 56 95
REMARK SMILES IDX 57 96
REMARK H PARENT 6 14 81 49 49 60
REMARK Flexibility Score: inf
ROOT
ATOM      1  C   UNL A   1      35.804  22.870  24.167  1.00  0.00     0.275 C 
ENDROOT
BRANCH   1   2
ATOM      2  O   UNL A   1      34.736  23.203  25.082  1.00  0.00    -0.458 OA
BRANCH   2   3
ATOM      3  C   UNL A   1      34.598  24.528  25.261  1.00  0.00     0.340 C 
ATOM      4  O   UNL A   1      35.505  25.326  25.434  1.00  0.00    -0.246 OA
BRANCH   3   5
ATOM      5  C   UNL A   1      33.225  25.013  25.290  1.00  0.00     0.087 A 
ATOM      6  C   UNL A   1      32.131  24.199  25.619  1.00  0.00     0.056 A 
ATOM      7  C   UNL A   1      30.852  24.775  25.654  1.00  0.00     0.031 A 
ATOM      8  C   UNL A   1      30.690  26.159  25.530  1.00  0.00     0.049 A 
ATOM      9  C   UNL A   1      33.063  26.398  25.126  1.00  0.00     0.065 A 
ATOM     10  C   UNL A   1      31.807  26.961  25.311  1.00  0.00     0.131 A 
BRANCH   6  11
ATOM     11  N   UNL A   1      32.186  22.820  25.901  1.00  0.00    -0.325 N 
ATOM     12  C   UNL A   1      31.840  21.739  25.126  1.00  0.00     0.231 C 
ATOM     13  O   UNL A   1      31.072  20.930  25.661  1.00  0.00    -0.274 OA
ATOM     14  H   UNL A   1      32.529  22.594  26.796  1.00  0.00     0.169 HD
BRANCH  12  15
ATOM     15  C   UNL A   1      32.677  21.396  23.840  1.00  0.00     0.108 C 
BRANCH  15  16
ATOM     16  C   UNL A   1      32.153  21.770  22.443  1.00  0.00     0.015 C 
ATOM     17  C   UNL A   1      32.888  22.885  21.722  1.00  0.00     0.005 C 
ENDBRANCH  15  16
BRANCH  15  18
ATOM     18  C   UNL A   1      32.996  19.890  23.736  1.00  0.00    -0.036 A 
ATOM     19  C   UNL A   1      33.865  19.249  24.635  1.00  0.00     0.004 A 
ATOM     20  C   UNL A   1      32.268  19.095  22.835  1.00  0.00     0.004 A 
ATOM     21  C   UNL A   1      34.018  17.862  24.622  1.00  0.00     0.000 A 
ATOM     22  C   UNL A   1      32.407  17.705  22.836  1.00  0.00     0.000 A 
ATOM     23  C   UNL A   1      33.284  17.090  23.728  1.00  0.00     0.000 A 
ENDBRANCH  15  18
ENDBRANCH  12  15
ENDBRANCH   6  11
BRANCH  10  24
ATOM     24  O   UNL A   1      31.646  28.345  25.229  1.00  0.00    -0.427 OA
BRANCH  24  25
ATOM     25  C   UNL A   1      32.310  29.022  26.244  1.00  0.00     0.308 C 
ATOM     26  C   UNL A   1      31.864  28.633  27.629  1.00  0.00     0.139 C 
ATOM     27  O   UNL A   1      33.202  29.831  26.020  1.00  0.00    -0.252 OA
ENDBRANCH  24  25
ENDBRANCH  10  24
ENDBRANCH   3   5
ENDBRANCH   2   3
ENDBRANCH   1   2
BRANCH   1  28
ATOM     28  C   UNL A   1      36.799  21.832  24.703  1.00  0.00     0.275 C 
BRANCH  28  29
ATOM     29  O   UNL A   1      38.128  22.375  24.855  1.00  0.00    -0.458 OA
BRANCH  29  30
ATOM     30  C   UNL A   1      38.815  21.942  25.938  1.00  0.00     0.338 C 
ATOM     31  O   UNL A   1      39.036  20.777  26.234  1.00  0.00    -0.246 OA
BRANCH  30  32
ATOM     32  C   UNL A   1      39.290  23.058  26.785  1.00  0.00     0.060 A 
ATOM     33  C   UNL A   1      38.705  24.322  26.717  1.00  0.00     0.016 A 
ATOM     34  C   UNL A   1      40.479  22.894  27.494  1.00  0.00     0.016 A 
ATOM     35  C   UNL A   1      39.354  25.438  27.242  1.00  0.00     0.010 A 
ATOM     36  C   UNL A   1      41.084  24.001  28.101  1.00  0.00     0.010 A 
ATOM     37  C   UNL A   1      40.557  25.296  27.933  1.00  0.00    -0.014 A 
BRANCH  37  38
ATOM     38  C   UNL A   1      41.350  26.482  28.357  1.00  0.00     0.031 A 
ATOM     39  C   UNL A   1      40.668  27.533  29.192  1.00  0.00     0.074 A 
ATOM     40  C   UNL A   1      42.654  26.634  28.053  1.00  0.00     0.049 A 
ATOM     41  N   UNL A   1      40.958  28.796  29.343  1.00  0.00    -0.248 NA
ATOM     42  C   UNL A   1      39.476  27.093  29.933  1.00  0.00     0.031 C 
ATOM     43  C   UNL A   1      43.503  25.641  27.396  1.00  0.00     0.029 A 
ATOM     44  N   UNL A   1      43.494  27.701  28.263  1.00  0.00    -0.354 N 
ATOM     45  C   UNL A   1      39.926  29.329  30.108  1.00  0.00     0.074 A 
ATOM     46  C   UNL A   1      39.022  28.240  30.414  1.00  0.00     0.031 C 
ATOM     47  C   UNL A   1      44.748  26.131  27.284  1.00  0.00     0.029 A 
ATOM     48  C   UNL A   1      44.749  27.520  27.730  1.00  0.00     0.049 A 
ATOM     49  H   UNL A   1      43.226  28.514  28.747  1.00  0.00     0.167 HD
ATOM     50  C   UNL A   1      39.745  30.620  30.484  1.00  0.00     0.034 A 
ATOM     51  C   UNL A   1      45.755  28.398  27.535  1.00  0.00     0.034 A 
ATOM     52  C   UNL A   1      40.709  31.659  30.209  1.00  0.00     0.049 A 
ATOM     53  C   UNL A   1      45.520  29.844  27.889  1.00  0.00     0.074 A 
ATOM     54  C   UNL A   1      40.635  33.012  30.486  1.00  0.00     0.029 A 
ATOM     55  N   UNL A   1      41.946  31.444  29.613  1.00  0.00    -0.354 N 
ATOM     56  N   UNL A   1      44.457  30.402  28.423  1.00  0.00    -0.248 NA
ATOM     57  C   UNL A   1      46.600  30.787  27.569  1.00  0.00     0.031 C 
ATOM     58  C   UNL A   1      41.809  33.620  30.020  1.00  0.00     0.029 A 
ATOM     59  C   UNL A   1      42.640  32.636  29.507  1.00  0.00     0.049 A 
ATOM     60  H   UNL A   1      42.280  30.569  29.308  1.00  0.00     0.167 HD
ATOM     61  C   UNL A   1      44.744  31.761  28.507  1.00  0.00     0.074 A 
ATOM     62  C   UNL A   1      46.084  31.935  27.983  1.00  0.00     0.031 C 
ATOM     63  C   UNL A   1      43.972  32.776  28.970  1.00  0.00     0.034 A 
BRANCH  50  64
ATOM     64  C   UNL A   1      38.426  30.978  31.125  1.00  0.00     0.023 A 
ATOM     65  C   UNL A   1      37.350  31.507  30.394  1.00  0.00     0.031 A 
ATOM     66  C   UNL A   1      38.274  30.850  32.518  1.00  0.00     0.131 A 
ATOM     67  C   UNL A   1      36.206  31.966  31.067  1.00  0.00     0.055 A 
ATOM     68  C   UNL A   1      37.101  31.231  33.172  1.00  0.00     0.041 A 
ATOM     69  F   UNL A   1      39.277  30.377  33.275  1.00  0.00    -0.206 F 
ATOM     70  C   UNL A   1      36.065  31.810  32.448  1.00  0.00     0.022 A 
BRANCH  67  71
ATOM     71  S   UNL A   1      34.976  32.920  30.137  1.00  0.00     0.124 S 
ATOM     72  O   UNL A   1      34.036  33.298  31.190  1.00  0.00    -0.237 OA
ATOM     73  O   UNL A   1      35.776  34.003  29.576  1.00  0.00    -0.237 OA
ATOM     74  O   UNL A   1      34.458  31.959  29.164  1.00  0.00    -0.744 OA
ENDBRANCH  67  71
ENDBRANCH  50  64
BRANCH  51  75
ATOM     75  C   UNL A   1      47.015  27.967  26.864  1.00  0.00     0.023 A 
ATOM     76  C   UNL A   1      47.128  27.968  25.465  1.00  0.00     0.031 A 
ATOM     77  C   UNL A   1      48.123  27.529  27.615  1.00  0.00     0.131 A 
ATOM     78  C   UNL A   1      48.315  27.522  24.861  1.00  0.00     0.055 A 
ATOM     79  C   UNL A   1      49.318  27.138  27.011  1.00  0.00     0.041 A 
ATOM     80  F   UNL A   1      48.066  27.499  28.955  1.00  0.00    -0.206 F 
ATOM     81  C   UNL A   1      49.416  27.125  25.623  1.00  0.00     0.022 A 
BRANCH  78  82
ATOM     82  S   UNL A   1      48.383  27.410  23.051  1.00  0.00     0.124 S 
ATOM     83  O   UNL A   1      48.287  25.971  22.839  1.00  0.00    -0.237 OA
ATOM     84  O   UNL A   1      47.221  28.198  22.654  1.00  0.00    -0.237 OA
ATOM     85  O   UNL A   1      49.677  28.004  22.721  1.00  0.00    -0.744 OA
ENDBRANCH  78  82
ENDBRANCH  51  75
BRANCH  63  86
ATOM     86  C   UNL A   1      44.589  34.148  28.970  1.00  0.00     0.023 A 
ATOM     87  C   UNL A   1      45.323  34.624  30.070  1.00  0.00     0.031 A 
ATOM     88  C   UNL A   1      44.436  34.986  27.853  1.00  0.00     0.131 A 
ATOM     89  C   UNL A   1      45.847  35.925  30.041  1.00  0.00     0.055 A 
ATOM     90  C   UNL A   1      44.994  36.262  27.814  1.00  0.00     0.041 A 
ATOM     91  F   UNL A   1      43.742  34.572  26.781  1.00  0.00    -0.206 F 
ATOM     92  C   UNL A   1      45.698  36.742  28.917  1.00  0.00     0.022 A 
BRANCH  89  93
ATOM     93  S   UNL A   1      46.690  36.559  31.518  1.00  0.00     0.124 S 
ATOM     94  O   UNL A   1      47.475  35.402  31.938  1.00  0.00    -0.237 OA
ATOM     95  O   UNL A   1      47.449  37.686  30.986  1.00  0.00    -0.237 OA
ATOM     96  O   UNL A   1      45.590  36.921  32.411  1.00  0.00    -0.744 OA
ENDBRANCH  89  93
ENDBRANCH  63  86
ENDBRANCH  37  38
ENDBRANCH  30  32
ENDBRANCH  29  30
ENDBRANCH  28  29
ENDBRANCH   1  28
TORSDOF 20
ENDMDL
MODEL 3
REMARK VINA RESULT:     -10.6      5.239      9.753
REMARK SMILES CC[C@@H](C(=O)Nc1ccc(OC(C)=O)cc1C(=O)OCCOC(=O)c1ccc(-c2c3nc(c(-c4cc(S(=O)(=O)[O-])ccc4F)c4ccc([nH]4)c(-c4cc(S(=O)(=O)[O-])ccc4F)c4nc(c(-c5cc(S(=O)(=O)[O-])ccc5F)c5ccc2[nH]5)C=C4)C=C3)cc1)c1ccccc1
REMARK SMILES IDX 20 1 19 2 17 3 18 4 16 5 7 6 8 7 9 8 15 9 10 10 6 11 4 12
REMARK SMILES IDX 5 13 3 15 2 16 1 17 88 18 89 19 93 20 90 21 92 22 91 23
REMARK SMILES IDX 11 24 12 25 13 26 14 27 21 28 22 29 23 30 24 31 25 32 26 33
REMARK SMILES IDX 87 34 27 35 86 36 28 37 29 38 30 39 80 40 31 41 85 42 79 43
REMARK SMILES IDX 81 44 32 45 84 46 78 47 77 48 33 50 65 51 45 52 64 53 46 54
REMARK SMILES IDX 49 55 63 56 82 57 47 58 48 59 62 61 83 62 50 63 34 64 35 65
REMARK SMILES IDX 43 66 36 67 42 68 44 69 41 70 37 71 38 72 39 73 40 74 66 75
REMARK SMILES IDX 67 76 75 77 68 78 74 79 76 80 73 81 69 82 70 83 71 84 72 85
REMARK SMILES IDX 51 86 52 87 60 88 53 89 59 90 61 91 58 92 54 93 55 94 56 95
REMARK SMILES IDX 57 96
REMARK H PARENT 6 14 81 49 49 60
REMARK Flexibility Score: inf
ROOT
ATOM      1  C   UNL A   1      33.044  30.075  27.138  1.00  0.00     0.275 C 
ENDROOT
BRANCH   1   2
ATOM      2  O   UNL A   1      32.023  29.173  26.659  1.00  0.00    -0.458 OA
BRANCH   2   3
ATOM      3  C   UNL A   1      32.449  28.391  25.652  1.00  0.00     0.340 C 
ATOM      4  O   UNL A   1      33.597  28.305  25.248  1.00  0.00    -0.246 OA
BRANCH   3   5
ATOM      5  C   UNL A   1      31.411  27.626  24.975  1.00  0.00     0.087 A 
ATOM      6  C   UNL A   1      31.142  26.279  25.262  1.00  0.00     0.056 A 
ATOM      7  C   UNL A   1      30.094  25.643  24.577  1.00  0.00     0.031 A 
ATOM      8  C   UNL A   1      29.231  26.376  23.757  1.00  0.00     0.049 A 
ATOM      9  C   UNL A   1      30.570  28.358  24.121  1.00  0.00     0.065 A 
ATOM     10  C   UNL A   1      29.455  27.739  23.574  1.00  0.00     0.131 A 
BRANCH   6  11
ATOM     11  N   UNL A   1      31.853  25.472  26.171  1.00  0.00    -0.325 N 
ATOM     12  C   UNL A   1      31.850  24.108  26.342  1.00  0.00     0.231 C 
ATOM     13  O   UNL A   1      31.652  23.721  27.500  1.00  0.00    -0.274 OA
ATOM     14  H   UNL A   1      32.449  25.964  26.781  1.00  0.00     0.169 HD
BRANCH  12  15
ATOM     15  C   UNL A   1      32.444  23.177  25.223  1.00  0.00     0.108 C 
BRANCH  15  16
ATOM     16  C   UNL A   1      32.313  21.648  25.327  1.00  0.00     0.015 C 
ATOM     17  C   UNL A   1      32.325  20.879  24.018  1.00  0.00     0.005 C 
ENDBRANCH  15  16
BRANCH  15  18
ATOM     18  C   UNL A   1      33.954  23.415  25.007  1.00  0.00    -0.036 A 
ATOM     19  C   UNL A   1      34.838  23.611  26.081  1.00  0.00     0.004 A 
ATOM     20  C   UNL A   1      34.496  23.255  23.720  1.00  0.00     0.004 A 
ATOM     21  C   UNL A   1      36.217  23.667  25.876  1.00  0.00     0.000 A 
ATOM     22  C   UNL A   1      35.877  23.291  23.519  1.00  0.00     0.000 A 
ATOM     23  C   UNL A   1      36.737  23.500  24.596  1.00  0.00     0.000 A 
ENDBRANCH  15  18
ENDBRANCH  12  15
ENDBRANCH   6  11
BRANCH  10  24
ATOM     24  O   UNL A   1      28.568  28.475  22.786  1.00  0.00    -0.427 OA
BRANCH  24  25
ATOM     25  C   UNL A   1      29.089  29.702  22.399  1.00  0.00     0.308 C 
ATOM     26  C   UNL A   1      28.762  30.829  23.344  1.00  0.00     0.139 C 
ATOM     27  O   UNL A   1      29.784  29.835  21.398  1.00  0.00    -0.252 OA
ENDBRANCH  24  25
ENDBRANCH  10  24
ENDBRANCH   3   5
ENDBRANCH   2   3
ENDBRANCH   1   2
BRANCH   1  28
ATOM     28  C   UNL A   1      32.588  31.534  27.279  1.00  0.00     0.275 C 
BRANCH  28  29
ATOM     29  O   UNL A   1      33.700  32.445  27.408  1.00  0.00    -0.458 OA
BRANCH  29  30
ATOM     30  C   UNL A   1      33.592  33.361  28.399  1.00  0.00     0.338 C 
ATOM     31  O   UNL A   1      32.664  34.137  28.566  1.00  0.00    -0.246 OA
BRANCH  30  32
ATOM     32  C   UNL A   1      34.761  33.347  29.307  1.00  0.00     0.060 A 
ATOM     33  C   UNL A   1      35.871  34.159  29.074  1.00  0.00     0.016 A 
ATOM     34  C   UNL A   1      34.837  32.350  30.278  1.00  0.00     0.016 A 
ATOM     35  C   UNL A   1      37.085  33.906  29.709  1.00  0.00     0.010 A 
ATOM     36  C   UNL A   1      36.031  32.157  30.982  1.00  0.00     0.010 A 
ATOM     37  C   UNL A   1      37.187  32.895  30.664  1.00  0.00    -0.014 A 
BRANCH  37  38
ATOM     38  C   UNL A   1      38.503  32.498  31.234  1.00  0.00     0.031 A 
ATOM     39  C   UNL A   1      39.255  31.374  30.573  1.00  0.00     0.074 A 
ATOM     40  C   UNL A   1      39.058  33.123  32.291  1.00  0.00     0.049 A 
ATOM     41  N   UNL A   1      40.163  30.576  31.063  1.00  0.00    -0.248 NA
ATOM     42  C   UNL A   1      38.906  31.104  29.169  1.00  0.00     0.031 C 
ATOM     43  C   UNL A   1      38.543  34.325  32.945  1.00  0.00     0.029 A 
ATOM     44  N   UNL A   1      40.192  32.818  33.005  1.00  0.00    -0.354 N 
ATOM     45  C   UNL A   1      40.417  29.640  30.066  1.00  0.00     0.074 A 
ATOM     46  C   UNL A   1      39.588  29.993  28.934  1.00  0.00     0.031 C 
ATOM     47  C   UNL A   1      39.372  34.674  33.941  1.00  0.00     0.029 A 
ATOM     48  C   UNL A   1      40.394  33.643  34.087  1.00  0.00     0.049 A 
ATOM     49  H   UNL A   1      40.800  32.082  32.766  1.00  0.00     0.167 HD
ATOM     50  C   UNL A   1      41.246  28.567  30.119  1.00  0.00     0.034 A 
ATOM     51  C   UNL A   1      41.242  33.532  35.130  1.00  0.00     0.034 A 
ATOM     52  C   UNL A   1      42.102  28.293  31.249  1.00  0.00     0.049 A 
ATOM     53  C   UNL A   1      42.108  32.301  35.219  1.00  0.00     0.074 A 
ATOM     54  C   UNL A   1      42.951  27.221  31.459  1.00  0.00     0.029 A 
ATOM     55  N   UNL A   1      42.234  29.125  32.354  1.00  0.00    -0.354 N 
ATOM     56  N   UNL A   1      42.203  31.295  34.378  1.00  0.00    -0.248 NA
ATOM     57  C   UNL A   1      42.945  32.166  36.418  1.00  0.00     0.031 C 
ATOM     58  C   UNL A   1      43.565  27.386  32.709  1.00  0.00     0.029 A 
ATOM     59  C   UNL A   1      43.143  28.591  33.250  1.00  0.00     0.049 A 
ATOM     60  H   UNL A   1      41.750  29.973  32.482  1.00  0.00     0.167 HD
ATOM     61  C   UNL A   1      43.113  30.410  34.948  1.00  0.00     0.074 A 
ATOM     62  C   UNL A   1      43.550  31.008  36.194  1.00  0.00     0.031 C 
ATOM     63  C   UNL A   1      43.549  29.210  34.489  1.00  0.00     0.034 A 
BRANCH  50  64
ATOM     64  C   UNL A   1      41.174  27.578  28.981  1.00  0.00     0.023 A 
ATOM     65  C   UNL A   1      42.109  27.563  27.933  1.00  0.00     0.031 A 
ATOM     66  C   UNL A   1      40.096  26.677  28.912  1.00  0.00     0.131 A 
ATOM     67  C   UNL A   1      41.903  26.726  26.824  1.00  0.00     0.055 A 
ATOM     68  C   UNL A   1      39.941  25.788  27.846  1.00  0.00     0.041 A 
ATOM     69  F   UNL A   1      39.154  26.662  29.868  1.00  0.00    -0.206 F 
ATOM     70  C   UNL A   1      40.838  25.822  26.785  1.00  0.00     0.022 A 
BRANCH  67  71
ATOM     71  S   UNL A   1      42.949  26.952  25.360  1.00  0.00     0.124 S 
ATOM     72  O   UNL A   1      42.303  28.088  24.707  1.00  0.00    -0.237 OA
ATOM     73  O   UNL A   1      44.259  27.213  25.946  1.00  0.00    -0.237 OA
ATOM     74  O   UNL A   1      42.825  25.681  24.648  1.00  0.00    -0.744 OA
ENDBRANCH  67  71
ENDBRANCH  50  64
BRANCH  51  75
ATOM     75  C   UNL A   1      41.225  34.538  36.230  1.00  0.00     0.023 A 
ATOM     76  C   UNL A   1      40.452  34.335  37.384  1.00  0.00     0.031 A 
ATOM     77  C   UNL A   1      41.968  35.729  36.135  1.00  0.00     0.131 A 
ATOM     78  C   UNL A   1      40.427  35.318  38.388  1.00  0.00     0.055 A 
ATOM     79  C   UNL A   1      41.981  36.677  37.158  1.00  0.00     0.041 A 
ATOM     80  F   UNL A   1      42.717  35.978  35.049  1.00  0.00    -0.206 F 
ATOM     81  C   UNL A   1      41.199  36.478  38.291  1.00  0.00     0.022 A 
BRANCH  78  82
ATOM     82  S   UNL A   1      39.318  35.088  39.805  1.00  0.00     0.124 S 
ATOM     83  O   UNL A   1      38.339  34.150  39.268  1.00  0.00    -0.237 OA
ATOM     84  O   UNL A   1      40.225  34.560  40.819  1.00  0.00    -0.237 OA
ATOM     85  O   UNL A   1      38.814  36.435  40.065  1.00  0.00    -0.744 OA
ENDBRANCH  78  82
ENDBRANCH  51  75
BRANCH  63  86
ATOM     86  C   UNL A   1      44.582  28.502  35.322  1.00  0.00     0.023 A 
ATOM     87  C   UNL A   1      44.219  27.569  36.309  1.00  0.00     0.031 A 
ATOM     88  C   UNL A   1      45.947  28.768  35.121  1.00  0.00     0.131 A 
ATOM     89  C   UNL A   1      45.215  26.962  37.087  1.00  0.00     0.055 A 
ATOM     90  C   UNL A   1      46.934  28.130  35.870  1.00  0.00     0.041 A 
ATOM     91  F   UNL A   1      46.338  29.652  34.189  1.00  0.00    -0.206 F 
ATOM     92  C   UNL A   1      46.569  27.226  36.866  1.00  0.00     0.022 A 
BRANCH  89  93
ATOM     93  S   UNL A   1      44.716  25.851  38.432  1.00  0.00     0.124 S 
ATOM     94  O   UNL A   1      44.320  24.651  37.701  1.00  0.00    -0.237 OA
ATOM     95  O   UNL A   1      45.939  25.744  39.221  1.00  0.00    -0.237 OA
ATOM     96  O   UNL A   1      43.622  26.571  39.082  1.00  0.00    -0.744 OA
ENDBRANCH  89  93
ENDBRANCH  63  86
ENDBRANCH  37  38
ENDBRANCH  30  32
ENDBRANCH  29  30
ENDBRANCH  28  29
ENDBRANCH   1  28
TORSDOF 20
ENDMDL
