MODEL 1
REMARK VINA RESULT:     -10.7      0.000      0.000
REMARK SMILES O=C(/C=C/C(=O)c1ccc(F)c(Br)c1)OCCOC(=O)c1ccc(-c2c3nc(c(-c4cc(S(=O)(=O)[O-])ccc4F)c4ccc([nH]4)c(-c4cc(S(=O)(=O)[O-])ccc4F)c4nc(c(-c5cc(S(=O)(=O)[O-])ccc5F)c5ccc2[nH]5)C=C4)C=C3)cc1
REMARK SMILES IDX 17 1 16 2 15 3 2 4 1 5 3 6 4 7 5 8 6 9 7 10 8 11 14 12 9 13
REMARK SMILES IDX 12 14 10 15 13 16 11 17 18 18 19 19 20 20 21 21 22 22 83 23
REMARK SMILES IDX 23 24 82 25 24 26 25 27 26 28 76 29 27 30 81 31 75 32 77 33
REMARK SMILES IDX 28 34 80 35 74 36 73 37 29 39 61 40 41 41 60 42 42 43 45 44
REMARK SMILES IDX 59 45 78 46 43 47 44 48 58 50 79 51 46 52 30 53 31 54 39 55
REMARK SMILES IDX 32 56 38 57 40 58 37 59 33 60 34 61 35 62 36 63 62 64 63 65
REMARK SMILES IDX 71 66 64 67 70 68 72 69 69 70 65 71 66 72 67 73 68 74 47 75
REMARK SMILES IDX 48 76 56 77 49 78 55 79 57 80 54 81 50 82 51 83 52 84 53 85
REMARK H PARENT 77 38 45 49
REMARK Flexibility Score: inf
ROOT
ATOM      1  C   UNL A   1      33.084  34.018  28.124  1.00  0.00     0.275 C 
ENDROOT
BRANCH   1   2
ATOM      2  C   UNL A   1      33.399  35.363  28.788  1.00  0.00     0.275 C 
BRANCH   2   3
ATOM      3  O   UNL A   1      32.667  35.669  29.997  1.00  0.00    -0.459 OA
BRANCH   3   4
ATOM      4  C   UNL A   1      33.063  36.457  31.027  1.00  0.00     0.331 C 
ATOM      5  O   UNL A   1      32.936  37.675  30.983  1.00  0.00    -0.247 OA
BRANCH   4   6
ATOM      6  C   UNL A   1      33.819  35.859  32.137  1.00  0.00     0.097 C 
ATOM      7  C   UNL A   1      34.034  34.548  32.278  1.00  0.00     0.060 C 
BRANCH   7   8
ATOM      8  C   UNL A   1      35.064  33.980  33.179  1.00  0.00     0.186 C 
ATOM      9  O   UNL A   1      34.693  33.191  34.046  1.00  0.00    -0.289 OA
BRANCH   8  10
ATOM     10  C   UNL A   1      36.504  34.296  33.048  1.00  0.00     0.023 A 
ATOM     11  C   UNL A   1      37.334  34.431  34.165  1.00  0.00     0.015 A 
ATOM     12  C   UNL A   1      37.049  34.349  31.754  1.00  0.00     0.031 A 
ATOM     13  C   UNL A   1      38.708  34.606  33.980  1.00  0.00     0.041 A 
ATOM     14  C   UNL A   1      38.418  34.548  31.582  1.00  0.00     0.054 A 
ATOM     15  C   UNL A   1      39.242  34.672  32.695  1.00  0.00     0.137 A 
ATOM     16  Br  UNL A   1      39.135  34.635  29.835  1.00  0.00    -0.048 Br
ATOM     17  F   UNL A   1      40.561  34.843  32.550  1.00  0.00    -0.206 F 
ENDBRANCH   8  10
ENDBRANCH   7   8
ENDBRANCH   4   6
ENDBRANCH   3   4
ENDBRANCH   2   3
ENDBRANCH   1   2
BRANCH   1  18
ATOM     18  O   UNL A   1      34.243  33.310  27.659  1.00  0.00    -0.458 OA
BRANCH  18  19
ATOM     19  C   UNL A   1      34.098  31.960  27.605  1.00  0.00     0.338 C 
ATOM     20  O   UNL A   1      33.179  31.354  27.080  1.00  0.00    -0.246 OA
BRANCH  19  21
ATOM     21  C   UNL A   1      35.316  31.307  28.139  1.00  0.00     0.060 A 
ATOM     22  C   UNL A   1      35.231  29.967  28.539  1.00  0.00     0.016 A 
ATOM     23  C   UNL A   1      36.533  31.984  28.237  1.00  0.00     0.016 A 
ATOM     24  C   UNL A   1      36.356  29.306  29.047  1.00  0.00     0.010 A 
ATOM     25  C   UNL A   1      37.655  31.315  28.742  1.00  0.00     0.010 A 
ATOM     26  C   UNL A   1      37.582  29.973  29.166  1.00  0.00    -0.014 A 
BRANCH  26  27
ATOM     27  C   UNL A   1      38.768  29.334  29.814  1.00  0.00     0.031 A 
ATOM     28  C   UNL A   1      39.312  29.915  31.095  1.00  0.00     0.074 A 
ATOM     29  C   UNL A   1      39.395  28.270  29.270  1.00  0.00     0.049 A 
ATOM     30  N   UNL A   1      40.384  29.582  31.770  1.00  0.00    -0.248 NA
ATOM     31  C   UNL A   1      38.536  31.007  31.702  1.00  0.00     0.031 C 
ATOM     32  C   UNL A   1      38.963  27.537  28.081  1.00  0.00     0.029 A 
ATOM     33  N   UNL A   1      40.573  27.650  29.626  1.00  0.00    -0.354 N 
ATOM     34  C   UNL A   1      40.387  30.391  32.900  1.00  0.00     0.074 A 
ATOM     35  C   UNL A   1      39.270  31.302  32.763  1.00  0.00     0.031 C 
ATOM     36  C   UNL A   1      39.911  26.644  27.746  1.00  0.00     0.029 A 
ATOM     37  C   UNL A   1      41.017  26.740  28.692  1.00  0.00     0.049 A 
ATOM     38  H   UNL A   1      41.051  27.840  30.465  1.00  0.00     0.167 HD
ATOM     39  C   UNL A   1      41.207  30.347  33.980  1.00  0.00     0.034 A 
ATOM     40  C   UNL A   1      42.191  26.083  28.586  1.00  0.00     0.034 A 
ATOM     41  C   UNL A   1      42.329  29.450  34.112  1.00  0.00     0.049 A 
ATOM     42  C   UNL A   1      43.208  26.190  29.697  1.00  0.00     0.074 A 
ATOM     43  C   UNL A   1      43.177  29.286  35.195  1.00  0.00     0.029 A 
ATOM     44  N   UNL A   1      42.778  28.585  33.125  1.00  0.00    -0.354 N 
ATOM     45  N   UNL A   1      43.154  26.900  30.798  1.00  0.00    -0.248 NA
ATOM     46  C   UNL A   1      44.413  25.359  29.577  1.00  0.00     0.031 C 
ATOM     47  C   UNL A   1      44.183  28.384  34.832  1.00  0.00     0.029 A 
ATOM     48  C   UNL A   1      43.916  27.919  33.556  1.00  0.00     0.049 A 
ATOM     49  H   UNL A   1      42.352  28.462  32.246  1.00  0.00     0.167 HD
ATOM     50  C   UNL A   1      44.276  26.533  31.540  1.00  0.00     0.074 A 
ATOM     51  C   UNL A   1      45.000  25.563  30.747  1.00  0.00     0.031 C 
ATOM     52  C   UNL A   1      44.643  26.939  32.781  1.00  0.00     0.034 A 
BRANCH  39  53
ATOM     53  C   UNL A   1      40.908  31.302  35.109  1.00  0.00     0.023 A 
ATOM     54  C   UNL A   1      39.806  31.103  35.961  1.00  0.00     0.031 A 
ATOM     55  C   UNL A   1      41.718  32.428  35.333  1.00  0.00     0.131 A 
ATOM     56  C   UNL A   1      39.498  32.055  36.943  1.00  0.00     0.055 A 
ATOM     57  C   UNL A   1      41.454  33.328  36.367  1.00  0.00     0.041 A 
ATOM     58  F   UNL A   1      42.773  32.679  34.542  1.00  0.00    -0.206 F 
ATOM     59  C   UNL A   1      40.330  33.153  37.170  1.00  0.00     0.022 A 
BRANCH  56  60
ATOM     60  S   UNL A   1      37.917  31.912  37.820  1.00  0.00     0.124 S 
ATOM     61  O   UNL A   1      37.126  32.958  37.175  1.00  0.00    -0.237 OA
ATOM     62  O   UNL A   1      37.517  30.539  37.530  1.00  0.00    -0.237 OA
ATOM     63  O   UNL A   1      38.272  32.179  39.212  1.00  0.00    -0.744 OA
ENDBRANCH  56  60
ENDBRANCH  39  53
BRANCH  40  64
ATOM     64  C   UNL A   1      42.500  25.275  27.371  1.00  0.00     0.023 A 
ATOM     65  C   UNL A   1      42.122  23.927  27.274  1.00  0.00     0.031 A 
ATOM     66  C   UNL A   1      43.262  25.824  26.324  1.00  0.00     0.131 A 
ATOM     67  C   UNL A   1      42.557  23.157  26.183  1.00  0.00     0.055 A 
ATOM     68  C   UNL A   1      43.657  25.065  25.221  1.00  0.00     0.041 A 
ATOM     69  F   UNL A   1      43.644  27.109  26.363  1.00  0.00    -0.206 F 
ATOM     70  C   UNL A   1      43.317  23.718  25.154  1.00  0.00     0.022 A 
BRANCH  67  71
ATOM     71  S   UNL A   1      42.190  21.380  26.174  1.00  0.00     0.124 S 
ATOM     72  O   UNL A   1      40.796  21.366  25.746  1.00  0.00    -0.237 OA
ATOM     73  O   UNL A   1      43.165  20.878  25.211  1.00  0.00    -0.237 OA
ATOM     74  O   UNL A   1      42.423  20.980  27.560  1.00  0.00    -0.744 OA
ENDBRANCH  67  71
ENDBRANCH  40  64
BRANCH  52  75
ATOM     75  C   UNL A   1      45.832  26.255  33.417  1.00  0.00     0.023 A 
ATOM     76  C   UNL A   1      45.704  25.097  34.203  1.00  0.00     0.031 A 
ATOM     77  C   UNL A   1      47.122  26.788  33.236  1.00  0.00     0.131 A 
ATOM     78  C   UNL A   1      46.837  24.545  34.823  1.00  0.00     0.055 A 
ATOM     79  C   UNL A   1      48.252  26.197  33.801  1.00  0.00     0.041 A 
ATOM     80  F   UNL A   1      47.307  27.898  32.502  1.00  0.00    -0.206 F 
ATOM     81  C   UNL A   1      48.112  25.075  34.611  1.00  0.00     0.022 A 
BRANCH  78  82
ATOM     82  S   UNL A   1      46.613  23.175  35.991  1.00  0.00     0.124 S 
ATOM     83  O   UNL A   1      46.775  22.010  35.128  1.00  0.00    -0.237 OA
ATOM     84  O   UNL A   1      47.684  23.407  36.956  1.00  0.00    -0.237 OA
ATOM     85  O   UNL A   1      45.260  23.381  36.507  1.00  0.00    -0.744 OA
ENDBRANCH  78  82
ENDBRANCH  52  75
ENDBRANCH  26  27
ENDBRANCH  19  21
ENDBRANCH  18  19
ENDBRANCH   1  18
TORSDOF 16
ENDMDL
MODEL 2
REMARK VINA RESULT:     -10.3      4.984     12.402
REMARK SMILES O=C(/C=C/C(=O)c1ccc(F)c(Br)c1)OCCOC(=O)c1ccc(-c2c3nc(c(-c4cc(S(=O)(=O)[O-])ccc4F)c4ccc([nH]4)c(-c4cc(S(=O)(=O)[O-])ccc4F)c4nc(c(-c5cc(S(=O)(=O)[O-])ccc5F)c5ccc2[nH]5)C=C4)C=C3)cc1
REMARK SMILES IDX 17 1 16 2 15 3 2 4 1 5 3 6 4 7 5 8 6 9 7 10 8 11 14 12 9 13
REMARK SMILES IDX 12 14 10 15 13 16 11 17 18 18 19 19 20 20 21 21 22 22 83 23
REMARK SMILES IDX 23 24 82 25 24 26 25 27 26 28 76 29 27 30 81 31 75 32 77 33
REMARK SMILES IDX 28 34 80 35 74 36 73 37 29 39 61 40 41 41 60 42 42 43 45 44
REMARK SMILES IDX 59 45 78 46 43 47 44 48 58 50 79 51 46 52 30 53 31 54 39 55
REMARK SMILES IDX 32 56 38 57 40 58 37 59 33 60 34 61 35 62 36 63 62 64 63 65
REMARK SMILES IDX 71 66 64 67 70 68 72 69 69 70 65 71 66 72 67 73 68 74 47 75
REMARK SMILES IDX 48 76 56 77 49 78 55 79 57 80 54 81 50 82 51 83 52 84 53 85
REMARK H PARENT 77 38 45 49
REMARK Flexibility Score: inf
ROOT
ATOM      1  C   UNL A   1      40.747  19.660  26.120  1.00  0.00     0.275 C 
ENDROOT
BRANCH   1   2
ATOM      2  C   UNL A   1      42.138  19.041  26.295  1.00  0.00     0.275 C 
BRANCH   2   3
ATOM      3  O   UNL A   1      42.923  18.876  25.092  1.00  0.00    -0.459 OA
BRANCH   3   4
ATOM      4  C   UNL A   1      44.221  19.214  24.898  1.00  0.00     0.331 C 
ATOM      5  O   UNL A   1      45.054  18.380  24.561  1.00  0.00    -0.247 OA
BRANCH   4   6
ATOM      6  C   UNL A   1      44.674  20.561  25.272  1.00  0.00     0.097 C 
ATOM      7  C   UNL A   1      45.454  21.330  24.507  1.00  0.00     0.060 C 
BRANCH   7   8
ATOM      8  C   UNL A   1      45.623  22.787  24.715  1.00  0.00     0.186 C 
ATOM      9  O   UNL A   1      45.403  23.531  23.761  1.00  0.00    -0.289 OA
BRANCH   8  10
ATOM     10  C   UNL A   1      46.005  23.370  26.021  1.00  0.00     0.023 A 
ATOM     11  C   UNL A   1      47.090  24.242  26.151  1.00  0.00     0.015 A 
ATOM     12  C   UNL A   1      45.173  23.112  27.123  1.00  0.00     0.031 A 
ATOM     13  C   UNL A   1      47.330  24.860  27.381  1.00  0.00     0.041 A 
ATOM     14  C   UNL A   1      45.437  23.715  28.352  1.00  0.00     0.054 A 
ATOM     15  C   UNL A   1      46.511  24.590  28.474  1.00  0.00     0.137 A 
ATOM     16  Br  UNL A   1      44.320  23.344  29.831  1.00  0.00    -0.048 Br
ATOM     17  F   UNL A   1      46.767  25.194  29.640  1.00  0.00    -0.206 F 
ENDBRANCH   8  10
ENDBRANCH   7   8
ENDBRANCH   4   6
ENDBRANCH   3   4
ENDBRANCH   2   3
ENDBRANCH   1   2
BRANCH   1  18
ATOM     18  O   UNL A   1      40.500  20.790  26.970  1.00  0.00    -0.458 OA
BRANCH  18  19
ATOM     19  C   UNL A   1      39.592  21.677  26.484  1.00  0.00     0.338 C 
ATOM     20  O   UNL A   1      38.549  21.402  25.914  1.00  0.00    -0.246 OA
BRANCH  19  21
ATOM     21  C   UNL A   1      39.970  23.051  26.892  1.00  0.00     0.060 A 
ATOM     22  C   UNL A   1      39.255  24.126  26.347  1.00  0.00     0.016 A 
ATOM     23  C   UNL A   1      40.996  23.292  27.805  1.00  0.00     0.016 A 
ATOM     24  C   UNL A   1      39.573  25.442  26.704  1.00  0.00     0.010 A 
ATOM     25  C   UNL A   1      41.306  24.610  28.162  1.00  0.00     0.010 A 
ATOM     26  C   UNL A   1      40.610  25.704  27.609  1.00  0.00    -0.014 A 
BRANCH  26  27
ATOM     27  C   UNL A   1      41.052  27.098  27.919  1.00  0.00     0.031 A 
ATOM     28  C   UNL A   1      42.508  27.462  27.769  1.00  0.00     0.074 A 
ATOM     29  C   UNL A   1      40.194  28.039  28.366  1.00  0.00     0.049 A 
ATOM     30  N   UNL A   1      43.123  28.577  28.075  1.00  0.00    -0.248 NA
ATOM     31  C   UNL A   1      43.384  26.435  27.183  1.00  0.00     0.031 C 
ATOM     32  C   UNL A   1      38.747  27.885  28.498  1.00  0.00     0.029 A 
ATOM     33  N   UNL A   1      40.433  29.309  28.845  1.00  0.00    -0.354 N 
ATOM     34  C   UNL A   1      44.444  28.403  27.680  1.00  0.00     0.074 A 
ATOM     35  C   UNL A   1      44.562  27.038  27.211  1.00  0.00     0.031 C 
ATOM     36  C   UNL A   1      38.243  28.967  29.118  1.00  0.00     0.029 A 
ATOM     37  C   UNL A   1      39.329  29.890  29.430  1.00  0.00     0.049 A 
ATOM     38  H   UNL A   1      41.306  29.757  28.777  1.00  0.00     0.167 HD
ATOM     39  C   UNL A   1      45.454  29.309  27.654  1.00  0.00     0.034 A 
ATOM     40  C   UNL A   1      39.206  31.017  30.163  1.00  0.00     0.034 A 
ATOM     41  C   UNL A   1      45.342  30.664  28.133  1.00  0.00     0.049 A 
ATOM     42  C   UNL A   1      40.391  31.939  30.314  1.00  0.00     0.074 A 
ATOM     43  C   UNL A   1      46.290  31.674  28.088  1.00  0.00     0.029 A 
ATOM     44  N   UNL A   1      44.229  31.196  28.767  1.00  0.00    -0.354 N 
ATOM     45  N   UNL A   1      41.613  31.793  29.861  1.00  0.00    -0.248 NA
ATOM     46  C   UNL A   1      40.162  33.206  31.023  1.00  0.00     0.031 C 
ATOM     47  C   UNL A   1      45.779  32.786  28.766  1.00  0.00     0.029 A 
ATOM     48  C   UNL A   1      44.481  32.503  29.158  1.00  0.00     0.049 A 
ATOM     49  H   UNL A   1      43.383  30.716  28.918  1.00  0.00     0.167 HD
ATOM     50  C   UNL A   1      42.271  32.987  30.156  1.00  0.00     0.074 A 
ATOM     51  C   UNL A   1      41.319  33.827  30.850  1.00  0.00     0.031 C 
ATOM     52  C   UNL A   1      43.538  33.358  29.841  1.00  0.00     0.034 A 
BRANCH  39  53
ATOM     53  C   UNL A   1      46.772  28.851  27.079  1.00  0.00     0.023 A 
ATOM     54  C   UNL A   1      46.940  28.667  25.694  1.00  0.00     0.031 A 
ATOM     55  C   UNL A   1      47.868  28.582  27.917  1.00  0.00     0.131 A 
ATOM     56  C   UNL A   1      48.145  28.152  25.196  1.00  0.00     0.055 A 
ATOM     57  C   UNL A   1      49.094  28.151  27.406  1.00  0.00     0.041 A 
ATOM     58  F   UNL A   1      47.763  28.723  29.247  1.00  0.00    -0.206 F 
ATOM     59  C   UNL A   1      49.233  27.919  26.039  1.00  0.00     0.022 A 
BRANCH  56  60
ATOM     60  S   UNL A   1      48.219  27.659  23.453  1.00  0.00     0.124 S 
ATOM     61  O   UNL A   1      47.709  26.291  23.512  1.00  0.00    -0.237 OA
ATOM     62  O   UNL A   1      47.350  28.638  22.809  1.00  0.00    -0.237 OA
ATOM     63  O   UNL A   1      49.639  27.773  23.126  1.00  0.00    -0.744 OA
ENDBRANCH  56  60
ENDBRANCH  39  53
BRANCH  40  64
ATOM     64  C   UNL A   1      37.918  31.342  30.841  1.00  0.00     0.023 A 
ATOM     65  C   UNL A   1      36.910  32.067  30.188  1.00  0.00     0.031 A 
ATOM     66  C   UNL A   1      37.720  31.007  32.193  1.00  0.00     0.131 A 
ATOM     67  C   UNL A   1      35.775  32.484  30.902  1.00  0.00     0.055 A 
ATOM     68  C   UNL A   1      36.571  31.388  32.888  1.00  0.00     0.041 A 
ATOM     69  F   UNL A   1      38.649  30.309  32.863  1.00  0.00    -0.206 F 
ATOM     70  C   UNL A   1      35.596  32.145  32.245  1.00  0.00     0.022 A 
BRANCH  67  71
ATOM     71  S   UNL A   1      34.573  33.558  30.070  1.00  0.00     0.124 S 
ATOM     72  O   UNL A   1      35.445  34.452  29.316  1.00  0.00    -0.237 OA
ATOM     73  O   UNL A   1      33.805  32.597  29.286  1.00  0.00    -0.237 OA
ATOM     74  O   UNL A   1      33.849  34.177  31.177  1.00  0.00    -0.744 OA
ENDBRANCH  67  71
ENDBRANCH  40  64
BRANCH  52  75
ATOM     75  C   UNL A   1      43.944  34.782  30.145  1.00  0.00     0.023 A 
ATOM     76  C   UNL A   1      44.455  35.169  31.396  1.00  0.00     0.031 A 
ATOM     77  C   UNL A   1      43.804  35.774  29.156  1.00  0.00     0.131 A 
ATOM     78  C   UNL A   1      44.752  36.520  31.642  1.00  0.00     0.055 A 
ATOM     79  C   UNL A   1      44.163  37.102  29.385  1.00  0.00     0.041 A 
ATOM     80  F   UNL A   1      43.314  35.466  27.944  1.00  0.00    -0.206 F 
ATOM     81  C   UNL A   1      44.628  37.485  30.638  1.00  0.00     0.022 A 
BRANCH  78  82
ATOM     82  S   UNL A   1      45.215  37.021  33.323  1.00  0.00     0.124 S 
ATOM     83  O   UNL A   1      46.466  37.737  33.093  1.00  0.00    -0.237 OA
ATOM     84  O   UNL A   1      44.078  37.840  33.730  1.00  0.00    -0.237 OA
ATOM     85  O   UNL A   1      45.350  35.751  34.035  1.00  0.00    -0.744 OA
ENDBRANCH  78  82
ENDBRANCH  52  75
ENDBRANCH  26  27
ENDBRANCH  19  21
ENDBRANCH  18  19
ENDBRANCH   1  18
TORSDOF 16
ENDMDL
MODEL 3
REMARK VINA RESULT:     -10.2      1.816      2.086
REMARK SMILES O=C(/C=C/C(=O)c1ccc(F)c(Br)c1)OCCOC(=O)c1ccc(-c2c3nc(c(-c4cc(S(=O)(=O)[O-])ccc4F)c4ccc([nH]4)c(-c4cc(S(=O)(=O)[O-])ccc4F)c4nc(c(-c5cc(S(=O)(=O)[O-])ccc5F)c5ccc2[nH]5)C=C4)C=C3)cc1
REMARK SMILES IDX 17 1 16 2 15 3 2 4 1 5 3 6 4 7 5 8 6 9 7 10 8 11 14 12 9 13
REMARK SMILES IDX 12 14 10 15 13 16 11 17 18 18 19 19 20 20 21 21 22 22 83 23
REMARK SMILES IDX 23 24 82 25 24 26 25 27 26 28 76 29 27 30 81 31 75 32 77 33
REMARK SMILES IDX 28 34 80 35 74 36 73 37 29 39 61 40 41 41 60 42 42 43 45 44
REMARK SMILES IDX 59 45 78 46 43 47 44 48 58 50 79 51 46 52 30 53 31 54 39 55
REMARK SMILES IDX 32 56 38 57 40 58 37 59 33 60 34 61 35 62 36 63 62 64 63 65
REMARK SMILES IDX 71 66 64 67 70 68 72 69 69 70 65 71 66 72 67 73 68 74 47 75
REMARK SMILES IDX 48 76 56 77 49 78 55 79 57 80 54 81 50 82 51 83 52 84 53 85
REMARK H PARENT 77 38 45 49
REMARK Flexibility Score: inf
ROOT
ATOM      1  C   UNL A   1      33.256  33.607  27.994  1.00  0.00     0.275 C 
ENDROOT
BRANCH   1   2
ATOM      2  C   UNL A   1      33.168  34.920  28.782  1.00  0.00     0.275 C 
BRANCH   2   3
ATOM      3  O   UNL A   1      32.882  34.803  30.194  1.00  0.00    -0.459 OA
BRANCH   3   4
ATOM      4  C   UNL A   1      33.034  35.752  31.150  1.00  0.00     0.331 C 
ATOM      5  O   UNL A   1      32.527  36.862  31.034  1.00  0.00    -0.247 OA
BRANCH   4   6
ATOM      6  C   UNL A   1      33.968  35.509  32.259  1.00  0.00     0.097 C 
ATOM      7  C   UNL A   1      34.225  34.303  32.773  1.00  0.00     0.060 C 
BRANCH   7   8
ATOM      8  C   UNL A   1      35.396  34.013  33.634  1.00  0.00     0.186 C 
ATOM      9  O   UNL A   1      35.184  33.523  34.741  1.00  0.00    -0.289 OA
BRANCH   8  10
ATOM     10  C   UNL A   1      36.789  34.254  33.198  1.00  0.00     0.023 A 
ATOM     11  C   UNL A   1      37.826  34.455  34.115  1.00  0.00     0.015 A 
ATOM     12  C   UNL A   1      37.072  34.165  31.824  1.00  0.00     0.031 A 
ATOM     13  C   UNL A   1      39.141  34.553  33.653  1.00  0.00     0.041 A 
ATOM     14  C   UNL A   1      38.385  34.288  31.373  1.00  0.00     0.054 A 
ATOM     15  C   UNL A   1      39.414  34.478  32.289  1.00  0.00     0.137 A 
ATOM     16  Br  UNL A   1      38.748  34.185  29.521  1.00  0.00    -0.048 Br
ATOM     17  F   UNL A   1      40.683  34.579  31.876  1.00  0.00    -0.206 F 
ENDBRANCH   8  10
ENDBRANCH   7   8
ENDBRANCH   4   6
ENDBRANCH   3   4
ENDBRANCH   2   3
ENDBRANCH   1   2
BRANCH   1  18
ATOM     18  O   UNL A   1      34.467  32.871  28.218  1.00  0.00    -0.458 OA
BRANCH  18  19
ATOM     19  C   UNL A   1      34.411  31.563  27.853  1.00  0.00     0.338 C 
ATOM     20  O   UNL A   1      33.561  31.047  27.147  1.00  0.00    -0.246 OA
BRANCH  19  21
ATOM     21  C   UNL A   1      35.637  30.866  28.308  1.00  0.00     0.060 A 
ATOM     22  C   UNL A   1      35.545  30.012  29.414  1.00  0.00     0.016 A 
ATOM     23  C   UNL A   1      36.860  31.028  27.656  1.00  0.00     0.016 A 
ATOM     24  C   UNL A   1      36.676  29.329  29.879  1.00  0.00     0.010 A 
ATOM     25  C   UNL A   1      37.986  30.338  28.122  1.00  0.00     0.010 A 
ATOM     26  C   UNL A   1      37.915  29.490  29.246  1.00  0.00    -0.014 A 
BRANCH  26  27
ATOM     27  C   UNL A   1      39.164  28.870  29.788  1.00  0.00     0.031 A 
ATOM     28  C   UNL A   1      39.881  29.537  30.935  1.00  0.00     0.074 A 
ATOM     29  C   UNL A   1      39.694  27.747  29.259  1.00  0.00     0.049 A 
ATOM     30  N   UNL A   1      41.025  29.227  31.492  1.00  0.00    -0.248 NA
ATOM     31  C   UNL A   1      39.212  30.697  31.542  1.00  0.00     0.031 C 
ATOM     32  C   UNL A   1      39.097  26.934  28.202  1.00  0.00     0.029 A 
ATOM     33  N   UNL A   1      40.896  27.123  29.512  1.00  0.00    -0.354 N 
ATOM     34  C   UNL A   1      41.192  30.125  32.540  1.00  0.00     0.074 A 
ATOM     35  C   UNL A   1      40.084  31.055  32.472  1.00  0.00     0.031 C 
ATOM     36  C   UNL A   1      39.975  25.988  27.824  1.00  0.00     0.029 A 
ATOM     37  C   UNL A   1      41.197  26.127  28.609  1.00  0.00     0.049 A 
ATOM     38  H   UNL A   1      41.482  27.366  30.264  1.00  0.00     0.167 HD
ATOM     39  C   UNL A   1      42.144  30.143  33.506  1.00  0.00     0.034 A 
ATOM     40  C   UNL A   1      42.334  25.429  28.408  1.00  0.00     0.034 A 
ATOM     41  C   UNL A   1      43.256  29.228  33.568  1.00  0.00     0.049 A 
ATOM     42  C   UNL A   1      43.489  25.595  29.366  1.00  0.00     0.074 A 
ATOM     43  C   UNL A   1      44.235  29.126  34.543  1.00  0.00     0.029 A 
ATOM     44  N   UNL A   1      43.556  28.272  32.608  1.00  0.00    -0.354 N 
ATOM     45  N   UNL A   1      43.593  26.393  30.402  1.00  0.00    -0.248 NA
ATOM     46  C   UNL A   1      44.652  24.721  29.164  1.00  0.00     0.031 C 
ATOM     47  C   UNL A   1      45.168  28.168  34.131  1.00  0.00     0.029 A 
ATOM     48  C   UNL A   1      44.728  27.609  32.944  1.00  0.00     0.049 A 
ATOM     49  H   UNL A   1      43.017  28.091  31.804  1.00  0.00     0.167 HD
ATOM     50  C   UNL A   1      44.795  26.055  31.022  1.00  0.00     0.074 A 
ATOM     51  C   UNL A   1      45.391  25.002  30.227  1.00  0.00     0.031 C 
ATOM     52  C   UNL A   1      45.329  26.549  32.167  1.00  0.00     0.034 A 
BRANCH  39  53
ATOM     53  C   UNL A   1      42.013  31.196  34.580  1.00  0.00     0.023 A 
ATOM     54  C   UNL A   1      42.484  32.507  34.376  1.00  0.00     0.031 A 
ATOM     55  C   UNL A   1      41.428  30.891  35.820  1.00  0.00     0.131 A 
ATOM     56  C   UNL A   1      42.434  33.439  35.422  1.00  0.00     0.055 A 
ATOM     57  C   UNL A   1      41.305  31.849  36.828  1.00  0.00     0.041 A 
ATOM     58  F   UNL A   1      40.977  29.654  36.077  1.00  0.00    -0.206 F 
ATOM     59  C   UNL A   1      41.823  33.128  36.638  1.00  0.00     0.022 A 
BRANCH  56  60
ATOM     60  S   UNL A   1      43.307  35.015  35.217  1.00  0.00     0.124 S 
ATOM     61  O   UNL A   1      43.304  35.534  36.583  1.00  0.00    -0.237 OA
ATOM     62  O   UNL A   1      44.603  34.594  34.697  1.00  0.00    -0.237 OA
ATOM     63  O   UNL A   1      42.466  35.752  34.277  1.00  0.00    -0.744 OA
ENDBRANCH  56  60
ENDBRANCH  39  53
BRANCH  40  64
ATOM     64  C   UNL A   1      42.466  24.516  27.236  1.00  0.00     0.023 A 
ATOM     65  C   UNL A   1      42.009  23.191  27.287  1.00  0.00     0.031 A 
ATOM     66  C   UNL A   1      43.139  24.939  26.075  1.00  0.00     0.131 A 
ATOM     67  C   UNL A   1      42.282  22.317  26.221  1.00  0.00     0.055 A 
ATOM     68  C   UNL A   1      43.372  24.078  25.001  1.00  0.00     0.041 A 
ATOM     69  F   UNL A   1      43.590  26.198  25.972  1.00  0.00    -0.206 F 
ATOM     70  C   UNL A   1      42.955  22.753  25.078  1.00  0.00     0.022 A 
BRANCH  67  71
ATOM     71  S   UNL A   1      41.822  20.571  26.393  1.00  0.00     0.124 S 
ATOM     72  O   UNL A   1      42.648  19.943  25.368  1.00  0.00    -0.237 OA
ATOM     73  O   UNL A   1      42.195  20.298  27.777  1.00  0.00    -0.237 OA
ATOM     74  O   UNL A   1      40.385  20.571  26.125  1.00  0.00    -0.744 OA
ENDBRANCH  67  71
ENDBRANCH  40  64
BRANCH  52  75
ATOM     75  C   UNL A   1      46.577  25.883  32.700  1.00  0.00     0.023 A 
ATOM     76  C   UNL A   1      46.531  24.826  33.625  1.00  0.00     0.031 A 
ATOM     77  C   UNL A   1      47.842  26.331  32.275  1.00  0.00     0.131 A 
ATOM     78  C   UNL A   1      47.726  24.291  34.136  1.00  0.00     0.055 A 
ATOM     79  C   UNL A   1      49.024  25.752  32.736  1.00  0.00     0.041 A 
ATOM     80  F   UNL A   1      47.950  27.344  31.399  1.00  0.00    -0.206 F 
ATOM     81  C   UNL A   1      48.971  24.735  33.682  1.00  0.00     0.022 A 
BRANCH  78  82
ATOM     82  S   UNL A   1      47.635  23.071  35.475  1.00  0.00     0.124 S 
ATOM     83  O   UNL A   1      46.363  23.407  36.106  1.00  0.00    -0.237 OA
ATOM     84  O   UNL A   1      47.670  21.805  34.748  1.00  0.00    -0.237 OA
ATOM     85  O   UNL A   1      48.821  23.355  36.280  1.00  0.00    -0.744 OA
ENDBRANCH  78  82
ENDBRANCH  52  75
ENDBRANCH  26  27
ENDBRANCH  19  21
ENDBRANCH  18  19
ENDBRANCH   1  18
TORSDOF 16
ENDMDL
