MODEL 1
REMARK VINA RESULT:     -12.0      0.000      0.000
REMARK SMILES Cc1cccc(C[C@H](CC(=O)OCCOC(=O)c2ccc(-c3c4nc(c(-c5cc(S(=O)(=O)[O-])ccc5F)c5ccc([nH]5)c(-c5cc(S(=O)(=O)[O-])ccc5F)c5nc(c(-c6cc(S(=O)(=O)[O-])ccc6F)c6ccc3[nH]6)C=C5)C=C4)cc2)NC(=O)OC(C)(C)C)c1
REMARK SMILES IDX 13 1 12 2 10 3 11 4 9 5 8 6 7 7 6 8 1 9 2 10 3 11 89 12 4 13
REMARK SMILES IDX 5 14 81 15 82 16 83 18 84 19 85 20 86 21 87 22 88 23 14 24
REMARK SMILES IDX 15 25 16 26 17 27 18 28 19 29 80 30 20 31 79 32 21 33 22 34
REMARK SMILES IDX 23 35 73 36 24 37 78 38 72 39 74 40 25 41 77 42 71 43 70 44
REMARK SMILES IDX 26 46 58 47 38 48 57 49 39 50 42 51 56 52 75 53 40 54 41 55
REMARK SMILES IDX 55 57 76 58 43 59 27 60 28 61 36 62 29 63 35 64 37 65 34 66
REMARK SMILES IDX 30 67 31 68 32 69 33 70 59 71 60 72 68 73 61 74 67 75 69 76
REMARK SMILES IDX 66 77 62 78 63 79 64 80 65 81 44 82 45 83 53 84 46 85 52 86
REMARK SMILES IDX 54 87 51 88 47 89 48 90 49 91 50 92
REMARK H PARENT 81 17 74 45 42 56
REMARK Flexibility Score: inf
ROOT
ATOM      1  C   UNL A   1      31.220  30.656  25.369  1.00  0.00     0.274 C 
ENDROOT
BRANCH   1   2
ATOM      2  O   UNL A   1      31.830  29.416  25.732  1.00  0.00    -0.462 OA
BRANCH   2   3
ATOM      3  C   UNL A   1      32.992  29.049  25.150  1.00  0.00     0.308 C 
ATOM      4  O   UNL A   1      34.060  28.917  25.726  1.00  0.00    -0.252 OA
BRANCH   3   5
ATOM      5  C   UNL A   1      32.775  28.857  23.665  1.00  0.00     0.148 C 
BRANCH   5   6
ATOM      6  C   UNL A   1      31.984  27.610  23.304  1.00  0.00     0.101 C 
BRANCH   6   7
ATOM      7  C   UNL A   1      30.916  27.823  22.207  1.00  0.00     0.061 C 
BRANCH   7   8
ATOM      8  C   UNL A   1      29.725  28.697  22.504  1.00  0.00    -0.046 A 
ATOM      9  C   UNL A   1      28.576  32.258  21.757  1.00  0.00     0.044 C 
ATOM     10  C   UNL A   1      28.599  30.844  22.252  1.00  0.00    -0.051 A 
ATOM     11  C   UNL A   1      27.448  30.296  22.829  1.00  0.00     0.003 A 
ATOM     12  C   UNL A   1      29.742  30.045  22.113  1.00  0.00     0.007 A 
ATOM     13  C   UNL A   1      27.417  28.959  23.200  1.00  0.00     0.001 A 
ATOM     14  C   UNL A   1      28.537  28.161  23.007  1.00  0.00     0.004 A 
ENDBRANCH   7   8
ENDBRANCH   6   7
BRANCH   6  15
ATOM     15  N   UNL A   1      32.982  26.594  23.007  1.00  0.00    -0.318 N 
ATOM     16  C   UNL A   1      32.988  25.344  23.535  1.00  0.00     0.407 C 
ATOM     17  H   UNL A   1      33.704  26.830  22.380  1.00  0.00     0.167 HD
ATOM     18  O   UNL A   1      33.956  24.601  23.389  1.00  0.00    -0.225 OA
BRANCH  16  19
ATOM     19  O   UNL A   1      31.816  25.029  24.129  1.00  0.00    -0.444 OA
BRANCH  19  20
ATOM     20  C   UNL A   1      31.703  25.033  25.567  1.00  0.00     0.106 C 
ATOM     21  C   UNL A   1      33.060  25.355  26.206  1.00  0.00     0.056 C 
ATOM     22  C   UNL A   1      30.585  25.974  26.018  1.00  0.00     0.056 C 
ATOM     23  C   UNL A   1      31.326  23.594  25.957  1.00  0.00     0.056 C 
ENDBRANCH  19  20
ENDBRANCH  16  19
ENDBRANCH   6  15
ENDBRANCH   5   6
ENDBRANCH   3   5
ENDBRANCH   2   3
ENDBRANCH   1   2
BRANCH   1  24
ATOM     24  C   UNL A   1      31.374  31.630  26.559  1.00  0.00     0.275 C 
BRANCH  24  25
ATOM     25  O   UNL A   1      32.614  31.632  27.322  1.00  0.00    -0.458 OA
BRANCH  25  26
ATOM     26  C   UNL A   1      33.170  32.815  27.728  1.00  0.00     0.338 C 
ATOM     27  O   UNL A   1      32.530  33.814  28.012  1.00  0.00    -0.246 OA
BRANCH  26  28
ATOM     28  C   UNL A   1      34.617  32.615  28.005  1.00  0.00     0.060 A 
ATOM     29  C   UNL A   1      35.534  33.682  27.956  1.00  0.00     0.016 A 
ATOM     30  C   UNL A   1      34.929  31.453  28.694  1.00  0.00     0.016 A 
ATOM     31  C   UNL A   1      36.718  33.611  28.700  1.00  0.00     0.010 A 
ATOM     32  C   UNL A   1      35.899  31.526  29.646  1.00  0.00     0.010 A 
ATOM     33  C   UNL A   1      36.854  32.552  29.587  1.00  0.00    -0.014 A 
BRANCH  33  34
ATOM     34  C   UNL A   1      38.065  32.142  30.280  1.00  0.00     0.031 A 
ATOM     35  C   UNL A   1      38.867  30.985  29.868  1.00  0.00     0.074 A 
ATOM     36  C   UNL A   1      38.506  33.207  30.995  1.00  0.00     0.049 A 
ATOM     37  N   UNL A   1      40.003  30.705  30.385  1.00  0.00    -0.248 NA
ATOM     38  C   UNL A   1      38.493  30.015  28.848  1.00  0.00     0.031 C 
ATOM     39  C   UNL A   1      39.813  33.658  31.424  1.00  0.00     0.029 A 
ATOM     40  N   UNL A   1      37.649  34.162  31.555  1.00  0.00    -0.354 N 
ATOM     41  C   UNL A   1      40.642  29.791  29.571  1.00  0.00     0.074 A 
ATOM     42  C   UNL A   1      39.618  29.303  28.690  1.00  0.00     0.031 C 
ATOM     43  C   UNL A   1      39.639  34.545  32.432  1.00  0.00     0.029 A 
ATOM     44  C   UNL A   1      38.213  34.565  32.756  1.00  0.00     0.049 A 
ATOM     45  H   UNL A   1      36.804  34.487  31.167  1.00  0.00     0.167 HD
ATOM     46  C   UNL A   1      41.994  29.695  29.698  1.00  0.00     0.034 A 
ATOM     47  C   UNL A   1      37.609  34.010  33.853  1.00  0.00     0.034 A 
ATOM     48  C   UNL A   1      42.409  30.484  30.861  1.00  0.00     0.049 A 
ATOM     49  C   UNL A   1      38.504  32.925  34.446  1.00  0.00     0.074 A 
ATOM     50  C   UNL A   1      42.923  31.755  31.032  1.00  0.00     0.029 A 
ATOM     51  N   UNL A   1      41.915  30.099  32.090  1.00  0.00    -0.354 N 
ATOM     52  N   UNL A   1      39.473  32.321  33.805  1.00  0.00    -0.248 NA
ATOM     53  C   UNL A   1      38.384  32.462  35.819  1.00  0.00     0.031 C 
ATOM     54  C   UNL A   1      42.617  32.161  32.373  1.00  0.00     0.029 A 
ATOM     55  C   UNL A   1      41.938  31.129  33.004  1.00  0.00     0.049 A 
ATOM     56  H   UNL A   1      41.583  29.194  32.291  1.00  0.00     0.167 HD
ATOM     57  C   UNL A   1      40.170  31.507  34.652  1.00  0.00     0.074 A 
ATOM     58  C   UNL A   1      39.377  31.557  35.879  1.00  0.00     0.031 C 
ATOM     59  C   UNL A   1      41.348  30.887  34.313  1.00  0.00     0.034 A 
BRANCH  46  60
ATOM     60  C   UNL A   1      43.002  29.087  28.754  1.00  0.00     0.023 A 
ATOM     61  C   UNL A   1      43.984  29.954  28.226  1.00  0.00     0.031 A 
ATOM     62  C   UNL A   1      43.034  27.772  28.252  1.00  0.00     0.131 A 
ATOM     63  C   UNL A   1      44.885  29.550  27.230  1.00  0.00     0.055 A 
ATOM     64  C   UNL A   1      43.951  27.358  27.269  1.00  0.00     0.041 A 
ATOM     65  F   UNL A   1      42.184  26.828  28.668  1.00  0.00    -0.206 F 
ATOM     66  C   UNL A   1      44.876  28.251  26.742  1.00  0.00     0.022 A 
BRANCH  63  67
ATOM     67  S   UNL A   1      46.030  30.782  26.554  1.00  0.00     0.124 S 
ATOM     68  O   UNL A   1      45.192  31.974  26.483  1.00  0.00    -0.237 OA
ATOM     69  O   UNL A   1      47.092  30.799  27.555  1.00  0.00    -0.237 OA
ATOM     70  O   UNL A   1      46.411  30.219  25.260  1.00  0.00    -0.744 OA
ENDBRANCH  63  67
ENDBRANCH  46  60
BRANCH  47  71
ATOM     71  C   UNL A   1      36.091  33.938  33.684  1.00  0.00     0.023 A 
ATOM     72  C   UNL A   1      35.356  35.159  33.746  1.00  0.00     0.031 A 
ATOM     73  C   UNL A   1      35.435  32.848  33.093  1.00  0.00     0.131 A 
ATOM     74  C   UNL A   1      34.120  35.302  33.087  1.00  0.00     0.055 A 
ATOM     75  C   UNL A   1      34.153  32.972  32.522  1.00  0.00     0.041 A 
ATOM     76  F   UNL A   1      36.056  31.668  32.952  1.00  0.00    -0.206 F 
ATOM     77  C   UNL A   1      33.505  34.208  32.484  1.00  0.00     0.022 A 
BRANCH  74  78
ATOM     78  S   UNL A   1      33.491  36.985  32.763  1.00  0.00     0.124 S 
ATOM     79  O   UNL A   1      34.095  37.754  33.846  1.00  0.00    -0.237 OA
ATOM     80  O   UNL A   1      34.002  37.259  31.421  1.00  0.00    -0.237 OA
ATOM     81  O   UNL A   1      32.040  36.830  32.839  1.00  0.00    -0.744 OA
ENDBRANCH  74  78
ENDBRANCH  47  71
BRANCH  59  82
ATOM     82  C   UNL A   1      42.057  29.937  35.241  1.00  0.00     0.023 A 
ATOM     83  C   UNL A   1      41.451  28.746  35.634  1.00  0.00     0.031 A 
ATOM     84  C   UNL A   1      43.348  30.184  35.769  1.00  0.00     0.131 A 
ATOM     85  C   UNL A   1      42.181  27.777  36.327  1.00  0.00     0.055 A 
ATOM     86  C   UNL A   1      44.016  29.276  36.589  1.00  0.00     0.041 A 
ATOM     87  F   UNL A   1      44.054  31.284  35.476  1.00  0.00    -0.206 F 
ATOM     88  C   UNL A   1      43.450  28.039  36.835  1.00  0.00     0.022 A 
BRANCH  85  89
ATOM     89  S   UNL A   1      41.485  26.114  36.394  1.00  0.00     0.124 S 
ATOM     90  O   UNL A   1      42.668  25.279  36.568  1.00  0.00    -0.237 OA
ATOM     91  O   UNL A   1      40.607  26.215  37.559  1.00  0.00    -0.237 OA
ATOM     92  O   UNL A   1      40.802  25.977  35.111  1.00  0.00    -0.744 OA
ENDBRANCH  85  89
ENDBRANCH  59  82
ENDBRANCH  33  34
ENDBRANCH  26  28
ENDBRANCH  25  26
ENDBRANCH  24  25
ENDBRANCH   1  24
TORSDOF 20
ENDMDL
MODEL 2
REMARK VINA RESULT:     -11.9      1.535      3.337
REMARK SMILES Cc1cccc(C[C@H](CC(=O)OCCOC(=O)c2ccc(-c3c4nc(c(-c5cc(S(=O)(=O)[O-])ccc5F)c5ccc([nH]5)c(-c5cc(S(=O)(=O)[O-])ccc5F)c5nc(c(-c6cc(S(=O)(=O)[O-])ccc6F)c6ccc3[nH]6)C=C5)C=C4)cc2)NC(=O)OC(C)(C)C)c1
REMARK SMILES IDX 13 1 12 2 10 3 11 4 9 5 8 6 7 7 6 8 1 9 2 10 3 11 89 12 4 13
REMARK SMILES IDX 5 14 81 15 82 16 83 18 84 19 85 20 86 21 87 22 88 23 14 24
REMARK SMILES IDX 15 25 16 26 17 27 18 28 19 29 80 30 20 31 79 32 21 33 22 34
REMARK SMILES IDX 23 35 73 36 24 37 78 38 72 39 74 40 25 41 77 42 71 43 70 44
REMARK SMILES IDX 26 46 58 47 38 48 57 49 39 50 42 51 56 52 75 53 40 54 41 55
REMARK SMILES IDX 55 57 76 58 43 59 27 60 28 61 36 62 29 63 35 64 37 65 34 66
REMARK SMILES IDX 30 67 31 68 32 69 33 70 59 71 60 72 68 73 61 74 67 75 69 76
REMARK SMILES IDX 66 77 62 78 63 79 64 80 65 81 44 82 45 83 53 84 46 85 52 86
REMARK SMILES IDX 54 87 51 88 47 89 48 90 49 91 50 92
REMARK H PARENT 81 17 74 45 42 56
REMARK Flexibility Score: inf
ROOT
ATOM      1  C   UNL A   1      31.708  30.143  25.463  1.00  0.00     0.274 C 
ENDROOT
BRANCH   1   2
ATOM      2  O   UNL A   1      33.069  29.711  25.402  1.00  0.00    -0.462 OA
BRANCH   2   3
ATOM      3  C   UNL A   1      33.420  28.529  25.952  1.00  0.00     0.308 C 
ATOM      4  O   UNL A   1      33.556  28.319  27.146  1.00  0.00    -0.252 OA
BRANCH   3   5
ATOM      5  C   UNL A   1      33.651  27.511  24.857  1.00  0.00     0.148 C 
BRANCH   5   6
ATOM      6  C   UNL A   1      33.313  26.082  25.250  1.00  0.00     0.101 C 
BRANCH   6   7
ATOM      7  C   UNL A   1      34.469  25.313  25.929  1.00  0.00     0.061 C 
BRANCH   7   8
ATOM      8  C   UNL A   1      35.294  24.355  25.107  1.00  0.00    -0.046 A 
ATOM      9  C   UNL A   1      38.272  22.028  25.627  1.00  0.00     0.044 C 
ATOM     10  C   UNL A   1      37.124  22.750  24.990  1.00  0.00    -0.051 A 
ATOM     11  C   UNL A   1      36.721  22.400  23.697  1.00  0.00     0.003 A 
ATOM     12  C   UNL A   1      36.421  23.744  25.682  1.00  0.00     0.007 A 
ATOM     13  C   UNL A   1      35.598  22.985  23.130  1.00  0.00     0.001 A 
ATOM     14  C   UNL A   1      34.874  23.930  23.845  1.00  0.00     0.004 A 
ENDBRANCH   7   8
ENDBRANCH   6   7
BRANCH   6  15
ATOM     15  N   UNL A   1      32.090  26.177  26.031  1.00  0.00    -0.318 N 
ATOM     16  C   UNL A   1      31.061  25.295  25.960  1.00  0.00     0.407 C 
ATOM     17  H   UNL A   1      32.003  26.934  26.656  1.00  0.00     0.167 HD
ATOM     18  O   UNL A   1      29.986  25.532  26.506  1.00  0.00    -0.225 OA
BRANCH  16  19
ATOM     19  O   UNL A   1      31.401  24.156  25.318  1.00  0.00    -0.444 OA
BRANCH  19  20
ATOM     20  C   UNL A   1      31.402  22.895  26.020  1.00  0.00     0.106 C 
ATOM     21  C   UNL A   1      29.991  22.566  26.524  1.00  0.00     0.056 C 
ATOM     22  C   UNL A   1      32.005  21.792  25.149  1.00  0.00     0.056 C 
ATOM     23  C   UNL A   1      32.305  23.105  27.247  1.00  0.00     0.056 C 
ENDBRANCH  19  20
ENDBRANCH  16  19
ENDBRANCH   6  15
ENDBRANCH   5   6
ENDBRANCH   3   5
ENDBRANCH   2   3
ENDBRANCH   1   2
BRANCH   1  24
ATOM     24  C   UNL A   1      31.607  31.252  26.535  1.00  0.00     0.275 C 
BRANCH  24  25
ATOM     25  O   UNL A   1      32.692  31.420  27.491  1.00  0.00    -0.458 OA
BRANCH  25  26
ATOM     26  C   UNL A   1      33.263  32.650  27.674  1.00  0.00     0.338 C 
ATOM     27  O   UNL A   1      32.635  33.690  27.783  1.00  0.00    -0.246 OA
BRANCH  26  28
ATOM     28  C   UNL A   1      34.711  32.488  27.968  1.00  0.00     0.060 A 
ATOM     29  C   UNL A   1      35.591  33.587  27.980  1.00  0.00     0.016 A 
ATOM     30  C   UNL A   1      35.054  31.309  28.610  1.00  0.00     0.016 A 
ATOM     31  C   UNL A   1      36.765  33.524  28.741  1.00  0.00     0.010 A 
ATOM     32  C   UNL A   1      36.005  31.372  29.581  1.00  0.00     0.010 A 
ATOM     33  C   UNL A   1      36.924  32.432  29.583  1.00  0.00    -0.014 A 
BRANCH  33  34
ATOM     34  C   UNL A   1      38.138  32.034  30.278  1.00  0.00     0.031 A 
ATOM     35  C   UNL A   1      38.951  30.883  29.869  1.00  0.00     0.074 A 
ATOM     36  C   UNL A   1      38.569  33.103  30.993  1.00  0.00     0.049 A 
ATOM     37  N   UNL A   1      40.089  30.613  30.387  1.00  0.00    -0.248 NA
ATOM     38  C   UNL A   1      38.587  29.909  28.849  1.00  0.00     0.031 C 
ATOM     39  C   UNL A   1      39.871  33.566  31.423  1.00  0.00     0.029 A 
ATOM     40  N   UNL A   1      37.703  34.051  31.550  1.00  0.00    -0.354 N 
ATOM     41  C   UNL A   1      40.736  29.704  29.575  1.00  0.00     0.074 A 
ATOM     42  C   UNL A   1      39.717  29.206  28.693  1.00  0.00     0.031 C 
ATOM     43  C   UNL A   1      39.689  34.453  32.429  1.00  0.00     0.029 A 
ATOM     44  C   UNL A   1      38.262  34.460  32.751  1.00  0.00     0.049 A 
ATOM     45  H   UNL A   1      36.856  34.368  31.161  1.00  0.00     0.167 HD
ATOM     46  C   UNL A   1      42.089  29.621  29.704  1.00  0.00     0.034 A 
ATOM     47  C   UNL A   1      37.661  33.901  33.849  1.00  0.00     0.034 A 
ATOM     48  C   UNL A   1      42.496  30.415  30.867  1.00  0.00     0.049 A 
ATOM     49  C   UNL A   1      38.565  32.825  34.443  1.00  0.00     0.074 A 
ATOM     50  C   UNL A   1      42.999  31.690  31.036  1.00  0.00     0.029 A 
ATOM     51  N   UNL A   1      42.003  30.027  32.095  1.00  0.00    -0.354 N 
ATOM     52  N   UNL A   1      39.540  32.229  33.804  1.00  0.00    -0.248 NA
ATOM     53  C   UNL A   1      38.447  32.363  35.817  1.00  0.00     0.031 C 
ATOM     54  C   UNL A   1      42.687  32.095  32.377  1.00  0.00     0.029 A 
ATOM     55  C   UNL A   1      42.016  31.058  33.007  1.00  0.00     0.049 A 
ATOM     56  H   UNL A   1      41.679  29.119  32.297  1.00  0.00     0.167 HD
ATOM     57  C   UNL A   1      40.243  31.422  34.653  1.00  0.00     0.074 A 
ATOM     58  C   UNL A   1      39.448  31.467  35.879  1.00  0.00     0.031 C 
ATOM     59  C   UNL A   1      41.427  30.812  34.316  1.00  0.00     0.034 A 
BRANCH  46  60
ATOM     60  C   UNL A   1      43.104  29.020  28.762  1.00  0.00     0.023 A 
ATOM     61  C   UNL A   1      44.016  29.912  28.156  1.00  0.00     0.031 A 
ATOM     62  C   UNL A   1      43.200  27.683  28.331  1.00  0.00     0.131 A 
ATOM     63  C   UNL A   1      44.910  29.506  27.154  1.00  0.00     0.055 A 
ATOM     64  C   UNL A   1      44.111  27.268  27.342  1.00  0.00     0.041 A 
ATOM     65  F   UNL A   1      42.421  26.716  28.825  1.00  0.00    -0.206 F 
ATOM     66  C   UNL A   1      44.964  28.183  26.737  1.00  0.00     0.022 A 
BRANCH  63  67
ATOM     67  S   UNL A   1      45.957  30.763  26.375  1.00  0.00     0.124 S 
ATOM     68  O   UNL A   1      44.992  31.804  26.040  1.00  0.00    -0.237 OA
ATOM     69  O   UNL A   1      46.905  31.079  27.439  1.00  0.00    -0.237 OA
ATOM     70  O   UNL A   1      46.531  30.063  25.227  1.00  0.00    -0.744 OA
ENDBRANCH  63  67
ENDBRANCH  46  60
BRANCH  47  71
ATOM     71  C   UNL A   1      36.144  33.816  33.677  1.00  0.00     0.023 A 
ATOM     72  C   UNL A   1      35.394  35.024  33.783  1.00  0.00     0.031 A 
ATOM     73  C   UNL A   1      35.502  32.739  33.048  1.00  0.00     0.131 A 
ATOM     74  C   UNL A   1      34.155  35.174  33.131  1.00  0.00     0.055 A 
ATOM     75  C   UNL A   1      34.217  32.868  32.483  1.00  0.00     0.041 A 
ATOM     76  F   UNL A   1      36.138  31.573  32.864  1.00  0.00    -0.206 F 
ATOM     77  C   UNL A   1      33.554  34.096  32.489  1.00  0.00     0.022 A 
BRANCH  74  78
ATOM     78  S   UNL A   1      33.504  36.860  32.868  1.00  0.00     0.124 S 
ATOM     79  O   UNL A   1      32.101  36.604  32.561  1.00  0.00    -0.237 OA
ATOM     80  O   UNL A   1      33.771  37.504  34.153  1.00  0.00    -0.237 OA
ATOM     81  O   UNL A   1      34.306  37.368  31.756  1.00  0.00    -0.744 OA
ENDBRANCH  74  78
ENDBRANCH  47  71
BRANCH  59  82
ATOM     82  C   UNL A   1      42.143  29.869  35.246  1.00  0.00     0.023 A 
ATOM     83  C   UNL A   1      41.553  28.667  35.630  1.00  0.00     0.031 A 
ATOM     84  C   UNL A   1      43.426  30.134  35.786  1.00  0.00     0.131 A 
ATOM     85  C   UNL A   1      42.292  27.707  36.325  1.00  0.00     0.055 A 
ATOM     86  C   UNL A   1      44.101  29.234  36.607  1.00  0.00     0.041 A 
ATOM     87  F   UNL A   1      44.117  31.246  35.503  1.00  0.00    -0.206 F 
ATOM     88  C   UNL A   1      43.552  27.986  36.845  1.00  0.00     0.022 A 
BRANCH  85  89
ATOM     89  S   UNL A   1      41.621  26.034  36.380  1.00  0.00     0.124 S 
ATOM     90  O   UNL A   1      42.823  25.209  36.432  1.00  0.00    -0.237 OA
ATOM     91  O   UNL A   1      40.832  26.078  37.610  1.00  0.00    -0.237 OA
ATOM     92  O   UNL A   1      40.845  25.935  35.147  1.00  0.00    -0.744 OA
ENDBRANCH  85  89
ENDBRANCH  59  82
ENDBRANCH  33  34
ENDBRANCH  26  28
ENDBRANCH  25  26
ENDBRANCH  24  25
ENDBRANCH   1  24
TORSDOF 20
ENDMDL
MODEL 3
REMARK VINA RESULT:     -11.9      3.663      9.719
REMARK SMILES Cc1cccc(C[C@H](CC(=O)OCCOC(=O)c2ccc(-c3c4nc(c(-c5cc(S(=O)(=O)[O-])ccc5F)c5ccc([nH]5)c(-c5cc(S(=O)(=O)[O-])ccc5F)c5nc(c(-c6cc(S(=O)(=O)[O-])ccc6F)c6ccc3[nH]6)C=C5)C=C4)cc2)NC(=O)OC(C)(C)C)c1
REMARK SMILES IDX 13 1 12 2 10 3 11 4 9 5 8 6 7 7 6 8 1 9 2 10 3 11 89 12 4 13
REMARK SMILES IDX 5 14 81 15 82 16 83 18 84 19 85 20 86 21 87 22 88 23 14 24
REMARK SMILES IDX 15 25 16 26 17 27 18 28 19 29 80 30 20 31 79 32 21 33 22 34
REMARK SMILES IDX 23 35 73 36 24 37 78 38 72 39 74 40 25 41 77 42 71 43 70 44
REMARK SMILES IDX 26 46 58 47 38 48 57 49 39 50 42 51 56 52 75 53 40 54 41 55
REMARK SMILES IDX 55 57 76 58 43 59 27 60 28 61 36 62 29 63 35 64 37 65 34 66
REMARK SMILES IDX 30 67 31 68 32 69 33 70 59 71 60 72 68 73 61 74 67 75 69 76
REMARK SMILES IDX 66 77 62 78 63 79 64 80 65 81 44 82 45 83 53 84 46 85 52 86
REMARK SMILES IDX 54 87 51 88 47 89 48 90 49 91 50 92
REMARK H PARENT 81 17 74 45 42 56
REMARK Flexibility Score: inf
ROOT
ATOM      1  C   UNL A   1      35.601  22.754  25.137  1.00  0.00     0.274 C 
ENDROOT
BRANCH   1   2
ATOM      2  O   UNL A   1      35.470  24.145  25.438  1.00  0.00    -0.462 OA
BRANCH   2   3
ATOM      3  C   UNL A   1      34.342  24.800  25.090  1.00  0.00     0.308 C 
ATOM      4  O   UNL A   1      34.164  25.389  24.036  1.00  0.00    -0.252 OA
BRANCH   3   5
ATOM      5  C   UNL A   1      33.342  24.719  26.222  1.00  0.00     0.148 C 
BRANCH   5   6
ATOM      6  C   UNL A   1      31.910  25.035  25.816  1.00  0.00     0.101 C 
BRANCH   6   7
ATOM      7  C   UNL A   1      31.040  23.793  25.519  1.00  0.00     0.061 C 
BRANCH   7   8
ATOM      8  C   UNL A   1      31.623  22.667  24.704  1.00  0.00    -0.046 A 
ATOM      9  C   UNL A   1      32.629  19.024  25.230  1.00  0.00     0.044 C 
ATOM     10  C   UNL A   1      32.364  20.348  24.581  1.00  0.00    -0.051 A 
ATOM     11  C   UNL A   1      32.494  20.474  23.193  1.00  0.00     0.003 A 
ATOM     12  C   UNL A   1      31.950  21.455  25.334  1.00  0.00     0.007 A 
ATOM     13  C   UNL A   1      32.154  21.663  22.562  1.00  0.00     0.001 A 
ATOM     14  C   UNL A   1      31.692  22.737  23.311  1.00  0.00     0.004 A 
ENDBRANCH   7   8
ENDBRANCH   6   7
BRANCH   6  15
ATOM     15  N   UNL A   1      31.400  25.913  26.858  1.00  0.00    -0.318 N 
ATOM     16  C   UNL A   1      31.520  27.265  26.850  1.00  0.00     0.407 C 
ATOM     17  H   UNL A   1      30.936  25.498  27.621  1.00  0.00     0.167 HD
ATOM     18  O   UNL A   1      31.233  27.930  27.842  1.00  0.00    -0.225 OA
BRANCH  16  19
ATOM     19  O   UNL A   1      31.891  27.744  25.642  1.00  0.00    -0.444 OA
BRANCH  19  20
ATOM     20  C   UNL A   1      32.919  28.751  25.542  1.00  0.00     0.106 C 
ATOM     21  C   UNL A   1      32.343  30.134  25.871  1.00  0.00     0.056 C 
ATOM     22  C   UNL A   1      34.126  28.379  26.404  1.00  0.00     0.056 C 
ATOM     23  C   UNL A   1      33.349  28.758  24.065  1.00  0.00     0.056 C 
ENDBRANCH  19  20
ENDBRANCH  16  19
ENDBRANCH   6  15
ENDBRANCH   5   6
ENDBRANCH   3   5
ENDBRANCH   2   3
ENDBRANCH   1   2
BRANCH   1  24
ATOM     24  C   UNL A   1      37.072  22.349  25.385  1.00  0.00     0.275 C 
BRANCH  24  25
ATOM     25  O   UNL A   1      38.036  23.367  25.777  1.00  0.00    -0.458 OA
BRANCH  25  26
ATOM     26  C   UNL A   1      39.125  23.029  26.533  1.00  0.00     0.338 C 
ATOM     27  O   UNL A   1      39.566  21.897  26.636  1.00  0.00    -0.246 OA
BRANCH  26  28
ATOM     28  C   UNL A   1      39.815  24.264  26.990  1.00  0.00     0.060 A 
ATOM     29  C   UNL A   1      40.333  25.203  26.078  1.00  0.00     0.016 A 
ATOM     30  C   UNL A   1      39.563  24.628  28.304  1.00  0.00     0.016 A 
ATOM     31  C   UNL A   1      40.486  26.538  26.472  1.00  0.00     0.010 A 
ATOM     32  C   UNL A   1      39.410  25.953  28.573  1.00  0.00     0.010 A 
ATOM     33  C   UNL A   1      39.961  26.906  27.704  1.00  0.00    -0.014 A 
BRANCH  33  34
ATOM     34  C   UNL A   1      40.198  28.150  28.418  1.00  0.00     0.031 A 
ATOM     35  C   UNL A   1      39.228  29.251  28.447  1.00  0.00     0.074 A 
ATOM     36  C   UNL A   1      41.168  27.915  29.337  1.00  0.00     0.049 A 
ATOM     37  N   UNL A   1      39.370  30.286  29.186  1.00  0.00    -0.248 NA
ATOM     38  C   UNL A   1      38.006  29.324  27.658  1.00  0.00     0.031 C 
ATOM     39  C   UNL A   1      41.478  28.472  30.637  1.00  0.00     0.029 A 
ATOM     40  N   UNL A   1      42.204  26.995  29.139  1.00  0.00    -0.354 N 
ATOM     41  C   UNL A   1      38.162  30.951  29.245  1.00  0.00     0.074 A 
ATOM     42  C   UNL A   1      37.375  30.381  28.187  1.00  0.00     0.031 C 
ATOM     43  C   UNL A   1      42.762  28.159  30.930  1.00  0.00     0.029 A 
ATOM     44  C   UNL A   1      43.335  27.514  29.749  1.00  0.00     0.049 A 
ATOM     45  H   UNL A   1      42.140  26.139  28.656  1.00  0.00     0.167 HD
ATOM     46  C   UNL A   1      37.981  31.803  30.292  1.00  0.00     0.034 A 
ATOM     47  C   UNL A   1      44.230  28.057  28.865  1.00  0.00     0.034 A 
ATOM     48  C   UNL A   1      39.255  31.944  31.002  1.00  0.00     0.049 A 
ATOM     49  C   UNL A   1      44.178  29.580  28.944  1.00  0.00     0.074 A 
ATOM     50  C   UNL A   1      39.798  31.368  32.134  1.00  0.00     0.029 A 
ATOM     51  N   UNL A   1      40.313  32.479  30.295  1.00  0.00    -0.354 N 
ATOM     52  N   UNL A   1      43.181  30.270  29.439  1.00  0.00    -0.248 NA
ATOM     53  C   UNL A   1      45.263  30.434  28.490  1.00  0.00     0.031 C 
ATOM     54  C   UNL A   1      41.224  31.475  32.023  1.00  0.00     0.029 A 
ATOM     55  C   UNL A   1      41.528  32.128  30.838  1.00  0.00     0.049 A 
ATOM     56  H   UNL A   1      40.210  33.044  29.496  1.00  0.00     0.167 HD
ATOM     57  C   UNL A   1      43.501  31.597  29.491  1.00  0.00     0.074 A 
ATOM     58  C   UNL A   1      44.780  31.654  28.787  1.00  0.00     0.031 C 
ATOM     59  C   UNL A   1      42.731  32.541  30.128  1.00  0.00     0.034 A 
BRANCH  46  60
ATOM     60  C   UNL A   1      36.702  32.389  30.837  1.00  0.00     0.023 A 
ATOM     61  C   UNL A   1      35.829  32.990  29.903  1.00  0.00     0.031 A 
ATOM     62  C   UNL A   1      36.305  32.499  32.183  1.00  0.00     0.131 A 
ATOM     63  C   UNL A   1      34.683  33.698  30.294  1.00  0.00     0.055 A 
ATOM     64  C   UNL A   1      35.143  33.189  32.577  1.00  0.00     0.041 A 
ATOM     65  F   UNL A   1      37.013  31.964  33.183  1.00  0.00    -0.206 F 
ATOM     66  C   UNL A   1      34.331  33.805  31.633  1.00  0.00     0.022 A 
BRANCH  63  67
ATOM     67  S   UNL A   1      33.698  34.517  29.012  1.00  0.00     0.124 S 
ATOM     68  O   UNL A   1      32.580  35.054  29.780  1.00  0.00    -0.237 OA
ATOM     69  O   UNL A   1      34.640  35.492  28.474  1.00  0.00    -0.237 OA
ATOM     70  O   UNL A   1      33.352  33.427  28.101  1.00  0.00    -0.744 OA
ENDBRANCH  63  67
ENDBRANCH  46  60
BRANCH  47  71
ATOM     71  C   UNL A   1      44.340  27.220  27.590  1.00  0.00     0.023 A 
ATOM     72  C   UNL A   1      44.573  25.820  27.732  1.00  0.00     0.031 A 
ATOM     73  C   UNL A   1      43.846  27.645  26.348  1.00  0.00     0.131 A 
ATOM     74  C   UNL A   1      44.157  24.907  26.744  1.00  0.00     0.055 A 
ATOM     75  C   UNL A   1      43.525  26.731  25.324  1.00  0.00     0.041 A 
ATOM     76  F   UNL A   1      43.557  28.935  26.129  1.00  0.00    -0.206 F 
ATOM     77  C   UNL A   1      43.643  25.356  25.531  1.00  0.00     0.022 A 
BRANCH  74  78
ATOM     78  S   UNL A   1      44.005  23.143  27.192  1.00  0.00     0.124 S 
ATOM     79  O   UNL A   1      42.953  22.685  26.291  1.00  0.00    -0.237 OA
ATOM     80  O   UNL A   1      45.348  22.633  26.919  1.00  0.00    -0.237 OA
ATOM     81  O   UNL A   1      43.647  23.177  28.609  1.00  0.00    -0.744 OA
ENDBRANCH  74  78
ENDBRANCH  47  71
BRANCH  59  82
ATOM     82  C   UNL A   1      43.069  34.008  30.109  1.00  0.00     0.023 A 
ATOM     83  C   UNL A   1      43.139  34.702  28.904  1.00  0.00     0.031 A 
ATOM     84  C   UNL A   1      43.339  34.760  31.278  1.00  0.00     0.131 A 
ATOM     85  C   UNL A   1      43.254  36.095  28.896  1.00  0.00     0.055 A 
ATOM     86  C   UNL A   1      43.604  36.127  31.254  1.00  0.00     0.041 A 
ATOM     87  F   UNL A   1      43.304  34.228  32.507  1.00  0.00    -0.206 F 
ATOM     88  C   UNL A   1      43.516  36.815  30.057  1.00  0.00     0.022 A 
BRANCH  85  89
ATOM     89  S   UNL A   1      42.881  36.942  27.348  1.00  0.00     0.124 S 
ATOM     90  O   UNL A   1      42.320  35.875  26.526  1.00  0.00    -0.237 OA
ATOM     91  O   UNL A   1      41.932  37.960  27.795  1.00  0.00    -0.237 OA
ATOM     92  O   UNL A   1      44.181  37.450  26.915  1.00  0.00    -0.744 OA
ENDBRANCH  85  89
ENDBRANCH  59  82
ENDBRANCH  33  34
ENDBRANCH  26  28
ENDBRANCH  25  26
ENDBRANCH  24  25
ENDBRANCH   1  24
TORSDOF 20
ENDMDL
