MODEL 1
REMARK VINA RESULT:     -11.6      0.000      0.000
REMARK SMILES CO[C@H]1CN(C(=O)c2cn(C(C)C)cc(C(=O)OCCOC(=O)c3ccc(-c4c5nc(c(-c6cc(S(=O)(=O)[O-])ccc6F)c6ccc([nH]6)c(-c6cc(S(=O)(=O)[O-])ccc6F)c6nc(c(-c7cc(S(=O)(=O)[O-])ccc7F)c7ccc4[nH]7)C=C6)C=C5)cc3)c2=O)CC[C@H]1[NH3+]
REMARK SMILES IDX 19 1 18 2 16 3 17 4 15 5 8 6 9 7 87 8 10 9 88 10 14 11 6 12
REMARK SMILES IDX 7 13 5 14 3 15 4 16 91 17 90 18 89 19 2 20 1 21 92 22 11 26
REMARK SMILES IDX 12 27 13 28 20 29 21 30 22 31 23 32 24 33 25 34 86 35 26 36
REMARK SMILES IDX 85 37 27 38 28 39 29 40 79 41 30 42 84 43 78 44 80 45 31 46
REMARK SMILES IDX 83 47 77 48 76 49 32 51 64 52 44 53 63 54 45 55 48 56 62 57
REMARK SMILES IDX 81 58 46 59 47 60 61 62 82 63 49 64 33 65 34 66 42 67 35 68
REMARK SMILES IDX 41 69 43 70 40 71 36 72 37 73 38 74 39 75 65 76 66 77 74 78
REMARK SMILES IDX 67 79 73 80 75 81 72 82 68 83 69 84 70 85 71 86 50 87 51 88
REMARK SMILES IDX 59 89 52 90 58 91 60 92 57 93 53 94 54 95 55 96 56 97
REMARK H PARENT 92 23 92 24 92 25 80 50 48 61
REMARK Flexibility Score: inf
ROOT
ATOM      1  C   UNL A   1      36.212  21.929  25.756  1.00  0.00     0.275 C 
ENDROOT
BRANCH   1   2
ATOM      2  O   UNL A   1      35.001  21.168  25.911  1.00  0.00    -0.458 OA
BRANCH   2   3
ATOM      3  C   UNL A   1      34.046  21.680  26.722  1.00  0.00     0.343 C 
ATOM      4  O   UNL A   1      34.042  21.622  27.943  1.00  0.00    -0.246 OA
BRANCH   3   5
ATOM      5  C   UNL A   1      33.035  22.426  25.951  1.00  0.00     0.124 A 
ATOM      6  C   UNL A   1      31.239  24.161  25.583  1.00  0.00     0.104 A 
ATOM      7  C   UNL A   1      31.282  23.857  24.275  1.00  0.00     0.103 A 
ATOM      8  C   UNL A   1      32.023  23.333  26.543  1.00  0.00     0.208 A 
ATOM      9  N   UNL A   1      32.100  22.864  23.745  1.00  0.00    -0.350 N 
ATOM     10  O   UNL A   1      31.914  23.502  27.755  1.00  0.00    -0.288 OA
ATOM     11  C   UNL A   1      33.033  22.301  24.612  1.00  0.00     0.105 A 
BRANCH   6  12
ATOM     12  C   UNL A   1      30.564  25.410  25.984  1.00  0.00     0.259 C 
ATOM     13  O   UNL A   1      29.475  25.367  26.554  1.00  0.00    -0.269 OA
BRANCH  12  14
ATOM     14  N   UNL A   1      31.188  26.599  25.606  1.00  0.00    -0.335 N 
ATOM     15  C   UNL A   1      30.815  28.817  24.507  1.00  0.00     0.195 C 
ATOM     16  C   UNL A   1      30.979  27.301  24.329  1.00  0.00     0.158 C 
ATOM     17  C   UNL A   1      31.993  29.403  25.332  1.00  0.00     0.213 C 
ATOM     18  C   UNL A   1      32.105  28.634  26.659  1.00  0.00     0.089 C 
ATOM     19  C   UNL A   1      32.250  27.130  26.451  1.00  0.00     0.126 C 
BRANCH  15  20
ATOM     20  O   UNL A   1      30.733  29.470  23.233  1.00  0.00    -0.373 OA
ATOM     21  C   UNL A   1      29.460  29.325  22.611  1.00  0.00     0.195 C 
ENDBRANCH  15  20
BRANCH  17  22
ATOM     22  N   UNL A   1      33.282  29.430  24.622  1.00  0.00    -0.353 N 
ATOM     23  H   UNL A   1      33.607  30.394  24.542  1.00  0.00     0.344 HD
ATOM     24  H   UNL A   1      33.167  29.033  23.689  1.00  0.00     0.344 HD
ATOM     25  H   UNL A   1      33.969  28.882  25.142  1.00  0.00     0.344 HD
ENDBRANCH  17  22
ENDBRANCH  12  14
ENDBRANCH   6  12
BRANCH   9  26
ATOM     26  C   UNL A   1      32.035  22.414  22.328  1.00  0.00     0.080 C 
ATOM     27  C   UNL A   1      33.156  23.025  21.487  1.00  0.00     0.031 C 
ATOM     28  C   UNL A   1      32.022  20.892  22.245  1.00  0.00     0.031 C 
ENDBRANCH   9  26
ENDBRANCH   3   5
ENDBRANCH   2   3
ENDBRANCH   1   2
BRANCH   1  29
ATOM     29  C   UNL A   1      37.387  21.016  25.400  1.00  0.00     0.275 C 
BRANCH  29  30
ATOM     30  O   UNL A   1      38.625  21.752  25.383  1.00  0.00    -0.458 OA
BRANCH  30  31
ATOM     31  C   UNL A   1      39.480  21.478  26.392  1.00  0.00     0.338 C 
ATOM     32  O   UNL A   1      39.907  20.379  26.724  1.00  0.00    -0.246 OA
BRANCH  31  33
ATOM     33  C   UNL A   1      40.003  22.738  26.933  1.00  0.00     0.060 A 
ATOM     34  C   UNL A   1      40.970  22.792  27.931  1.00  0.00     0.016 A 
ATOM     35  C   UNL A   1      39.541  23.912  26.346  1.00  0.00     0.016 A 
ATOM     36  C   UNL A   1      41.444  24.045  28.346  1.00  0.00     0.010 A 
ATOM     37  C   UNL A   1      40.039  25.153  26.723  1.00  0.00     0.010 A 
ATOM     38  C   UNL A   1      40.987  25.238  27.744  1.00  0.00    -0.014 A 
BRANCH  38  39
ATOM     39  C   UNL A   1      41.538  26.567  28.124  1.00  0.00     0.031 A 
ATOM     40  C   UNL A   1      42.940  26.972  27.745  1.00  0.00     0.074 A 
ATOM     41  C   UNL A   1      40.792  27.385  28.892  1.00  0.00     0.049 A 
ATOM     42  N   UNL A   1      43.553  28.106  27.966  1.00  0.00    -0.248 NA
ATOM     43  C   UNL A   1      43.775  25.968  27.065  1.00  0.00     0.031 C 
ATOM     44  C   UNL A   1      39.477  27.048  29.438  1.00  0.00     0.029 A 
ATOM     45  N   UNL A   1      41.025  28.660  29.348  1.00  0.00    -0.354 N 
ATOM     46  C   UNL A   1      44.841  27.952  27.464  1.00  0.00     0.074 A 
ATOM     47  C   UNL A   1      44.944  26.592  26.986  1.00  0.00     0.031 C 
ATOM     48  C   UNL A   1      38.998  28.104  30.112  1.00  0.00     0.029 A 
ATOM     49  C   UNL A   1      39.979  29.186  30.071  1.00  0.00     0.049 A 
ATOM     50  H   UNL A   1      41.862  29.149  29.175  1.00  0.00     0.167 HD
ATOM     51  C   UNL A   1      45.832  28.872  27.377  1.00  0.00     0.034 A 
ATOM     52  C   UNL A   1      39.815  30.408  30.622  1.00  0.00     0.034 A 
ATOM     53  C   UNL A   1      45.692  30.239  27.811  1.00  0.00     0.049 A 
ATOM     54  C   UNL A   1      40.887  31.447  30.421  1.00  0.00     0.074 A 
ATOM     55  C   UNL A   1      46.595  31.278  27.662  1.00  0.00     0.029 A 
ATOM     56  N   UNL A   1      44.587  30.763  28.466  1.00  0.00    -0.354 N 
ATOM     57  N   UNL A   1      42.041  31.330  29.805  1.00  0.00    -0.248 NA
ATOM     58  C   UNL A   1      40.635  32.790  30.962  1.00  0.00     0.031 C 
ATOM     59  C   UNL A   1      46.060  32.412  28.271  1.00  0.00     0.029 A 
ATOM     60  C   UNL A   1      44.794  32.104  28.742  1.00  0.00     0.049 A 
ATOM     61  H   UNL A   1      43.775  30.256  28.698  1.00  0.00     0.167 HD
ATOM     62  C   UNL A   1      42.639  32.586  29.866  1.00  0.00     0.074 A 
ATOM     63  C   UNL A   1      41.708  33.455  30.553  1.00  0.00     0.031 C 
ATOM     64  C   UNL A   1      43.853  32.974  29.404  1.00  0.00     0.034 A 
BRANCH  51  65
ATOM     65  C   UNL A   1      47.144  28.483  26.737  1.00  0.00     0.023 A 
ATOM     66  C   UNL A   1      47.233  28.327  25.340  1.00  0.00     0.031 A 
ATOM     67  C   UNL A   1      48.252  28.104  27.518  1.00  0.00     0.131 A 
ATOM     68  C   UNL A   1      48.386  27.770  24.773  1.00  0.00     0.055 A 
ATOM     69  C   UNL A   1      49.415  27.591  26.944  1.00  0.00     0.041 A 
ATOM     70  F   UNL A   1      48.215  28.223  28.856  1.00  0.00    -0.206 F 
ATOM     71  C   UNL A   1      49.480  27.409  25.566  1.00  0.00     0.022 A 
BRANCH  68  72
ATOM     72  S   UNL A   1      48.487  27.425  22.995  1.00  0.00     0.124 S 
ATOM     73  O   UNL A   1      49.817  27.934  22.665  1.00  0.00    -0.237 OA
ATOM     74  O   UNL A   1      48.350  25.972  22.958  1.00  0.00    -0.237 OA
ATOM     75  O   UNL A   1      47.377  28.181  22.427  1.00  0.00    -0.744 OA
ENDBRANCH  68  72
ENDBRANCH  51  65
BRANCH  52  76
ATOM     76  C   UNL A   1      38.531  30.718  31.318  1.00  0.00     0.023 A 
ATOM     77  C   UNL A   1      37.457  31.306  30.625  1.00  0.00     0.031 A 
ATOM     78  C   UNL A   1      38.408  30.547  32.707  1.00  0.00     0.131 A 
ATOM     79  C   UNL A   1      36.337  31.760  31.333  1.00  0.00     0.055 A 
ATOM     80  C   UNL A   1      37.260  30.937  33.399  1.00  0.00     0.041 A 
ATOM     81  F   UNL A   1      39.415  30.011  33.414  1.00  0.00    -0.206 F 
ATOM     82  C   UNL A   1      36.224  31.564  32.714  1.00  0.00     0.022 A 
BRANCH  79  83
ATOM     83  S   UNL A   1      35.060  32.755  30.513  1.00  0.00     0.124 S 
ATOM     84  O   UNL A   1      34.041  32.856  31.551  1.00  0.00    -0.237 OA
ATOM     85  O   UNL A   1      35.786  33.988  30.217  1.00  0.00    -0.237 OA
ATOM     86  O   UNL A   1      34.700  31.956  29.347  1.00  0.00    -0.744 OA
ENDBRANCH  79  83
ENDBRANCH  52  76
BRANCH  64  87
ATOM     87  C   UNL A   1      44.284  34.408  29.603  1.00  0.00     0.023 A 
ATOM     88  C   UNL A   1      43.969  35.377  28.631  1.00  0.00     0.031 A 
ATOM     89  C   UNL A   1      45.148  34.771  30.650  1.00  0.00     0.131 A 
ATOM     90  C   UNL A   1      44.552  36.649  28.701  1.00  0.00     0.055 A 
ATOM     91  C   UNL A   1      45.689  36.054  30.741  1.00  0.00     0.041 A 
ATOM     92  F   UNL A   1      45.489  33.878  31.592  1.00  0.00    -0.206 F 
ATOM     93  C   UNL A   1      45.405  36.994  29.754  1.00  0.00     0.022 A 
BRANCH  90  94
ATOM     94  S   UNL A   1      44.307  37.865  27.376  1.00  0.00     0.124 S 
ATOM     95  O   UNL A   1      43.152  37.312  26.670  1.00  0.00    -0.237 OA
ATOM     96  O   UNL A   1      44.050  39.091  28.127  1.00  0.00    -0.237 OA
ATOM     97  O   UNL A   1      45.562  37.836  26.633  1.00  0.00    -0.744 OA
ENDBRANCH  90  94
ENDBRANCH  64  87
ENDBRANCH  38  39
ENDBRANCH  31  33
ENDBRANCH  30  31
ENDBRANCH  29  30
ENDBRANCH   1  29
TORSDOF 19
ENDMDL
MODEL 2
REMARK VINA RESULT:     -11.6      1.327      2.008
REMARK SMILES CO[C@H]1CN(C(=O)c2cn(C(C)C)cc(C(=O)OCCOC(=O)c3ccc(-c4c5nc(c(-c6cc(S(=O)(=O)[O-])ccc6F)c6ccc([nH]6)c(-c6cc(S(=O)(=O)[O-])ccc6F)c6nc(c(-c7cc(S(=O)(=O)[O-])ccc7F)c7ccc4[nH]7)C=C6)C=C5)cc3)c2=O)CC[C@H]1[NH3+]
REMARK SMILES IDX 19 1 18 2 16 3 17 4 15 5 8 6 9 7 87 8 10 9 88 10 14 11 6 12
REMARK SMILES IDX 7 13 5 14 3 15 4 16 91 17 90 18 89 19 2 20 1 21 92 22 11 26
REMARK SMILES IDX 12 27 13 28 20 29 21 30 22 31 23 32 24 33 25 34 86 35 26 36
REMARK SMILES IDX 85 37 27 38 28 39 29 40 79 41 30 42 84 43 78 44 80 45 31 46
REMARK SMILES IDX 83 47 77 48 76 49 32 51 64 52 44 53 63 54 45 55 48 56 62 57
REMARK SMILES IDX 81 58 46 59 47 60 61 62 82 63 49 64 33 65 34 66 42 67 35 68
REMARK SMILES IDX 41 69 43 70 40 71 36 72 37 73 38 74 39 75 65 76 66 77 74 78
REMARK SMILES IDX 67 79 73 80 75 81 72 82 68 83 69 84 70 85 71 86 50 87 51 88
REMARK SMILES IDX 59 89 52 90 58 91 60 92 57 93 53 94 54 95 55 96 56 97
REMARK H PARENT 92 23 92 24 92 25 80 50 48 61
REMARK Flexibility Score: inf
ROOT
ATOM      1  C   UNL A   1      35.776  20.811  25.501  1.00  0.00     0.275 C 
ENDROOT
BRANCH   1   2
ATOM      2  O   UNL A   1      34.837  20.444  24.475  1.00  0.00    -0.458 OA
BRANCH   2   3
ATOM      3  C   UNL A   1      33.521  20.571  24.765  1.00  0.00     0.343 C 
ATOM      4  O   UNL A   1      32.807  19.695  25.231  1.00  0.00    -0.246 OA
BRANCH   3   5
ATOM      5  C   UNL A   1      33.056  21.952  24.546  1.00  0.00     0.124 A 
ATOM      6  C   UNL A   1      32.817  24.131  23.293  1.00  0.00     0.104 A 
ATOM      7  C   UNL A   1      31.928  24.513  24.225  1.00  0.00     0.103 A 
ATOM      8  C   UNL A   1      33.567  22.858  23.489  1.00  0.00     0.208 A 
ATOM      9  N   UNL A   1      31.592  23.735  25.328  1.00  0.00    -0.350 N 
ATOM     10  O   UNL A   1      34.473  22.537  22.724  1.00  0.00    -0.288 OA
ATOM     11  C   UNL A   1      32.084  22.432  25.342  1.00  0.00     0.105 A 
BRANCH   6  12
ATOM     12  C   UNL A   1      32.874  24.896  22.033  1.00  0.00     0.259 C 
ATOM     13  O   UNL A   1      33.346  24.383  21.020  1.00  0.00    -0.269 OA
BRANCH  12  14
ATOM     14  N   UNL A   1      32.448  26.223  22.095  1.00  0.00    -0.335 N 
ATOM     15  C   UNL A   1      30.585  27.714  22.853  1.00  0.00     0.195 C 
ATOM     16  C   UNL A   1      31.079  26.691  21.820  1.00  0.00     0.158 C 
ATOM     17  C   UNL A   1      31.602  28.877  23.002  1.00  0.00     0.213 C 
ATOM     18  C   UNL A   1      32.987  28.293  23.326  1.00  0.00     0.089 C 
ATOM     19  C   UNL A   1      33.444  27.269  22.293  1.00  0.00     0.126 C 
BRANCH  15  20
ATOM     20  O   UNL A   1      29.299  28.227  22.480  1.00  0.00    -0.373 OA
ATOM     21  C   UNL A   1      28.248  27.771  23.324  1.00  0.00     0.195 C 
ENDBRANCH  15  20
BRANCH  17  22
ATOM     22  N   UNL A   1      31.665  29.786  21.845  1.00  0.00    -0.353 N 
ATOM     23  H   UNL A   1      32.460  30.417  21.950  1.00  0.00     0.344 HD
ATOM     24  H   UNL A   1      30.805  30.331  21.791  1.00  0.00     0.344 HD
ATOM     25  H   UNL A   1      31.776  29.240  20.990  1.00  0.00     0.344 HD
ENDBRANCH  17  22
ENDBRANCH  12  14
ENDBRANCH   6  12
BRANCH   9  26
ATOM     26  C   UNL A   1      30.734  24.218  26.445  1.00  0.00     0.080 C 
ATOM     27  C   UNL A   1      29.916  25.446  26.041  1.00  0.00     0.031 C 
ATOM     28  C   UNL A   1      29.852  23.093  26.974  1.00  0.00     0.031 C 
ENDBRANCH   9  26
ENDBRANCH   3   5
ENDBRANCH   2   3
ENDBRANCH   1   2
BRANCH   1  29
ATOM     29  C   UNL A   1      37.209  20.770  24.966  1.00  0.00     0.275 C 
BRANCH  29  30
ATOM     30  O   UNL A   1      37.975  21.888  25.455  1.00  0.00    -0.458 OA
BRANCH  30  31
ATOM     31  C   UNL A   1      39.103  21.573  26.127  1.00  0.00     0.338 C 
ATOM     32  O   UNL A   1      39.680  20.492  26.141  1.00  0.00    -0.246 OA
BRANCH  31  33
ATOM     33  C   UNL A   1      39.678  22.796  26.700  1.00  0.00     0.060 A 
ATOM     34  C   UNL A   1      40.703  22.785  27.639  1.00  0.00     0.016 A 
ATOM     35  C   UNL A   1      39.199  24.005  26.205  1.00  0.00     0.016 A 
ATOM     36  C   UNL A   1      41.221  24.008  28.090  1.00  0.00     0.010 A 
ATOM     37  C   UNL A   1      39.738  25.218  26.615  1.00  0.00     0.010 A 
ATOM     38  C   UNL A   1      40.747  25.237  27.580  1.00  0.00    -0.014 A 
BRANCH  38  39
ATOM     39  C   UNL A   1      41.340  26.537  27.995  1.00  0.00     0.031 A 
ATOM     40  C   UNL A   1      42.767  26.891  27.658  1.00  0.00     0.074 A 
ATOM     41  C   UNL A   1      40.608  27.373  28.756  1.00  0.00     0.049 A 
ATOM     42  N   UNL A   1      43.419  27.996  27.912  1.00  0.00    -0.248 NA
ATOM     43  C   UNL A   1      43.579  25.864  26.983  1.00  0.00     0.031 C 
ATOM     44  C   UNL A   1      39.267  27.081  29.264  1.00  0.00     0.029 A 
ATOM     45  N   UNL A   1      40.880  28.630  29.238  1.00  0.00    -0.354 N 
ATOM     46  C   UNL A   1      44.712  27.798  27.440  1.00  0.00     0.074 A 
ATOM     47  C   UNL A   1      44.773  26.442  26.943  1.00  0.00     0.031 C 
ATOM     48  C   UNL A   1      38.813  28.145  29.942  1.00  0.00     0.029 A 
ATOM     49  C   UNL A   1      39.838  29.188  29.943  1.00  0.00     0.049 A 
ATOM     50  H   UNL A   1      41.740  29.088  29.095  1.00  0.00     0.167 HD
ATOM     51  C   UNL A   1      45.740  28.678  27.393  1.00  0.00     0.034 A 
ATOM     52  C   UNL A   1      39.708  30.406  30.509  1.00  0.00     0.034 A 
ATOM     53  C   UNL A   1      45.644  30.043  27.844  1.00  0.00     0.049 A 
ATOM     54  C   UNL A   1      40.826  31.404  30.352  1.00  0.00     0.074 A 
ATOM     55  C   UNL A   1      46.591  31.047  27.735  1.00  0.00     0.029 A 
ATOM     56  N   UNL A   1      44.544  30.601  28.480  1.00  0.00    -0.354 N 
ATOM     57  N   UNL A   1      41.989  31.251  29.764  1.00  0.00    -0.248 NA
ATOM     58  C   UNL A   1      40.613  32.748  30.908  1.00  0.00     0.031 C 
ATOM     59  C   UNL A   1      46.086  32.193  28.349  1.00  0.00     0.029 A 
ATOM     60  C   UNL A   1      44.798  31.929  28.782  1.00  0.00     0.049 A 
ATOM     61  H   UNL A   1      43.707  30.124  28.683  1.00  0.00     0.167 HD
ATOM     62  C   UNL A   1      42.635  32.480  29.860  1.00  0.00     0.074 A 
ATOM     63  C   UNL A   1      41.722  33.376  30.536  1.00  0.00     0.031 C 
ATOM     64  C   UNL A   1      43.875  32.826  29.434  1.00  0.00     0.034 A 
BRANCH  51  65
ATOM     65  C   UNL A   1      47.053  28.246  26.780  1.00  0.00     0.023 A 
ATOM     66  C   UNL A   1      47.203  28.212  25.380  1.00  0.00     0.031 A 
ATOM     67  C   UNL A   1      48.085  27.711  27.572  1.00  0.00     0.131 A 
ATOM     68  C   UNL A   1      48.340  27.619  24.817  1.00  0.00     0.055 A 
ATOM     69  C   UNL A   1      49.236  27.162  27.006  1.00  0.00     0.041 A 
ATOM     70  F   UNL A   1      47.986  27.710  28.911  1.00  0.00    -0.206 F 
ATOM     71  C   UNL A   1      49.360  27.102  25.621  1.00  0.00     0.022 A 
BRANCH  68  72
ATOM     72  S   UNL A   1      48.510  27.431  23.020  1.00  0.00     0.124 S 
ATOM     73  O   UNL A   1      48.360  25.986  22.854  1.00  0.00    -0.237 OA
ATOM     74  O   UNL A   1      47.396  28.234  22.524  1.00  0.00    -0.237 OA
ATOM     75  O   UNL A   1      49.843  27.951  22.737  1.00  0.00    -0.744 OA
ENDBRANCH  68  72
ENDBRANCH  51  65
BRANCH  52  76
ATOM     76  C   UNL A   1      38.420  30.757  31.178  1.00  0.00     0.023 A 
ATOM     77  C   UNL A   1      37.378  31.374  30.461  1.00  0.00     0.031 A 
ATOM     78  C   UNL A   1      38.263  30.596  32.565  1.00  0.00     0.131 A 
ATOM     79  C   UNL A   1      36.258  31.864  31.144  1.00  0.00     0.055 A 
ATOM     80  C   UNL A   1      37.114  31.022  33.231  1.00  0.00     0.041 A 
ATOM     81  F   UNL A   1      39.239  30.032  33.294  1.00  0.00    -0.206 F 
ATOM     82  C   UNL A   1      36.111  31.677  32.523  1.00  0.00     0.022 A 
BRANCH  79  83
ATOM     83  S   UNL A   1      35.029  32.894  30.294  1.00  0.00     0.124 S 
ATOM     84  O   UNL A   1      34.101  33.211  31.374  1.00  0.00    -0.237 OA
ATOM     85  O   UNL A   1      35.848  34.006  29.818  1.00  0.00    -0.237 OA
ATOM     86  O   UNL A   1      34.511  32.017  29.250  1.00  0.00    -0.744 OA
ENDBRANCH  79  83
ENDBRANCH  52  76
BRANCH  64  87
ATOM     87  C   UNL A   1      44.357  34.238  29.667  1.00  0.00     0.023 A 
ATOM     88  C   UNL A   1      44.294  35.183  28.624  1.00  0.00     0.031 A 
ATOM     89  C   UNL A   1      45.035  34.592  30.846  1.00  0.00     0.131 A 
ATOM     90  C   UNL A   1      44.938  36.418  28.763  1.00  0.00     0.055 A 
ATOM     91  C   UNL A   1      45.635  35.843  30.997  1.00  0.00     0.041 A 
ATOM     92  F   UNL A   1      45.135  33.721  31.862  1.00  0.00    -0.206 F 
ATOM     93  C   UNL A   1      45.603  36.755  29.946  1.00  0.00     0.022 A 
BRANCH  90  94
ATOM     94  S   UNL A   1      45.026  37.590  27.380  1.00  0.00     0.124 S 
ATOM     95  O   UNL A   1      45.561  38.784  28.031  1.00  0.00    -0.237 OA
ATOM     96  O   UNL A   1      45.941  36.916  26.463  1.00  0.00    -0.237 OA
ATOM     97  O   UNL A   1      43.645  37.698  26.921  1.00  0.00    -0.744 OA
ENDBRANCH  90  94
ENDBRANCH  64  87
ENDBRANCH  38  39
ENDBRANCH  31  33
ENDBRANCH  30  31
ENDBRANCH  29  30
ENDBRANCH   1  29
TORSDOF 19
ENDMDL
MODEL 3
REMARK VINA RESULT:     -11.3      1.701      7.702
REMARK SMILES CO[C@H]1CN(C(=O)c2cn(C(C)C)cc(C(=O)OCCOC(=O)c3ccc(-c4c5nc(c(-c6cc(S(=O)(=O)[O-])ccc6F)c6ccc([nH]6)c(-c6cc(S(=O)(=O)[O-])ccc6F)c6nc(c(-c7cc(S(=O)(=O)[O-])ccc7F)c7ccc4[nH]7)C=C6)C=C5)cc3)c2=O)CC[C@H]1[NH3+]
REMARK SMILES IDX 19 1 18 2 16 3 17 4 15 5 8 6 9 7 87 8 10 9 88 10 14 11 6 12
REMARK SMILES IDX 7 13 5 14 3 15 4 16 91 17 90 18 89 19 2 20 1 21 92 22 11 26
REMARK SMILES IDX 12 27 13 28 20 29 21 30 22 31 23 32 24 33 25 34 86 35 26 36
REMARK SMILES IDX 85 37 27 38 28 39 29 40 79 41 30 42 84 43 78 44 80 45 31 46
REMARK SMILES IDX 83 47 77 48 76 49 32 51 64 52 44 53 63 54 45 55 48 56 62 57
REMARK SMILES IDX 81 58 46 59 47 60 61 62 82 63 49 64 33 65 34 66 42 67 35 68
REMARK SMILES IDX 41 69 43 70 40 71 36 72 37 73 38 74 39 75 65 76 66 77 74 78
REMARK SMILES IDX 67 79 73 80 75 81 72 82 68 83 69 84 70 85 71 86 50 87 51 88
REMARK SMILES IDX 59 89 52 90 58 91 60 92 57 93 53 94 54 95 55 96 56 97
REMARK H PARENT 92 23 92 24 92 25 80 50 48 61
REMARK Flexibility Score: inf
ROOT
ATOM      1  C   UNL A   1      38.345  19.968  24.744  1.00  0.00     0.275 C 
ENDROOT
BRANCH   1   2
ATOM      2  O   UNL A   1      36.990  20.084  25.212  1.00  0.00    -0.458 OA
BRANCH   2   3
ATOM      3  C   UNL A   1      36.541  21.325  25.513  1.00  0.00     0.343 C 
ATOM      4  O   UNL A   1      37.240  22.318  25.661  1.00  0.00    -0.246 OA
BRANCH   3   5
ATOM      5  C   UNL A   1      35.069  21.369  25.541  1.00  0.00     0.124 A 
ATOM      6  C   UNL A   1      32.804  22.295  26.163  1.00  0.00     0.104 A 
ATOM      7  C   UNL A   1      32.260  21.390  25.332  1.00  0.00     0.103 A 
ATOM      8  C   UNL A   1      34.267  22.233  26.441  1.00  0.00     0.208 A 
ATOM      9  N   UNL A   1      33.006  20.447  24.631  1.00  0.00    -0.350 N 
ATOM     10  O   UNL A   1      34.778  22.963  27.286  1.00  0.00    -0.288 OA
ATOM     11  C   UNL A   1      34.390  20.591  24.680  1.00  0.00     0.105 A 
BRANCH   6  12
ATOM     12  C   UNL A   1      31.959  23.416  26.617  1.00  0.00     0.259 C 
ATOM     13  O   UNL A   1      31.256  23.293  27.618  1.00  0.00    -0.269 OA
BRANCH  12  14
ATOM     14  N   UNL A   1      31.953  24.553  25.807  1.00  0.00    -0.335 N 
ATOM     15  C   UNL A   1      30.472  26.255  24.725  1.00  0.00     0.195 C 
ATOM     16  C   UNL A   1      31.002  24.814  24.715  1.00  0.00     0.158 C 
ATOM     17  C   UNL A   1      31.645  27.270  24.759  1.00  0.00     0.213 C 
ATOM     18  C   UNL A   1      32.558  26.941  25.951  1.00  0.00     0.089 C 
ATOM     19  C   UNL A   1      33.055  25.500  25.924  1.00  0.00     0.126 C 
BRANCH  15  20
ATOM     20  O   UNL A   1      29.643  26.496  23.579  1.00  0.00    -0.373 OA
ATOM     21  C   UNL A   1      29.230  27.853  23.462  1.00  0.00     0.195 C 
ENDBRANCH  15  20
BRANCH  17  22
ATOM     22  N   UNL A   1      32.416  27.356  23.507  1.00  0.00    -0.353 N 
ATOM     23  H   UNL A   1      32.212  28.241  23.042  1.00  0.00     0.344 HD
ATOM     24  H   UNL A   1      32.157  26.583  22.893  1.00  0.00     0.344 HD
ATOM     25  H   UNL A   1      33.413  27.305  23.717  1.00  0.00     0.344 HD
ENDBRANCH  17  22
ENDBRANCH  12  14
ENDBRANCH   6  12
BRANCH   9  26
ATOM     26  C   UNL A   1      32.399  19.343  23.838  1.00  0.00     0.080 C 
ATOM     27  C   UNL A   1      32.153  19.757  22.386  1.00  0.00     0.031 C 
ATOM     28  C   UNL A   1      33.246  18.079  23.937  1.00  0.00     0.031 C 
ENDBRANCH   9  26
ENDBRANCH   3   5
ENDBRANCH   2   3
ENDBRANCH   1   2
BRANCH   1  29
ATOM     29  C   UNL A   1      39.253  19.408  25.842  1.00  0.00     0.275 C 
BRANCH  29  30
ATOM     30  O   UNL A   1      40.613  19.297  25.380  1.00  0.00    -0.458 OA
BRANCH  30  31
ATOM     31  C   UNL A   1      41.562  19.373  26.338  1.00  0.00     0.338 C 
ATOM     32  O   UNL A   1      42.258  18.461  26.767  1.00  0.00    -0.246 OA
BRANCH  31  33
ATOM     33  C   UNL A   1      41.796  20.784  26.670  1.00  0.00     0.060 A 
ATOM     34  C   UNL A   1      42.140  21.216  27.946  1.00  0.00     0.016 A 
ATOM     35  C   UNL A   1      41.733  21.694  25.619  1.00  0.00     0.016 A 
ATOM     36  C   UNL A   1      42.393  22.580  28.153  1.00  0.00     0.010 A 
ATOM     37  C   UNL A   1      42.026  23.038  25.809  1.00  0.00     0.010 A 
ATOM     38  C   UNL A   1      42.344  23.505  27.087  1.00  0.00    -0.014 A 
BRANCH  38  39
ATOM     39  C   UNL A   1      42.684  24.940  27.280  1.00  0.00     0.031 A 
ATOM     40  C   UNL A   1      41.703  25.901  27.902  1.00  0.00     0.074 A 
ATOM     41  C   UNL A   1      43.861  25.399  26.813  1.00  0.00     0.049 A 
ATOM     42  N   UNL A   1      41.860  27.171  28.175  1.00  0.00    -0.248 NA
ATOM     43  C   UNL A   1      40.362  25.386  28.227  1.00  0.00     0.031 C 
ATOM     44  C   UNL A   1      44.833  24.597  26.068  1.00  0.00     0.029 A 
ATOM     45  N   UNL A   1      44.443  26.641  26.888  1.00  0.00    -0.354 N 
ATOM     46  C   UNL A   1      40.646  27.608  28.692  1.00  0.00     0.074 A 
ATOM     47  C   UNL A   1      39.738  26.484  28.635  1.00  0.00     0.031 C 
ATOM     48  C   UNL A   1      45.910  25.350  25.799  1.00  0.00     0.029 A 
ATOM     49  C   UNL A   1      45.698  26.697  26.327  1.00  0.00     0.049 A 
ATOM     50  H   UNL A   1      44.002  27.418  27.302  1.00  0.00     0.167 HD
ATOM     51  C   UNL A   1      40.330  28.823  29.202  1.00  0.00     0.034 A 
ATOM     52  C   UNL A   1      46.591  27.708  26.260  1.00  0.00     0.034 A 
ATOM     53  C   UNL A   1      41.265  29.914  29.301  1.00  0.00     0.049 A 
ATOM     54  C   UNL A   1      46.257  29.017  26.927  1.00  0.00     0.074 A 
ATOM     55  C   UNL A   1      41.078  31.146  29.904  1.00  0.00     0.029 A 
ATOM     56  N   UNL A   1      42.558  29.910  28.796  1.00  0.00    -0.354 N 
ATOM     57  N   UNL A   1      45.156  29.366  27.551  1.00  0.00    -0.248 NA
ATOM     58  C   UNL A   1      47.287  30.066  26.907  1.00  0.00     0.031 C 
ATOM     59  C   UNL A   1      42.234  31.903  29.719  1.00  0.00     0.029 A 
ATOM     60  C   UNL A   1      43.170  31.124  29.060  1.00  0.00     0.049 A 
ATOM     61  H   UNL A   1      42.976  29.156  28.322  1.00  0.00     0.167 HD
ATOM     62  C   UNL A   1      45.369  30.660  28.016  1.00  0.00     0.074 A 
ATOM     63  C   UNL A   1      46.715  31.023  27.626  1.00  0.00     0.031 C 
ATOM     64  C   UNL A   1      44.521  31.473  28.693  1.00  0.00     0.034 A 
BRANCH  51  65
ATOM     65  C   UNL A   1      38.944  29.050  29.761  1.00  0.00     0.023 A 
ATOM     66  C   UNL A   1      37.998  29.792  29.028  1.00  0.00     0.031 A 
ATOM     67  C   UNL A   1      38.621  28.681  31.080  1.00  0.00     0.131 A 
ATOM     68  C   UNL A   1      36.793  30.174  29.632  1.00  0.00     0.055 A 
ATOM     69  C   UNL A   1      37.402  29.026  31.661  1.00  0.00     0.041 A 
ATOM     70  F   UNL A   1      39.493  27.982  31.825  1.00  0.00    -0.206 F 
ATOM     71  C   UNL A   1      36.487  29.789  30.941  1.00  0.00     0.022 A 
BRANCH  68  72
ATOM     72  S   UNL A   1      35.608  31.244  28.772  1.00  0.00     0.124 S 
ATOM     73  O   UNL A   1      34.921  31.891  29.889  1.00  0.00    -0.237 OA
ATOM     74  O   UNL A   1      36.489  32.113  27.997  1.00  0.00    -0.237 OA
ATOM     75  O   UNL A   1      34.792  30.315  27.999  1.00  0.00    -0.744 OA
ENDBRANCH  68  72
ENDBRANCH  51  65
BRANCH  52  76
ATOM     76  C   UNL A   1      47.917  27.458  25.623  1.00  0.00     0.023 A 
ATOM     77  C   UNL A   1      48.109  27.671  24.245  1.00  0.00     0.031 A 
ATOM     78  C   UNL A   1      48.970  26.885  26.356  1.00  0.00     0.131 A 
ATOM     79  C   UNL A   1      49.298  27.254  23.635  1.00  0.00     0.055 A 
ATOM     80  C   UNL A   1      50.180  26.536  25.757  1.00  0.00     0.041 A 
ATOM     81  F   UNL A   1      48.826  26.644  27.668  1.00  0.00    -0.206 F 
ATOM     82  C   UNL A   1      50.342  26.703  24.385  1.00  0.00     0.022 A 
BRANCH  79  83
ATOM     83  S   UNL A   1      49.470  27.270  21.828  1.00  0.00     0.124 S 
ATOM     84  O   UNL A   1      50.910  27.104  21.660  1.00  0.00    -0.237 OA
ATOM     85  O   UNL A   1      48.652  26.124  21.439  1.00  0.00    -0.237 OA
ATOM     86  O   UNL A   1      48.933  28.571  21.445  1.00  0.00    -0.744 OA
ENDBRANCH  79  83
ENDBRANCH  52  76
BRANCH  64  87
ATOM     87  C   UNL A   1      44.991  32.855  29.082  1.00  0.00     0.023 A 
ATOM     88  C   UNL A   1      44.797  33.937  28.202  1.00  0.00     0.031 A 
ATOM     89  C   UNL A   1      45.778  33.061  30.228  1.00  0.00     0.131 A 
ATOM     90  C   UNL A   1      45.423  35.163  28.458  1.00  0.00     0.055 A 
ATOM     91  C   UNL A   1      46.360  34.299  30.503  1.00  0.00     0.041 A 
ATOM     92  F   UNL A   1      46.003  32.056  31.090  1.00  0.00    -0.206 F 
ATOM     93  C   UNL A   1      46.197  35.352  29.606  1.00  0.00     0.022 A 
BRANCH  90  94
ATOM     94  S   UNL A   1      45.338  36.525  27.261  1.00  0.00     0.124 S 
ATOM     95  O   UNL A   1      43.931  36.492  26.867  1.00  0.00    -0.237 OA
ATOM     96  O   UNL A   1      45.731  37.674  28.072  1.00  0.00    -0.237 OA
ATOM     97  O   UNL A   1      46.284  36.139  26.219  1.00  0.00    -0.744 OA
ENDBRANCH  90  94
ENDBRANCH  64  87
ENDBRANCH  38  39
ENDBRANCH  31  33
ENDBRANCH  30  31
ENDBRANCH  29  30
ENDBRANCH   1  29
TORSDOF 19
ENDMDL
