MODEL 1
REMARK VINA RESULT:     -11.8      0.000      0.000
REMARK SMILES Cc1cc([N+](=O)[O-])c(-c2ccc(C(=O)OCCOC(=O)c3ccc(-c4c5nc(c(-c6cc(S(=O)(=O)[O-])ccc6F)c6ccc([nH]6)c(-c6cc(S(=O)(=O)[O-])ccc6F)c6nc(c(-c7cc(S(=O)(=O)[O-])ccc7F)c7ccc4[nH]7)C=C6)C=C5)cc3)o2)cc1Cl
REMARK SMILES IDX 17 1 16 2 15 3 13 4 14 5 12 6 9 7 10 8 84 9 11 10 8 11 1 12
REMARK SMILES IDX 2 13 3 14 86 15 4 16 85 17 87 18 5 19 6 20 7 21 18 22 19 23
REMARK SMILES IDX 20 24 21 25 22 26 83 27 23 28 82 29 24 30 25 31 26 32 76 33
REMARK SMILES IDX 27 34 81 35 75 36 77 37 28 38 80 39 74 40 73 41 29 43 61 44
REMARK SMILES IDX 41 45 60 46 42 47 45 48 59 49 78 50 43 51 44 52 58 54 79 55
REMARK SMILES IDX 46 56 30 57 31 58 39 59 32 60 38 61 40 62 37 63 33 64 34 65
REMARK SMILES IDX 35 66 36 67 62 68 63 69 71 70 64 71 70 72 72 73 69 74 65 75
REMARK SMILES IDX 66 76 67 77 68 78 47 79 48 80 56 81 49 82 55 83 57 84 54 85
REMARK SMILES IDX 50 86 51 87 52 88 53 89
REMARK H PARENT 77 42 45 53
REMARK Flexibility Score: inf
ROOT
ATOM      1  C   UNL A   1      31.690  29.994  25.591  1.00  0.00     0.275 C 
ENDROOT
BRANCH   1   2
ATOM      2  C   UNL A   1      31.446  28.799  24.661  1.00  0.00     0.275 C 
BRANCH   2   3
ATOM      3  O   UNL A   1      30.800  27.711  25.349  1.00  0.00    -0.456 OA
BRANCH   3   4
ATOM      4  C   UNL A   1      31.434  27.261  26.476  1.00  0.00     0.374 C 
ATOM      5  O   UNL A   1      31.106  27.567  27.613  1.00  0.00    -0.242 OA
BRANCH   4   6
ATOM      6  C   UNL A   1      32.470  26.319  26.118  1.00  0.00     0.212 A 
ATOM      7  C   UNL A   1      33.200  24.320  25.539  1.00  0.00     0.142 A 
ATOM      8  C   UNL A   1      34.271  25.172  25.399  1.00  0.00     0.052 A 
ATOM      9  O   UNL A   1      32.120  24.997  26.008  1.00  0.00    -0.449 OA
ATOM     10  C   UNL A   1      33.801  26.459  25.766  1.00  0.00     0.059 A 
BRANCH   7  11
ATOM     11  C   UNL A   1      32.965  22.925  25.214  1.00  0.00     0.096 A 
ATOM     12  C   UNL A   1      32.461  18.794  23.954  1.00  0.00     0.046 C 
ATOM     13  C   UNL A   1      32.607  20.229  24.381  1.00  0.00    -0.026 A 
ATOM     14  C   UNL A   1      32.964  20.529  25.706  1.00  0.00     0.091 A 
ATOM     15  C   UNL A   1      32.405  21.291  23.486  1.00  0.00     0.045 A 
ATOM     16  C   UNL A   1      33.135  21.866  26.111  1.00  0.00     0.280 A 
ATOM     17  C   UNL A   1      32.584  22.617  23.897  1.00  0.00     0.040 A 
ATOM     18  Cl  UNL A   1      31.951  21.014  21.845  1.00  0.00    -0.084 Cl
BRANCH  16  19
ATOM     19  N   UNL A   1      33.542  22.104  27.489  1.00  0.00     0.063 N 
ATOM     20  O   UNL A   1      32.666  22.334  28.330  1.00  0.00    -0.258 OA
ATOM     21  O   UNL A   1      34.758  22.040  27.730  1.00  0.00    -0.258 OA
ENDBRANCH  16  19
ENDBRANCH   7  11
ENDBRANCH   4   6
ENDBRANCH   3   4
ENDBRANCH   2   3
ENDBRANCH   1   2
BRANCH   1  22
ATOM     22  O   UNL A   1      33.077  30.129  25.955  1.00  0.00    -0.458 OA
BRANCH  22  23
ATOM     23  C   UNL A   1      33.345  31.123  26.837  1.00  0.00     0.338 C 
ATOM     24  O   UNL A   1      32.599  32.040  27.144  1.00  0.00    -0.246 OA
BRANCH  23  25
ATOM     25  C   UNL A   1      34.635  30.876  27.507  1.00  0.00     0.060 A 
ATOM     26  C   UNL A   1      34.943  29.557  27.849  1.00  0.00     0.016 A 
ATOM     27  C   UNL A   1      35.496  31.915  27.865  1.00  0.00     0.016 A 
ATOM     28  C   UNL A   1      36.104  29.267  28.560  1.00  0.00     0.010 A 
ATOM     29  C   UNL A   1      36.662  31.624  28.585  1.00  0.00     0.010 A 
ATOM     30  C   UNL A   1      36.964  30.299  28.950  1.00  0.00    -0.014 A 
BRANCH  30  31
ATOM     31  C   UNL A   1      38.128  29.981  29.814  1.00  0.00     0.031 A 
ATOM     32  C   UNL A   1      39.215  29.087  29.287  1.00  0.00     0.074 A 
ATOM     33  C   UNL A   1      38.239  30.543  31.031  1.00  0.00     0.049 A 
ATOM     34  N   UNL A   1      40.301  28.663  29.881  1.00  0.00    -0.248 NA
ATOM     35  C   UNL A   1      39.055  28.608  27.906  1.00  0.00     0.031 C 
ATOM     36  C   UNL A   1      37.275  31.473  31.621  1.00  0.00     0.029 A 
ATOM     37  N   UNL A   1      39.215  30.421  31.988  1.00  0.00    -0.354 N 
ATOM     38  C   UNL A   1      40.954  27.863  28.949  1.00  0.00     0.074 A 
ATOM     39  C   UNL A   1      40.123  27.836  27.764  1.00  0.00     0.031 C 
ATOM     40  C   UNL A   1      37.713  31.842  32.836  1.00  0.00     0.029 A 
ATOM     41  C   UNL A   1      38.963  31.146  33.129  1.00  0.00     0.049 A 
ATOM     42  H   UNL A   1      40.020  29.868  31.868  1.00  0.00     0.167 HD
ATOM     43  C   UNL A   1      42.141  27.216  29.072  1.00  0.00     0.034 A 
ATOM     44  C   UNL A   1      39.653  31.222  34.285  1.00  0.00     0.034 A 
ATOM     45  C   UNL A   1      42.955  27.247  30.262  1.00  0.00     0.049 A 
ATOM     46  C   UNL A   1      40.934  30.435  34.422  1.00  0.00     0.074 A 
ATOM     47  C   UNL A   1      44.158  26.606  30.505  1.00  0.00     0.029 A 
ATOM     48  N   UNL A   1      42.647  27.958  31.415  1.00  0.00    -0.354 N 
ATOM     49  N   UNL A   1      41.524  29.655  33.546  1.00  0.00    -0.248 NA
ATOM     50  C   UNL A   1      41.645  30.546  35.703  1.00  0.00     0.031 C 
ATOM     51  C   UNL A   1      44.551  26.889  31.818  1.00  0.00     0.029 A 
ATOM     52  C   UNL A   1      43.628  27.758  32.375  1.00  0.00     0.049 A 
ATOM     53  H   UNL A   1      41.850  28.523  31.533  1.00  0.00     0.167 HD
ATOM     54  C   UNL A   1      42.688  29.207  34.161  1.00  0.00     0.074 A 
ATOM     55  C   UNL A   1      42.725  29.812  35.475  1.00  0.00     0.031 C 
ATOM     56  C   UNL A   1      43.646  28.371  33.682  1.00  0.00     0.034 A 
BRANCH  43  57
ATOM     57  C   UNL A   1      42.590  26.377  27.900  1.00  0.00     0.023 A 
ATOM     58  C   UNL A   1      42.286  25.007  27.811  1.00  0.00     0.031 A 
ATOM     59  C   UNL A   1      43.365  26.950  26.876  1.00  0.00     0.131 A 
ATOM     60  C   UNL A   1      42.809  24.243  26.755  1.00  0.00     0.055 A 
ATOM     61  C   UNL A   1      43.821  26.199  25.791  1.00  0.00     0.041 A 
ATOM     62  F   UNL A   1      43.705  28.247  26.921  1.00  0.00    -0.206 F 
ATOM     63  C   UNL A   1      43.554  24.834  25.733  1.00  0.00     0.022 A 
BRANCH  60  64
ATOM     64  S   UNL A   1      42.607  22.441  26.802  1.00  0.00     0.124 S 
ATOM     65  O   UNL A   1      41.379  22.260  26.031  1.00  0.00    -0.237 OA
ATOM     66  O   UNL A   1      43.834  21.968  26.171  1.00  0.00    -0.237 OA
ATOM     67  O   UNL A   1      42.487  22.145  28.228  1.00  0.00    -0.744 OA
ENDBRANCH  60  64
ENDBRANCH  43  57
BRANCH  44  68
ATOM     68  C   UNL A   1      39.139  32.034  35.424  1.00  0.00     0.023 A 
ATOM     69  C   UNL A   1      38.509  31.429  36.523  1.00  0.00     0.031 A 
ATOM     70  C   UNL A   1      39.216  33.438  35.399  1.00  0.00     0.131 A 
ATOM     71  C   UNL A   1      37.937  32.226  37.527  1.00  0.00     0.055 A 
ATOM     72  C   UNL A   1      38.692  34.225  36.425  1.00  0.00     0.041 A 
ATOM     73  F   UNL A   1      39.806  34.068  34.369  1.00  0.00    -0.206 F 
ATOM     74  C   UNL A   1      38.034  33.619  37.492  1.00  0.00     0.022 A 
BRANCH  71  75
ATOM     75  S   UNL A   1      36.976  31.418  38.837  1.00  0.00     0.124 S 
ATOM     76  O   UNL A   1      35.799  32.276  38.915  1.00  0.00    -0.237 OA
ATOM     77  O   UNL A   1      36.763  30.087  38.278  1.00  0.00    -0.237 OA
ATOM     78  O   UNL A   1      37.866  31.471  39.995  1.00  0.00    -0.744 OA
ENDBRANCH  71  75
ENDBRANCH  44  68
BRANCH  56  79
ATOM     79  C   UNL A   1      44.835  28.116  34.574  1.00  0.00     0.023 A 
ATOM     80  C   UNL A   1      44.863  27.045  35.484  1.00  0.00     0.031 A 
ATOM     81  C   UNL A   1      45.947  28.975  34.525  1.00  0.00     0.131 A 
ATOM     82  C   UNL A   1      45.959  26.891  36.346  1.00  0.00     0.055 A 
ATOM     83  C   UNL A   1      47.057  28.786  35.348  1.00  0.00     0.041 A 
ATOM     84  F   UNL A   1      45.971  30.013  33.673  1.00  0.00    -0.206 F 
ATOM     85  C   UNL A   1      47.061  27.748  36.276  1.00  0.00     0.022 A 
BRANCH  82  86
ATOM     86  S   UNL A   1      45.891  25.605  37.623  1.00  0.00     0.124 S 
ATOM     87  O   UNL A   1      45.950  24.382  36.829  1.00  0.00    -0.237 OA
ATOM     88  O   UNL A   1      47.072  25.901  38.428  1.00  0.00    -0.237 OA
ATOM     89  O   UNL A   1      44.613  25.850  38.291  1.00  0.00    -0.744 OA
ENDBRANCH  82  86
ENDBRANCH  56  79
ENDBRANCH  30  31
ENDBRANCH  23  25
ENDBRANCH  22  23
ENDBRANCH   1  22
TORSDOF 16
ENDMDL
MODEL 2
REMARK VINA RESULT:     -11.8      5.216      7.651
REMARK SMILES Cc1cc([N+](=O)[O-])c(-c2ccc(C(=O)OCCOC(=O)c3ccc(-c4c5nc(c(-c6cc(S(=O)(=O)[O-])ccc6F)c6ccc([nH]6)c(-c6cc(S(=O)(=O)[O-])ccc6F)c6nc(c(-c7cc(S(=O)(=O)[O-])ccc7F)c7ccc4[nH]7)C=C6)C=C5)cc3)o2)cc1Cl
REMARK SMILES IDX 17 1 16 2 15 3 13 4 14 5 12 6 9 7 10 8 84 9 11 10 8 11 1 12
REMARK SMILES IDX 2 13 3 14 86 15 4 16 85 17 87 18 5 19 6 20 7 21 18 22 19 23
REMARK SMILES IDX 20 24 21 25 22 26 83 27 23 28 82 29 24 30 25 31 26 32 76 33
REMARK SMILES IDX 27 34 81 35 75 36 77 37 28 38 80 39 74 40 73 41 29 43 61 44
REMARK SMILES IDX 41 45 60 46 42 47 45 48 59 49 78 50 43 51 44 52 58 54 79 55
REMARK SMILES IDX 46 56 30 57 31 58 39 59 32 60 38 61 40 62 37 63 33 64 34 65
REMARK SMILES IDX 35 66 36 67 62 68 63 69 71 70 64 71 70 72 72 73 69 74 65 75
REMARK SMILES IDX 66 76 67 77 68 78 47 79 48 80 56 81 49 82 55 83 57 84 54 85
REMARK SMILES IDX 50 86 51 87 52 88 53 89
REMARK H PARENT 77 42 45 53
REMARK Flexibility Score: inf
ROOT
ATOM      1  C   UNL A   1      37.161  20.547  24.923  1.00  0.00     0.275 C 
ENDROOT
BRANCH   1   2
ATOM      2  C   UNL A   1      35.632  20.443  25.001  1.00  0.00     0.275 C 
BRANCH   2   3
ATOM      3  O   UNL A   1      35.034  21.684  25.420  1.00  0.00    -0.456 OA
BRANCH   3   4
ATOM      4  C   UNL A   1      33.726  21.864  25.059  1.00  0.00     0.374 C 
ATOM      5  O   UNL A   1      32.816  21.117  25.389  1.00  0.00    -0.242 OA
BRANCH   4   6
ATOM      6  C   UNL A   1      33.582  23.097  24.319  1.00  0.00     0.212 A 
ATOM      7  C   UNL A   1      33.148  25.253  24.149  1.00  0.00     0.142 A 
ATOM      8  C   UNL A   1      33.647  24.867  22.926  1.00  0.00     0.052 A 
ATOM      9  O   UNL A   1      33.070  24.184  24.983  1.00  0.00    -0.449 OA
ATOM     10  C   UNL A   1      33.931  23.482  23.036  1.00  0.00     0.059 A 
BRANCH   7  11
ATOM     11  C   UNL A   1      32.790  26.529  24.741  1.00  0.00     0.096 A 
ATOM     12  C   UNL A   1      32.046  30.460  26.443  1.00  0.00     0.046 C 
ATOM     13  C   UNL A   1      32.304  29.089  25.882  1.00  0.00    -0.026 A 
ATOM     14  C   UNL A   1      31.397  28.527  24.968  1.00  0.00     0.091 A 
ATOM     15  C   UNL A   1      33.441  28.347  26.238  1.00  0.00     0.045 A 
ATOM     16  C   UNL A   1      31.643  27.258  24.412  1.00  0.00     0.280 A 
ATOM     17  C   UNL A   1      33.680  27.088  25.673  1.00  0.00     0.040 A 
ATOM     18  Cl  UNL A   1      34.599  28.953  27.363  1.00  0.00    -0.084 Cl
BRANCH  16  19
ATOM     19  N   UNL A   1      30.681  26.751  23.442  1.00  0.00     0.063 N 
ATOM     20  O   UNL A   1      30.777  27.124  22.268  1.00  0.00    -0.258 OA
ATOM     21  O   UNL A   1      29.830  25.954  23.866  1.00  0.00    -0.258 OA
ENDBRANCH  16  19
ENDBRANCH   7  11
ENDBRANCH   4   6
ENDBRANCH   3   4
ENDBRANCH   2   3
ENDBRANCH   1   2
BRANCH   1  22
ATOM     22  O   UNL A   1      37.679  21.607  25.749  1.00  0.00    -0.458 OA
BRANCH  22  23
ATOM     23  C   UNL A   1      38.973  21.461  26.125  1.00  0.00     0.338 C 
ATOM     24  O   UNL A   1      39.682  20.489  25.919  1.00  0.00    -0.246 OA
BRANCH  23  25
ATOM     25  C   UNL A   1      39.479  22.717  26.709  1.00  0.00     0.060 A 
ATOM     26  C   UNL A   1      38.918  23.913  26.255  1.00  0.00     0.016 A 
ATOM     27  C   UNL A   1      40.533  22.737  27.626  1.00  0.00     0.016 A 
ATOM     28  C   UNL A   1      39.410  25.135  26.702  1.00  0.00     0.010 A 
ATOM     29  C   UNL A   1      41.032  23.968  28.071  1.00  0.00     0.010 A 
ATOM     30  C   UNL A   1      40.482  25.175  27.599  1.00  0.00    -0.014 A 
BRANCH  30  31
ATOM     31  C   UNL A   1      41.071  26.487  27.963  1.00  0.00     0.031 A 
ATOM     32  C   UNL A   1      42.495  26.788  27.585  1.00  0.00     0.074 A 
ATOM     33  C   UNL A   1      40.316  27.422  28.568  1.00  0.00     0.049 A 
ATOM     34  N   UNL A   1      43.210  27.855  27.827  1.00  0.00    -0.248 NA
ATOM     35  C   UNL A   1      43.205  25.742  26.833  1.00  0.00     0.031 C 
ATOM     36  C   UNL A   1      38.906  27.264  28.928  1.00  0.00     0.029 A 
ATOM     37  N   UNL A   1      40.625  28.695  28.977  1.00  0.00    -0.354 N 
ATOM     38  C   UNL A   1      44.457  27.612  27.262  1.00  0.00     0.074 A 
ATOM     39  C   UNL A   1      44.407  26.281  26.695  1.00  0.00     0.031 C 
ATOM     40  C   UNL A   1      38.472  28.400  29.499  1.00  0.00     0.029 A 
ATOM     41  C   UNL A   1      39.578  29.349  29.583  1.00  0.00     0.049 A 
ATOM     42  H   UNL A   1      41.512  29.102  28.849  1.00  0.00     0.167 HD
ATOM     43  C   UNL A   1      45.541  28.428  27.216  1.00  0.00     0.034 A 
ATOM     44  C   UNL A   1      39.526  30.567  30.159  1.00  0.00     0.034 A 
ATOM     45  C   UNL A   1      45.577  29.750  27.792  1.00  0.00     0.049 A 
ATOM     46  C   UNL A   1      40.766  31.427  30.159  1.00  0.00     0.074 A 
ATOM     47  C   UNL A   1      46.629  30.650  27.830  1.00  0.00     0.029 A 
ATOM     48  N   UNL A   1      44.510  30.364  28.436  1.00  0.00    -0.354 N 
ATOM     49  N   UNL A   1      41.950  31.172  29.651  1.00  0.00    -0.248 NA
ATOM     50  C   UNL A   1      40.660  32.743  30.804  1.00  0.00     0.031 C 
ATOM     51  C   UNL A   1      46.215  31.783  28.538  1.00  0.00     0.029 A 
ATOM     52  C   UNL A   1      44.884  31.621  28.888  1.00  0.00     0.049 A 
ATOM     53  H   UNL A   1      43.618  29.966  28.554  1.00  0.00     0.167 HD
ATOM     54  C   UNL A   1      42.719  32.307  29.891  1.00  0.00     0.074 A 
ATOM     55  C   UNL A   1      41.863  33.252  30.576  1.00  0.00     0.031 C 
ATOM     56  C   UNL A   1      44.016  32.550  29.571  1.00  0.00     0.034 A 
BRANCH  43  57
ATOM     57  C   UNL A   1      46.787  27.879  26.568  1.00  0.00     0.023 A 
ATOM     58  C   UNL A   1      47.048  28.055  25.197  1.00  0.00     0.031 A 
ATOM     59  C   UNL A   1      47.712  27.138  27.325  1.00  0.00     0.131 A 
ATOM     60  C   UNL A   1      48.169  27.443  24.614  1.00  0.00     0.055 A 
ATOM     61  C   UNL A   1      48.862  26.591  26.754  1.00  0.00     0.041 A 
ATOM     62  F   UNL A   1      47.502  26.917  28.633  1.00  0.00    -0.206 F 
ATOM     63  C   UNL A   1      49.089  26.732  25.388  1.00  0.00     0.022 A 
BRANCH  60  64
ATOM     64  S   UNL A   1      48.342  27.480  22.809  1.00  0.00     0.124 S 
ATOM     65  O   UNL A   1      48.363  26.056  22.484  1.00  0.00    -0.237 OA
ATOM     66  O   UNL A   1      47.154  28.215  22.392  1.00  0.00    -0.237 OA
ATOM     67  O   UNL A   1      49.610  28.177  22.600  1.00  0.00    -0.744 OA
ENDBRANCH  60  64
ENDBRANCH  43  57
BRANCH  44  68
ATOM     68  C   UNL A   1      38.278  31.041  30.823  1.00  0.00     0.023 A 
ATOM     69  C   UNL A   1      37.264  31.681  30.092  1.00  0.00     0.031 A 
ATOM     70  C   UNL A   1      38.110  30.916  32.213  1.00  0.00     0.131 A 
ATOM     71  C   UNL A   1      36.151  32.214  30.761  1.00  0.00     0.055 A 
ATOM     72  C   UNL A   1      36.977  31.402  32.867  1.00  0.00     0.041 A 
ATOM     73  F   UNL A   1      39.051  30.315  32.959  1.00  0.00    -0.206 F 
ATOM     74  C   UNL A   1      35.994  32.069  32.141  1.00  0.00     0.022 A 
BRANCH  71  75
ATOM     75  S   UNL A   1      34.951  33.189  29.811  1.00  0.00     0.124 S 
ATOM     76  O   UNL A   1      35.806  34.203  29.203  1.00  0.00    -0.237 OA
ATOM     77  O   UNL A   1      34.398  32.188  28.904  1.00  0.00    -0.237 OA
ATOM     78  O   UNL A   1      34.028  33.681  30.831  1.00  0.00    -0.744 OA
ENDBRANCH  71  75
ENDBRANCH  44  68
BRANCH  56  79
ATOM     79  C   UNL A   1      44.558  33.914  29.916  1.00  0.00     0.023 A 
ATOM     80  C   UNL A   1      44.434  35.004  29.038  1.00  0.00     0.031 A 
ATOM     81  C   UNL A   1      45.229  34.116  31.135  1.00  0.00     0.131 A 
ATOM     82  C   UNL A   1      45.019  36.236  29.367  1.00  0.00     0.055 A 
ATOM     83  C   UNL A   1      45.763  35.357  31.481  1.00  0.00     0.041 A 
ATOM     84  F   UNL A   1      45.375  33.108  32.010  1.00  0.00    -0.206 F 
ATOM     85  C   UNL A   1      45.672  36.422  30.589  1.00  0.00     0.022 A 
BRANCH  82  86
ATOM     86  S   UNL A   1      44.990  37.572  28.142  1.00  0.00     0.124 S 
ATOM     87  O   UNL A   1      45.495  38.704  28.912  1.00  0.00    -0.237 OA
ATOM     88  O   UNL A   1      45.877  37.061  27.102  1.00  0.00    -0.237 OA
ATOM     89  O   UNL A   1      43.580  37.660  27.762  1.00  0.00    -0.744 OA
ENDBRANCH  82  86
ENDBRANCH  56  79
ENDBRANCH  30  31
ENDBRANCH  23  25
ENDBRANCH  22  23
ENDBRANCH   1  22
TORSDOF 16
ENDMDL
MODEL 3
REMARK VINA RESULT:     -11.7      5.216     10.195
REMARK SMILES Cc1cc([N+](=O)[O-])c(-c2ccc(C(=O)OCCOC(=O)c3ccc(-c4c5nc(c(-c6cc(S(=O)(=O)[O-])ccc6F)c6ccc([nH]6)c(-c6cc(S(=O)(=O)[O-])ccc6F)c6nc(c(-c7cc(S(=O)(=O)[O-])ccc7F)c7ccc4[nH]7)C=C6)C=C5)cc3)o2)cc1Cl
REMARK SMILES IDX 17 1 16 2 15 3 13 4 14 5 12 6 9 7 10 8 84 9 11 10 8 11 1 12
REMARK SMILES IDX 2 13 3 14 86 15 4 16 85 17 87 18 5 19 6 20 7 21 18 22 19 23
REMARK SMILES IDX 20 24 21 25 22 26 83 27 23 28 82 29 24 30 25 31 26 32 76 33
REMARK SMILES IDX 27 34 81 35 75 36 77 37 28 38 80 39 74 40 73 41 29 43 61 44
REMARK SMILES IDX 41 45 60 46 42 47 45 48 59 49 78 50 43 51 44 52 58 54 79 55
REMARK SMILES IDX 46 56 30 57 31 58 39 59 32 60 38 61 40 62 37 63 33 64 34 65
REMARK SMILES IDX 35 66 36 67 62 68 63 69 71 70 64 71 70 72 72 73 69 74 65 75
REMARK SMILES IDX 66 76 67 77 68 78 47 79 48 80 56 81 49 82 55 83 57 84 54 85
REMARK SMILES IDX 50 86 51 87 52 88 53 89
REMARK H PARENT 77 42 45 53
REMARK Flexibility Score: inf
ROOT
ATOM      1  C   UNL A   1      37.236  20.519  24.785  1.00  0.00     0.275 C 
ENDROOT
BRANCH   1   2
ATOM      2  C   UNL A   1      35.747  20.220  25.004  1.00  0.00     0.275 C 
BRANCH   2   3
ATOM      3  O   UNL A   1      35.046  21.363  25.529  1.00  0.00    -0.456 OA
BRANCH   3   4
ATOM      4  C   UNL A   1      33.808  21.597  24.994  1.00  0.00     0.374 C 
ATOM      5  O   UNL A   1      32.860  20.832  25.100  1.00  0.00    -0.242 OA
BRANCH   4   6
ATOM      6  C   UNL A   1      33.775  22.903  24.375  1.00  0.00     0.212 A 
ATOM      7  C   UNL A   1      33.405  25.077  24.383  1.00  0.00     0.142 A 
ATOM      8  C   UNL A   1      34.037  24.803  23.192  1.00  0.00     0.052 A 
ATOM      9  O   UNL A   1      33.210  23.932  25.086  1.00  0.00    -0.449 OA
ATOM     10  C   UNL A   1      34.280  23.405  23.188  1.00  0.00     0.059 A 
BRANCH   7  11
ATOM     11  C   UNL A   1      33.005  26.297  25.060  1.00  0.00     0.096 A 
ATOM     12  C   UNL A   1      32.098  30.101  26.960  1.00  0.00     0.046 C 
ATOM     13  C   UNL A   1      32.419  28.774  26.330  1.00  0.00    -0.026 A 
ATOM     14  C   UNL A   1      31.435  28.097  25.591  1.00  0.00     0.091 A 
ATOM     15  C   UNL A   1      33.689  28.188  26.449  1.00  0.00     0.045 A 
ATOM     16  C   UNL A   1      31.732  26.869  24.969  1.00  0.00     0.280 A 
ATOM     17  C   UNL A   1      33.976  26.970  25.821  1.00  0.00     0.040 A 
ATOM     18  Cl  UNL A   1      34.952  28.943  27.349  1.00  0.00    -0.084 Cl
BRANCH  16  19
ATOM     19  N   UNL A   1      30.677  26.239  24.187  1.00  0.00     0.063 N 
ATOM     20  O   UNL A   1      30.533  26.583  23.009  1.00  0.00    -0.258 OA
ATOM     21  O   UNL A   1      29.999  25.373  24.762  1.00  0.00    -0.258 OA
ENDBRANCH  16  19
ENDBRANCH   7  11
ENDBRANCH   4   6
ENDBRANCH   3   4
ENDBRANCH   2   3
ENDBRANCH   1   2
BRANCH   1  22
ATOM     22  O   UNL A   1      37.732  21.518  25.695  1.00  0.00    -0.458 OA
BRANCH  22  23
ATOM     23  C   UNL A   1      38.996  21.311  26.140  1.00  0.00     0.338 C 
ATOM     24  O   UNL A   1      39.648  20.286  26.020  1.00  0.00    -0.246 OA
BRANCH  23  25
ATOM     25  C   UNL A   1      39.557  22.562  26.682  1.00  0.00     0.060 A 
ATOM     26  C   UNL A   1      39.079  23.765  26.156  1.00  0.00     0.016 A 
ATOM     27  C   UNL A   1      40.583  22.567  27.629  1.00  0.00     0.016 A 
ATOM     28  C   UNL A   1      39.628  24.978  26.561  1.00  0.00     0.010 A 
ATOM     29  C   UNL A   1      41.140  23.787  28.033  1.00  0.00     0.010 A 
ATOM     30  C   UNL A   1      40.675  24.999  27.488  1.00  0.00    -0.014 A 
BRANCH  30  31
ATOM     31  C   UNL A   1      41.329  26.292  27.811  1.00  0.00     0.031 A 
ATOM     32  C   UNL A   1      40.558  27.342  28.562  1.00  0.00     0.074 A 
ATOM     33  C   UNL A   1      42.620  26.495  27.490  1.00  0.00     0.049 A 
ATOM     34  N   UNL A   1      40.928  28.544  28.921  1.00  0.00    -0.248 NA
ATOM     35  C   UNL A   1      39.189  26.986  28.960  1.00  0.00     0.031 C 
ATOM     36  C   UNL A   1      43.483  25.524  26.815  1.00  0.00     0.029 A 
ATOM     37  N   UNL A   1      43.435  27.579  27.699  1.00  0.00    -0.354 N 
ATOM     38  C   UNL A   1      39.836  29.093  29.585  1.00  0.00     0.074 A 
ATOM     39  C   UNL A   1      38.781  28.102  29.547  1.00  0.00     0.031 C 
ATOM     40  C   UNL A   1      44.708  26.056  26.671  1.00  0.00     0.029 A 
ATOM     41  C   UNL A   1      44.707  27.416  27.204  1.00  0.00     0.049 A 
ATOM     42  H   UNL A   1      43.136  28.396  28.159  1.00  0.00     0.167 HD
ATOM     43  C   UNL A   1      39.727  30.310  30.176  1.00  0.00     0.034 A 
ATOM     44  C   UNL A   1      45.746  28.275  27.168  1.00  0.00     0.034 A 
ATOM     45  C   UNL A   1      40.786  31.290  30.200  1.00  0.00     0.049 A 
ATOM     46  C   UNL A   1      45.577  29.649  27.769  1.00  0.00     0.074 A 
ATOM     47  C   UNL A   1      40.775  32.563  30.743  1.00  0.00     0.029 A 
ATOM     48  N   UNL A   1      42.049  31.106  29.651  1.00  0.00    -0.354 N 
ATOM     49  N   UNL A   1      44.527  30.169  28.363  1.00  0.00    -0.248 NA
ATOM     50  C   UNL A   1      46.735  30.550  27.698  1.00  0.00     0.031 C 
ATOM     51  C   UNL A   1      42.010  33.165  30.481  1.00  0.00     0.029 A 
ATOM     52  C   UNL A   1      42.817  32.247  29.830  1.00  0.00     0.049 A 
ATOM     53  H   UNL A   1      42.355  30.286  29.202  1.00  0.00     0.167 HD
ATOM     54  C   UNL A   1      44.911  31.445  28.763  1.00  0.00     0.074 A 
ATOM     55  C   UNL A   1      46.290  31.612  28.354  1.00  0.00     0.031 C 
ATOM     56  C   UNL A   1      44.191  32.395  29.413  1.00  0.00     0.034 A 
BRANCH  43  57
ATOM     57  C   UNL A   1      38.395  30.658  30.792  1.00  0.00     0.023 A 
ATOM     58  C   UNL A   1      37.405  31.350  30.072  1.00  0.00     0.031 A 
ATOM     59  C   UNL A   1      38.125  30.324  32.131  1.00  0.00     0.131 A 
ATOM     60  C   UNL A   1      36.219  31.742  30.714  1.00  0.00     0.055 A 
ATOM     61  C   UNL A   1      36.915  30.654  32.743  1.00  0.00     0.041 A 
ATOM     62  F   UNL A   1      39.043  29.685  32.873  1.00  0.00    -0.206 F 
ATOM     63  C   UNL A   1      35.958  31.378  32.037  1.00  0.00     0.022 A 
BRANCH  60  64
ATOM     64  S   UNL A   1      35.076  32.843  29.836  1.00  0.00     0.124 S 
ATOM     65  O   UNL A   1      34.450  31.924  28.888  1.00  0.00    -0.237 OA
ATOM     66  O   UNL A   1      34.221  33.335  30.911  1.00  0.00    -0.237 OA
ATOM     67  O   UNL A   1      35.956  33.842  29.234  1.00  0.00    -0.744 OA
ENDBRANCH  60  64
ENDBRANCH  43  57
BRANCH  44  68
ATOM     68  C   UNL A   1      47.027  27.891  26.509  1.00  0.00     0.023 A 
ATOM     69  C   UNL A   1      47.196  28.014  25.120  1.00  0.00     0.031 A 
ATOM     70  C   UNL A   1      48.081  27.334  27.254  1.00  0.00     0.131 A 
ATOM     71  C   UNL A   1      48.370  27.541  24.515  1.00  0.00     0.055 A 
ATOM     72  C   UNL A   1      49.268  26.912  26.654  1.00  0.00     0.041 A 
ATOM     73  F   UNL A   1      47.970  27.191  28.585  1.00  0.00    -0.206 F 
ATOM     74  C   UNL A   1      49.412  27.002  25.273  1.00  0.00     0.022 A 
BRANCH  71  75
ATOM     75  S   UNL A   1      48.479  27.551  22.703  1.00  0.00     0.124 S 
ATOM     76  O   UNL A   1      49.729  28.269  22.484  1.00  0.00    -0.237 OA
ATOM     77  O   UNL A   1      48.496  26.125  22.393  1.00  0.00    -0.237 OA
ATOM     78  O   UNL A   1      47.270  28.262  22.293  1.00  0.00    -0.744 OA
ENDBRANCH  71  75
ENDBRANCH  44  68
BRANCH  56  79
ATOM     79  C   UNL A   1      44.910  33.674  29.764  1.00  0.00     0.023 A 
ATOM     80  C   UNL A   1      44.910  34.785  28.904  1.00  0.00     0.031 A 
ATOM     81  C   UNL A   1      45.625  33.768  30.971  1.00  0.00     0.131 A 
ATOM     82  C   UNL A   1      45.655  35.926  29.238  1.00  0.00     0.055 A 
ATOM     83  C   UNL A   1      46.321  34.925  31.323  1.00  0.00     0.041 A 
ATOM     84  F   UNL A   1      45.657  32.735  31.829  1.00  0.00    -0.206 F 
ATOM     85  C   UNL A   1      46.350  36.007  30.448  1.00  0.00     0.022 A 
BRANCH  82  86
ATOM     86  S   UNL A   1      45.773  37.275  28.032  1.00  0.00     0.124 S 
ATOM     87  O   UNL A   1      46.250  36.579  26.841  1.00  0.00    -0.237 OA
ATOM     88  O   UNL A   1      44.400  37.766  27.977  1.00  0.00    -0.237 OA
ATOM     89  O   UNL A   1      46.734  38.195  28.638  1.00  0.00    -0.744 OA
ENDBRANCH  82  86
ENDBRANCH  56  79
ENDBRANCH  30  31
ENDBRANCH  23  25
ENDBRANCH  22  23
ENDBRANCH   1  22
TORSDOF 16
ENDMDL
