MODEL 1
REMARK VINA RESULT:     -12.8      0.000      0.000
REMARK SMILES Cc1cccc(N2CCN(C(=O)[C@@H]3CC=CC[C@@H]3C(=O)OCCOC(=O)c3ccc(-c4c5nc(c(-c6cc(S(=O)(=O)[O-])ccc6F)c6ccc([nH]6)c(-c6cc(S(=O)(=O)[O-])ccc6F)c6nc(c(-c7cc(S(=O)(=O)[O-])ccc7F)c7ccc4[nH]7)C=C6)C=C5)cc3)CC2)c1C
REMARK SMILES IDX 23 1 22 2 21 3 19 4 20 5 18 6 13 7 14 8 15 9 17 10 16 11
REMARK SMILES IDX 11 12 7 13 8 14 91 15 9 16 90 17 10 18 12 19 6 20 1 21 2 22
REMARK SMILES IDX 3 23 92 24 4 25 93 26 5 27 24 28 25 29 26 30 27 31 28 32
REMARK SMILES IDX 89 33 29 34 88 35 30 36 31 37 32 38 82 39 33 40 87 41 81 42
REMARK SMILES IDX 83 43 34 44 86 45 80 46 79 47 35 49 67 50 47 51 66 52 48 53
REMARK SMILES IDX 51 54 65 55 84 56 49 57 50 58 64 60 85 61 52 62 36 63 37 64
REMARK SMILES IDX 45 65 38 66 44 67 46 68 43 69 39 70 40 71 41 72 42 73 68 74
REMARK SMILES IDX 69 75 77 76 70 77 76 78 78 79 75 80 71 81 72 82 73 83 74 84
REMARK SMILES IDX 53 85 54 86 62 87 55 88 61 89 63 90 60 91 56 92 57 93 58 94
REMARK SMILES IDX 59 95
REMARK H PARENT 83 48 51 59
REMARK Flexibility Score: inf
ROOT
ATOM      1  C   UNL A   1      32.016  29.268  25.823  1.00  0.00     0.275 C 
ENDROOT
BRANCH   1   2
ATOM      2  C   UNL A   1      31.876  27.936  26.568  1.00  0.00     0.274 C 
BRANCH   2   3
ATOM      3  O   UNL A   1      31.977  26.817  25.649  1.00  0.00    -0.462 OA
BRANCH   3   4
ATOM      4  C   UNL A   1      30.964  25.919  25.742  1.00  0.00     0.310 C 
ATOM      5  O   UNL A   1      30.609  25.415  26.803  1.00  0.00    -0.252 OA
BRANCH   4   6
ATOM      6  C   UNL A   1      30.283  25.594  24.420  1.00  0.00     0.115 C 
ATOM      7  C   UNL A   1      31.133  24.865  23.358  1.00  0.00     0.097 C 
ATOM      8  C   UNL A   1      31.864  25.761  22.357  1.00  0.00     0.041 C 
ATOM      9  C   UNL A   1      31.220  27.088  22.100  1.00  0.00    -0.030 C 
ATOM     10  C   UNL A   1      29.471  26.765  23.847  1.00  0.00     0.043 C 
ATOM     11  C   UNL A   1      30.163  27.548  22.779  1.00  0.00    -0.030 C 
BRANCH   7  12
ATOM     12  C   UNL A   1      31.853  23.660  23.989  1.00  0.00     0.227 C 
ATOM     13  N   UNL A   1      35.835  23.216  25.329  1.00  0.00    -0.368 N 
ATOM     14  C   UNL A   1      34.757  22.351  25.817  1.00  0.00     0.138 C 
ATOM     15  C   UNL A   1      35.641  23.736  23.975  1.00  0.00     0.138 C 
ATOM     16  C   UNL A   1      33.423  23.100  25.764  1.00  0.00     0.141 C 
ATOM     17  C   UNL A   1      34.279  24.443  23.848  1.00  0.00     0.141 C 
ATOM     18  N   UNL A   1      33.148  23.728  24.459  1.00  0.00    -0.339 N 
ATOM     19  O   UNL A   1      31.163  22.665  24.256  1.00  0.00    -0.275 OA
BRANCH  13  20
ATOM     20  C   UNL A   1      37.144  23.046  25.754  1.00  0.00     0.040 A 
ATOM     21  C   UNL A   1      39.978  20.480  26.125  1.00  0.00     0.044 C 
ATOM     22  C   UNL A   1      39.184  21.758  26.175  1.00  0.00    -0.046 A 
ATOM     23  C   UNL A   1      39.752  22.874  26.808  1.00  0.00     0.004 A 
ATOM     24  C   UNL A   1      37.892  21.856  25.596  1.00  0.00    -0.025 A 
ATOM     25  C   UNL A   1      39.049  24.067  26.898  1.00  0.00     0.002 A 
ATOM     26  C   UNL A   1      37.330  20.692  24.818  1.00  0.00     0.047 C 
ATOM     27  C   UNL A   1      37.759  24.145  26.384  1.00  0.00     0.026 A 
ENDBRANCH  13  20
ENDBRANCH   7  12
ENDBRANCH   4   6
ENDBRANCH   3   4
ENDBRANCH   2   3
ENDBRANCH   1   2
BRANCH   1  28
ATOM     28  O   UNL A   1      33.335  29.777  26.052  1.00  0.00    -0.458 OA
BRANCH  28  29
ATOM     29  C   UNL A   1      33.378  30.817  26.916  1.00  0.00     0.338 C 
ATOM     30  O   UNL A   1      32.462  31.528  27.278  1.00  0.00    -0.246 OA
BRANCH  29  31
ATOM     31  C   UNL A   1      34.697  30.736  27.548  1.00  0.00     0.060 A 
ATOM     32  C   UNL A   1      35.162  29.472  27.920  1.00  0.00     0.016 A 
ATOM     33  C   UNL A   1      35.474  31.868  27.733  1.00  0.00     0.016 A 
ATOM     34  C   UNL A   1      36.385  29.328  28.557  1.00  0.00     0.010 A 
ATOM     35  C   UNL A   1      36.730  31.718  28.314  1.00  0.00     0.010 A 
ATOM     36  C   UNL A   1      37.181  30.453  28.754  1.00  0.00    -0.014 A 
BRANCH  36  37
ATOM     37  C   UNL A   1      38.451  30.376  29.507  1.00  0.00     0.031 A 
ATOM     38  C   UNL A   1      39.560  29.566  28.912  1.00  0.00     0.074 A 
ATOM     39  C   UNL A   1      38.580  30.949  30.717  1.00  0.00     0.049 A 
ATOM     40  N   UNL A   1      40.581  29.000  29.491  1.00  0.00    -0.248 NA
ATOM     41  C   UNL A   1      39.468  29.325  27.463  1.00  0.00     0.031 C 
ATOM     42  C   UNL A   1      37.615  31.853  31.343  1.00  0.00     0.029 A 
ATOM     43  N   UNL A   1      39.574  30.819  31.653  1.00  0.00    -0.354 N 
ATOM     44  C   UNL A   1      41.208  28.258  28.494  1.00  0.00     0.074 A 
ATOM     45  C   UNL A   1      40.449  28.456  27.277  1.00  0.00     0.031 C 
ATOM     46  C   UNL A   1      38.058  32.186  32.566  1.00  0.00     0.029 A 
ATOM     47  C   UNL A   1      39.278  31.439  32.845  1.00  0.00     0.049 A 
ATOM     48  H   UNL A   1      40.413  30.332  31.490  1.00  0.00     0.167 HD
ATOM     49  C   UNL A   1      42.304  27.470  28.611  1.00  0.00     0.034 A 
ATOM     50  C   UNL A   1      39.887  31.350  34.044  1.00  0.00     0.034 A 
ATOM     51  C   UNL A   1      43.040  27.342  29.845  1.00  0.00     0.049 A 
ATOM     52  C   UNL A   1      41.070  30.423  34.175  1.00  0.00     0.074 A 
ATOM     53  C   UNL A   1      44.176  26.596  30.102  1.00  0.00     0.029 A 
ATOM     54  N   UNL A   1      42.709  27.987  31.032  1.00  0.00    -0.354 N 
ATOM     55  N   UNL A   1      41.619  29.653  33.264  1.00  0.00    -0.248 NA
ATOM     56  C   UNL A   1      41.705  30.341  35.495  1.00  0.00     0.031 C 
ATOM     57  C   UNL A   1      44.493  26.740  31.458  1.00  0.00     0.029 A 
ATOM     58  C   UNL A   1      43.605  27.641  32.029  1.00  0.00     0.049 A 
ATOM     59  H   UNL A   1      41.949  28.602  31.147  1.00  0.00     0.167 HD
ATOM     60  C   UNL A   1      42.692  29.026  33.891  1.00  0.00     0.074 A 
ATOM     61  C   UNL A   1      42.703  29.501  35.260  1.00  0.00     0.031 C 
ATOM     62  C   UNL A   1      43.594  28.148  33.382  1.00  0.00     0.034 A 
BRANCH  49  63
ATOM     63  C   UNL A   1      42.696  26.640  27.413  1.00  0.00     0.023 A 
ATOM     64  C   UNL A   1      42.656  25.234  27.425  1.00  0.00     0.031 A 
ATOM     65  C   UNL A   1      43.189  27.269  26.255  1.00  0.00     0.131 A 
ATOM     66  C   UNL A   1      43.188  24.509  26.348  1.00  0.00     0.055 A 
ATOM     67  C   UNL A   1      43.629  26.542  25.147  1.00  0.00     0.041 A 
ATOM     68  F   UNL A   1      43.280  28.608  26.190  1.00  0.00    -0.206 F 
ATOM     69  C   UNL A   1      43.649  25.152  25.197  1.00  0.00     0.022 A 
BRANCH  66  70
ATOM     70  S   UNL A   1      43.433  22.722  26.545  1.00  0.00     0.124 S 
ATOM     71  O   UNL A   1      44.890  22.626  26.577  1.00  0.00    -0.237 OA
ATOM     72  O   UNL A   1      42.746  22.446  27.802  1.00  0.00    -0.237 OA
ATOM     73  O   UNL A   1      42.804  22.156  25.353  1.00  0.00    -0.744 OA
ENDBRANCH  66  70
ENDBRANCH  49  63
BRANCH  50  74
ATOM     74  C   UNL A   1      39.361  32.105  35.216  1.00  0.00     0.023 A 
ATOM     75  C   UNL A   1      39.798  33.412  35.477  1.00  0.00     0.031 A 
ATOM     76  C   UNL A   1      38.422  31.537  36.096  1.00  0.00     0.131 A 
ATOM     77  C   UNL A   1      39.319  34.099  36.604  1.00  0.00     0.055 A 
ATOM     78  C   UNL A   1      37.909  32.243  37.186  1.00  0.00     0.041 A 
ATOM     79  F   UNL A   1      37.967  30.289  35.894  1.00  0.00    -0.206 F 
ATOM     80  C   UNL A   1      38.366  33.530  37.450  1.00  0.00     0.022 A 
BRANCH  77  81
ATOM     81  S   UNL A   1      40.013  35.731  36.982  1.00  0.00     0.124 S 
ATOM     82  O   UNL A   1      41.433  35.425  37.119  1.00  0.00    -0.237 OA
ATOM     83  O   UNL A   1      39.633  36.503  35.803  1.00  0.00    -0.237 OA
ATOM     84  O   UNL A   1      39.335  36.111  38.219  1.00  0.00    -0.744 OA
ENDBRANCH  77  81
ENDBRANCH  50  74
BRANCH  62  85
ATOM     85  C   UNL A   1      44.719  27.722  34.287  1.00  0.00     0.023 A 
ATOM     86  C   UNL A   1      44.626  26.594  35.118  1.00  0.00     0.031 A 
ATOM     87  C   UNL A   1      45.921  28.453  34.285  1.00  0.00     0.131 A 
ATOM     88  C   UNL A   1      45.707  26.247  35.940  1.00  0.00     0.055 A 
ATOM     89  C   UNL A   1      47.012  28.072  35.065  1.00  0.00     0.041 A 
ATOM     90  F   UNL A   1      46.058  29.539  33.507  1.00  0.00    -0.206 F 
ATOM     91  C   UNL A   1      46.906  26.968  35.904  1.00  0.00     0.022 A 
BRANCH  88  92
ATOM     92  S   UNL A   1      45.513  24.870  37.103  1.00  0.00     0.124 S 
ATOM     93  O   UNL A   1      44.157  25.081  37.599  1.00  0.00    -0.237 OA
ATOM     94  O   UNL A   1      45.706  23.705  36.246  1.00  0.00    -0.237 OA
ATOM     95  O   UNL A   1      46.575  25.097  38.084  1.00  0.00    -0.744 OA
ENDBRANCH  88  92
ENDBRANCH  62  85
ENDBRANCH  36  37
ENDBRANCH  29  31
ENDBRANCH  28  29
ENDBRANCH   1  28
TORSDOF 16
ENDMDL
MODEL 2
REMARK VINA RESULT:     -12.8      1.492      2.438
REMARK SMILES Cc1cccc(N2CCN(C(=O)[C@@H]3CC=CC[C@@H]3C(=O)OCCOC(=O)c3ccc(-c4c5nc(c(-c6cc(S(=O)(=O)[O-])ccc6F)c6ccc([nH]6)c(-c6cc(S(=O)(=O)[O-])ccc6F)c6nc(c(-c7cc(S(=O)(=O)[O-])ccc7F)c7ccc4[nH]7)C=C6)C=C5)cc3)CC2)c1C
REMARK SMILES IDX 23 1 22 2 21 3 19 4 20 5 18 6 13 7 14 8 15 9 17 10 16 11
REMARK SMILES IDX 11 12 7 13 8 14 91 15 9 16 90 17 10 18 12 19 6 20 1 21 2 22
REMARK SMILES IDX 3 23 92 24 4 25 93 26 5 27 24 28 25 29 26 30 27 31 28 32
REMARK SMILES IDX 89 33 29 34 88 35 30 36 31 37 32 38 82 39 33 40 87 41 81 42
REMARK SMILES IDX 83 43 34 44 86 45 80 46 79 47 35 49 67 50 47 51 66 52 48 53
REMARK SMILES IDX 51 54 65 55 84 56 49 57 50 58 64 60 85 61 52 62 36 63 37 64
REMARK SMILES IDX 45 65 38 66 44 67 46 68 43 69 39 70 40 71 41 72 42 73 68 74
REMARK SMILES IDX 69 75 77 76 70 77 76 78 78 79 75 80 71 81 72 82 73 83 74 84
REMARK SMILES IDX 53 85 54 86 62 87 55 88 61 89 63 90 60 91 56 92 57 93 58 94
REMARK SMILES IDX 59 95
REMARK H PARENT 83 48 51 59
REMARK Flexibility Score: inf
ROOT
ATOM      1  C   UNL A   1      31.761  29.264  27.361  1.00  0.00     0.275 C 
ENDROOT
BRANCH   1   2
ATOM      2  C   UNL A   1      31.538  27.791  26.997  1.00  0.00     0.274 C 
BRANCH   2   3
ATOM      3  O   UNL A   1      30.799  27.674  25.753  1.00  0.00    -0.462 OA
BRANCH   3   4
ATOM      4  C   UNL A   1      30.290  26.439  25.516  1.00  0.00     0.310 C 
ATOM      5  O   UNL A   1      30.256  25.552  26.363  1.00  0.00    -0.252 OA
BRANCH   4   6
ATOM      6  C   UNL A   1      29.742  26.241  24.109  1.00  0.00     0.115 C 
ATOM      7  C   UNL A   1      30.734  26.427  22.942  1.00  0.00     0.097 C 
ATOM      8  C   UNL A   1      30.799  27.831  22.338  1.00  0.00     0.041 C 
ATOM      9  C   UNL A   1      29.545  28.639  22.466  1.00  0.00    -0.030 C 
ATOM     10  C   UNL A   1      28.393  26.936  23.876  1.00  0.00     0.043 C 
ATOM     11  C   UNL A   1      28.476  28.250  23.170  1.00  0.00    -0.030 C 
BRANCH   7  12
ATOM     12  C   UNL A   1      32.028  25.639  23.212  1.00  0.00     0.227 C 
ATOM     13  N   UNL A   1      32.733  21.480  23.428  1.00  0.00    -0.368 N 
ATOM     14  C   UNL A   1      33.814  22.430  23.150  1.00  0.00     0.138 C 
ATOM     15  C   UNL A   1      31.637  22.013  24.238  1.00  0.00     0.138 C 
ATOM     16  C   UNL A   1      33.249  23.672  22.456  1.00  0.00     0.141 C 
ATOM     17  C   UNL A   1      31.075  23.306  23.617  1.00  0.00     0.141 C 
ATOM     18  N   UNL A   1      32.089  24.263  23.150  1.00  0.00    -0.339 N 
ATOM     19  O   UNL A   1      33.080  26.290  23.289  1.00  0.00    -0.275 OA
BRANCH  13  20
ATOM     20  C   UNL A   1      32.978  20.117  23.524  1.00  0.00     0.040 A 
ATOM     21  C   UNL A   1      35.358  17.489  25.001  1.00  0.00     0.044 C 
ATOM     22  C   UNL A   1      34.227  18.140  24.251  1.00  0.00    -0.046 A 
ATOM     23  C   UNL A   1      33.387  17.330  23.472  1.00  0.00     0.004 A 
ATOM     24  C   UNL A   1      33.992  19.538  24.322  1.00  0.00    -0.025 A 
ATOM     25  C   UNL A   1      32.344  17.887  22.746  1.00  0.00     0.002 A 
ATOM     26  C   UNL A   1      34.823  20.391  25.248  1.00  0.00     0.047 C 
ATOM     27  C   UNL A   1      32.152  19.265  22.768  1.00  0.00     0.026 A 
ENDBRANCH  13  20
ENDBRANCH   7  12
ENDBRANCH   4   6
ENDBRANCH   3   4
ENDBRANCH   2   3
ENDBRANCH   1   2
BRANCH   1  28
ATOM     28  O   UNL A   1      32.964  29.708  26.726  1.00  0.00    -0.458 OA
BRANCH  28  29
ATOM     29  C   UNL A   1      33.321  30.973  27.053  1.00  0.00     0.338 C 
ATOM     30  O   UNL A   1      32.628  31.970  27.052  1.00  0.00    -0.246 OA
BRANCH  29  31
ATOM     31  C   UNL A   1      34.638  30.848  27.684  1.00  0.00     0.060 A 
ATOM     32  C   UNL A   1      35.118  29.561  27.937  1.00  0.00     0.016 A 
ATOM     33  C   UNL A   1      35.398  31.968  27.982  1.00  0.00     0.016 A 
ATOM     34  C   UNL A   1      36.338  29.372  28.567  1.00  0.00     0.010 A 
ATOM     35  C   UNL A   1      36.652  31.779  28.556  1.00  0.00     0.010 A 
ATOM     36  C   UNL A   1      37.118  30.484  28.876  1.00  0.00    -0.014 A 
BRANCH  36  37
ATOM     37  C   UNL A   1      38.385  30.351  29.628  1.00  0.00     0.031 A 
ATOM     38  C   UNL A   1      39.455  29.490  29.033  1.00  0.00     0.074 A 
ATOM     39  C   UNL A   1      38.541  30.920  30.836  1.00  0.00     0.049 A 
ATOM     40  N   UNL A   1      40.450  28.880  29.612  1.00  0.00    -0.248 NA
ATOM     41  C   UNL A   1      39.350  29.250  27.585  1.00  0.00     0.031 C 
ATOM     42  C   UNL A   1      37.618  31.869  31.461  1.00  0.00     0.029 A 
ATOM     43  N   UNL A   1      39.529  30.749  31.771  1.00  0.00    -0.354 N 
ATOM     44  C   UNL A   1      41.042  28.108  28.617  1.00  0.00     0.074 A 
ATOM     45  C   UNL A   1      40.290  28.337  27.400  1.00  0.00     0.031 C 
ATOM     46  C   UNL A   1      38.078  32.186  32.681  1.00  0.00     0.029 A 
ATOM     47  C   UNL A   1      39.264  31.385  32.962  1.00  0.00     0.049 A 
ATOM     48  H   UNL A   1      40.345  30.224  31.608  1.00  0.00     0.167 HD
ATOM     49  C   UNL A   1      42.101  27.272  28.735  1.00  0.00     0.034 A 
ATOM     50  C   UNL A   1      39.869  31.271  34.160  1.00  0.00     0.034 A 
ATOM     51  C   UNL A   1      42.833  27.114  29.967  1.00  0.00     0.049 A 
ATOM     52  C   UNL A   1      41.010  30.293  34.292  1.00  0.00     0.074 A 
ATOM     53  C   UNL A   1      43.934  26.318  30.226  1.00  0.00     0.029 A 
ATOM     54  N   UNL A   1      42.533  27.777  31.154  1.00  0.00    -0.354 N 
ATOM     55  N   UNL A   1      41.522  29.496  33.382  1.00  0.00    -0.248 NA
ATOM     56  C   UNL A   1      41.642  30.185  35.612  1.00  0.00     0.031 C 
ATOM     57  C   UNL A   1      44.258  26.452  31.580  1.00  0.00     0.029 A 
ATOM     58  C   UNL A   1      43.414  27.393  32.150  1.00  0.00     0.049 A 
ATOM     59  H   UNL A   1      41.800  28.425  31.268  1.00  0.00     0.167 HD
ATOM     60  C   UNL A   1      42.566  28.823  34.009  1.00  0.00     0.074 A 
ATOM     61  C   UNL A   1      42.601  29.301  35.377  1.00  0.00     0.031 C 
ATOM     62  C   UNL A   1      43.427  27.903  33.502  1.00  0.00     0.034 A 
BRANCH  49  63
ATOM     63  C   UNL A   1      42.453  26.421  27.538  1.00  0.00     0.023 A 
ATOM     64  C   UNL A   1      41.942  25.124  27.359  1.00  0.00     0.031 A 
ATOM     65  C   UNL A   1      43.379  26.894  26.590  1.00  0.00     0.131 A 
ATOM     66  C   UNL A   1      42.429  24.315  26.321  1.00  0.00     0.055 A 
ATOM     67  C   UNL A   1      43.789  26.118  25.504  1.00  0.00     0.041 A 
ATOM     68  F   UNL A   1      43.927  28.114  26.719  1.00  0.00    -0.206 F 
ATOM     69  C   UNL A   1      43.329  24.812  25.376  1.00  0.00     0.022 A 
BRANCH  66  70
ATOM     70  S   UNL A   1      42.007  22.551  26.329  1.00  0.00     0.124 S 
ATOM     71  O   UNL A   1      42.655  22.088  25.104  1.00  0.00    -0.237 OA
ATOM     72  O   UNL A   1      42.599  22.089  27.579  1.00  0.00    -0.237 OA
ATOM     73  O   UNL A   1      40.546  22.547  26.291  1.00  0.00    -0.744 OA
ENDBRANCH  66  70
ENDBRANCH  49  63
BRANCH  50  74
ATOM     74  C   UNL A   1      39.380  32.053  35.330  1.00  0.00     0.023 A 
ATOM     75  C   UNL A   1      39.814  33.370  35.541  1.00  0.00     0.031 A 
ATOM     76  C   UNL A   1      38.478  31.501  36.259  1.00  0.00     0.131 A 
ATOM     77  C   UNL A   1      39.371  34.082  36.667  1.00  0.00     0.055 A 
ATOM     78  C   UNL A   1      37.999  32.231  37.348  1.00  0.00     0.041 A 
ATOM     79  F   UNL A   1      38.028  30.244  36.105  1.00  0.00    -0.206 F 
ATOM     80  C   UNL A   1      38.454  33.528  37.562  1.00  0.00     0.022 A 
BRANCH  77  81
ATOM     81  S   UNL A   1      40.063  35.729  36.977  1.00  0.00     0.124 S 
ATOM     82  O   UNL A   1      39.653  36.453  35.778  1.00  0.00    -0.237 OA
ATOM     83  O   UNL A   1      39.396  36.110  38.217  1.00  0.00    -0.237 OA
ATOM     84  O   UNL A   1      41.498  35.478  37.094  1.00  0.00    -0.744 OA
ENDBRANCH  77  81
ENDBRANCH  50  74
BRANCH  62  85
ATOM     85  C   UNL A   1      44.533  27.430  34.406  1.00  0.00     0.023 A 
ATOM     86  C   UNL A   1      44.428  26.252  35.164  1.00  0.00     0.031 A 
ATOM     87  C   UNL A   1      45.729  28.166  34.478  1.00  0.00     0.131 A 
ATOM     88  C   UNL A   1      45.492  25.863  35.990  1.00  0.00     0.055 A 
ATOM     89  C   UNL A   1      46.804  27.745  35.259  1.00  0.00     0.041 A 
ATOM     90  F   UNL A   1      45.877  29.298  33.771  1.00  0.00    -0.206 F 
ATOM     91  C   UNL A   1      46.686  26.591  36.028  1.00  0.00     0.022 A 
BRANCH  88  92
ATOM     92  S   UNL A   1      45.280  24.416  37.063  1.00  0.00     0.124 S 
ATOM     93  O   UNL A   1      44.541  23.503  36.197  1.00  0.00    -0.237 OA
ATOM     94  O   UNL A   1      46.659  24.040  37.358  1.00  0.00    -0.237 OA
ATOM     95  O   UNL A   1      44.526  24.940  38.201  1.00  0.00    -0.744 OA
ENDBRANCH  88  92
ENDBRANCH  62  85
ENDBRANCH  36  37
ENDBRANCH  29  31
ENDBRANCH  28  29
ENDBRANCH   1  28
TORSDOF 16
ENDMDL
MODEL 3
REMARK VINA RESULT:     -12.5      1.951      2.873
REMARK SMILES Cc1cccc(N2CCN(C(=O)[C@@H]3CC=CC[C@@H]3C(=O)OCCOC(=O)c3ccc(-c4c5nc(c(-c6cc(S(=O)(=O)[O-])ccc6F)c6ccc([nH]6)c(-c6cc(S(=O)(=O)[O-])ccc6F)c6nc(c(-c7cc(S(=O)(=O)[O-])ccc7F)c7ccc4[nH]7)C=C6)C=C5)cc3)CC2)c1C
REMARK SMILES IDX 23 1 22 2 21 3 19 4 20 5 18 6 13 7 14 8 15 9 17 10 16 11
REMARK SMILES IDX 11 12 7 13 8 14 91 15 9 16 90 17 10 18 12 19 6 20 1 21 2 22
REMARK SMILES IDX 3 23 92 24 4 25 93 26 5 27 24 28 25 29 26 30 27 31 28 32
REMARK SMILES IDX 89 33 29 34 88 35 30 36 31 37 32 38 82 39 33 40 87 41 81 42
REMARK SMILES IDX 83 43 34 44 86 45 80 46 79 47 35 49 67 50 47 51 66 52 48 53
REMARK SMILES IDX 51 54 65 55 84 56 49 57 50 58 64 60 85 61 52 62 36 63 37 64
REMARK SMILES IDX 45 65 38 66 44 67 46 68 43 69 39 70 40 71 41 72 42 73 68 74
REMARK SMILES IDX 69 75 77 76 70 77 76 78 78 79 75 80 71 81 72 82 73 83 74 84
REMARK SMILES IDX 53 85 54 86 62 87 55 88 61 89 63 90 60 91 56 92 57 93 58 94
REMARK SMILES IDX 59 95
REMARK H PARENT 83 48 51 59
REMARK Flexibility Score: inf
ROOT
ATOM      1  C   UNL A   1      31.810  29.694  25.915  1.00  0.00     0.275 C 
ENDROOT
BRANCH   1   2
ATOM      2  C   UNL A   1      31.468  28.355  26.579  1.00  0.00     0.274 C 
BRANCH   2   3
ATOM      3  O   UNL A   1      31.666  27.255  25.653  1.00  0.00    -0.462 OA
BRANCH   3   4
ATOM      4  C   UNL A   1      30.597  26.429  25.524  1.00  0.00     0.310 C 
ATOM      5  O   UNL A   1      30.077  25.849  26.472  1.00  0.00    -0.252 OA
BRANCH   4   6
ATOM      6  C   UNL A   1      30.073  26.291  24.101  1.00  0.00     0.115 C 
ATOM      7  C   UNL A   1      31.100  26.461  22.961  1.00  0.00     0.097 C 
ATOM      8  C   UNL A   1      31.242  27.876  22.395  1.00  0.00     0.041 C 
ATOM      9  C   UNL A   1      30.023  28.735  22.516  1.00  0.00    -0.030 C 
ATOM     10  C   UNL A   1      28.763  27.052  23.856  1.00  0.00     0.043 C 
ATOM     11  C   UNL A   1      28.922  28.379  23.186  1.00  0.00    -0.030 C 
BRANCH   7  12
ATOM     12  C   UNL A   1      32.351  25.609  23.240  1.00  0.00     0.227 C 
ATOM     13  N   UNL A   1      32.850  21.418  23.427  1.00  0.00    -0.368 N 
ATOM     14  C   UNL A   1      33.980  22.318  23.171  1.00  0.00     0.138 C 
ATOM     15  C   UNL A   1      31.771  21.997  24.228  1.00  0.00     0.138 C 
ATOM     16  C   UNL A   1      33.484  23.591  22.481  1.00  0.00     0.141 C 
ATOM     17  C   UNL A   1      31.281  23.321  23.613  1.00  0.00     0.141 C 
ATOM     18  N   UNL A   1      32.346  24.231  23.166  1.00  0.00    -0.339 N 
ATOM     19  O   UNL A   1      33.433  26.207  23.335  1.00  0.00    -0.275 OA
BRANCH  13  20
ATOM     20  C   UNL A   1      33.028  20.045  23.513  1.00  0.00     0.040 A 
ATOM     21  C   UNL A   1      35.256  17.292  24.999  1.00  0.00     0.044 C 
ATOM     22  C   UNL A   1      34.169  18.003  24.239  1.00  0.00    -0.046 A 
ATOM     23  C   UNL A   1      33.303  17.241  23.441  1.00  0.00     0.004 A 
ATOM     24  C   UNL A   1      34.000  19.410  24.320  1.00  0.00    -0.025 A 
ATOM     25  C   UNL A   1      32.298  17.855  22.705  1.00  0.00     0.002 A 
ATOM     26  C   UNL A   1      34.858  20.213  25.266  1.00  0.00     0.047 C 
ATOM     27  C   UNL A   1      32.172  19.241  22.737  1.00  0.00     0.026 A 
ENDBRANCH  13  20
ENDBRANCH   7  12
ENDBRANCH   4   6
ENDBRANCH   3   4
ENDBRANCH   2   3
ENDBRANCH   1   2
BRANCH   1  28
ATOM     28  O   UNL A   1      33.171  30.013  26.217  1.00  0.00    -0.458 OA
BRANCH  28  29
ATOM     29  C   UNL A   1      33.324  31.177  26.892  1.00  0.00     0.338 C 
ATOM     30  O   UNL A   1      32.520  32.077  27.023  1.00  0.00    -0.246 OA
BRANCH  29  31
ATOM     31  C   UNL A   1      34.552  31.008  27.673  1.00  0.00     0.060 A 
ATOM     32  C   UNL A   1      35.330  32.144  27.913  1.00  0.00     0.016 A 
ATOM     33  C   UNL A   1      34.907  29.773  28.192  1.00  0.00     0.016 A 
ATOM     34  C   UNL A   1      36.524  32.048  28.612  1.00  0.00     0.010 A 
ATOM     35  C   UNL A   1      36.072  29.687  28.949  1.00  0.00     0.010 A 
ATOM     36  C   UNL A   1      36.901  30.816  29.140  1.00  0.00    -0.014 A 
BRANCH  36  37
ATOM     37  C   UNL A   1      38.203  30.634  29.816  1.00  0.00     0.031 A 
ATOM     38  C   UNL A   1      39.205  29.738  29.156  1.00  0.00     0.074 A 
ATOM     39  C   UNL A   1      38.450  31.189  31.016  1.00  0.00     0.049 A 
ATOM     40  N   UNL A   1      40.210  29.089  29.674  1.00  0.00    -0.248 NA
ATOM     41  C   UNL A   1      39.008  29.512  27.715  1.00  0.00     0.031 C 
ATOM     42  C   UNL A   1      37.600  32.166  31.697  1.00  0.00     0.029 A 
ATOM     43  N   UNL A   1      39.483  30.975  31.891  1.00  0.00    -0.354 N 
ATOM     44  C   UNL A   1      40.714  28.303  28.642  1.00  0.00     0.074 A 
ATOM     45  C   UNL A   1      39.902  28.566  27.473  1.00  0.00     0.031 C 
ATOM     46  C   UNL A   1      38.141  32.457  32.890  1.00  0.00     0.029 A 
ATOM     47  C   UNL A   1      39.310  31.613  33.098  1.00  0.00     0.049 A 
ATOM     48  H   UNL A   1      40.269  30.422  31.678  1.00  0.00     0.167 HD
ATOM     49  C   UNL A   1      41.747  27.428  28.695  1.00  0.00     0.034 A 
ATOM     50  C   UNL A   1      39.980  31.469  34.259  1.00  0.00     0.034 A 
ATOM     51  C   UNL A   1      42.543  27.235  29.882  1.00  0.00     0.049 A 
ATOM     52  C   UNL A   1      41.089  30.449  34.320  1.00  0.00     0.074 A 
ATOM     53  C   UNL A   1      43.627  26.399  30.073  1.00  0.00     0.029 A 
ATOM     54  N   UNL A   1      42.336  27.901  31.087  1.00  0.00    -0.354 N 
ATOM     55  N   UNL A   1      41.519  29.640  33.378  1.00  0.00    -0.248 NA
ATOM     56  C   UNL A   1      41.793  30.311  35.600  1.00  0.00     0.031 C 
ATOM     57  C   UNL A   1      44.034  26.512  31.407  1.00  0.00     0.029 A 
ATOM     58  C   UNL A   1      43.259  27.479  32.029  1.00  0.00     0.049 A 
ATOM     59  H   UNL A   1      41.636  28.574  31.246  1.00  0.00     0.167 HD
ATOM     60  C   UNL A   1      42.573  28.926  33.940  1.00  0.00     0.074 A 
ATOM     61  C   UNL A   1      42.704  29.394  35.306  1.00  0.00     0.031 C 
ATOM     62  C   UNL A   1      43.368  27.980  33.380  1.00  0.00     0.034 A 
BRANCH  49  63
ATOM     63  C   UNL A   1      41.999  26.573  27.476  1.00  0.00     0.023 A 
ATOM     64  C   UNL A   1      41.556  25.242  27.385  1.00  0.00     0.031 A 
ATOM     65  C   UNL A   1      42.762  27.082  26.408  1.00  0.00     0.131 A 
ATOM     66  C   UNL A   1      41.959  24.442  26.305  1.00  0.00     0.055 A 
ATOM     67  C   UNL A   1      43.080  26.308  25.291  1.00  0.00     0.041 A 
ATOM     68  F   UNL A   1      43.239  28.336  26.446  1.00  0.00    -0.206 F 
ATOM     69  C   UNL A   1      42.694  24.972  25.243  1.00  0.00     0.022 A 
BRANCH  66  70
ATOM     70  S   UNL A   1      41.659  22.654  26.395  1.00  0.00     0.124 S 
ATOM     71  O   UNL A   1      42.274  22.316  27.676  1.00  0.00    -0.237 OA
ATOM     72  O   UNL A   1      40.204  22.575  26.343  1.00  0.00    -0.237 OA
ATOM     73  O   UNL A   1      42.355  22.130  25.221  1.00  0.00    -0.744 OA
ENDBRANCH  66  70
ENDBRANCH  49  63
BRANCH  50  74
ATOM     74  C   UNL A   1      39.588  32.260  35.458  1.00  0.00     0.023 A 
ATOM     75  C   UNL A   1      38.772  31.696  36.450  1.00  0.00     0.031 A 
ATOM     76  C   UNL A   1      40.011  33.591  35.634  1.00  0.00     0.131 A 
ATOM     77  C   UNL A   1      38.382  32.464  37.559  1.00  0.00     0.055 A 
ATOM     78  C   UNL A   1      39.664  34.334  36.763  1.00  0.00     0.041 A 
ATOM     79  F   UNL A   1      40.794  34.182  34.716  1.00  0.00    -0.206 F 
ATOM     80  C   UNL A   1      38.836  33.773  37.730  1.00  0.00     0.022 A 
BRANCH  77  81
ATOM     81  S   UNL A   1      37.217  31.742  38.746  1.00  0.00     0.124 S 
ATOM     82  O   UNL A   1      36.096  32.672  38.662  1.00  0.00    -0.237 OA
ATOM     83  O   UNL A   1      36.994  30.415  38.183  1.00  0.00    -0.237 OA
ATOM     84  O   UNL A   1      37.956  31.767  40.006  1.00  0.00    -0.744 OA
ENDBRANCH  77  81
ENDBRANCH  50  74
BRANCH  62  85
ATOM     85  C   UNL A   1      44.507  27.461  34.216  1.00  0.00     0.023 A 
ATOM     86  C   UNL A   1      44.412  26.270  34.955  1.00  0.00     0.031 A 
ATOM     87  C   UNL A   1      45.724  28.167  34.242  1.00  0.00     0.131 A 
ATOM     88  C   UNL A   1      45.506  25.837  35.717  1.00  0.00     0.055 A 
ATOM     89  C   UNL A   1      46.826  27.703  34.958  1.00  0.00     0.041 A 
ATOM     90  F   UNL A   1      45.863  29.310  33.551  1.00  0.00    -0.206 F 
ATOM     91  C   UNL A   1      46.718  26.536  35.708  1.00  0.00     0.022 A 
BRANCH  88  92
ATOM     92  S   UNL A   1      45.313  24.373  36.769  1.00  0.00     0.124 S 
ATOM     93  O   UNL A   1      46.677  23.858  36.824  1.00  0.00    -0.237 OA
ATOM     94  O   UNL A   1      44.796  24.944  38.009  1.00  0.00    -0.237 OA
ATOM     95  O   UNL A   1      44.365  23.541  36.029  1.00  0.00    -0.744 OA
ENDBRANCH  88  92
ENDBRANCH  62  85
ENDBRANCH  36  37
ENDBRANCH  29  31
ENDBRANCH  28  29
ENDBRANCH   1  28
TORSDOF 16
ENDMDL
