MODEL 1
REMARK VINA RESULT:     -12.3      0.000      0.000
REMARK SMILES CCSc1ccc(-c2cc(Cl)cc3c2O[C@H](C(F)(F)F)C(C(=O)OCCOC(=O)c2ccc(-c4c5nc(c(-c6cc(S(=O)(=O)[O-])ccc6F)c6ccc([nH]6)c(-c6cc(S(=O)(=O)[O-])ccc6F)c6nc(c(-c7cc(S(=O)(=O)[O-])ccc7F)c7ccc4[nH]7)C=C6)C=C5)cc2)=C3)cc1
REMARK SMILES IDX 25 1 24 2 22 3 23 4 21 5 8 6 9 7 14 8 10 9 13 10 15 11 11 12
REMARK SMILES IDX 12 13 93 14 16 15 7 16 4 17 5 18 95 19 6 20 94 21 3 22 2 23
REMARK SMILES IDX 1 24 17 25 18 26 19 27 20 28 26 29 27 30 28 31 29 32 30 33
REMARK SMILES IDX 31 34 92 35 32 36 91 37 33 38 34 39 35 40 85 41 36 42 90 43
REMARK SMILES IDX 84 44 86 45 37 46 89 47 83 48 82 49 38 51 70 52 50 53 69 54
REMARK SMILES IDX 51 55 54 56 68 57 87 58 52 59 53 60 67 62 88 63 55 64 39 65
REMARK SMILES IDX 40 66 48 67 41 68 47 69 49 70 46 71 42 72 43 73 44 74 45 75
REMARK SMILES IDX 71 76 72 77 80 78 73 79 79 80 81 81 78 82 74 83 75 84 76 85
REMARK SMILES IDX 77 86 56 87 57 88 65 89 58 90 64 91 66 92 63 93 59 94 60 95
REMARK SMILES IDX 61 96 62 97
REMARK H PARENT 86 50 54 61
REMARK Flexibility Score: inf
ROOT
ATOM      1  C   UNL A   1      31.500  29.489  25.555  1.00  0.00     0.275 C 
ENDROOT
BRANCH   1   2
ATOM      2  O   UNL A   1      31.324  28.259  26.300  1.00  0.00    -0.459 OA
BRANCH   2   3
ATOM      3  C   UNL A   1      31.080  27.198  25.486  1.00  0.00     0.338 C 
ATOM      4  O   UNL A   1      29.970  26.902  25.057  1.00  0.00    -0.246 OA
BRANCH   3   5
ATOM      5  C   UNL A   1      32.295  26.459  25.067  1.00  0.00     0.087 C 
ATOM      6  C   UNL A   1      32.210  22.413  24.640  1.00  0.00     0.026 A 
ATOM      7  C   UNL A   1      31.162  22.070  25.534  1.00  0.00     0.033 A 
ATOM      8  C   UNL A   1      32.620  23.742  24.748  1.00  0.00     0.135 A 
ATOM      9  C   UNL A   1      30.674  22.901  26.545  1.00  0.00     0.042 A 
ATOM     10  C   UNL A   1      32.321  24.460  25.938  1.00  0.00     0.019 A 
ATOM     11  O   UNL A   1      33.142  24.500  23.707  1.00  0.00    -0.475 OA
ATOM     12  Cl  UNL A   1      29.261  22.573  27.458  1.00  0.00    -0.084 Cl
ATOM     13  C   UNL A   1      31.341  24.059  26.827  1.00  0.00     0.032 A 
ATOM     14  C   UNL A   1      32.870  25.817  26.096  1.00  0.00     0.027 C 
ATOM     15  C   UNL A   1      32.545  25.888  23.681  1.00  0.00     0.316 C 
BRANCH   6  16
ATOM     16  C   UNL A   1      32.816  21.227  23.937  1.00  0.00    -0.015 A 
ATOM     17  C   UNL A   1      33.104  18.368  23.677  1.00  0.00     0.007 A 
ATOM     18  C   UNL A   1      32.312  19.091  22.787  1.00  0.00     0.015 A 
ATOM     19  C   UNL A   1      33.912  19.107  24.548  1.00  0.00     0.015 A 
ATOM     20  C   UNL A   1      32.204  20.511  22.892  1.00  0.00     0.010 A 
ATOM     21  C   UNL A   1      33.771  20.502  24.676  1.00  0.00     0.010 A 
BRANCH  17  22
ATOM     22  S   UNL A   1      33.217  16.584  23.812  1.00  0.00    -0.126 SA
BRANCH  22  23
ATOM     23  C   UNL A   1      34.192  16.067  25.385  1.00  0.00     0.071 C 
ATOM     24  C   UNL A   1      35.824  15.826  25.535  1.00  0.00     0.016 C 
ENDBRANCH  22  23
ENDBRANCH  17  22
ENDBRANCH   6  16
BRANCH  15  25
ATOM     25  C   UNL A   1      33.501  26.881  23.008  1.00  0.00     0.430 C 
ATOM     26  F   UNL A   1      34.282  27.523  23.912  1.00  0.00    -0.167 F 
ATOM     27  F   UNL A   1      34.313  26.293  22.106  1.00  0.00    -0.167 F 
ATOM     28  F   UNL A   1      32.807  27.844  22.343  1.00  0.00    -0.167 F 
ENDBRANCH  15  25
ENDBRANCH   3   5
ENDBRANCH   2   3
ENDBRANCH   1   2
BRANCH   1  29
ATOM     29  C   UNL A   1      32.884  30.119  25.731  1.00  0.00     0.275 C 
BRANCH  29  30
ATOM     30  O   UNL A   1      33.325  30.050  27.099  1.00  0.00    -0.458 OA
BRANCH  30  31
ATOM     31  C   UNL A   1      33.810  31.227  27.573  1.00  0.00     0.338 C 
ATOM     32  O   UNL A   1      33.188  32.271  27.647  1.00  0.00    -0.246 OA
BRANCH  31  33
ATOM     33  C   UNL A   1      35.173  31.062  28.142  1.00  0.00     0.060 A 
ATOM     34  C   UNL A   1      35.471  29.794  28.618  1.00  0.00     0.016 A 
ATOM     35  C   UNL A   1      36.150  32.067  28.234  1.00  0.00     0.016 A 
ATOM     36  C   UNL A   1      36.743  29.530  29.113  1.00  0.00     0.010 A 
ATOM     37  C   UNL A   1      37.451  31.776  28.727  1.00  0.00     0.010 A 
ATOM     38  C   UNL A   1      37.780  30.481  29.131  1.00  0.00    -0.014 A 
BRANCH  38  39
ATOM     39  C   UNL A   1      39.107  29.981  29.651  1.00  0.00     0.031 A 
ATOM     40  C   UNL A   1      39.484  30.556  31.059  1.00  0.00     0.074 A 
ATOM     41  C   UNL A   1      39.789  28.973  28.997  1.00  0.00     0.049 A 
ATOM     42  N   UNL A   1      40.566  30.362  31.746  1.00  0.00    -0.248 NA
ATOM     43  C   UNL A   1      38.626  31.527  31.755  1.00  0.00     0.031 C 
ATOM     44  C   UNL A   1      39.708  28.550  27.600  1.00  0.00     0.029 A 
ATOM     45  N   UNL A   1      40.679  28.016  29.442  1.00  0.00    -0.354 N 
ATOM     46  C   UNL A   1      40.593  31.077  32.920  1.00  0.00     0.074 A 
ATOM     47  C   UNL A   1      39.338  31.819  32.850  1.00  0.00     0.031 C 
ATOM     48  C   UNL A   1      40.485  27.460  27.363  1.00  0.00     0.029 A 
ATOM     49  C   UNL A   1      41.321  27.163  28.538  1.00  0.00     0.049 A 
ATOM     50  H   UNL A   1      40.864  27.932  30.405  1.00  0.00     0.167 HD
ATOM     51  C   UNL A   1      41.528  31.056  33.938  1.00  0.00     0.034 A 
ATOM     52  C   UNL A   1      42.461  26.355  28.609  1.00  0.00     0.034 A 
ATOM     53  C   UNL A   1      42.766  30.229  34.083  1.00  0.00     0.049 A 
ATOM     54  C   UNL A   1      43.632  26.357  29.750  1.00  0.00     0.074 A 
ATOM     55  C   UNL A   1      43.393  29.759  35.233  1.00  0.00     0.029 A 
ATOM     56  N   UNL A   1      43.742  29.903  33.116  1.00  0.00    -0.354 N 
ATOM     57  N   UNL A   1      43.614  26.800  30.981  1.00  0.00    -0.248 NA
ATOM     58  C   UNL A   1      44.999  25.880  29.452  1.00  0.00     0.031 C 
ATOM     59  C   UNL A   1      44.467  28.890  34.866  1.00  0.00     0.029 A 
ATOM     60  C   UNL A   1      44.493  28.731  33.479  1.00  0.00     0.049 A 
ATOM     61  H   UNL A   1      43.891  30.418  32.289  1.00  0.00     0.167 HD
ATOM     62  C   UNL A   1      44.891  26.989  31.504  1.00  0.00     0.074 A 
ATOM     63  C   UNL A   1      45.698  26.227  30.551  1.00  0.00     0.031 C 
ATOM     64  C   UNL A   1      45.311  27.784  32.580  1.00  0.00     0.034 A 
BRANCH  51  65
ATOM     65  C   UNL A   1      41.122  31.908  35.114  1.00  0.00     0.023 A 
ATOM     66  C   UNL A   1      40.082  31.517  35.981  1.00  0.00     0.031 A 
ATOM     67  C   UNL A   1      41.688  33.178  35.283  1.00  0.00     0.131 A 
ATOM     68  C   UNL A   1      39.545  32.445  36.885  1.00  0.00     0.055 A 
ATOM     69  C   UNL A   1      41.208  34.064  36.249  1.00  0.00     0.041 A 
ATOM     70  F   UNL A   1      42.672  33.598  34.474  1.00  0.00    -0.206 F 
ATOM     71  C   UNL A   1      40.112  33.711  37.035  1.00  0.00     0.022 A 
BRANCH  68  72
ATOM     72  S   UNL A   1      37.955  32.058  37.676  1.00  0.00     0.124 S 
ATOM     73  O   UNL A   1      37.627  30.770  37.069  1.00  0.00    -0.237 OA
ATOM     74  O   UNL A   1      38.307  32.029  39.090  1.00  0.00    -0.237 OA
ATOM     75  O   UNL A   1      37.094  33.165  37.266  1.00  0.00    -0.744 OA
ENDBRANCH  68  72
ENDBRANCH  51  65
BRANCH  52  76
ATOM     76  C   UNL A   1      42.783  25.483  27.418  1.00  0.00     0.023 A 
ATOM     77  C   UNL A   1      42.358  24.140  27.371  1.00  0.00     0.031 A 
ATOM     78  C   UNL A   1      43.538  25.953  26.327  1.00  0.00     0.131 A 
ATOM     79  C   UNL A   1      42.656  23.341  26.249  1.00  0.00     0.055 A 
ATOM     80  C   UNL A   1      43.766  25.183  25.186  1.00  0.00     0.041 A 
ATOM     81  F   UNL A   1      44.056  27.192  26.339  1.00  0.00    -0.206 F 
ATOM     82  C   UNL A   1      43.323  23.867  25.141  1.00  0.00     0.022 A 
BRANCH  79  83
ATOM     83  S   UNL A   1      42.222  21.575  26.264  1.00  0.00     0.124 S 
ATOM     84  O   UNL A   1      40.800  21.613  25.944  1.00  0.00    -0.237 OA
ATOM     85  O   UNL A   1      43.103  21.035  25.233  1.00  0.00    -0.237 OA
ATOM     86  O   UNL A   1      42.542  21.158  27.628  1.00  0.00    -0.744 OA
ENDBRANCH  79  83
ENDBRANCH  52  76
BRANCH  64  87
ATOM     87  C   UNL A   1      46.697  27.418  33.066  1.00  0.00     0.023 A 
ATOM     88  C   UNL A   1      46.990  26.238  33.767  1.00  0.00     0.031 A 
ATOM     89  C   UNL A   1      47.739  28.355  32.901  1.00  0.00     0.131 A 
ATOM     90  C   UNL A   1      48.277  26.051  34.306  1.00  0.00     0.055 A 
ATOM     91  C   UNL A   1      49.033  28.124  33.360  1.00  0.00     0.041 A 
ATOM     92  F   UNL A   1      47.508  29.541  32.314  1.00  0.00    -0.206 F 
ATOM     93  C   UNL A   1      49.306  26.970  34.082  1.00  0.00     0.022 A 
BRANCH  90  94
ATOM     94  S   UNL A   1      48.562  24.655  35.432  1.00  0.00     0.124 S 
ATOM     95  O   UNL A   1      47.238  24.466  36.015  1.00  0.00    -0.237 OA
ATOM     96  O   UNL A   1      49.016  23.608  34.523  1.00  0.00    -0.237 OA
ATOM     97  O   UNL A   1      49.580  25.158  36.354  1.00  0.00    -0.744 OA
ENDBRANCH  90  94
ENDBRANCH  64  87
ENDBRANCH  38  39
ENDBRANCH  31  33
ENDBRANCH  30  31
ENDBRANCH  29  30
ENDBRANCH   1  29
TORSDOF 18
ENDMDL
MODEL 2
REMARK VINA RESULT:     -12.2      4.698      9.854
REMARK SMILES CCSc1ccc(-c2cc(Cl)cc3c2O[C@H](C(F)(F)F)C(C(=O)OCCOC(=O)c2ccc(-c4c5nc(c(-c6cc(S(=O)(=O)[O-])ccc6F)c6ccc([nH]6)c(-c6cc(S(=O)(=O)[O-])ccc6F)c6nc(c(-c7cc(S(=O)(=O)[O-])ccc7F)c7ccc4[nH]7)C=C6)C=C5)cc2)=C3)cc1
REMARK SMILES IDX 25 1 24 2 22 3 23 4 21 5 8 6 9 7 14 8 10 9 13 10 15 11 11 12
REMARK SMILES IDX 12 13 93 14 16 15 7 16 4 17 5 18 95 19 6 20 94 21 3 22 2 23
REMARK SMILES IDX 1 24 17 25 18 26 19 27 20 28 26 29 27 30 28 31 29 32 30 33
REMARK SMILES IDX 31 34 92 35 32 36 91 37 33 38 34 39 35 40 85 41 36 42 90 43
REMARK SMILES IDX 84 44 86 45 37 46 89 47 83 48 82 49 38 51 70 52 50 53 69 54
REMARK SMILES IDX 51 55 54 56 68 57 87 58 52 59 53 60 67 62 88 63 55 64 39 65
REMARK SMILES IDX 40 66 48 67 41 68 47 69 49 70 46 71 42 72 43 73 44 74 45 75
REMARK SMILES IDX 71 76 72 77 80 78 73 79 79 80 81 81 78 82 74 83 75 84 76 85
REMARK SMILES IDX 77 86 56 87 57 88 65 89 58 90 64 91 66 92 63 93 59 94 60 95
REMARK SMILES IDX 61 96 62 97
REMARK H PARENT 86 50 54 61
REMARK Flexibility Score: inf
ROOT
ATOM      1  C   UNL A   1      35.665  21.270  24.899  1.00  0.00     0.275 C 
ENDROOT
BRANCH   1   2
ATOM      2  O   UNL A   1      35.407  22.161  23.787  1.00  0.00    -0.459 OA
BRANCH   2   3
ATOM      3  C   UNL A   1      34.096  22.509  23.701  1.00  0.00     0.338 C 
ATOM      4  O   UNL A   1      33.270  21.913  23.018  1.00  0.00    -0.246 OA
BRANCH   3   5
ATOM      5  C   UNL A   1      33.703  23.629  24.590  1.00  0.00     0.087 C 
ATOM      6  C   UNL A   1      31.127  26.496  23.287  1.00  0.00     0.026 A 
ATOM      7  C   UNL A   1      31.347  26.440  21.886  1.00  0.00     0.033 A 
ATOM      8  C   UNL A   1      32.054  25.763  24.026  1.00  0.00     0.135 A 
ATOM      9  C   UNL A   1      32.461  25.856  21.278  1.00  0.00     0.042 A 
ATOM     10  C   UNL A   1      33.301  25.431  23.428  1.00  0.00     0.019 A 
ATOM     11  O   UNL A   1      31.798  25.159  25.249  1.00  0.00    -0.475 OA
ATOM     12  Cl  UNL A   1      32.602  25.585  19.591  1.00  0.00    -0.084 Cl
ATOM     13  C   UNL A   1      33.505  25.454  22.061  1.00  0.00     0.032 A 
ATOM     14  C   UNL A   1      34.324  24.772  24.258  1.00  0.00     0.027 C 
ATOM     15  C   UNL A   1      32.369  23.760  25.306  1.00  0.00     0.316 C 
BRANCH   6  16
ATOM     16  C   UNL A   1      30.094  27.514  23.694  1.00  0.00    -0.015 A 
ATOM     17  C   UNL A   1      28.389  29.740  23.014  1.00  0.00     0.007 A 
ATOM     18  C   UNL A   1      27.867  28.455  23.153  1.00  0.00     0.015 A 
ATOM     19  C   UNL A   1      29.711  29.933  23.430  1.00  0.00     0.015 A 
ATOM     20  C   UNL A   1      28.705  27.362  23.530  1.00  0.00     0.010 A 
ATOM     21  C   UNL A   1      30.544  28.848  23.760  1.00  0.00     0.010 A 
BRANCH  17  22
ATOM     22  S   UNL A   1      27.538  31.185  22.379  1.00  0.00    -0.126 SA
BRANCH  22  23
ATOM     23  C   UNL A   1      28.750  32.656  22.144  1.00  0.00     0.071 C 
ATOM     24  C   UNL A   1      29.262  33.743  23.285  1.00  0.00     0.016 C 
ENDBRANCH  22  23
ENDBRANCH  17  22
ENDBRANCH   6  16
BRANCH  15  25
ATOM     25  C   UNL A   1      32.652  23.345  26.755  1.00  0.00     0.430 C 
ATOM     26  F   UNL A   1      33.895  23.714  27.153  1.00  0.00    -0.167 F 
ATOM     27  F   UNL A   1      31.768  23.865  27.629  1.00  0.00    -0.167 F 
ATOM     28  F   UNL A   1      32.589  21.992  26.891  1.00  0.00    -0.167 F 
ENDBRANCH  15  25
ENDBRANCH   3   5
ENDBRANCH   2   3
ENDBRANCH   1   2
BRANCH   1  29
ATOM     29  C   UNL A   1      37.147  20.925  25.076  1.00  0.00     0.275 C 
BRANCH  29  30
ATOM     30  O   UNL A   1      37.840  21.942  25.822  1.00  0.00    -0.458 OA
BRANCH  30  31
ATOM     31  C   UNL A   1      39.093  21.578  26.198  1.00  0.00     0.338 C 
ATOM     32  O   UNL A   1      39.613  20.498  25.980  1.00  0.00    -0.246 OA
BRANCH  31  33
ATOM     33  C   UNL A   1      39.835  22.721  26.791  1.00  0.00     0.060 A 
ATOM     34  C   UNL A   1      39.452  23.976  26.344  1.00  0.00     0.016 A 
ATOM     35  C   UNL A   1      40.866  22.626  27.741  1.00  0.00     0.016 A 
ATOM     36  C   UNL A   1      40.049  25.109  26.888  1.00  0.00     0.010 A 
ATOM     37  C   UNL A   1      41.453  23.793  28.299  1.00  0.00     0.010 A 
ATOM     38  C   UNL A   1      41.014  25.061  27.910  1.00  0.00    -0.014 A 
BRANCH  38  39
ATOM     39  C   UNL A   1      41.495  26.402  28.409  1.00  0.00     0.031 A 
ATOM     40  C   UNL A   1      42.992  26.700  28.059  1.00  0.00     0.074 A 
ATOM     41  C   UNL A   1      40.609  27.315  28.950  1.00  0.00     0.049 A 
ATOM     42  N   UNL A   1      43.708  27.731  28.385  1.00  0.00    -0.248 NA
ATOM     43  C   UNL A   1      43.833  25.721  27.353  1.00  0.00     0.031 C 
ATOM     44  C   UNL A   1      39.302  27.091  29.564  1.00  0.00     0.029 A 
ATOM     45  N   UNL A   1      40.625  28.694  29.015  1.00  0.00    -0.354 N 
ATOM     46  C   UNL A   1      45.012  27.635  27.962  1.00  0.00     0.074 A 
ATOM     47  C   UNL A   1      45.031  26.317  27.335  1.00  0.00     0.031 C 
ATOM     48  C   UNL A   1      38.702  28.264  29.900  1.00  0.00     0.029 A 
ATOM     49  C   UNL A   1      39.638  29.387  29.724  1.00  0.00     0.049 A 
ATOM     50  H   UNL A   1      41.338  29.196  28.559  1.00  0.00     0.167 HD
ATOM     51  C   UNL A   1      46.031  28.566  28.046  1.00  0.00     0.034 A 
ATOM     52  C   UNL A   1      39.546  30.682  30.244  1.00  0.00     0.034 A 
ATOM     53  C   UNL A   1      46.012  29.960  28.588  1.00  0.00     0.049 A 
ATOM     54  C   UNL A   1      40.740  31.781  30.438  1.00  0.00     0.074 A 
ATOM     55  C   UNL A   1      46.761  31.071  28.215  1.00  0.00     0.029 A 
ATOM     56  N   UNL A   1      45.399  30.455  29.760  1.00  0.00    -0.354 N 
ATOM     57  N   UNL A   1      41.908  31.874  29.855  1.00  0.00    -0.248 NA
ATOM     58  C   UNL A   1      40.647  32.851  31.453  1.00  0.00     0.031 C 
ATOM     59  C   UNL A   1      46.290  32.222  28.922  1.00  0.00     0.029 A 
ATOM     60  C   UNL A   1      45.182  31.876  29.698  1.00  0.00     0.049 A 
ATOM     61  H   UNL A   1      45.148  29.894  30.530  1.00  0.00     0.167 HD
ATOM     62  C   UNL A   1      42.794  32.692  30.551  1.00  0.00     0.074 A 
ATOM     63  C   UNL A   1      41.876  33.402  31.442  1.00  0.00     0.031 C 
ATOM     64  C   UNL A   1      44.195  32.745  30.502  1.00  0.00     0.034 A 
BRANCH  51  65
ATOM     65  C   UNL A   1      47.289  28.111  27.350  1.00  0.00     0.023 A 
ATOM     66  C   UNL A   1      47.401  28.131  25.945  1.00  0.00     0.031 A 
ATOM     67  C   UNL A   1      48.325  27.529  28.093  1.00  0.00     0.131 A 
ATOM     68  C   UNL A   1      48.456  27.450  25.323  1.00  0.00     0.055 A 
ATOM     69  C   UNL A   1      49.420  26.933  27.466  1.00  0.00     0.041 A 
ATOM     70  F   UNL A   1      48.256  27.476  29.431  1.00  0.00    -0.206 F 
ATOM     71  C   UNL A   1      49.476  26.865  26.075  1.00  0.00     0.022 A 
BRANCH  68  72
ATOM     72  S   UNL A   1      48.345  27.134  23.536  1.00  0.00     0.124 S 
ATOM     73  O   UNL A   1      48.003  25.714  23.507  1.00  0.00    -0.237 OA
ATOM     74  O   UNL A   1      47.295  28.056  23.120  1.00  0.00    -0.237 OA
ATOM     75  O   UNL A   1      49.686  27.451  23.051  1.00  0.00    -0.744 OA
ENDBRANCH  68  72
ENDBRANCH  51  65
BRANCH  52  76
ATOM     76  C   UNL A   1      38.239  31.095  30.881  1.00  0.00     0.023 A 
ATOM     77  C   UNL A   1      37.260  31.783  30.135  1.00  0.00     0.031 A 
ATOM     78  C   UNL A   1      37.953  30.844  32.236  1.00  0.00     0.131 A 
ATOM     79  C   UNL A   1      36.041  32.153  30.738  1.00  0.00     0.055 A 
ATOM     80  C   UNL A   1      36.715  31.145  32.808  1.00  0.00     0.041 A 
ATOM     81  F   UNL A   1      38.871  30.275  33.034  1.00  0.00    -0.206 F 
ATOM     82  C   UNL A   1      35.749  31.803  32.058  1.00  0.00     0.022 A 
BRANCH  79  83
ATOM     83  S   UNL A   1      34.848  33.160  29.806  1.00  0.00     0.124 S 
ATOM     84  O   UNL A   1      35.705  34.196  29.243  1.00  0.00    -0.237 OA
ATOM     85  O   UNL A   1      34.300  32.191  28.863  1.00  0.00    -0.237 OA
ATOM     86  O   UNL A   1      33.913  33.617  30.833  1.00  0.00    -0.744 OA
ENDBRANCH  79  83
ENDBRANCH  52  76
BRANCH  64  87
ATOM     87  C   UNL A   1      44.750  34.014  31.111  1.00  0.00     0.023 A 
ATOM     88  C   UNL A   1      45.206  34.108  32.435  1.00  0.00     0.031 A 
ATOM     89  C   UNL A   1      44.715  35.200  30.347  1.00  0.00     0.131 A 
ATOM     90  C   UNL A   1      45.568  35.363  32.959  1.00  0.00     0.055 A 
ATOM     91  C   UNL A   1      45.159  36.423  30.844  1.00  0.00     0.041 A 
ATOM     92  F   UNL A   1      44.212  35.199  29.102  1.00  0.00    -0.206 F 
ATOM     93  C   UNL A   1      45.577  36.514  32.164  1.00  0.00     0.022 A 
BRANCH  90  94
ATOM     94  S   UNL A   1      45.897  35.511  34.738  1.00  0.00     0.124 S 
ATOM     95  O   UNL A   1      46.825  34.407  34.963  1.00  0.00    -0.237 OA
ATOM     96  O   UNL A   1      46.463  36.851  34.842  1.00  0.00    -0.237 OA
ATOM     97  O   UNL A   1      44.578  35.347  35.347  1.00  0.00    -0.744 OA
ENDBRANCH  90  94
ENDBRANCH  64  87
ENDBRANCH  38  39
ENDBRANCH  31  33
ENDBRANCH  30  31
ENDBRANCH  29  30
ENDBRANCH   1  29
TORSDOF 18
ENDMDL
MODEL 3
REMARK VINA RESULT:     -12.0      1.842      2.331
REMARK SMILES CCSc1ccc(-c2cc(Cl)cc3c2O[C@H](C(F)(F)F)C(C(=O)OCCOC(=O)c2ccc(-c4c5nc(c(-c6cc(S(=O)(=O)[O-])ccc6F)c6ccc([nH]6)c(-c6cc(S(=O)(=O)[O-])ccc6F)c6nc(c(-c7cc(S(=O)(=O)[O-])ccc7F)c7ccc4[nH]7)C=C6)C=C5)cc2)=C3)cc1
REMARK SMILES IDX 25 1 24 2 22 3 23 4 21 5 8 6 9 7 14 8 10 9 13 10 15 11 11 12
REMARK SMILES IDX 12 13 93 14 16 15 7 16 4 17 5 18 95 19 6 20 94 21 3 22 2 23
REMARK SMILES IDX 1 24 17 25 18 26 19 27 20 28 26 29 27 30 28 31 29 32 30 33
REMARK SMILES IDX 31 34 92 35 32 36 91 37 33 38 34 39 35 40 85 41 36 42 90 43
REMARK SMILES IDX 84 44 86 45 37 46 89 47 83 48 82 49 38 51 70 52 50 53 69 54
REMARK SMILES IDX 51 55 54 56 68 57 87 58 52 59 53 60 67 62 88 63 55 64 39 65
REMARK SMILES IDX 40 66 48 67 41 68 47 69 49 70 46 71 42 72 43 73 44 74 45 75
REMARK SMILES IDX 71 76 72 77 80 78 73 79 79 80 81 81 78 82 74 83 75 84 76 85
REMARK SMILES IDX 77 86 56 87 57 88 65 89 58 90 64 91 66 92 63 93 59 94 60 95
REMARK SMILES IDX 61 96 62 97
REMARK H PARENT 86 50 54 61
REMARK Flexibility Score: inf
ROOT
ATOM      1  C   UNL A   1      31.666  28.800  25.873  1.00  0.00     0.275 C 
ENDROOT
BRANCH   1   2
ATOM      2  O   UNL A   1      32.626  27.718  25.807  1.00  0.00    -0.459 OA
BRANCH   2   3
ATOM      3  C   UNL A   1      33.024  27.463  24.533  1.00  0.00     0.338 C 
ATOM      4  O   UNL A   1      33.962  28.028  23.980  1.00  0.00    -0.246 OA
BRANCH   3   5
ATOM      5  C   UNL A   1      32.287  26.357  23.874  1.00  0.00     0.087 C 
ATOM      6  C   UNL A   1      33.209  22.480  24.693  1.00  0.00     0.026 A 
ATOM      7  C   UNL A   1      34.568  22.603  25.083  1.00  0.00     0.033 A 
ATOM      8  C   UNL A   1      32.684  23.643  24.132  1.00  0.00     0.135 A 
ATOM      9  C   UNL A   1      35.380  23.704  24.803  1.00  0.00     0.042 A 
ATOM     10  C   UNL A   1      33.577  24.619  23.611  1.00  0.00     0.019 A 
ATOM     11  O   UNL A   1      31.352  24.029  24.201  1.00  0.00    -0.475 OA
ATOM     12  Cl  UNL A   1      36.938  23.943  25.478  1.00  0.00    -0.084 Cl
ATOM     13  C   UNL A   1      34.915  24.668  23.956  1.00  0.00     0.032 A 
ATOM     14  C   UNL A   1      33.013  25.781  22.903  1.00  0.00     0.027 C 
ATOM     15  C   UNL A   1      31.217  25.499  24.528  1.00  0.00     0.316 C 
BRANCH   6  16
ATOM     16  C   UNL A   1      32.691  21.066  24.747  1.00  0.00    -0.015 A 
ATOM     17  C   UNL A   1      33.062  18.257  24.203  1.00  0.00     0.007 A 
ATOM     18  C   UNL A   1      33.200  18.760  25.495  1.00  0.00     0.015 A 
ATOM     19  C   UNL A   1      32.528  19.124  23.242  1.00  0.00     0.015 A 
ATOM     20  C   UNL A   1      32.975  20.143  25.770  1.00  0.00     0.010 A 
ATOM     21  C   UNL A   1      32.349  20.494  23.506  1.00  0.00     0.010 A 
BRANCH  17  22
ATOM     22  S   UNL A   1      33.475  16.606  23.640  1.00  0.00    -0.126 SA
BRANCH  22  23
ATOM     23  C   UNL A   1      33.411  15.343  25.086  1.00  0.00     0.071 C 
ATOM     24  C   UNL A   1      32.140  15.018  26.096  1.00  0.00     0.016 C 
ENDBRANCH  22  23
ENDBRANCH  17  22
ENDBRANCH   6  16
BRANCH  15  25
ATOM     25  C   UNL A   1      29.886  26.055  24.006  1.00  0.00     0.430 C 
ATOM     26  F   UNL A   1      30.041  27.267  23.419  1.00  0.00    -0.167 F 
ATOM     27  F   UNL A   1      29.294  25.237  23.113  1.00  0.00    -0.167 F 
ATOM     28  F   UNL A   1      29.003  26.228  25.027  1.00  0.00    -0.167 F 
ENDBRANCH  15  25
ENDBRANCH   3   5
ENDBRANCH   2   3
ENDBRANCH   1   2
BRANCH   1  29
ATOM     29  C   UNL A   1      32.303  30.168  26.136  1.00  0.00     0.275 C 
BRANCH  29  30
ATOM     30  O   UNL A   1      33.126  30.148  27.317  1.00  0.00    -0.458 OA
BRANCH  30  31
ATOM     31  C   UNL A   1      33.707  31.345  27.593  1.00  0.00     0.338 C 
ATOM     32  O   UNL A   1      33.160  32.431  27.522  1.00  0.00    -0.246 OA
BRANCH  31  33
ATOM     33  C   UNL A   1      35.075  31.169  28.146  1.00  0.00     0.060 A 
ATOM     34  C   UNL A   1      35.328  29.936  28.728  1.00  0.00     0.016 A 
ATOM     35  C   UNL A   1      36.097  32.132  28.127  1.00  0.00     0.016 A 
ATOM     36  C   UNL A   1      36.600  29.659  29.219  1.00  0.00     0.010 A 
ATOM     37  C   UNL A   1      37.395  31.828  28.617  1.00  0.00     0.010 A 
ATOM     38  C   UNL A   1      37.678  30.559  29.130  1.00  0.00    -0.014 A 
BRANCH  38  39
ATOM     39  C   UNL A   1      38.993  30.048  29.665  1.00  0.00     0.031 A 
ATOM     40  C   UNL A   1      39.360  30.620  31.076  1.00  0.00     0.074 A 
ATOM     41  C   UNL A   1      39.674  29.034  29.019  1.00  0.00     0.049 A 
ATOM     42  N   UNL A   1      40.432  30.416  31.777  1.00  0.00    -0.248 NA
ATOM     43  C   UNL A   1      38.503  31.600  31.762  1.00  0.00     0.031 C 
ATOM     44  C   UNL A   1      39.605  28.611  27.621  1.00  0.00     0.029 A 
ATOM     45  N   UNL A   1      40.550  28.068  29.474  1.00  0.00    -0.354 N 
ATOM     46  C   UNL A   1      40.452  31.132  32.950  1.00  0.00     0.074 A 
ATOM     47  C   UNL A   1      39.204  31.886  32.866  1.00  0.00     0.031 C 
ATOM     48  C   UNL A   1      40.374  27.513  27.393  1.00  0.00     0.029 A 
ATOM     49  C   UNL A   1      41.194  27.209  28.579  1.00  0.00     0.049 A 
ATOM     50  H   UNL A   1      40.723  27.984  30.439  1.00  0.00     0.167 HD
ATOM     51  C   UNL A   1      41.375  31.103  33.978  1.00  0.00     0.034 A 
ATOM     52  C   UNL A   1      42.326  26.390  28.663  1.00  0.00     0.034 A 
ATOM     53  C   UNL A   1      42.604  30.265  34.139  1.00  0.00     0.049 A 
ATOM     54  C   UNL A   1      43.484  26.383  29.817  1.00  0.00     0.074 A 
ATOM     55  C   UNL A   1      43.214  29.790  35.295  1.00  0.00     0.029 A 
ATOM     56  N   UNL A   1      43.587  29.929  33.182  1.00  0.00    -0.354 N 
ATOM     57  N   UNL A   1      43.456  26.826  31.048  1.00  0.00    -0.248 NA
ATOM     58  C   UNL A   1      44.850  25.893  29.535  1.00  0.00     0.031 C 
ATOM     59  C   UNL A   1      44.284  28.910  34.941  1.00  0.00     0.029 A 
ATOM     60  C   UNL A   1      44.324  28.750  33.555  1.00  0.00     0.049 A 
ATOM     61  H   UNL A   1      43.751  30.442  32.357  1.00  0.00     0.167 HD
ATOM     62  C   UNL A   1      44.728  27.004  31.585  1.00  0.00     0.074 A 
ATOM     63  C   UNL A   1      45.539  26.234  30.641  1.00  0.00     0.031 C 
ATOM     64  C   UNL A   1      45.143  27.795  32.665  1.00  0.00     0.034 A 
BRANCH  51  65
ATOM     65  C   UNL A   1      40.964  31.959  35.150  1.00  0.00     0.023 A 
ATOM     66  C   UNL A   1      39.961  31.542  36.049  1.00  0.00     0.031 A 
ATOM     67  C   UNL A   1      41.483  33.253  35.283  1.00  0.00     0.131 A 
ATOM     68  C   UNL A   1      39.409  32.464  36.949  1.00  0.00     0.055 A 
ATOM     69  C   UNL A   1      40.990  34.137  36.245  1.00  0.00     0.041 A 
ATOM     70  F   UNL A   1      42.429  33.697  34.443  1.00  0.00    -0.206 F 
ATOM     71  C   UNL A   1      39.928  33.755  37.064  1.00  0.00     0.022 A 
BRANCH  68  72
ATOM     72  S   UNL A   1      37.855  32.030  37.785  1.00  0.00     0.124 S 
ATOM     73  O   UNL A   1      38.231  32.151  39.192  1.00  0.00    -0.237 OA
ATOM     74  O   UNL A   1      36.933  33.039  37.279  1.00  0.00    -0.237 OA
ATOM     75  O   UNL A   1      37.598  30.664  37.336  1.00  0.00    -0.744 OA
ENDBRANCH  68  72
ENDBRANCH  51  65
BRANCH  52  76
ATOM     76  C   UNL A   1      42.654  25.515  27.475  1.00  0.00     0.023 A 
ATOM     77  C   UNL A   1      42.193  24.185  27.411  1.00  0.00     0.031 A 
ATOM     78  C   UNL A   1      43.449  25.969  26.406  1.00  0.00     0.131 A 
ATOM     79  C   UNL A   1      42.496  23.383  26.293  1.00  0.00     0.055 A 
ATOM     80  C   UNL A   1      43.684  25.197  25.267  1.00  0.00     0.041 A 
ATOM     81  F   UNL A   1      44.001  27.193  26.437  1.00  0.00    -0.206 F 
ATOM     82  C   UNL A   1      43.206  23.895  25.205  1.00  0.00     0.022 A 
BRANCH  79  83
ATOM     83  S   UNL A   1      42.014  21.630  26.288  1.00  0.00     0.124 S 
ATOM     84  O   UNL A   1      42.873  21.085  25.243  1.00  0.00    -0.237 OA
ATOM     85  O   UNL A   1      42.322  21.223  27.656  1.00  0.00    -0.237 OA
ATOM     86  O   UNL A   1      40.589  21.670  25.963  1.00  0.00    -0.744 OA
ENDBRANCH  79  83
ENDBRANCH  52  76
BRANCH  64  87
ATOM     87  C   UNL A   1      46.521  27.417  33.167  1.00  0.00     0.023 A 
ATOM     88  C   UNL A   1      47.705  28.031  32.729  1.00  0.00     0.031 A 
ATOM     89  C   UNL A   1      46.641  26.319  34.044  1.00  0.00     0.131 A 
ATOM     90  C   UNL A   1      48.948  27.516  33.141  1.00  0.00     0.055 A 
ATOM     91  C   UNL A   1      47.871  25.870  34.518  1.00  0.00     0.041 A 
ATOM     92  F   UNL A   1      45.555  25.632  34.436  1.00  0.00    -0.206 F 
ATOM     93  C   UNL A   1      49.038  26.461  34.054  1.00  0.00     0.022 A 
BRANCH  90  94
ATOM     94  S   UNL A   1      50.461  28.146  32.360  1.00  0.00     0.124 S 
ATOM     95  O   UNL A   1      51.239  26.923  32.185  1.00  0.00    -0.237 OA
ATOM     96  O   UNL A   1      49.951  28.758  31.138  1.00  0.00    -0.237 OA
ATOM     97  O   UNL A   1      50.994  29.085  33.347  1.00  0.00    -0.744 OA
ENDBRANCH  90  94
ENDBRANCH  64  87
ENDBRANCH  38  39
ENDBRANCH  31  33
ENDBRANCH  30  31
ENDBRANCH  29  30
ENDBRANCH   1  29
TORSDOF 18
ENDMDL
