MODEL 1
REMARK VINA RESULT:     -13.2      0.000      0.000
REMARK SMILES Cc1oc2c(C)c3oc(=O)c(CCC(=O)N[C@H](Cc4ccc(Cl)cc4)C(=O)OCCOC(=O)c4ccc(-c5c6nc(c(-c7cc(S(=O)(=O)[O-])ccc7F)c7ccc([nH]7)c(-c7cc(S(=O)(=O)[O-])ccc7F)c7nc(c(-c8cc(S(=O)(=O)[O-])ccc8F)c8ccc5[nH]8)C=C7)C=C6)cc4)c(C)c3cc2c1C
REMARK SMILES IDX 29 1 28 2 26 3 27 4 17 5 16 6 14 7 15 8 13 10 12 11 11 12
REMARK SMILES IDX 1 13 2 14 3 15 102 16 4 17 101 18 103 19 5 20 100 21 6 22
REMARK SMILES IDX 7 23 99 24 8 25 97 26 9 27 98 28 10 29 18 30 19 31 20 32
REMARK SMILES IDX 25 33 21 34 24 35 22 36 23 37 30 38 31 39 32 40 33 41 34 42
REMARK SMILES IDX 35 43 96 44 36 45 95 46 37 47 38 48 39 49 89 50 40 51 94 52
REMARK SMILES IDX 88 53 90 54 41 55 93 56 87 57 86 58 42 60 74 61 54 62 73 63
REMARK SMILES IDX 55 64 58 65 72 66 91 67 56 68 57 69 71 71 92 72 59 73 43 74
REMARK SMILES IDX 44 75 52 76 45 77 51 78 53 79 50 80 46 81 47 82 48 83 49 84
REMARK SMILES IDX 75 85 76 86 84 87 77 88 83 89 85 90 82 91 78 92 79 93 80 94
REMARK SMILES IDX 81 95 60 96 61 97 69 98 62 99 68 100 70 101 67 102 63 103
REMARK SMILES IDX 64 104 65 105 66 106
REMARK H PARENT 16 9 90 59 58 70
REMARK Flexibility Score: inf
ROOT
ATOM      1  C   UNL A   1      32.163  29.208  26.357  1.00  0.00     0.274 C 
ENDROOT
BRANCH   1   2
ATOM      2  O   UNL A   1      31.765  27.874  27.020  1.00  0.00    -0.461 OA
BRANCH   2   3
ATOM      3  C   UNL A   1      31.788  26.599  26.489  1.00  0.00     0.329 C 
ATOM      4  O   UNL A   1      32.773  25.877  26.630  1.00  0.00    -0.250 OA
BRANCH   3   5
ATOM      5  C   UNL A   1      30.389  26.016  25.841  1.00  0.00     0.196 C 
BRANCH   5   6
ATOM      6  N   UNL A   1      29.924  24.852  26.635  1.00  0.00    -0.342 N 
ATOM      7  C   UNL A   1      30.308  23.535  26.580  1.00  0.00     0.221 C 
ATOM      8  O   UNL A   1      29.429  22.711  26.857  1.00  0.00    -0.275 OA
ATOM      9  H   UNL A   1      29.234  25.057  27.307  1.00  0.00     0.164 HD
BRANCH   7  10
ATOM     10  C   UNL A   1      31.757  23.052  26.321  1.00  0.00     0.105 C 
BRANCH  10  11
ATOM     11  C   UNL A   1      32.303  22.816  24.897  1.00  0.00     0.053 C 
BRANCH  11  12
ATOM     12  C   UNL A   1      33.728  22.288  24.883  1.00  0.00     0.042 A 
ATOM     13  C   UNL A   1      41.827  23.428  26.851  1.00  0.00     0.088 C 
ATOM     14  C   UNL A   1      40.398  23.103  26.636  1.00  0.00     0.105 A 
ATOM     15  O   UNL A   1      40.060  21.892  26.071  1.00  0.00    -0.461 OA
ATOM     16  C   UNL A   1      39.269  23.859  26.880  1.00  0.00    -0.002 A 
ATOM     17  C   UNL A   1      38.702  21.917  25.829  1.00  0.00     0.141 A 
ATOM     18  C   UNL A   1      38.248  23.170  26.162  1.00  0.00     0.025 A 
ATOM     19  C   UNL A   1      39.207  25.122  27.676  1.00  0.00     0.049 C 
ATOM     20  C   UNL A   1      37.825  20.917  25.320  1.00  0.00     0.036 A 
ATOM     21  C   UNL A   1      36.963  23.431  25.705  1.00  0.00     0.024 A 
ATOM     22  C   UNL A   1      38.370  19.593  24.912  1.00  0.00     0.052 C 
ATOM     23  C   UNL A   1      36.442  21.304  25.116  1.00  0.00     0.145 A 
ATOM     24  C   UNL A   1      36.058  22.612  25.103  1.00  0.00     0.022 A 
ATOM     25  O   UNL A   1      35.371  20.391  24.968  1.00  0.00    -0.422 OA
ATOM     26  C   UNL A   1      34.739  23.134  24.668  1.00  0.00    -0.030 A 
ATOM     27  C   UNL A   1      34.030  20.838  25.089  1.00  0.00     0.339 A 
ATOM     28  C   UNL A   1      34.419  24.571  24.221  1.00  0.00     0.046 C 
ATOM     29  O   UNL A   1      33.107  20.056  25.329  1.00  0.00    -0.246 OA
ENDBRANCH  11  12
ENDBRANCH  10  11
ENDBRANCH   7  10
ENDBRANCH   5   6
BRANCH   5  30
ATOM     30  C   UNL A   1      29.838  25.940  24.389  1.00  0.00     0.072 C 
BRANCH  30  31
ATOM     31  C   UNL A   1      29.367  27.148  23.653  1.00  0.00    -0.045 A 
ATOM     32  C   UNL A   1      28.000  27.442  23.587  1.00  0.00     0.005 A 
ATOM     33  C   UNL A   1      30.254  27.931  22.919  1.00  0.00     0.005 A 
ATOM     34  C   UNL A   1      27.544  28.616  23.000  1.00  0.00     0.021 A 
ATOM     35  C   UNL A   1      29.800  29.087  22.286  1.00  0.00     0.021 A 
ATOM     36  C   UNL A   1      28.460  29.459  22.387  1.00  0.00     0.041 A 
ATOM     37  Cl  UNL A   1      27.936  30.971  21.761  1.00  0.00    -0.084 Cl
ENDBRANCH  30  31
ENDBRANCH   5  30
ENDBRANCH   3   5
ENDBRANCH   2   3
ENDBRANCH   1   2
BRANCH   1  38
ATOM     38  C   UNL A   1      33.185  30.341  27.172  1.00  0.00     0.275 C 
BRANCH  38  39
ATOM     39  O   UNL A   1      34.679  30.066  27.354  1.00  0.00    -0.458 OA
BRANCH  39  40
ATOM     40  C   UNL A   1      35.592  31.042  27.784  1.00  0.00     0.338 C 
ATOM     41  O   UNL A   1      35.447  32.223  27.517  1.00  0.00    -0.246 OA
BRANCH  40  42
ATOM     42  C   UNL A   1      36.724  30.567  28.776  1.00  0.00     0.060 A 
ATOM     43  C   UNL A   1      37.426  31.410  29.642  1.00  0.00     0.016 A 
ATOM     44  C   UNL A   1      37.198  29.233  28.761  1.00  0.00     0.016 A 
ATOM     45  C   UNL A   1      38.643  31.007  30.294  1.00  0.00     0.010 A 
ATOM     46  C   UNL A   1      38.406  28.817  29.435  1.00  0.00     0.010 A 
ATOM     47  C   UNL A   1      39.194  29.715  30.171  1.00  0.00    -0.014 A 
BRANCH  47  48
ATOM     48  C   UNL A   1      40.340  29.333  31.103  1.00  0.00     0.031 A 
ATOM     49  C   UNL A   1      41.583  30.021  30.633  1.00  0.00     0.074 A 
ATOM     50  C   UNL A   1      40.453  29.001  32.425  1.00  0.00     0.049 A 
ATOM     51  N   UNL A   1      41.836  31.261  30.930  1.00  0.00    -0.248 NA
ATOM     52  C   UNL A   1      42.413  29.472  29.566  1.00  0.00     0.031 C 
ATOM     53  C   UNL A   1      39.569  29.433  33.510  1.00  0.00     0.029 A 
ATOM     54  N   UNL A   1      41.507  28.371  33.110  1.00  0.00    -0.354 N 
ATOM     55  C   UNL A   1      42.805  31.691  30.049  1.00  0.00     0.074 A 
ATOM     56  C   UNL A   1      43.134  30.548  29.222  1.00  0.00     0.031 C 
ATOM     57  C   UNL A   1      40.172  29.194  34.700  1.00  0.00     0.029 A 
ATOM     58  C   UNL A   1      41.431  28.453  34.512  1.00  0.00     0.049 A 
ATOM     59  H   UNL A   1      42.240  27.908  32.645  1.00  0.00     0.167 HD
ATOM     60  C   UNL A   1      43.263  32.968  30.025  1.00  0.00     0.034 A 
ATOM     61  C   UNL A   1      42.479  28.540  35.396  1.00  0.00     0.034 A 
ATOM     62  C   UNL A   1      42.752  33.844  31.035  1.00  0.00     0.049 A 
ATOM     63  C   UNL A   1      43.002  29.920  35.111  1.00  0.00     0.074 A 
ATOM     64  C   UNL A   1      41.726  34.757  31.164  1.00  0.00     0.029 A 
ATOM     65  N   UNL A   1      43.338  33.814  32.279  1.00  0.00    -0.354 N 
ATOM     66  N   UNL A   1      42.523  31.053  35.541  1.00  0.00    -0.248 NA
ATOM     67  C   UNL A   1      43.946  30.026  33.999  1.00  0.00     0.031 C 
ATOM     68  C   UNL A   1      41.468  34.849  32.569  1.00  0.00     0.029 A 
ATOM     69  C   UNL A   1      42.327  33.951  33.198  1.00  0.00     0.049 A 
ATOM     70  H   UNL A   1      44.297  33.714  32.474  1.00  0.00     0.167 HD
ATOM     71  C   UNL A   1      42.886  31.988  34.572  1.00  0.00     0.074 A 
ATOM     72  C   UNL A   1      43.785  31.296  33.668  1.00  0.00     0.031 C 
ATOM     73  C   UNL A   1      42.290  33.208  34.436  1.00  0.00     0.034 A 
BRANCH  60  74
ATOM     74  C   UNL A   1      44.325  33.430  29.119  1.00  0.00     0.023 A 
ATOM     75  C   UNL A   1      43.988  33.660  27.780  1.00  0.00     0.031 A 
ATOM     76  C   UNL A   1      45.671  33.472  29.497  1.00  0.00     0.131 A 
ATOM     77  C   UNL A   1      44.996  33.871  26.838  1.00  0.00     0.055 A 
ATOM     78  C   UNL A   1      46.676  33.699  28.554  1.00  0.00     0.041 A 
ATOM     79  F   UNL A   1      46.031  33.254  30.772  1.00  0.00    -0.206 F 
ATOM     80  C   UNL A   1      46.340  33.883  27.211  1.00  0.00     0.022 A 
BRANCH  77  81
ATOM     81  S   UNL A   1      44.499  34.046  25.107  1.00  0.00     0.124 S 
ATOM     82  O   UNL A   1      44.152  32.677  24.752  1.00  0.00    -0.237 OA
ATOM     83  O   UNL A   1      43.385  34.982  25.217  1.00  0.00    -0.237 OA
ATOM     84  O   UNL A   1      45.700  34.577  24.464  1.00  0.00    -0.744 OA
ENDBRANCH  77  81
ENDBRANCH  60  74
BRANCH  61  85
ATOM     85  C   UNL A   1      43.450  27.409  35.665  1.00  0.00     0.023 A 
ATOM     86  C   UNL A   1      43.209  26.137  35.110  1.00  0.00     0.031 A 
ATOM     87  C   UNL A   1      44.561  27.487  36.541  1.00  0.00     0.131 A 
ATOM     88  C   UNL A   1      44.095  25.059  35.341  1.00  0.00     0.055 A 
ATOM     89  C   UNL A   1      45.472  26.436  36.722  1.00  0.00     0.041 A 
ATOM     90  F   UNL A   1      44.806  28.586  37.269  1.00  0.00    -0.206 F 
ATOM     91  C   UNL A   1      45.252  25.216  36.102  1.00  0.00     0.022 A 
BRANCH  88  92
ATOM     92  S   UNL A   1      43.746  23.431  34.613  1.00  0.00     0.124 S 
ATOM     93  O   UNL A   1      42.303  23.319  34.793  1.00  0.00    -0.237 OA
ATOM     94  O   UNL A   1      44.210  23.591  33.238  1.00  0.00    -0.237 OA
ATOM     95  O   UNL A   1      44.548  22.517  35.425  1.00  0.00    -0.744 OA
ENDBRANCH  88  92
ENDBRANCH  61  85
BRANCH  73  96
ATOM     96  C   UNL A   1      41.366  33.624  35.534  1.00  0.00     0.023 A 
ATOM     97  C   UNL A   1      40.129  32.980  35.690  1.00  0.00     0.031 A 
ATOM     98  C   UNL A   1      41.731  34.604  36.473  1.00  0.00     0.131 A 
ATOM     99  C   UNL A   1      39.312  33.290  36.787  1.00  0.00     0.055 A 
ATOM    100  C   UNL A   1      40.924  34.897  37.573  1.00  0.00     0.041 A 
ATOM    101  F   UNL A   1      42.892  35.272  36.362  1.00  0.00    -0.206 F 
ATOM    102  C   UNL A   1      39.712  34.231  37.739  1.00  0.00     0.022 A 
BRANCH  99 103
ATOM    103  S   UNL A   1      37.751  32.393  37.004  1.00  0.00     0.124 S 
ATOM    104  O   UNL A   1      37.794  31.417  35.917  1.00  0.00    -0.237 OA
ATOM    105  O   UNL A   1      37.872  31.854  38.351  1.00  0.00    -0.237 OA
ATOM    106  O   UNL A   1      36.736  33.438  36.852  1.00  0.00    -0.744 OA
ENDBRANCH  99 103
ENDBRANCH  73  96
ENDBRANCH  47  48
ENDBRANCH  40  42
ENDBRANCH  39  40
ENDBRANCH  38  39
ENDBRANCH   1  38
TORSDOF 20
ENDMDL
MODEL 2
REMARK VINA RESULT:     -13.0      3.797      8.835
REMARK SMILES Cc1oc2c(C)c3oc(=O)c(CCC(=O)N[C@H](Cc4ccc(Cl)cc4)C(=O)OCCOC(=O)c4ccc(-c5c6nc(c(-c7cc(S(=O)(=O)[O-])ccc7F)c7ccc([nH]7)c(-c7cc(S(=O)(=O)[O-])ccc7F)c7nc(c(-c8cc(S(=O)(=O)[O-])ccc8F)c8ccc5[nH]8)C=C7)C=C6)cc4)c(C)c3cc2c1C
REMARK SMILES IDX 29 1 28 2 26 3 27 4 17 5 16 6 14 7 15 8 13 10 12 11 11 12
REMARK SMILES IDX 1 13 2 14 3 15 102 16 4 17 101 18 103 19 5 20 100 21 6 22
REMARK SMILES IDX 7 23 99 24 8 25 97 26 9 27 98 28 10 29 18 30 19 31 20 32
REMARK SMILES IDX 25 33 21 34 24 35 22 36 23 37 30 38 31 39 32 40 33 41 34 42
REMARK SMILES IDX 35 43 96 44 36 45 95 46 37 47 38 48 39 49 89 50 40 51 94 52
REMARK SMILES IDX 88 53 90 54 41 55 93 56 87 57 86 58 42 60 74 61 54 62 73 63
REMARK SMILES IDX 55 64 58 65 72 66 91 67 56 68 57 69 71 71 92 72 59 73 43 74
REMARK SMILES IDX 44 75 52 76 45 77 51 78 53 79 50 80 46 81 47 82 48 83 49 84
REMARK SMILES IDX 75 85 76 86 84 87 77 88 83 89 85 90 82 91 78 92 79 93 80 94
REMARK SMILES IDX 81 95 60 96 61 97 69 98 62 99 68 100 70 101 67 102 63 103
REMARK SMILES IDX 64 104 65 105 66 106
REMARK H PARENT 16 9 90 59 58 70
REMARK Flexibility Score: inf
ROOT
ATOM      1  C   UNL A   1      36.710  21.732  24.838  1.00  0.00     0.274 C 
ENDROOT
BRANCH   1   2
ATOM      2  O   UNL A   1      35.260  22.237  24.983  1.00  0.00    -0.461 OA
BRANCH   2   3
ATOM      3  C   UNL A   1      34.125  21.531  25.333  1.00  0.00     0.329 C 
ATOM      4  O   UNL A   1      33.883  21.275  26.511  1.00  0.00    -0.250 OA
BRANCH   3   5
ATOM      5  C   UNL A   1      33.021  21.223  24.149  1.00  0.00     0.196 C 
BRANCH   5   6
ATOM      6  N   UNL A   1      31.833  22.090  24.344  1.00  0.00    -0.342 N 
ATOM      7  C   UNL A   1      31.682  23.440  24.147  1.00  0.00     0.221 C 
ATOM      8  O   UNL A   1      30.881  24.003  24.902  1.00  0.00    -0.275 OA
ATOM      9  H   UNL A   1      31.027  21.623  24.665  1.00  0.00     0.164 HD
BRANCH   7  10
ATOM     10  C   UNL A   1      32.342  24.238  22.994  1.00  0.00     0.105 C 
BRANCH  10  11
ATOM     11  C   UNL A   1      33.508  25.219  23.236  1.00  0.00     0.053 C 
BRANCH  11  12
ATOM     12  C   UNL A   1      33.087  26.475  23.980  1.00  0.00     0.042 A 
ATOM     13  C   UNL A   1      34.981  32.513  29.524  1.00  0.00     0.088 C 
ATOM     14  C   UNL A   1      34.661  31.577  28.421  1.00  0.00     0.105 A 
ATOM     15  O   UNL A   1      33.446  31.681  27.779  1.00  0.00    -0.461 OA
ATOM     16  C   UNL A   1      35.395  30.525  27.909  1.00  0.00    -0.002 A 
ATOM     17  C   UNL A   1      33.338  30.602  26.927  1.00  0.00     0.141 A 
ATOM     18  C   UNL A   1      34.442  29.809  27.127  1.00  0.00     0.025 A 
ATOM     19  C   UNL A   1      36.833  30.233  28.188  1.00  0.00     0.049 C 
ATOM     20  C   UNL A   1      32.328  30.250  25.987  1.00  0.00     0.036 A 
ATOM     21  C   UNL A   1      34.330  28.551  26.548  1.00  0.00     0.024 A 
ATOM     22  C   UNL A   1      31.116  31.105  25.849  1.00  0.00     0.052 C 
ATOM     23  C   UNL A   1      32.491  28.986  25.295  1.00  0.00     0.145 A 
ATOM     24  C   UNL A   1      33.372  28.041  25.728  1.00  0.00     0.022 A 
ATOM     25  O   UNL A   1      31.813  28.637  24.103  1.00  0.00    -0.422 OA
ATOM     26  C   UNL A   1      33.452  26.637  25.255  1.00  0.00    -0.030 A 
ATOM     27  C   UNL A   1      32.257  27.534  23.327  1.00  0.00     0.339 A 
ATOM     28  C   UNL A   1      34.094  25.451  25.996  1.00  0.00     0.046 C 
ATOM     29  O   UNL A   1      31.949  27.414  22.139  1.00  0.00    -0.246 OA
ENDBRANCH  11  12
ENDBRANCH  10  11
ENDBRANCH   7  10
ENDBRANCH   5   6
BRANCH   5  30
ATOM     30  C   UNL A   1      32.636  19.940  23.359  1.00  0.00     0.072 C 
BRANCH  30  31
ATOM     31  C   UNL A   1      32.814  18.572  23.926  1.00  0.00    -0.045 A 
ATOM     32  C   UNL A   1      32.537  18.330  25.276  1.00  0.00     0.005 A 
ATOM     33  C   UNL A   1      33.372  17.549  23.164  1.00  0.00     0.005 A 
ATOM     34  C   UNL A   1      32.591  17.044  25.802  1.00  0.00     0.021 A 
ATOM     35  C   UNL A   1      33.476  16.265  23.697  1.00  0.00     0.021 A 
ATOM     36  C   UNL A   1      33.023  16.005  24.989  1.00  0.00     0.041 A 
ATOM     37  Cl  UNL A   1      32.984  14.393  25.582  1.00  0.00    -0.084 Cl
ENDBRANCH  30  31
ENDBRANCH   5  30
ENDBRANCH   3   5
ENDBRANCH   2   3
ENDBRANCH   1   2
BRANCH   1  38
ATOM     38  C   UNL A   1      37.994  22.425  25.767  1.00  0.00     0.275 C 
BRANCH  38  39
ATOM     39  O   UNL A   1      39.315  21.679  25.965  1.00  0.00    -0.458 OA
BRANCH  39  40
ATOM     40  C   UNL A   1      40.170  21.909  27.055  1.00  0.00     0.338 C 
ATOM     41  O   UNL A   1      40.483  21.020  27.829  1.00  0.00    -0.246 OA
BRANCH  40  42
ATOM     42  C   UNL A   1      40.849  23.333  27.137  1.00  0.00     0.060 A 
ATOM     43  C   UNL A   1      42.104  23.645  26.611  1.00  0.00     0.016 A 
ATOM     44  C   UNL A   1      40.258  24.383  27.881  1.00  0.00     0.016 A 
ATOM     45  C   UNL A   1      42.816  24.843  26.969  1.00  0.00     0.010 A 
ATOM     46  C   UNL A   1      40.959  25.599  28.223  1.00  0.00     0.010 A 
ATOM     47  C   UNL A   1      42.284  25.831  27.823  1.00  0.00    -0.014 A 
BRANCH  47  48
ATOM     48  C   UNL A   1      43.023  27.162  27.925  1.00  0.00     0.031 A 
ATOM     49  C   UNL A   1      42.096  28.173  28.523  1.00  0.00     0.074 A 
ATOM     50  C   UNL A   1      44.323  27.544  28.106  1.00  0.00     0.049 A 
ATOM     51  N   UNL A   1      41.901  28.253  29.806  1.00  0.00    -0.248 NA
ATOM     52  C   UNL A   1      41.122  28.900  27.716  1.00  0.00     0.031 C 
ATOM     53  C   UNL A   1      45.364  26.788  28.806  1.00  0.00     0.029 A 
ATOM     54  N   UNL A   1      44.937  28.789  27.880  1.00  0.00    -0.354 N 
ATOM     55  C   UNL A   1      40.742  28.975  29.988  1.00  0.00     0.074 A 
ATOM     56  C   UNL A   1      40.293  29.359  28.665  1.00  0.00     0.031 C 
ATOM     57  C   UNL A   1      46.408  27.610  29.076  1.00  0.00     0.029 A 
ATOM     58  C   UNL A   1      46.214  28.930  28.454  1.00  0.00     0.049 A 
ATOM     59  H   UNL A   1      44.508  29.506  27.360  1.00  0.00     0.167 HD
ATOM     60  C   UNL A   1      40.196  29.195  31.210  1.00  0.00     0.034 A 
ATOM     61  C   UNL A   1      46.772  30.077  28.963  1.00  0.00     0.034 A 
ATOM     62  C   UNL A   1      40.941  28.712  32.334  1.00  0.00     0.049 A 
ATOM     63  C   UNL A   1      45.939  30.300  30.194  1.00  0.00     0.074 A 
ATOM     64  C   UNL A   1      40.974  27.579  33.119  1.00  0.00     0.029 A 
ATOM     65  N   UNL A   1      41.968  29.489  32.816  1.00  0.00    -0.354 N 
ATOM     66  N   UNL A   1      46.057  29.708  31.349  1.00  0.00    -0.248 NA
ATOM     67  C   UNL A   1      44.680  31.017  29.990  1.00  0.00     0.031 C 
ATOM     68  C   UNL A   1      42.288  27.540  33.683  1.00  0.00     0.029 A 
ATOM     69  C   UNL A   1      42.982  28.633  33.168  1.00  0.00     0.049 A 
ATOM     70  H   UNL A   1      41.975  30.470  32.894  1.00  0.00     0.167 HD
ATOM     71  C   UNL A   1      44.779  29.740  31.904  1.00  0.00     0.074 A 
ATOM     72  C   UNL A   1      43.987  30.586  31.031  1.00  0.00     0.031 C 
ATOM     73  C   UNL A   1      44.375  28.928  32.923  1.00  0.00     0.034 A 
BRANCH  60  74
ATOM     74  C   UNL A   1      38.983  29.999  31.423  1.00  0.00     0.023 A 
ATOM     75  C   UNL A   1      39.077  31.384  31.242  1.00  0.00     0.031 A 
ATOM     76  C   UNL A   1      37.810  29.464  31.965  1.00  0.00     0.131 A 
ATOM     77  C   UNL A   1      38.030  32.210  31.653  1.00  0.00     0.055 A 
ATOM     78  C   UNL A   1      36.758  30.292  32.361  1.00  0.00     0.041 A 
ATOM     79  F   UNL A   1      37.685  28.140  32.155  1.00  0.00    -0.206 F 
ATOM     80  C   UNL A   1      36.872  31.676  32.220  1.00  0.00     0.022 A 
BRANCH  77  81
ATOM     81  S   UNL A   1      38.264  33.997  31.497  1.00  0.00     0.124 S 
ATOM     82  O   UNL A   1      38.228  34.182  30.053  1.00  0.00    -0.237 OA
ATOM     83  O   UNL A   1      37.115  34.507  32.238  1.00  0.00    -0.237 OA
ATOM     84  O   UNL A   1      39.564  34.222  32.127  1.00  0.00    -0.744 OA
ENDBRANCH  77  81
ENDBRANCH  60  74
BRANCH  61  85
ATOM     85  C   UNL A   1      47.189  31.260  28.114  1.00  0.00     0.023 A 
ATOM     86  C   UNL A   1      46.208  32.006  27.431  1.00  0.00     0.031 A 
ATOM     87  C   UNL A   1      48.528  31.635  27.849  1.00  0.00     0.131 A 
ATOM     88  C   UNL A   1      46.561  33.117  26.629  1.00  0.00     0.055 A 
ATOM     89  C   UNL A   1      48.876  32.771  27.104  1.00  0.00     0.041 A 
ATOM     90  F   UNL A   1      49.563  30.907  28.294  1.00  0.00    -0.206 F 
ATOM     91  C   UNL A   1      47.886  33.533  26.504  1.00  0.00     0.022 A 
BRANCH  88  92
ATOM     92  S   UNL A   1      45.268  34.050  25.758  1.00  0.00     0.124 S 
ATOM     93  O   UNL A   1      46.016  35.186  25.230  1.00  0.00    -0.237 OA
ATOM     94  O   UNL A   1      44.789  33.085  24.772  1.00  0.00    -0.237 OA
ATOM     95  O   UNL A   1      44.311  34.371  26.815  1.00  0.00    -0.744 OA
ENDBRANCH  88  92
ENDBRANCH  61  85
BRANCH  73  96
ATOM     96  C   UNL A   1      45.441  28.138  33.608  1.00  0.00     0.023 A 
ATOM     97  C   UNL A   1      46.062  28.649  34.760  1.00  0.00     0.031 A 
ATOM     98  C   UNL A   1      45.799  26.851  33.173  1.00  0.00     0.131 A 
ATOM     99  C   UNL A   1      46.979  27.860  35.467  1.00  0.00     0.055 A 
ATOM    100  C   UNL A   1      46.700  26.062  33.890  1.00  0.00     0.041 A 
ATOM    101  F   UNL A   1      45.258  26.318  32.064  1.00  0.00    -0.206 F 
ATOM    102  C   UNL A   1      47.287  26.562  35.050  1.00  0.00     0.022 A 
BRANCH  99 103
ATOM    103  S   UNL A   1      47.712  28.516  36.991  1.00  0.00     0.124 S 
ATOM    104  O   UNL A   1      47.688  27.355  37.878  1.00  0.00    -0.237 OA
ATOM    105  O   UNL A   1      49.029  28.958  36.554  1.00  0.00    -0.237 OA
ATOM    106  O   UNL A   1      46.798  29.597  37.368  1.00  0.00    -0.744 OA
ENDBRANCH  99 103
ENDBRANCH  73  96
ENDBRANCH  47  48
ENDBRANCH  40  42
ENDBRANCH  39  40
ENDBRANCH  38  39
ENDBRANCH   1  38
TORSDOF 20
ENDMDL
MODEL 3
REMARK VINA RESULT:     -12.9      4.076      9.972
REMARK SMILES Cc1oc2c(C)c3oc(=O)c(CCC(=O)N[C@H](Cc4ccc(Cl)cc4)C(=O)OCCOC(=O)c4ccc(-c5c6nc(c(-c7cc(S(=O)(=O)[O-])ccc7F)c7ccc([nH]7)c(-c7cc(S(=O)(=O)[O-])ccc7F)c7nc(c(-c8cc(S(=O)(=O)[O-])ccc8F)c8ccc5[nH]8)C=C7)C=C6)cc4)c(C)c3cc2c1C
REMARK SMILES IDX 29 1 28 2 26 3 27 4 17 5 16 6 14 7 15 8 13 10 12 11 11 12
REMARK SMILES IDX 1 13 2 14 3 15 102 16 4 17 101 18 103 19 5 20 100 21 6 22
REMARK SMILES IDX 7 23 99 24 8 25 97 26 9 27 98 28 10 29 18 30 19 31 20 32
REMARK SMILES IDX 25 33 21 34 24 35 22 36 23 37 30 38 31 39 32 40 33 41 34 42
REMARK SMILES IDX 35 43 96 44 36 45 95 46 37 47 38 48 39 49 89 50 40 51 94 52
REMARK SMILES IDX 88 53 90 54 41 55 93 56 87 57 86 58 42 60 74 61 54 62 73 63
REMARK SMILES IDX 55 64 58 65 72 66 91 67 56 68 57 69 71 71 92 72 59 73 43 74
REMARK SMILES IDX 44 75 52 76 45 77 51 78 53 79 50 80 46 81 47 82 48 83 49 84
REMARK SMILES IDX 75 85 76 86 84 87 77 88 83 89 85 90 82 91 78 92 79 93 80 94
REMARK SMILES IDX 81 95 60 96 61 97 69 98 62 99 68 100 70 101 67 102 63 103
REMARK SMILES IDX 64 104 65 105 66 106
REMARK H PARENT 16 9 90 59 58 70
REMARK Flexibility Score: inf
ROOT
ATOM      1  C   UNL A   1      36.358  21.422  25.235  1.00  0.00     0.274 C 
ENDROOT
BRANCH   1   2
ATOM      2  O   UNL A   1      35.297  21.839  26.274  1.00  0.00    -0.461 OA
BRANCH   2   3
ATOM      3  C   UNL A   1      33.965  21.480  26.348  1.00  0.00     0.329 C 
ATOM      4  O   UNL A   1      33.377  21.469  27.428  1.00  0.00    -0.250 OA
BRANCH   3   5
ATOM      5  C   UNL A   1      33.150  21.265  24.932  1.00  0.00     0.196 C 
BRANCH   5   6
ATOM      6  N   UNL A   1      31.842  21.960  25.003  1.00  0.00    -0.342 N 
ATOM      7  C   UNL A   1      31.487  23.220  24.590  1.00  0.00     0.221 C 
ATOM      8  O   UNL A   1      30.604  23.772  25.256  1.00  0.00    -0.275 OA
ATOM      9  H   UNL A   1      31.115  21.435  25.411  1.00  0.00     0.164 HD
BRANCH   7  10
ATOM     10  C   UNL A   1      32.025  23.908  23.310  1.00  0.00     0.105 C 
BRANCH  10  11
ATOM     11  C   UNL A   1      33.216  24.888  23.342  1.00  0.00     0.053 C 
BRANCH  11  12
ATOM     12  C   UNL A   1      32.909  26.178  24.082  1.00  0.00     0.042 A 
ATOM     13  C   UNL A   1      35.482  32.240  29.318  1.00  0.00     0.088 C 
ATOM     14  C   UNL A   1      35.039  31.296  28.264  1.00  0.00     0.105 A 
ATOM     15  O   UNL A   1      33.785  31.443  27.712  1.00  0.00    -0.461 OA
ATOM     16  C   UNL A   1      35.683  30.200  27.727  1.00  0.00    -0.002 A 
ATOM     17  C   UNL A   1      33.565  30.352  26.897  1.00  0.00     0.141 A 
ATOM     18  C   UNL A   1      34.644  29.512  27.035  1.00  0.00     0.025 A 
ATOM     19  C   UNL A   1      37.124  29.847  27.908  1.00  0.00     0.049 C 
ATOM     20  C   UNL A   1      32.473  30.028  26.043  1.00  0.00     0.036 A 
ATOM     21  C   UNL A   1      34.433  28.249  26.499  1.00  0.00     0.024 A 
ATOM     22  C   UNL A   1      31.294  30.935  25.973  1.00  0.00     0.052 C 
ATOM     23  C   UNL A   1      32.527  28.743  25.373  1.00  0.00     0.145 A 
ATOM     24  C   UNL A   1      33.393  27.766  25.764  1.00  0.00     0.022 A 
ATOM     25  O   UNL A   1      31.747  28.399  24.243  1.00  0.00    -0.422 OA
ATOM     26  C   UNL A   1      33.375  26.350  25.323  1.00  0.00    -0.030 A 
ATOM     27  C   UNL A   1      32.082  27.260  23.465  1.00  0.00     0.339 A 
ATOM     28  C   UNL A   1      34.016  25.152  26.044  1.00  0.00     0.046 C 
ATOM     29  O   UNL A   1      31.681  27.128  22.306  1.00  0.00    -0.246 OA
ENDBRANCH  11  12
ENDBRANCH  10  11
ENDBRANCH   7  10
ENDBRANCH   5   6
BRANCH   5  30
ATOM     30  C   UNL A   1      33.094  20.101  23.902  1.00  0.00     0.072 C 
BRANCH  30  31
ATOM     31  C   UNL A   1      33.138  18.669  24.316  1.00  0.00    -0.045 A 
ATOM     32  C   UNL A   1      32.663  18.286  25.576  1.00  0.00     0.005 A 
ATOM     33  C   UNL A   1      33.760  17.713  23.518  1.00  0.00     0.005 A 
ATOM     34  C   UNL A   1      32.593  16.948  25.942  1.00  0.00     0.021 A 
ATOM     35  C   UNL A   1      33.739  16.371  23.898  1.00  0.00     0.021 A 
ATOM     36  C   UNL A   1      33.097  15.988  25.075  1.00  0.00     0.041 A 
ATOM     37  Cl  UNL A   1      32.914  14.322  25.455  1.00  0.00    -0.084 Cl
ENDBRANCH  30  31
ENDBRANCH   5  30
ENDBRANCH   3   5
ENDBRANCH   2   3
ENDBRANCH   1   2
BRANCH   1  38
ATOM     38  C   UNL A   1      38.041  21.698  25.518  1.00  0.00     0.275 C 
BRANCH  38  39
ATOM     39  O   UNL A   1      38.510  22.800  26.471  1.00  0.00    -0.458 OA
BRANCH  39  40
ATOM     40  C   UNL A   1      39.810  22.856  26.998  1.00  0.00     0.338 C 
ATOM     41  O   UNL A   1      40.515  21.865  27.084  1.00  0.00    -0.246 OA
BRANCH  40  42
ATOM     42  C   UNL A   1      40.386  24.292  27.316  1.00  0.00     0.060 A 
ATOM     43  C   UNL A   1      41.683  24.545  27.768  1.00  0.00     0.016 A 
ATOM     44  C   UNL A   1      39.555  25.438  27.278  1.00  0.00     0.016 A 
ATOM     45  C   UNL A   1      42.070  25.808  28.338  1.00  0.00     0.010 A 
ATOM     46  C   UNL A   1      39.948  26.716  27.826  1.00  0.00     0.010 A 
ATOM     47  C   UNL A   1      41.201  26.914  28.427  1.00  0.00    -0.014 A 
BRANCH  47  48
ATOM     48  C   UNL A   1      41.796  28.264  28.814  1.00  0.00     0.031 A 
ATOM     49  C   UNL A   1      42.214  28.203  30.250  1.00  0.00     0.074 A 
ATOM     50  C   UNL A   1      42.482  29.251  28.161  1.00  0.00     0.049 A 
ATOM     51  N   UNL A   1      43.342  27.670  30.615  1.00  0.00    -0.248 NA
ATOM     52  C   UNL A   1      41.270  28.430  31.339  1.00  0.00     0.031 C 
ATOM     53  C   UNL A   1      43.344  29.084  26.990  1.00  0.00     0.029 A 
ATOM     54  N   UNL A   1      42.715  30.586  28.536  1.00  0.00    -0.354 N 
ATOM     55  C   UNL A   1      43.244  27.418  31.966  1.00  0.00     0.074 A 
ATOM     56  C   UNL A   1      41.943  27.907  32.374  1.00  0.00     0.031 C 
ATOM     57  C   UNL A   1      44.105  30.195  26.832  1.00  0.00     0.029 A 
ATOM     58  C   UNL A   1      43.709  31.243  27.788  1.00  0.00     0.049 A 
ATOM     59  H   UNL A   1      42.222  31.027  29.264  1.00  0.00     0.167 HD
ATOM     60  C   UNL A   1      44.222  26.795  32.671  1.00  0.00     0.034 A 
ATOM     61  C   UNL A   1      44.583  32.205  28.234  1.00  0.00     0.034 A 
ATOM     62  C   UNL A   1      45.423  26.487  31.954  1.00  0.00     0.049 A 
ATOM     63  C   UNL A   1      45.470  31.408  29.150  1.00  0.00     0.074 A 
ATOM     64  C   UNL A   1      45.947  25.415  31.264  1.00  0.00     0.029 A 
ATOM     65  N   UNL A   1      46.364  27.479  31.807  1.00  0.00    -0.354 N 
ATOM     66  N   UNL A   1      46.464  30.635  28.815  1.00  0.00    -0.248 NA
ATOM     67  C   UNL A   1      44.981  31.234  30.518  1.00  0.00     0.031 C 
ATOM     68  C   UNL A   1      46.912  25.971  30.365  1.00  0.00     0.029 A 
ATOM     69  C   UNL A   1      46.880  27.353  30.541  1.00  0.00     0.049 A 
ATOM     70  H   UNL A   1      46.620  28.150  32.480  1.00  0.00     0.167 HD
ATOM     71  C   UNL A   1      46.540  29.684  29.832  1.00  0.00     0.074 A 
ATOM     72  C   UNL A   1      45.621  30.129  30.862  1.00  0.00     0.031 C 
ATOM     73  C   UNL A   1      47.188  28.490  29.706  1.00  0.00     0.034 A 
BRANCH  60  74
ATOM     74  C   UNL A   1      44.148  26.557  34.121  1.00  0.00     0.023 A 
ATOM     75  C   UNL A   1      44.562  27.587  34.973  1.00  0.00     0.031 A 
ATOM     76  C   UNL A   1      43.858  25.301  34.663  1.00  0.00     0.131 A 
ATOM     77  C   UNL A   1      44.732  27.333  36.335  1.00  0.00     0.055 A 
ATOM     78  C   UNL A   1      44.016  25.055  36.029  1.00  0.00     0.041 A 
ATOM     79  F   UNL A   1      43.461  24.290  33.875  1.00  0.00    -0.206 F 
ATOM     80  C   UNL A   1      44.471  26.071  36.871  1.00  0.00     0.022 A 
BRANCH  77  81
ATOM     81  S   UNL A   1      45.380  28.675  37.361  1.00  0.00     0.124 S 
ATOM     82  O   UNL A   1      44.758  28.399  38.648  1.00  0.00    -0.237 OA
ATOM     83  O   UNL A   1      46.817  28.437  37.279  1.00  0.00    -0.237 OA
ATOM     84  O   UNL A   1      44.907  29.879  36.678  1.00  0.00    -0.744 OA
ENDBRANCH  77  81
ENDBRANCH  60  74
BRANCH  61  85
ATOM     85  C   UNL A   1      44.165  33.606  28.627  1.00  0.00     0.023 A 
ATOM     86  C   UNL A   1      44.969  34.702  28.256  1.00  0.00     0.031 A 
ATOM     87  C   UNL A   1      43.057  33.919  29.452  1.00  0.00     0.131 A 
ATOM     88  C   UNL A   1      44.608  36.025  28.606  1.00  0.00     0.055 A 
ATOM     89  C   UNL A   1      42.666  35.233  29.748  1.00  0.00     0.041 A 
ATOM     90  F   UNL A   1      42.309  32.961  30.018  1.00  0.00    -0.206 F 
ATOM     91  C   UNL A   1      43.434  36.299  29.307  1.00  0.00     0.022 A 
BRANCH  88  92
ATOM     92  S   UNL A   1      45.674  37.412  28.115  1.00  0.00     0.124 S 
ATOM     93  O   UNL A   1      45.537  38.318  29.250  1.00  0.00    -0.237 OA
ATOM     94  O   UNL A   1      46.978  36.772  27.960  1.00  0.00    -0.237 OA
ATOM     95  O   UNL A   1      45.070  37.879  26.869  1.00  0.00    -0.744 OA
ENDBRANCH  88  92
ENDBRANCH  61  85
BRANCH  73  96
ATOM     96  C   UNL A   1      48.040  28.320  28.490  1.00  0.00     0.023 A 
ATOM     97  C   UNL A   1      47.443  28.037  27.251  1.00  0.00     0.031 A 
ATOM     98  C   UNL A   1      49.432  28.506  28.533  1.00  0.00     0.131 A 
ATOM     99  C   UNL A   1      48.230  27.991  26.091  1.00  0.00     0.055 A 
ATOM    100  C   UNL A   1      50.208  28.477  27.374  1.00  0.00     0.041 A 
ATOM    101  F   UNL A   1      50.063  28.755  29.694  1.00  0.00    -0.206 F 
ATOM    102  C   UNL A   1      49.606  28.229  26.143  1.00  0.00     0.022 A 
BRANCH  99 103
ATOM    103  S   UNL A   1      47.424  27.694  24.493  1.00  0.00     0.124 S 
ATOM    104  O   UNL A   1      48.551  27.723  23.562  1.00  0.00    -0.237 OA
ATOM    105  O   UNL A   1      46.787  26.400  24.686  1.00  0.00    -0.237 OA
ATOM    106  O   UNL A   1      46.496  28.820  24.369  1.00  0.00    -0.744 OA
ENDBRANCH  99 103
ENDBRANCH  73  96
ENDBRANCH  47  48
ENDBRANCH  40  42
ENDBRANCH  39  40
ENDBRANCH  38  39
ENDBRANCH   1  38
TORSDOF 20
ENDMDL
