MODEL 1
REMARK VINA RESULT:      -9.7      0.000      0.000
REMARK SMILES CC(C)[C@H](C(=O)OCCOC(=O)c1ccc(-c2c3nc(c(-c4cc(S(=O)(=O)[O-])ccc4F)c4ccc([nH]4)c(-c4cc(S(=O)(=O)[O-])ccc4F)c4nc(c(-c5cc(S(=O)(=O)[O-])ccc5F)c5ccc2[nH]5)C=C4)C=C3)cc1)[C@H](C)[C@@H](C)O
REMARK SMILES IDX 8 1 7 2 5 3 6 4 4 5 2 6 1 7 3 8 76 9 77 10 78 11 79 12 80 13
REMARK SMILES IDX 9 15 10 16 11 17 12 18 13 19 14 20 75 21 15 22 74 23 16 24
REMARK SMILES IDX 17 25 18 26 68 27 19 28 73 29 67 30 69 31 20 32 72 33 66 34
REMARK SMILES IDX 65 35 21 37 53 38 33 39 52 40 34 41 37 42 51 43 70 44 35 45
REMARK SMILES IDX 36 46 50 48 71 49 38 50 22 51 23 52 31 53 24 54 30 55 32 56
REMARK SMILES IDX 29 57 25 58 26 59 27 60 28 61 54 62 55 63 63 64 56 65 62 66
REMARK SMILES IDX 64 67 61 68 57 69 58 70 59 71 60 72 39 73 40 74 48 75 41 76
REMARK SMILES IDX 47 77 49 78 46 79 42 80 43 81 44 82 45 83
REMARK H PARENT 80 14 69 36 37 47
REMARK Flexibility Score: inf
ROOT
ATOM      1  C   UNL A   1      35.439  20.408  24.963  1.00  0.00     0.274 C 
ENDROOT
BRANCH   1   2
ATOM      2  O   UNL A   1      34.404  21.060  25.729  1.00  0.00    -0.462 OA
BRANCH   2   3
ATOM      3  C   UNL A   1      33.370  21.507  24.975  1.00  0.00     0.309 C 
ATOM      4  O   UNL A   1      32.842  20.841  24.088  1.00  0.00    -0.252 OA
BRANCH   3   5
ATOM      5  C   UNL A   1      32.902  22.925  25.293  1.00  0.00     0.107 C 
BRANCH   5   6
ATOM      6  C   UNL A   1      33.622  24.125  24.597  1.00  0.00    -0.003 C 
ATOM      7  C   UNL A   1      34.582  24.884  25.526  1.00  0.00     0.008 C 
ATOM      8  C   UNL A   1      34.332  23.857  23.277  1.00  0.00     0.008 C 
ENDBRANCH   5   6
BRANCH   5   9
ATOM      9  C   UNL A   1      31.336  22.971  25.426  1.00  0.00     0.029 C 
ATOM     10  C   UNL A   1      30.757  23.947  24.374  1.00  0.00     0.011 C 
BRANCH   9  11
ATOM     11  C   UNL A   1      30.808  23.304  26.849  1.00  0.00     0.115 C 
ATOM     12  C   UNL A   1      29.428  22.746  27.194  1.00  0.00     0.038 C 
BRANCH  11  13
ATOM     13  O   UNL A   1      31.684  22.754  27.833  1.00  0.00    -0.393 OA
ATOM     14  H   UNL A   1      31.487  23.147  28.697  1.00  0.00     0.210 HD
ENDBRANCH  11  13
ENDBRANCH   9  11
ENDBRANCH   5   9
ENDBRANCH   3   5
ENDBRANCH   2   3
ENDBRANCH   1   2
BRANCH   1  15
ATOM     15  C   UNL A   1      36.546  21.391  24.568  1.00  0.00     0.275 C 
BRANCH  15  16
ATOM     16  O   UNL A   1      37.221  21.896  25.734  1.00  0.00    -0.458 OA
BRANCH  16  17
ATOM     17  C   UNL A   1      38.499  21.474  25.892  1.00  0.00     0.338 C 
ATOM     18  O   UNL A   1      38.912  20.344  25.689  1.00  0.00    -0.246 OA
BRANCH  17  19
ATOM     19  C   UNL A   1      39.368  22.577  26.374  1.00  0.00     0.060 A 
ATOM     20  C   UNL A   1      40.405  22.368  27.289  1.00  0.00     0.016 A 
ATOM     21  C   UNL A   1      39.073  23.876  25.955  1.00  0.00     0.016 A 
ATOM     22  C   UNL A   1      41.098  23.454  27.833  1.00  0.00     0.010 A 
ATOM     23  C   UNL A   1      39.821  24.953  26.438  1.00  0.00     0.010 A 
ATOM     24  C   UNL A   1      40.826  24.759  27.401  1.00  0.00    -0.014 A 
BRANCH  24  25
ATOM     25  C   UNL A   1      41.567  25.938  27.931  1.00  0.00     0.031 A 
ATOM     26  C   UNL A   1      40.829  27.006  28.697  1.00  0.00     0.074 A 
ATOM     27  C   UNL A   1      42.880  26.092  27.666  1.00  0.00     0.049 A 
ATOM     28  N   UNL A   1      41.209  28.218  29.009  1.00  0.00    -0.248 NA
ATOM     29  C   UNL A   1      39.476  26.661  29.156  1.00  0.00     0.031 C 
ATOM     30  C   UNL A   1      43.726  25.119  26.974  1.00  0.00     0.029 A 
ATOM     31  N   UNL A   1      43.726  27.144  27.922  1.00  0.00    -0.354 N 
ATOM     32  C   UNL A   1      40.126  28.800  29.662  1.00  0.00     0.074 A 
ATOM     33  C   UNL A   1      39.072  27.805  29.688  1.00  0.00     0.031 C 
ATOM     34  C   UNL A   1      44.965  25.619  26.854  1.00  0.00     0.029 A 
ATOM     35  C   UNL A   1      44.982  26.979  27.383  1.00  0.00     0.049 A 
ATOM     36  H   UNL A   1      43.461  27.938  28.440  1.00  0.00     0.167 HD
ATOM     37  C   UNL A   1      40.023  30.048  30.184  1.00  0.00     0.034 A 
ATOM     38  C   UNL A   1      46.012  27.841  27.269  1.00  0.00     0.034 A 
ATOM     39  C   UNL A   1      41.091  31.020  30.164  1.00  0.00     0.049 A 
ATOM     40  C   UNL A   1      45.855  29.243  27.794  1.00  0.00     0.074 A 
ATOM     41  C   UNL A   1      41.102  32.304  30.682  1.00  0.00     0.029 A 
ATOM     42  N   UNL A   1      42.342  30.815  29.594  1.00  0.00    -0.354 N 
ATOM     43  N   UNL A   1      44.813  29.797  28.368  1.00  0.00    -0.248 NA
ATOM     44  C   UNL A   1      47.010  30.137  27.647  1.00  0.00     0.031 C 
ATOM     45  C   UNL A   1      42.333  32.895  30.374  1.00  0.00     0.029 A 
ATOM     46  C   UNL A   1      43.120  31.956  29.725  1.00  0.00     0.049 A 
ATOM     47  H   UNL A   1      42.635  29.981  29.161  1.00  0.00     0.167 HD
ATOM     48  C   UNL A   1      45.197  31.101  28.670  1.00  0.00     0.074 A 
ATOM     49  C   UNL A   1      46.568  31.244  28.226  1.00  0.00     0.031 C 
ATOM     50  C   UNL A   1      44.481  32.090  29.264  1.00  0.00     0.034 A 
BRANCH  37  51
ATOM     51  C   UNL A   1      38.687  30.452  30.765  1.00  0.00     0.023 A 
ATOM     52  C   UNL A   1      37.724  31.143  30.011  1.00  0.00     0.031 A 
ATOM     53  C   UNL A   1      38.384  30.157  32.106  1.00  0.00     0.131 A 
ATOM     54  C   UNL A   1      36.534  31.573  30.620  1.00  0.00     0.055 A 
ATOM     55  C   UNL A   1      37.169  30.522  32.687  1.00  0.00     0.041 A 
ATOM     56  F   UNL A   1      39.273  29.516  32.882  1.00  0.00    -0.206 F 
ATOM     57  C   UNL A   1      36.240  31.248  31.947  1.00  0.00     0.022 A 
BRANCH  54  58
ATOM     58  S   UNL A   1      35.433  32.678  29.693  1.00  0.00     0.124 S 
ATOM     59  O   UNL A   1      36.386  33.439  28.889  1.00  0.00    -0.237 OA
ATOM     60  O   UNL A   1      34.587  31.740  28.964  1.00  0.00    -0.237 OA
ATOM     61  O   UNL A   1      34.758  33.445  30.738  1.00  0.00    -0.744 OA
ENDBRANCH  54  58
ENDBRANCH  37  51
BRANCH  38  62
ATOM     62  C   UNL A   1      47.260  27.428  26.565  1.00  0.00     0.023 A 
ATOM     63  C   UNL A   1      48.217  26.623  27.201  1.00  0.00     0.031 A 
ATOM     64  C   UNL A   1      47.523  27.859  25.252  1.00  0.00     0.131 A 
ATOM     65  C   UNL A   1      49.410  26.302  26.536  1.00  0.00     0.055 A 
ATOM     66  C   UNL A   1      48.689  27.494  24.577  1.00  0.00     0.041 A 
ATOM     67  F   UNL A   1      46.639  28.629  24.599  1.00  0.00    -0.206 F 
ATOM     68  C   UNL A   1      49.646  26.719  25.224  1.00  0.00     0.022 A 
BRANCH  65  69
ATOM     69  S   UNL A   1      50.687  25.385  27.440  1.00  0.00     0.124 S 
ATOM     70  O   UNL A   1      51.515  24.877  26.351  1.00  0.00    -0.237 OA
ATOM     71  O   UNL A   1      51.284  26.430  28.264  1.00  0.00    -0.237 OA
ATOM     72  O   UNL A   1      49.928  24.374  28.171  1.00  0.00    -0.744 OA
ENDBRANCH  65  69
ENDBRANCH  38  62
BRANCH  50  73
ATOM     73  C   UNL A   1      45.197  33.394  29.508  1.00  0.00     0.023 A 
ATOM     74  C   UNL A   1      45.148  34.450  28.581  1.00  0.00     0.031 A 
ATOM     75  C   UNL A   1      45.957  33.571  30.676  1.00  0.00     0.131 A 
ATOM     76  C   UNL A   1      45.889  35.618  28.815  1.00  0.00     0.055 A 
ATOM     77  C   UNL A   1      46.651  34.755  30.929  1.00  0.00     0.041 A 
ATOM     78  F   UNL A   1      46.040  32.593  31.593  1.00  0.00    -0.206 F 
ATOM     79  C   UNL A   1      46.629  35.782  29.990  1.00  0.00     0.022 A 
BRANCH  76  80
ATOM     80  S   UNL A   1      45.941  36.892  27.525  1.00  0.00     0.124 S 
ATOM     81  O   UNL A   1      44.688  36.655  26.814  1.00  0.00    -0.237 OA
ATOM     82  O   UNL A   1      46.008  38.124  28.304  1.00  0.00    -0.237 OA
ATOM     83  O   UNL A   1      47.151  36.569  26.772  1.00  0.00    -0.744 OA
ENDBRANCH  76  80
ENDBRANCH  50  73
ENDBRANCH  24  25
ENDBRANCH  17  19
ENDBRANCH  16  17
ENDBRANCH  15  16
ENDBRANCH   1  15
TORSDOF 18
ENDMDL
MODEL 2
REMARK VINA RESULT:      -9.7      4.840      9.899
REMARK SMILES CC(C)[C@H](C(=O)OCCOC(=O)c1ccc(-c2c3nc(c(-c4cc(S(=O)(=O)[O-])ccc4F)c4ccc([nH]4)c(-c4cc(S(=O)(=O)[O-])ccc4F)c4nc(c(-c5cc(S(=O)(=O)[O-])ccc5F)c5ccc2[nH]5)C=C4)C=C3)cc1)[C@H](C)[C@@H](C)O
REMARK SMILES IDX 8 1 7 2 5 3 6 4 4 5 2 6 1 7 3 8 76 9 77 10 78 11 79 12 80 13
REMARK SMILES IDX 9 15 10 16 11 17 12 18 13 19 14 20 75 21 15 22 74 23 16 24
REMARK SMILES IDX 17 25 18 26 68 27 19 28 73 29 67 30 69 31 20 32 72 33 66 34
REMARK SMILES IDX 65 35 21 37 53 38 33 39 52 40 34 41 37 42 51 43 70 44 35 45
REMARK SMILES IDX 36 46 50 48 71 49 38 50 22 51 23 52 31 53 24 54 30 55 32 56
REMARK SMILES IDX 29 57 25 58 26 59 27 60 28 61 54 62 55 63 63 64 56 65 62 66
REMARK SMILES IDX 64 67 61 68 57 69 58 70 59 71 60 72 39 73 40 74 48 75 41 76
REMARK SMILES IDX 47 77 49 78 46 79 42 80 43 81 44 82 45 83
REMARK H PARENT 80 14 69 36 37 47
REMARK Flexibility Score: inf
ROOT
ATOM      1  C   UNL A   1      33.080  28.757  24.905  1.00  0.00     0.274 C 
ENDROOT
BRANCH   1   2
ATOM      2  O   UNL A   1      32.837  27.590  25.718  1.00  0.00    -0.462 OA
BRANCH   2   3
ATOM      3  C   UNL A   1      33.053  26.421  25.067  1.00  0.00     0.309 C 
ATOM      4  O   UNL A   1      34.090  26.164  24.461  1.00  0.00    -0.252 OA
BRANCH   3   5
ATOM      5  C   UNL A   1      31.895  25.427  25.121  1.00  0.00     0.107 C 
BRANCH   5   6
ATOM      6  C   UNL A   1      30.905  25.363  23.914  1.00  0.00    -0.003 C 
ATOM      7  C   UNL A   1      29.575  26.087  24.175  1.00  0.00     0.008 C 
ATOM      8  C   UNL A   1      31.426  25.781  22.546  1.00  0.00     0.008 C 
ENDBRANCH   5   6
BRANCH   5   9
ATOM      9  C   UNL A   1      32.361  24.075  25.775  1.00  0.00     0.029 C 
ATOM     10  C   UNL A   1      32.608  23.023  24.667  1.00  0.00     0.011 C 
BRANCH   9  11
ATOM     11  C   UNL A   1      31.414  23.517  26.875  1.00  0.00     0.115 C 
ATOM     12  C   UNL A   1      30.254  22.656  26.380  1.00  0.00     0.038 C 
BRANCH  11  13
ATOM     13  O   UNL A   1      32.146  22.673  27.764  1.00  0.00    -0.393 OA
ATOM     14  H   UNL A   1      32.737  23.213  28.310  1.00  0.00     0.210 HD
ENDBRANCH  11  13
ENDBRANCH   9  11
ENDBRANCH   5   9
ENDBRANCH   3   5
ENDBRANCH   2   3
ENDBRANCH   1   2
BRANCH   1  15
ATOM     15  C   UNL A   1      32.207  29.937  25.343  1.00  0.00     0.275 C 
BRANCH  15  16
ATOM     16  O   UNL A   1      32.337  30.171  26.757  1.00  0.00    -0.458 OA
BRANCH  16  17
ATOM     17  C   UNL A   1      32.956  31.327  27.099  1.00  0.00     0.338 C 
ATOM     18  O   UNL A   1      32.505  32.452  26.957  1.00  0.00    -0.246 OA
BRANCH  17  19
ATOM     19  C   UNL A   1      34.301  31.063  27.670  1.00  0.00     0.060 A 
ATOM     20  C   UNL A   1      34.726  29.778  28.021  1.00  0.00     0.016 A 
ATOM     21  C   UNL A   1      35.127  32.157  27.939  1.00  0.00     0.016 A 
ATOM     22  C   UNL A   1      35.936  29.593  28.697  1.00  0.00     0.010 A 
ATOM     23  C   UNL A   1      36.372  31.962  28.540  1.00  0.00     0.010 A 
ATOM     24  C   UNL A   1      36.783  30.681  28.949  1.00  0.00    -0.014 A 
BRANCH  24  25
ATOM     25  C   UNL A   1      38.096  30.519  29.634  1.00  0.00     0.031 A 
ATOM     26  C   UNL A   1      39.150  29.625  29.035  1.00  0.00     0.074 A 
ATOM     27  C   UNL A   1      38.319  31.109  30.826  1.00  0.00     0.049 A 
ATOM     28  N   UNL A   1      40.234  29.136  29.580  1.00  0.00    -0.248 NA
ATOM     29  C   UNL A   1      38.942  29.216  27.639  1.00  0.00     0.031 C 
ATOM     30  C   UNL A   1      37.404  32.032  31.499  1.00  0.00     0.029 A 
ATOM     31  N   UNL A   1      39.375  30.994  31.697  1.00  0.00    -0.354 N 
ATOM     32  C   UNL A   1      40.816  28.324  28.611  1.00  0.00     0.074 A 
ATOM     33  C   UNL A   1      39.953  28.382  27.447  1.00  0.00     0.031 C 
ATOM     34  C   UNL A   1      37.933  32.394  32.678  1.00  0.00     0.029 A 
ATOM     35  C   UNL A   1      39.180  31.665  32.883  1.00  0.00     0.049 A 
ATOM     36  H   UNL A   1      40.190  30.481  31.494  1.00  0.00     0.167 HD
ATOM     37  C   UNL A   1      41.959  27.597  28.689  1.00  0.00     0.034 A 
ATOM     38  C   UNL A   1      39.889  31.651  34.030  1.00  0.00     0.034 A 
ATOM     39  C   UNL A   1      42.815  27.566  29.852  1.00  0.00     0.049 A 
ATOM     40  C   UNL A   1      41.117  30.785  34.120  1.00  0.00     0.074 A 
ATOM     41  C   UNL A   1      44.006  26.881  30.031  1.00  0.00     0.029 A 
ATOM     42  N   UNL A   1      42.572  28.250  31.037  1.00  0.00    -0.354 N 
ATOM     43  N   UNL A   1      41.634  29.988  33.215  1.00  0.00    -0.248 NA
ATOM     44  C   UNL A   1      41.853  30.812  35.391  1.00  0.00     0.031 C 
ATOM     45  C   UNL A   1      44.450  27.103  31.340  1.00  0.00     0.029 A 
ATOM     46  C   UNL A   1      43.575  27.983  31.958  1.00  0.00     0.049 A 
ATOM     47  H   UNL A   1      41.801  28.839  31.200  1.00  0.00     0.167 HD
ATOM     48  C   UNL A   1      42.768  29.434  33.802  1.00  0.00     0.074 A 
ATOM     49  C   UNL A   1      42.866  29.998  35.132  1.00  0.00     0.031 C 
ATOM     50  C   UNL A   1      43.651  28.541  33.286  1.00  0.00     0.034 A 
BRANCH  37  51
ATOM     51  C   UNL A   1      42.314  26.727  27.505  1.00  0.00     0.023 A 
ATOM     52  C   UNL A   1      41.934  25.377  27.430  1.00  0.00     0.031 A 
ATOM     53  C   UNL A   1      43.066  27.258  26.442  1.00  0.00     0.131 A 
ATOM     54  C   UNL A   1      42.362  24.587  26.351  1.00  0.00     0.055 A 
ATOM     55  C   UNL A   1      43.427  26.488  25.335  1.00  0.00     0.041 A 
ATOM     56  F   UNL A   1      43.475  28.537  26.466  1.00  0.00    -0.206 F 
ATOM     57  C   UNL A   1      43.087  25.140  25.291  1.00  0.00     0.022 A 
BRANCH  54  58
ATOM     58  S   UNL A   1      42.071  22.798  26.413  1.00  0.00     0.124 S 
ATOM     59  O   UNL A   1      42.552  22.375  25.100  1.00  0.00    -0.237 OA
ATOM     60  O   UNL A   1      42.881  22.386  27.553  1.00  0.00    -0.237 OA
ATOM     61  O   UNL A   1      40.626  22.690  26.603  1.00  0.00    -0.744 OA
ENDBRANCH  54  58
ENDBRANCH  37  51
BRANCH  38  62
ATOM     62  C   UNL A   1      39.415  32.425  35.212  1.00  0.00     0.023 A 
ATOM     63  C   UNL A   1      39.849  33.741  35.436  1.00  0.00     0.031 A 
ATOM     64  C   UNL A   1      38.543  31.847  36.151  1.00  0.00     0.131 A 
ATOM     65  C   UNL A   1      39.436  34.424  36.590  1.00  0.00     0.055 A 
ATOM     66  C   UNL A   1      38.095  32.548  37.272  1.00  0.00     0.041 A 
ATOM     67  F   UNL A   1      38.098  30.592  35.983  1.00  0.00    -0.206 F 
ATOM     68  C   UNL A   1      38.551  33.842  37.502  1.00  0.00     0.022 A 
BRANCH  65  69
ATOM     69  S   UNL A   1      40.131  36.065  36.923  1.00  0.00     0.124 S 
ATOM     70  O   UNL A   1      39.796  36.783  35.698  1.00  0.00    -0.237 OA
ATOM     71  O   UNL A   1      39.402  36.466  38.121  1.00  0.00    -0.237 OA
ATOM     72  O   UNL A   1      41.554  35.800  37.121  1.00  0.00    -0.744 OA
ENDBRANCH  65  69
ENDBRANCH  38  62
BRANCH  50  73
ATOM     73  C   UNL A   1      44.825  28.167  34.155  1.00  0.00     0.023 A 
ATOM     74  C   UNL A   1      44.723  27.178  35.150  1.00  0.00     0.031 A 
ATOM     75  C   UNL A   1      46.055  28.827  33.999  1.00  0.00     0.131 A 
ATOM     76  C   UNL A   1      45.820  26.914  35.984  1.00  0.00     0.055 A 
ATOM     77  C   UNL A   1      47.159  28.524  34.798  1.00  0.00     0.041 A 
ATOM     78  F   UNL A   1      46.205  29.782  33.066  1.00  0.00    -0.206 F 
ATOM     79  C   UNL A   1      47.041  27.571  35.805  1.00  0.00     0.022 A 
BRANCH  76  80
ATOM     80  S   UNL A   1      45.607  25.756  37.364  1.00  0.00     0.124 S 
ATOM     81  O   UNL A   1      46.981  25.569  37.819  1.00  0.00    -0.237 OA
ATOM     82  O   UNL A   1      44.734  26.500  38.266  1.00  0.00    -0.237 OA
ATOM     83  O   UNL A   1      44.997  24.584  36.738  1.00  0.00    -0.744 OA
ENDBRANCH  76  80
ENDBRANCH  50  73
ENDBRANCH  24  25
ENDBRANCH  17  19
ENDBRANCH  16  17
ENDBRANCH  15  16
ENDBRANCH   1  15
TORSDOF 18
ENDMDL
MODEL 3
REMARK VINA RESULT:      -9.6      5.234      9.882
REMARK SMILES CC(C)[C@H](C(=O)OCCOC(=O)c1ccc(-c2c3nc(c(-c4cc(S(=O)(=O)[O-])ccc4F)c4ccc([nH]4)c(-c4cc(S(=O)(=O)[O-])ccc4F)c4nc(c(-c5cc(S(=O)(=O)[O-])ccc5F)c5ccc2[nH]5)C=C4)C=C3)cc1)[C@H](C)[C@@H](C)O
REMARK SMILES IDX 8 1 7 2 5 3 6 4 4 5 2 6 1 7 3 8 76 9 77 10 78 11 79 12 80 13
REMARK SMILES IDX 9 15 10 16 11 17 12 18 13 19 14 20 75 21 15 22 74 23 16 24
REMARK SMILES IDX 17 25 18 26 68 27 19 28 73 29 67 30 69 31 20 32 72 33 66 34
REMARK SMILES IDX 65 35 21 37 53 38 33 39 52 40 34 41 37 42 51 43 70 44 35 45
REMARK SMILES IDX 36 46 50 48 71 49 38 50 22 51 23 52 31 53 24 54 30 55 32 56
REMARK SMILES IDX 29 57 25 58 26 59 27 60 28 61 54 62 55 63 63 64 56 65 62 66
REMARK SMILES IDX 64 67 61 68 57 69 58 70 59 71 60 72 39 73 40 74 48 75 41 76
REMARK SMILES IDX 47 77 49 78 46 79 42 80 43 81 44 82 45 83
REMARK H PARENT 80 14 69 36 37 47
REMARK Flexibility Score: inf
ROOT
ATOM      1  C   UNL A   1      33.669  28.803  24.483  1.00  0.00     0.274 C 
ENDROOT
BRANCH   1   2
ATOM      2  O   UNL A   1      33.432  27.436  24.084  1.00  0.00    -0.462 OA
BRANCH   2   3
ATOM      3  C   UNL A   1      33.550  26.546  25.099  1.00  0.00     0.309 C 
ATOM      4  O   UNL A   1      34.187  26.770  26.125  1.00  0.00    -0.252 OA
BRANCH   3   5
ATOM      5  C   UNL A   1      32.840  25.213  24.877  1.00  0.00     0.107 C 
BRANCH   5   6
ATOM      6  C   UNL A   1      31.488  24.951  25.615  1.00  0.00    -0.003 C 
ATOM      7  C   UNL A   1      31.622  24.013  26.824  1.00  0.00     0.008 C 
ATOM      8  C   UNL A   1      30.659  26.160  26.025  1.00  0.00     0.008 C 
ENDBRANCH   5   6
BRANCH   5   9
ATOM      9  C   UNL A   1      32.968  24.765  23.374  1.00  0.00     0.029 C 
ATOM     10  C   UNL A   1      31.600  24.926  22.669  1.00  0.00     0.011 C 
BRANCH   9  11
ATOM     11  C   UNL A   1      33.543  23.336  23.162  1.00  0.00     0.115 C 
ATOM     12  C   UNL A   1      32.622  22.348  22.449  1.00  0.00     0.038 C 
BRANCH  11  13
ATOM     13  O   UNL A   1      34.714  23.400  22.348  1.00  0.00    -0.393 OA
ATOM     14  H   UNL A   1      34.614  22.805  21.590  1.00  0.00     0.210 HD
ENDBRANCH  11  13
ENDBRANCH   9  11
ENDBRANCH   5   9
ENDBRANCH   3   5
ENDBRANCH   2   3
ENDBRANCH   1   2
BRANCH   1  15
ATOM     15  C   UNL A   1      32.415  29.432  25.099  1.00  0.00     0.275 C 
BRANCH  15  16
ATOM     16  O   UNL A   1      32.566  29.583  26.522  1.00  0.00    -0.458 OA
BRANCH  16  17
ATOM     17  C   UNL A   1      32.878  30.833  26.941  1.00  0.00     0.338 C 
ATOM     18  O   UNL A   1      32.218  31.841  26.749  1.00  0.00    -0.246 OA
BRANCH  17  19
ATOM     19  C   UNL A   1      34.170  30.842  27.673  1.00  0.00     0.060 A 
ATOM     20  C   UNL A   1      34.969  31.986  27.770  1.00  0.00     0.016 A 
ATOM     21  C   UNL A   1      34.632  29.636  28.205  1.00  0.00     0.016 A 
ATOM     22  C   UNL A   1      36.246  31.912  28.333  1.00  0.00     0.010 A 
ATOM     23  C   UNL A   1      35.875  29.582  28.841  1.00  0.00     0.010 A 
ATOM     24  C   UNL A   1      36.708  30.713  28.892  1.00  0.00    -0.014 A 
BRANCH  24  25
ATOM     25  C   UNL A   1      38.049  30.604  29.533  1.00  0.00     0.031 A 
ATOM     26  C   UNL A   1      39.112  29.739  28.906  1.00  0.00     0.074 A 
ATOM     27  C   UNL A   1      38.293  31.215  30.709  1.00  0.00     0.049 A 
ATOM     28  N   UNL A   1      40.230  29.293  29.418  1.00  0.00    -0.248 NA
ATOM     29  C   UNL A   1      38.868  29.307  27.523  1.00  0.00     0.031 C 
ATOM     30  C   UNL A   1      37.372  32.115  31.405  1.00  0.00     0.029 A 
ATOM     31  N   UNL A   1      39.382  31.147  31.544  1.00  0.00    -0.354 N 
ATOM     32  C   UNL A   1      40.805  28.490  28.437  1.00  0.00     0.074 A 
ATOM     33  C   UNL A   1      39.901  28.505  27.305  1.00  0.00     0.031 C 
ATOM     34  C   UNL A   1      37.929  32.509  32.560  1.00  0.00     0.029 A 
ATOM     35  C   UNL A   1      39.207  31.825  32.728  1.00  0.00     0.049 A 
ATOM     36  H   UNL A   1      40.207  30.659  31.317  1.00  0.00     0.167 HD
ATOM     37  C   UNL A   1      41.974  27.803  28.483  1.00  0.00     0.034 A 
ATOM     38  C   UNL A   1      39.955  31.849  33.849  1.00  0.00     0.034 A 
ATOM     39  C   UNL A   1      42.871  27.815  29.614  1.00  0.00     0.049 A 
ATOM     40  C   UNL A   1      41.215  31.026  33.905  1.00  0.00     0.074 A 
ATOM     41  C   UNL A   1      44.090  27.173  29.758  1.00  0.00     0.029 A 
ATOM     42  N   UNL A   1      42.647  28.505  30.800  1.00  0.00    -0.354 N 
ATOM     43  N   UNL A   1      41.727  30.236  32.991  1.00  0.00    -0.248 NA
ATOM     44  C   UNL A   1      41.994  31.094  35.149  1.00  0.00     0.031 C 
ATOM     45  C   UNL A   1      44.572  27.426  31.048  1.00  0.00     0.029 A 
ATOM     46  C   UNL A   1      43.690  28.283  31.687  1.00  0.00     0.049 A 
ATOM     47  H   UNL A   1      41.862  29.070  30.983  1.00  0.00     0.167 HD
ATOM     48  C   UNL A   1      42.899  29.728  33.543  1.00  0.00     0.074 A 
ATOM     49  C   UNL A   1      43.024  30.312  34.862  1.00  0.00     0.031 C 
ATOM     50  C   UNL A   1      43.794  28.860  33.006  1.00  0.00     0.034 A 
BRANCH  37  51
ATOM     51  C   UNL A   1      42.317  26.932  27.296  1.00  0.00     0.023 A 
ATOM     52  C   UNL A   1      42.005  25.562  27.261  1.00  0.00     0.031 A 
ATOM     53  C   UNL A   1      42.988  27.482  26.189  1.00  0.00     0.131 A 
ATOM     54  C   UNL A   1      42.421  24.777  26.174  1.00  0.00     0.055 A 
ATOM     55  C   UNL A   1      43.335  26.712  25.078  1.00  0.00     0.041 A 
ATOM     56  F   UNL A   1      43.330  28.780  26.173  1.00  0.00    -0.206 F 
ATOM     57  C   UNL A   1      43.065  25.347  25.072  1.00  0.00     0.022 A 
BRANCH  54  58
ATOM     58  S   UNL A   1      42.229  22.976  26.278  1.00  0.00     0.124 S 
ATOM     59  O   UNL A   1      42.694  22.552  24.959  1.00  0.00    -0.237 OA
ATOM     60  O   UNL A   1      43.092  22.630  27.401  1.00  0.00    -0.237 OA
ATOM     61  O   UNL A   1      40.798  22.796  26.513  1.00  0.00    -0.744 OA
ENDBRANCH  54  58
ENDBRANCH  37  51
BRANCH  38  62
ATOM     62  C   UNL A   1      39.498  32.621  35.039  1.00  0.00     0.023 A 
ATOM     63  C   UNL A   1      38.833  31.988  36.100  1.00  0.00     0.031 A 
ATOM     64  C   UNL A   1      39.695  34.011  35.116  1.00  0.00     0.131 A 
ATOM     65  C   UNL A   1      38.358  32.750  37.179  1.00  0.00     0.055 A 
ATOM     66  C   UNL A   1      39.265  34.757  36.215  1.00  0.00     0.041 A 
ATOM     67  F   UNL A   1      40.326  34.665  34.128  1.00  0.00    -0.206 F 
ATOM     68  C   UNL A   1      38.583  34.127  37.250  1.00  0.00     0.022 A 
BRANCH  65  69
ATOM     69  S   UNL A   1      37.377  31.923  38.460  1.00  0.00     0.124 S 
ATOM     70  O   UNL A   1      36.184  32.762  38.507  1.00  0.00    -0.237 OA
ATOM     71  O   UNL A   1      37.201  30.591  37.894  1.00  0.00    -0.237 OA
ATOM     72  O   UNL A   1      38.233  31.989  39.642  1.00  0.00    -0.744 OA
ENDBRANCH  65  69
ENDBRANCH  38  62
BRANCH  50  73
ATOM     73  C   UNL A   1      45.009  28.536  33.837  1.00  0.00     0.023 A 
ATOM     74  C   UNL A   1      45.037  27.433  34.709  1.00  0.00     0.031 A 
ATOM     75  C   UNL A   1      46.147  29.359  33.770  1.00  0.00     0.131 A 
ATOM     76  C   UNL A   1      46.163  27.212  35.517  1.00  0.00     0.055 A 
ATOM     77  C   UNL A   1      47.283  29.104  34.539  1.00  0.00     0.041 A 
ATOM     78  F   UNL A   1      46.171  30.427  32.957  1.00  0.00    -0.206 F 
ATOM     79  C   UNL A   1      47.291  28.032  35.427  1.00  0.00     0.022 A 
BRANCH  76  80
ATOM     80  S   UNL A   1      46.103  25.883  36.751  1.00  0.00     0.124 S 
ATOM     81  O   UNL A   1      46.411  24.707  35.945  1.00  0.00    -0.237 OA
ATOM     82  O   UNL A   1      47.133  26.292  37.701  1.00  0.00    -0.237 OA
ATOM     83  O   UNL A   1      44.734  25.947  37.258  1.00  0.00    -0.744 OA
ENDBRANCH  76  80
ENDBRANCH  50  73
ENDBRANCH  24  25
ENDBRANCH  17  19
ENDBRANCH  16  17
ENDBRANCH  15  16
ENDBRANCH   1  15
TORSDOF 18
ENDMDL
