MODEL 1
REMARK VINA RESULT:     -10.6      0.000      0.000
REMARK SMILES CCc1[nH]nc(-n2cccc2)c1C(=O)OCCOC(=O)c1ccc(-c2c3nc(c(-c4cc(S(=O)(=O)[O-])ccc4F)c4ccc([nH]4)c(-c4cc(S(=O)(=O)[O-])ccc4F)c4nc(c(-c5cc(S(=O)(=O)[O-])ccc5F)c5ccc2[nH]5)C=C4)C=C3)cc1
REMARK SMILES IDX 17 1 16 2 15 3 13 4 14 5 12 6 3 7 4 8 5 9 6 11 2 12 1 13
REMARK SMILES IDX 7 14 8 15 11 16 9 17 10 18 18 19 19 20 20 21 21 22 22 23
REMARK SMILES IDX 83 24 23 25 82 26 24 27 25 28 26 29 76 30 27 31 81 32 75 33
REMARK SMILES IDX 77 34 28 35 80 36 74 37 73 38 29 40 61 41 41 42 60 43 42 44
REMARK SMILES IDX 45 45 59 46 78 47 43 48 44 49 58 51 79 52 46 53 30 54 31 55
REMARK SMILES IDX 39 56 32 57 38 58 40 59 37 60 33 61 34 62 35 63 36 64 62 65
REMARK SMILES IDX 63 66 71 67 64 68 70 69 72 70 69 71 65 72 66 73 67 74 68 75
REMARK SMILES IDX 47 76 48 77 56 78 49 79 55 80 57 81 54 82 50 83 51 84 52 85
REMARK SMILES IDX 53 86
REMARK H PARENT 4 10 77 39 45 50
REMARK Flexibility Score: inf
ROOT
ATOM      1  C   UNL A   1      37.033  31.953  33.821  1.00  0.00     0.275 C 
ENDROOT
BRANCH   1   2
ATOM      2  C   UNL A   1      36.201  33.239  33.721  1.00  0.00     0.275 C 
BRANCH   2   3
ATOM      3  O   UNL A   1      35.833  33.614  32.375  1.00  0.00    -0.458 OA
BRANCH   3   4
ATOM      4  C   UNL A   1      34.497  33.625  32.045  1.00  0.00     0.343 C 
ATOM      5  O   UNL A   1      33.661  32.953  32.614  1.00  0.00    -0.246 OA
BRANCH   4   6
ATOM      6  C   UNL A   1      34.179  34.543  30.945  1.00  0.00     0.125 A 
ATOM      7  C   UNL A   1      33.535  35.780  30.983  1.00  0.00     0.052 A 
ATOM      8  N   UNL A   1      33.435  36.201  29.681  1.00  0.00    -0.280 N 
ATOM      9  N   UNL A   1      33.912  35.333  28.787  1.00  0.00    -0.156 NA
ATOM     10  H   UNL A   1      33.043  37.068  29.429  1.00  0.00     0.190 HD
ATOM     11  C   UNL A   1      34.380  34.339  29.549  1.00  0.00     0.173 A 
BRANCH   7  12
ATOM     12  C   UNL A   1      32.981  36.626  32.083  1.00  0.00     0.053 C 
ATOM     13  C   UNL A   1      34.035  36.988  33.122  1.00  0.00     0.011 C 
ENDBRANCH   7  12
BRANCH  11  14
ATOM     14  N   UNL A   1      34.898  33.203  28.872  1.00  0.00    -0.306 N 
ATOM     15  C   UNL A   1      36.223  32.813  28.870  1.00  0.00     0.093 A 
ATOM     16  C   UNL A   1      34.170  32.215  28.244  1.00  0.00     0.093 A 
ATOM     17  C   UNL A   1      36.353  31.684  28.093  1.00  0.00     0.020 A 
ATOM     18  C   UNL A   1      35.047  31.276  27.737  1.00  0.00     0.020 A 
ENDBRANCH  11  14
ENDBRANCH   4   6
ENDBRANCH   3   4
ENDBRANCH   2   3
ENDBRANCH   1   2
BRANCH   1  19
ATOM     19  O   UNL A   1      38.406  32.205  34.129  1.00  0.00    -0.458 OA
BRANCH  19  20
ATOM     20  C   UNL A   1      39.098  32.506  33.015  1.00  0.00     0.338 C 
ATOM     21  O   UNL A   1      39.451  33.622  32.655  1.00  0.00    -0.246 OA
BRANCH  20  22
ATOM     22  C   UNL A   1      39.274  31.374  32.121  1.00  0.00     0.060 A 
ATOM     23  C   UNL A   1      39.952  30.306  32.712  1.00  0.00     0.016 A 
ATOM     24  C   UNL A   1      39.197  31.547  30.735  1.00  0.00     0.016 A 
ATOM     25  C   UNL A   1      40.740  29.512  31.928  1.00  0.00     0.010 A 
ATOM     26  C   UNL A   1      39.980  30.733  29.937  1.00  0.00     0.010 A 
ATOM     27  C   UNL A   1      40.786  29.766  30.554  1.00  0.00    -0.014 A 
BRANCH  27  28
ATOM     28  C   UNL A   1      41.539  28.788  29.771  1.00  0.00     0.031 A 
ATOM     29  C   UNL A   1      42.956  29.394  29.507  1.00  0.00     0.074 A 
ATOM     30  C   UNL A   1      40.817  27.679  29.389  1.00  0.00     0.049 A 
ATOM     31  N   UNL A   1      43.813  29.170  28.563  1.00  0.00    -0.248 NA
ATOM     32  C   UNL A   1      43.465  30.504  30.388  1.00  0.00     0.031 C 
ATOM     33  C   UNL A   1      39.418  27.354  29.796  1.00  0.00     0.029 A 
ATOM     34  N   UNL A   1      41.083  26.598  28.582  1.00  0.00    -0.354 N 
ATOM     35  C   UNL A   1      45.024  29.818  28.919  1.00  0.00     0.074 A 
ATOM     36  C   UNL A   1      44.696  30.755  29.940  1.00  0.00     0.031 C 
ATOM     37  C   UNL A   1      38.952  26.247  29.161  1.00  0.00     0.029 A 
ATOM     38  C   UNL A   1      39.992  25.707  28.307  1.00  0.00     0.049 A 
ATOM     39  H   UNL A   1      41.981  26.443  28.209  1.00  0.00     0.167 HD
ATOM     40  C   UNL A   1      46.245  29.390  28.479  1.00  0.00     0.034 A 
ATOM     41  C   UNL A   1      39.962  24.645  27.426  1.00  0.00     0.034 A 
ATOM     42  C   UNL A   1      46.048  28.329  27.549  1.00  0.00     0.049 A 
ATOM     43  C   UNL A   1      41.377  24.519  27.048  1.00  0.00     0.074 A 
ATOM     44  C   UNL A   1      45.546  28.325  26.276  1.00  0.00     0.029 A 
ATOM     45  N   UNL A   1      45.992  27.055  28.071  1.00  0.00    -0.354 N 
ATOM     46  N   UNL A   1      42.307  24.096  27.847  1.00  0.00    -0.248 NA
ATOM     47  C   UNL A   1      41.815  25.015  25.740  1.00  0.00     0.031 C 
ATOM     48  C   UNL A   1      44.685  27.213  26.310  1.00  0.00     0.029 A 
ATOM     49  C   UNL A   1      44.965  26.414  27.429  1.00  0.00     0.049 A 
ATOM     50  H   UNL A   1      46.576  26.679  28.770  1.00  0.00     0.167 HD
ATOM     51  C   UNL A   1      43.445  24.608  27.285  1.00  0.00     0.074 A 
ATOM     52  C   UNL A   1      43.129  24.855  25.890  1.00  0.00     0.031 C 
ATOM     53  C   UNL A   1      44.338  25.276  28.064  1.00  0.00     0.034 A 
BRANCH  40  54
ATOM     54  C   UNL A   1      47.659  29.610  28.948  1.00  0.00     0.023 A 
ATOM     55  C   UNL A   1      48.413  30.536  28.183  1.00  0.00     0.031 A 
ATOM     56  C   UNL A   1      48.385  28.757  29.785  1.00  0.00     0.131 A 
ATOM     57  C   UNL A   1      49.807  30.457  28.106  1.00  0.00     0.055 A 
ATOM     58  C   UNL A   1      49.790  28.740  29.775  1.00  0.00     0.041 A 
ATOM     59  F   UNL A   1      47.779  27.853  30.566  1.00  0.00    -0.206 F 
ATOM     60  C   UNL A   1      50.506  29.556  28.898  1.00  0.00     0.022 A 
BRANCH  57  61
ATOM     61  S   UNL A   1      50.634  31.396  26.789  1.00  0.00     0.124 S 
ATOM     62  O   UNL A   1      50.963  30.350  25.827  1.00  0.00    -0.237 OA
ATOM     63  O   UNL A   1      49.591  32.333  26.382  1.00  0.00    -0.237 OA
ATOM     64  O   UNL A   1      51.778  31.998  27.470  1.00  0.00    -0.744 OA
ENDBRANCH  57  61
ENDBRANCH  40  54
BRANCH  41  65
ATOM     65  C   UNL A   1      39.029  23.657  26.711  1.00  0.00     0.023 A 
ATOM     66  C   UNL A   1      37.877  23.941  25.952  1.00  0.00     0.031 A 
ATOM     67  C   UNL A   1      39.419  22.273  26.673  1.00  0.00     0.131 A 
ATOM     68  C   UNL A   1      37.276  22.920  25.144  1.00  0.00     0.055 A 
ATOM     69  C   UNL A   1      38.896  21.314  25.806  1.00  0.00     0.041 A 
ATOM     70  F   UNL A   1      40.364  21.775  27.484  1.00  0.00    -0.206 F 
ATOM     71  C   UNL A   1      37.827  21.642  25.014  1.00  0.00     0.022 A 
BRANCH  68  72
ATOM     72  S   UNL A   1      35.747  23.214  24.194  1.00  0.00     0.124 S 
ATOM     73  O   UNL A   1      36.221  23.116  22.818  1.00  0.00    -0.237 OA
ATOM     74  O   UNL A   1      34.867  22.144  24.651  1.00  0.00    -0.237 OA
ATOM     75  O   UNL A   1      35.341  24.558  24.610  1.00  0.00    -0.744 OA
ENDBRANCH  68  72
ENDBRANCH  41  65
BRANCH  53  76
ATOM     76  C   UNL A   1      44.248  24.978  29.574  1.00  0.00     0.023 A 
ATOM     77  C   UNL A   1      44.223  26.041  30.502  1.00  0.00     0.031 A 
ATOM     78  C   UNL A   1      44.307  23.691  30.145  1.00  0.00     0.131 A 
ATOM     79  C   UNL A   1      44.319  25.812  31.892  1.00  0.00     0.055 A 
ATOM     80  C   UNL A   1      44.407  23.457  31.527  1.00  0.00     0.041 A 
ATOM     81  F   UNL A   1      44.259  22.598  29.388  1.00  0.00    -0.206 F 
ATOM     82  C   UNL A   1      44.420  24.523  32.411  1.00  0.00     0.022 A 
BRANCH  79  83
ATOM     83  S   UNL A   1      44.292  27.227  33.027  1.00  0.00     0.124 S 
ATOM     84  O   UNL A   1      42.875  27.563  33.089  1.00  0.00    -0.237 OA
ATOM     85  O   UNL A   1      44.874  26.666  34.242  1.00  0.00    -0.237 OA
ATOM     86  O   UNL A   1      45.130  28.221  32.354  1.00  0.00    -0.744 OA
ENDBRANCH  79  83
ENDBRANCH  53  76
ENDBRANCH  27  28
ENDBRANCH  20  22
ENDBRANCH  19  20
ENDBRANCH   1  19
TORSDOF 16
ENDMDL
MODEL 2
REMARK VINA RESULT:     -10.5      4.354     11.820
REMARK SMILES CCc1[nH]nc(-n2cccc2)c1C(=O)OCCOC(=O)c1ccc(-c2c3nc(c(-c4cc(S(=O)(=O)[O-])ccc4F)c4ccc([nH]4)c(-c4cc(S(=O)(=O)[O-])ccc4F)c4nc(c(-c5cc(S(=O)(=O)[O-])ccc5F)c5ccc2[nH]5)C=C4)C=C3)cc1
REMARK SMILES IDX 17 1 16 2 15 3 13 4 14 5 12 6 3 7 4 8 5 9 6 11 2 12 1 13
REMARK SMILES IDX 7 14 8 15 11 16 9 17 10 18 18 19 19 20 20 21 21 22 22 23
REMARK SMILES IDX 83 24 23 25 82 26 24 27 25 28 26 29 76 30 27 31 81 32 75 33
REMARK SMILES IDX 77 34 28 35 80 36 74 37 73 38 29 40 61 41 41 42 60 43 42 44
REMARK SMILES IDX 45 45 59 46 78 47 43 48 44 49 58 51 79 52 46 53 30 54 31 55
REMARK SMILES IDX 39 56 32 57 38 58 40 59 37 60 33 61 34 62 35 63 36 64 62 65
REMARK SMILES IDX 63 66 71 67 64 68 70 69 72 70 69 71 65 72 66 73 67 74 68 75
REMARK SMILES IDX 47 76 48 77 56 78 49 79 55 80 57 81 54 82 50 83 51 84 52 85
REMARK SMILES IDX 53 86
REMARK H PARENT 4 10 77 39 45 50
REMARK Flexibility Score: inf
ROOT
ATOM      1  C   UNL A   1      37.761  23.796  25.807  1.00  0.00     0.275 C 
ENDROOT
BRANCH   1   2
ATOM      2  C   UNL A   1      36.304  23.953  25.354  1.00  0.00     0.275 C 
BRANCH   2   3
ATOM      3  O   UNL A   1      35.632  22.712  25.046  1.00  0.00    -0.458 OA
BRANCH   3   4
ATOM      4  C   UNL A   1      34.682  22.716  24.051  1.00  0.00     0.343 C 
ATOM      5  O   UNL A   1      34.937  22.919  22.882  1.00  0.00    -0.246 OA
BRANCH   4   6
ATOM      6  C   UNL A   1      33.327  22.435  24.541  1.00  0.00     0.125 A 
ATOM      7  C   UNL A   1      32.389  23.307  25.095  1.00  0.00     0.052 A 
ATOM      8  N   UNL A   1      31.307  22.537  25.442  1.00  0.00    -0.280 N 
ATOM      9  N   UNL A   1      31.467  21.233  25.209  1.00  0.00    -0.156 NA
ATOM     10  H   UNL A   1      30.485  22.915  25.830  1.00  0.00     0.190 HD
ATOM     11  C   UNL A   1      32.679  21.171  24.647  1.00  0.00     0.173 A 
BRANCH   7  12
ATOM     12  C   UNL A   1      32.370  24.777  25.360  1.00  0.00     0.053 C 
ATOM     13  C   UNL A   1      31.163  25.202  26.186  1.00  0.00     0.011 C 
ENDBRANCH   7  12
BRANCH  11  14
ATOM     14  N   UNL A   1      33.178  19.876  24.344  1.00  0.00    -0.306 N 
ATOM     15  C   UNL A   1      34.342  19.333  24.851  1.00  0.00     0.093 A 
ATOM     16  C   UNL A   1      32.528  18.887  23.637  1.00  0.00     0.093 A 
ATOM     17  C   UNL A   1      34.513  18.074  24.322  1.00  0.00     0.020 A 
ATOM     18  C   UNL A   1      33.340  17.771  23.592  1.00  0.00     0.020 A 
ENDBRANCH  11  14
ENDBRANCH   4   6
ENDBRANCH   3   4
ENDBRANCH   2   3
ENDBRANCH   1   2
BRANCH   1  19
ATOM     19  O   UNL A   1      38.146  24.768  26.782  1.00  0.00    -0.458 OA
BRANCH  19  20
ATOM     20  C   UNL A   1      39.363  24.484  27.284  1.00  0.00     0.338 C 
ATOM     21  O   UNL A   1      39.786  23.376  27.586  1.00  0.00    -0.246 OA
BRANCH  20  22
ATOM     22  C   UNL A   1      40.138  25.667  27.620  1.00  0.00     0.060 A 
ATOM     23  C   UNL A   1      40.141  25.954  28.987  1.00  0.00     0.016 A 
ATOM     24  C   UNL A   1      40.419  26.630  26.645  1.00  0.00     0.016 A 
ATOM     25  C   UNL A   1      40.221  27.258  29.385  1.00  0.00     0.010 A 
ATOM     26  C   UNL A   1      40.518  27.949  27.047  1.00  0.00     0.010 A 
ATOM     27  C   UNL A   1      40.357  28.248  28.408  1.00  0.00    -0.014 A 
BRANCH  27  28
ATOM     28  C   UNL A   1      40.576  29.598  28.923  1.00  0.00     0.031 A 
ATOM     29  C   UNL A   1      39.170  30.222  29.207  1.00  0.00     0.074 A 
ATOM     30  C   UNL A   1      41.892  30.004  28.931  1.00  0.00     0.049 A 
ATOM     31  N   UNL A   1      38.783  31.455  29.251  1.00  0.00    -0.248 NA
ATOM     32  C   UNL A   1      37.978  29.318  29.379  1.00  0.00     0.031 C 
ATOM     33  C   UNL A   1      43.077  29.165  28.580  1.00  0.00     0.029 A 
ATOM     34  N   UNL A   1      42.523  31.191  29.219  1.00  0.00    -0.354 N 
ATOM     35  C   UNL A   1      37.461  31.473  29.767  1.00  0.00     0.074 A 
ATOM     36  C   UNL A   1      36.966  30.142  29.653  1.00  0.00     0.031 C 
ATOM     37  C   UNL A   1      44.225  29.890  28.577  1.00  0.00     0.029 A 
ATOM     38  C   UNL A   1      43.933  31.258  28.959  1.00  0.00     0.049 A 
ATOM     39  H   UNL A   1      42.031  31.960  29.587  1.00  0.00     0.167 HD
ATOM     40  C   UNL A   1      36.944  32.549  30.431  1.00  0.00     0.034 A 
ATOM     41  C   UNL A   1      44.760  32.361  29.027  1.00  0.00     0.034 A 
ATOM     42  C   UNL A   1      37.887  33.614  30.376  1.00  0.00     0.049 A 
ATOM     43  C   UNL A   1      43.888  33.360  29.663  1.00  0.00     0.074 A 
ATOM     44  C   UNL A   1      38.297  34.406  29.338  1.00  0.00     0.029 A 
ATOM     45  N   UNL A   1      38.818  33.665  31.391  1.00  0.00    -0.354 N 
ATOM     46  N   UNL A   1      43.511  33.308  30.904  1.00  0.00    -0.248 NA
ATOM     47  C   UNL A   1      43.288  34.414  28.842  1.00  0.00     0.031 C 
ATOM     48  C   UNL A   1      39.692  34.417  29.518  1.00  0.00     0.029 A 
ATOM     49  C   UNL A   1      40.021  33.959  30.803  1.00  0.00     0.049 A 
ATOM     50  H   UNL A   1      38.652  33.519  32.351  1.00  0.00     0.167 HD
ATOM     51  C   UNL A   1      42.381  34.080  30.908  1.00  0.00     0.074 A 
ATOM     52  C   UNL A   1      42.487  34.957  29.756  1.00  0.00     0.031 C 
ATOM     53  C   UNL A   1      41.245  33.605  31.488  1.00  0.00     0.034 A 
BRANCH  40  54
ATOM     54  C   UNL A   1      35.784  32.734  31.374  1.00  0.00     0.023 A 
ATOM     55  C   UNL A   1      34.833  33.710  30.980  1.00  0.00     0.031 A 
ATOM     56  C   UNL A   1      35.748  32.335  32.714  1.00  0.00     0.131 A 
ATOM     57  C   UNL A   1      34.052  34.390  31.919  1.00  0.00     0.055 A 
ATOM     58  C   UNL A   1      34.895  32.956  33.641  1.00  0.00     0.041 A 
ATOM     59  F   UNL A   1      36.586  31.408  33.196  1.00  0.00    -0.206 F 
ATOM     60  C   UNL A   1      34.080  34.022  33.257  1.00  0.00     0.022 A 
BRANCH  57  61
ATOM     61  S   UNL A   1      33.193  35.894  31.371  1.00  0.00     0.124 S 
ATOM     62  O   UNL A   1      33.888  36.935  32.120  1.00  0.00    -0.237 OA
ATOM     63  O   UNL A   1      33.433  35.875  29.931  1.00  0.00    -0.237 OA
ATOM     64  O   UNL A   1      31.808  35.657  31.772  1.00  0.00    -0.744 OA
ENDBRANCH  57  61
ENDBRANCH  40  54
BRANCH  41  65
ATOM     65  C   UNL A   1      46.151  32.891  28.648  1.00  0.00     0.023 A 
ATOM     66  C   UNL A   1      46.566  33.447  27.423  1.00  0.00     0.031 A 
ATOM     67  C   UNL A   1      47.144  32.972  29.685  1.00  0.00     0.131 A 
ATOM     68  C   UNL A   1      47.827  34.124  27.329  1.00  0.00     0.055 A 
ATOM     69  C   UNL A   1      48.318  33.721  29.617  1.00  0.00     0.041 A 
ATOM     70  F   UNL A   1      47.011  32.325  30.853  1.00  0.00    -0.206 F 
ATOM     71  C   UNL A   1      48.657  34.325  28.435  1.00  0.00     0.022 A 
BRANCH  68  72
ATOM     72  S   UNL A   1      48.443  34.805  25.752  1.00  0.00     0.124 S 
ATOM     73  O   UNL A   1      49.567  33.923  25.459  1.00  0.00    -0.237 OA
ATOM     74  O   UNL A   1      47.286  34.690  24.872  1.00  0.00    -0.237 OA
ATOM     75  O   UNL A   1      48.814  36.179  26.097  1.00  0.00    -0.744 OA
ENDBRANCH  68  72
ENDBRANCH  41  65
BRANCH  53  76
ATOM     76  C   UNL A   1      41.451  32.471  32.511  1.00  0.00     0.023 A 
ATOM     77  C   UNL A   1      40.970  31.174  32.233  1.00  0.00     0.031 A 
ATOM     78  C   UNL A   1      41.995  32.639  33.800  1.00  0.00     0.131 A 
ATOM     79  C   UNL A   1      40.981  30.155  33.210  1.00  0.00     0.055 A 
ATOM     80  C   UNL A   1      42.005  31.630  34.778  1.00  0.00     0.041 A 
ATOM     81  F   UNL A   1      42.554  33.789  34.168  1.00  0.00    -0.206 F 
ATOM     82  C   UNL A   1      41.488  30.379  34.488  1.00  0.00     0.022 A 
BRANCH  79  83
ATOM     83  S   UNL A   1      40.335  28.514  32.786  1.00  0.00     0.124 S 
ATOM     84  O   UNL A   1      38.992  28.810  32.303  1.00  0.00    -0.237 OA
ATOM     85  O   UNL A   1      41.290  28.050  31.784  1.00  0.00    -0.237 OA
ATOM     86  O   UNL A   1      40.385  27.788  34.055  1.00  0.00    -0.744 OA
ENDBRANCH  79  83
ENDBRANCH  53  76
ENDBRANCH  27  28
ENDBRANCH  20  22
ENDBRANCH  19  20
ENDBRANCH   1  19
TORSDOF 16
ENDMDL
MODEL 3
REMARK VINA RESULT:     -10.3      3.882      8.288
REMARK SMILES CCc1[nH]nc(-n2cccc2)c1C(=O)OCCOC(=O)c1ccc(-c2c3nc(c(-c4cc(S(=O)(=O)[O-])ccc4F)c4ccc([nH]4)c(-c4cc(S(=O)(=O)[O-])ccc4F)c4nc(c(-c5cc(S(=O)(=O)[O-])ccc5F)c5ccc2[nH]5)C=C4)C=C3)cc1
REMARK SMILES IDX 17 1 16 2 15 3 13 4 14 5 12 6 3 7 4 8 5 9 6 11 2 12 1 13
REMARK SMILES IDX 7 14 8 15 11 16 9 17 10 18 18 19 19 20 20 21 21 22 22 23
REMARK SMILES IDX 83 24 23 25 82 26 24 27 25 28 26 29 76 30 27 31 81 32 75 33
REMARK SMILES IDX 77 34 28 35 80 36 74 37 73 38 29 40 61 41 41 42 60 43 42 44
REMARK SMILES IDX 45 45 59 46 78 47 43 48 44 49 58 51 79 52 46 53 30 54 31 55
REMARK SMILES IDX 39 56 32 57 38 58 40 59 37 60 33 61 34 62 35 63 36 64 62 65
REMARK SMILES IDX 63 66 71 67 64 68 70 69 72 70 69 71 65 72 66 73 67 74 68 75
REMARK SMILES IDX 47 76 48 77 56 78 49 79 55 80 57 81 54 82 50 83 51 84 52 85
REMARK SMILES IDX 53 86
REMARK H PARENT 4 10 77 39 45 50
REMARK Flexibility Score: inf
ROOT
ATOM      1  C   UNL A   1      35.769  31.730  29.264  1.00  0.00     0.275 C 
ENDROOT
BRANCH   1   2
ATOM      2  C   UNL A   1      34.456  32.464  29.568  1.00  0.00     0.275 C 
BRANCH   2   3
ATOM      3  O   UNL A   1      34.621  33.793  30.109  1.00  0.00    -0.458 OA
BRANCH   3   4
ATOM      4  C   UNL A   1      35.677  34.022  30.961  1.00  0.00     0.343 C 
ATOM      5  O   UNL A   1      36.808  34.244  30.582  1.00  0.00    -0.246 OA
BRANCH   4   6
ATOM      6  C   UNL A   1      35.297  33.986  32.379  1.00  0.00     0.125 A 
ATOM      7  C   UNL A   1      34.348  34.749  33.059  1.00  0.00     0.052 A 
ATOM      8  N   UNL A   1      34.421  34.368  34.375  1.00  0.00    -0.280 N 
ATOM      9  N   UNL A   1      35.362  33.458  34.630  1.00  0.00    -0.156 NA
ATOM     10  H   UNL A   1      33.830  34.735  35.072  1.00  0.00     0.190 HD
ATOM     11  C   UNL A   1      35.880  33.210  33.421  1.00  0.00     0.173 A 
BRANCH   7  12
ATOM     12  C   UNL A   1      33.379  35.809  32.645  1.00  0.00     0.053 C 
ATOM     13  C   UNL A   1      34.026  37.186  32.566  1.00  0.00     0.011 C 
ENDBRANCH   7  12
BRANCH  11  14
ATOM     14  N   UNL A   1      36.982  32.316  33.368  1.00  0.00    -0.306 N 
ATOM     15  C   UNL A   1      36.939  31.029  32.868  1.00  0.00     0.093 A 
ATOM     16  C   UNL A   1      38.299  32.612  33.648  1.00  0.00     0.093 A 
ATOM     17  C   UNL A   1      38.185  30.459  32.999  1.00  0.00     0.020 A 
ATOM     18  C   UNL A   1      39.058  31.477  33.446  1.00  0.00     0.020 A 
ENDBRANCH  11  14
ENDBRANCH   4   6
ENDBRANCH   3   4
ENDBRANCH   2   3
ENDBRANCH   1   2
BRANCH   1  19
ATOM     19  O   UNL A   1      35.561  30.443  28.679  1.00  0.00    -0.458 OA
BRANCH  19  20
ATOM     20  C   UNL A   1      36.661  30.037  28.016  1.00  0.00     0.338 C 
ATOM     21  O   UNL A   1      36.760  29.863  26.808  1.00  0.00    -0.246 OA
BRANCH  20  22
ATOM     22  C   UNL A   1      37.748  29.635  28.893  1.00  0.00     0.060 A 
ATOM     23  C   UNL A   1      39.003  30.039  28.435  1.00  0.00     0.016 A 
ATOM     24  C   UNL A   1      37.575  28.582  29.797  1.00  0.00     0.016 A 
ATOM     25  C   UNL A   1      40.088  29.257  28.714  1.00  0.00     0.010 A 
ATOM     26  C   UNL A   1      38.674  27.799  30.096  1.00  0.00     0.010 A 
ATOM     27  C   UNL A   1      39.904  28.115  29.500  1.00  0.00    -0.014 A 
BRANCH  27  28
ATOM     28  C   UNL A   1      41.133  27.414  29.868  1.00  0.00     0.031 A 
ATOM     29  C   UNL A   1      41.359  26.284  28.810  1.00  0.00     0.074 A 
ATOM     30  C   UNL A   1      41.700  27.832  31.051  1.00  0.00     0.049 A 
ATOM     31  N   UNL A   1      42.000  25.164  28.890  1.00  0.00    -0.248 NA
ATOM     32  C   UNL A   1      40.678  26.375  27.470  1.00  0.00     0.031 C 
ATOM     33  C   UNL A   1      41.243  28.977  31.894  1.00  0.00     0.029 A 
ATOM     34  N   UNL A   1      42.761  27.393  31.807  1.00  0.00    -0.354 N 
ATOM     35  C   UNL A   1      42.082  24.621  27.581  1.00  0.00     0.074 A 
ATOM     36  C   UNL A   1      41.109  25.306  26.798  1.00  0.00     0.031 C 
ATOM     37  C   UNL A   1      41.944  29.060  33.055  1.00  0.00     0.029 A 
ATOM     38  C   UNL A   1      42.950  28.016  33.087  1.00  0.00     0.049 A 
ATOM     39  H   UNL A   1      43.365  26.684  31.487  1.00  0.00     0.167 HD
ATOM     40  C   UNL A   1      43.086  23.780  27.195  1.00  0.00     0.034 A 
ATOM     41  C   UNL A   1      43.840  27.666  34.081  1.00  0.00     0.034 A 
ATOM     42  C   UNL A   1      43.888  23.475  28.331  1.00  0.00     0.049 A 
ATOM     43  C   UNL A   1      44.689  26.678  33.399  1.00  0.00     0.074 A 
ATOM     44  C   UNL A   1      43.632  22.718  29.441  1.00  0.00     0.029 A 
ATOM     45  N   UNL A   1      44.943  24.324  28.585  1.00  0.00    -0.354 N 
ATOM     46  N   UNL A   1      45.535  26.973  32.461  1.00  0.00    -0.248 NA
ATOM     47  C   UNL A   1      44.499  25.253  33.682  1.00  0.00     0.031 C 
ATOM     48  C   UNL A   1      44.128  23.539  30.471  1.00  0.00     0.029 A 
ATOM     49  C   UNL A   1      44.954  24.541  29.938  1.00  0.00     0.049 A 
ATOM     50  H   UNL A   1      45.569  24.701  27.924  1.00  0.00     0.167 HD
ATOM     51  C   UNL A   1      45.696  25.779  31.812  1.00  0.00     0.074 A 
ATOM     52  C   UNL A   1      45.323  24.749  32.766  1.00  0.00     0.031 C 
ATOM     53  C   UNL A   1      45.593  25.730  30.456  1.00  0.00     0.034 A 
BRANCH  40  54
ATOM     54  C   UNL A   1      43.638  23.359  25.858  1.00  0.00     0.023 A 
ATOM     55  C   UNL A   1      43.581  21.967  25.590  1.00  0.00     0.031 A 
ATOM     56  C   UNL A   1      44.502  24.112  25.056  1.00  0.00     0.131 A 
ATOM     57  C   UNL A   1      44.490  21.352  24.725  1.00  0.00     0.055 A 
ATOM     58  C   UNL A   1      45.353  23.501  24.120  1.00  0.00     0.041 A 
ATOM     59  F   UNL A   1      44.627  25.437  25.206  1.00  0.00    -0.206 F 
ATOM     60  C   UNL A   1      45.386  22.112  23.986  1.00  0.00     0.022 A 
BRANCH  57  61
ATOM     61  S   UNL A   1      44.610  19.539  24.777  1.00  0.00     0.124 S 
ATOM     62  O   UNL A   1      43.469  19.181  25.613  1.00  0.00    -0.237 OA
ATOM     63  O   UNL A   1      44.503  19.186  23.365  1.00  0.00    -0.237 OA
ATOM     64  O   UNL A   1      45.921  19.304  25.378  1.00  0.00    -0.744 OA
ENDBRANCH  57  61
ENDBRANCH  40  54
BRANCH  41  65
ATOM     65  C   UNL A   1      44.195  27.886  35.559  1.00  0.00     0.023 A 
ATOM     66  C   UNL A   1      44.316  26.922  36.579  1.00  0.00     0.031 A 
ATOM     67  C   UNL A   1      44.592  29.208  35.964  1.00  0.00     0.131 A 
ATOM     68  C   UNL A   1      44.905  27.275  37.838  1.00  0.00     0.055 A 
ATOM     69  C   UNL A   1      45.259  29.520  37.148  1.00  0.00     0.041 A 
ATOM     70  F   UNL A   1      44.362  30.288  35.202  1.00  0.00    -0.206 F 
ATOM     71  C   UNL A   1      45.441  28.541  38.090  1.00  0.00     0.022 A 
BRANCH  68  72
ATOM     72  S   UNL A   1      45.027  26.085  39.215  1.00  0.00     0.124 S 
ATOM     73  O   UNL A   1      44.173  26.700  40.225  1.00  0.00    -0.237 OA
ATOM     74  O   UNL A   1      44.533  24.847  38.622  1.00  0.00    -0.237 OA
ATOM     75  O   UNL A   1      46.455  26.081  39.536  1.00  0.00    -0.744 OA
ENDBRANCH  68  72
ENDBRANCH  41  65
BRANCH  53  76
ATOM     76  C   UNL A   1      45.797  27.075  29.732  1.00  0.00     0.023 A 
ATOM     77  C   UNL A   1      44.768  27.605  28.924  1.00  0.00     0.031 A 
ATOM     78  C   UNL A   1      47.005  27.800  29.706  1.00  0.00     0.131 A 
ATOM     79  C   UNL A   1      44.976  28.737  28.107  1.00  0.00     0.055 A 
ATOM     80  C   UNL A   1      47.220  28.926  28.892  1.00  0.00     0.041 A 
ATOM     81  F   UNL A   1      48.033  27.457  30.478  1.00  0.00    -0.206 F 
ATOM     82  C   UNL A   1      46.203  29.397  28.079  1.00  0.00     0.022 A 
BRANCH  79  83
ATOM     83  S   UNL A   1      43.611  29.355  27.086  1.00  0.00     0.124 S 
ATOM     84  O   UNL A   1      44.274  30.305  26.201  1.00  0.00    -0.237 OA
ATOM     85  O   UNL A   1      43.110  28.135  26.460  1.00  0.00    -0.237 OA
ATOM     86  O   UNL A   1      42.699  29.957  28.060  1.00  0.00    -0.744 OA
ENDBRANCH  79  83
ENDBRANCH  53  76
ENDBRANCH  27  28
ENDBRANCH  20  22
ENDBRANCH  19  20
ENDBRANCH   1  19
TORSDOF 16
ENDMDL
