MODEL 1
REMARK VINA RESULT:     -11.4      0.000      0.000
REMARK SMILES Cn1ccnc1[C@@H]1[C@@H](C(=O)OCCOC(=O)c2ccc(-c3c4nc(c(-c5cc(S(=O)(=O)[O-])ccc5F)c5ccc([nH]5)c(-c5cc(S(=O)(=O)[O-])ccc5F)c5nc(c(-c6cc(S(=O)(=O)[O-])ccc6F)c6ccc3[nH]6)C=C5)C=C4)cc2)CC(=O)N1CCCOC1CCCCC1
REMARK SMILES IDX 12 1 11 2 9 3 10 4 8 5 7 6 83 7 80 8 81 9 82 10 6 11 1 12
REMARK SMILES IDX 2 13 3 14 4 15 5 16 84 17 85 18 86 19 87 20 88 21 89 22
REMARK SMILES IDX 93 23 90 24 92 25 91 26 13 27 14 28 15 29 16 30 17 31 18 32
REMARK SMILES IDX 79 33 19 34 78 35 20 36 21 37 22 38 72 39 23 40 77 41 71 42
REMARK SMILES IDX 73 43 24 44 76 45 70 46 69 47 25 49 57 50 37 51 56 52 38 53
REMARK SMILES IDX 41 54 55 55 74 56 39 57 40 58 54 60 75 61 42 62 26 63 27 64
REMARK SMILES IDX 35 65 28 66 34 67 36 68 33 69 29 70 30 71 31 72 32 73 58 74
REMARK SMILES IDX 59 75 67 76 60 77 66 78 68 79 65 80 61 81 62 82 63 83 64 84
REMARK SMILES IDX 43 85 44 86 52 87 45 88 51 89 53 90 50 91 46 92 47 93 48 94
REMARK SMILES IDX 49 95
REMARK H PARENT 73 48 41 59
REMARK Flexibility Score: inf
ROOT
ATOM      1  C   UNL A   1      37.800  20.445  24.788  1.00  0.00     0.274 C 
ENDROOT
BRANCH   1   2
ATOM      2  O   UNL A   1      36.426  20.110  25.045  1.00  0.00    -0.462 OA
BRANCH   2   3
ATOM      3  C   UNL A   1      35.567  21.144  24.906  1.00  0.00     0.312 C 
ATOM      4  O   UNL A   1      35.665  22.032  24.066  1.00  0.00    -0.252 OA
BRANCH   3   5
ATOM      5  C   UNL A   1      34.436  21.117  25.884  1.00  0.00     0.139 C 
ATOM      6  C   UNL A   1      33.157  21.578  25.216  1.00  0.00     0.166 C 
ATOM      7  N   UNL A   1      32.299  21.935  26.338  1.00  0.00    -0.331 N 
ATOM      8  C   UNL A   1      34.539  21.933  27.150  1.00  0.00     0.118 C 
ATOM      9  C   UNL A   1      33.090  22.155  27.486  1.00  0.00     0.224 C 
ATOM     10  O   UNL A   1      32.692  22.578  28.563  1.00  0.00    -0.275 OA
BRANCH   6  11
ATOM     11  C   UNL A   1      32.655  20.552  24.223  1.00  0.00     0.132 A 
ATOM     12  C   UNL A   1      32.956  18.272  25.412  1.00  0.00     0.151 C 
ATOM     13  N   UNL A   1      32.640  19.164  24.320  1.00  0.00    -0.336 N 
ATOM     14  C   UNL A   1      32.280  18.660  23.092  1.00  0.00     0.107 A 
ATOM     15  C   UNL A   1      32.106  19.749  22.285  1.00  0.00     0.131 A 
ATOM     16  N   UNL A   1      32.336  20.902  22.983  1.00  0.00    -0.239 NA
ENDBRANCH   6  11
BRANCH   7  17
ATOM     17  C   UNL A   1      31.029  22.669  26.327  1.00  0.00     0.122 C 
BRANCH  17  18
ATOM     18  C   UNL A   1      30.762  23.899  25.470  1.00  0.00     0.050 C 
BRANCH  18  19
ATOM     19  C   UNL A   1      31.556  25.194  25.626  1.00  0.00     0.162 C 
BRANCH  19  20
ATOM     20  O   UNL A   1      31.146  26.055  26.683  1.00  0.00    -0.378 OA
BRANCH  20  21
ATOM     21  C   UNL A   1      31.584  27.417  26.549  1.00  0.00     0.118 C 
ATOM     22  C   UNL A   1      33.105  27.433  26.652  1.00  0.00     0.032 C 
ATOM     23  C   UNL A   1      31.093  27.978  25.213  1.00  0.00     0.032 C 
ATOM     24  C   UNL A   1      33.812  28.679  26.161  1.00  0.00     0.003 C 
ATOM     25  C   UNL A   1      31.752  29.318  24.894  1.00  0.00     0.003 C 
ATOM     26  C   UNL A   1      33.268  29.174  24.838  1.00  0.00     0.000 C 
ENDBRANCH  20  21
ENDBRANCH  19  20
ENDBRANCH  18  19
ENDBRANCH  17  18
ENDBRANCH   7  17
ENDBRANCH   3   5
ENDBRANCH   2   3
ENDBRANCH   1   2
BRANCH   1  27
ATOM     27  C   UNL A   1      38.759  19.546  25.582  1.00  0.00     0.275 C 
BRANCH  27  28
ATOM     28  O   UNL A   1      40.074  20.120  25.748  1.00  0.00    -0.458 OA
BRANCH  28  29
ATOM     29  C   UNL A   1      40.486  20.261  27.032  1.00  0.00     0.338 C 
ATOM     30  O   UNL A   1      40.726  19.360  27.820  1.00  0.00    -0.246 OA
BRANCH  29  31
ATOM     31  C   UNL A   1      40.780  21.673  27.341  1.00  0.00     0.060 A 
ATOM     32  C   UNL A   1      40.234  22.649  26.505  1.00  0.00     0.016 A 
ATOM     33  C   UNL A   1      41.665  22.041  28.350  1.00  0.00     0.016 A 
ATOM     34  C   UNL A   1      40.562  23.990  26.657  1.00  0.00     0.010 A 
ATOM     35  C   UNL A   1      41.990  23.395  28.516  1.00  0.00     0.010 A 
ATOM     36  C   UNL A   1      41.444  24.378  27.667  1.00  0.00    -0.014 A 
BRANCH  36  37
ATOM     37  C   UNL A   1      41.828  25.807  27.787  1.00  0.00     0.031 A 
ATOM     38  C   UNL A   1      43.122  26.282  27.193  1.00  0.00     0.074 A 
ATOM     39  C   UNL A   1      40.999  26.678  28.395  1.00  0.00     0.049 A 
ATOM     40  N   UNL A   1      43.709  27.444  27.307  1.00  0.00    -0.248 NA
ATOM     41  C   UNL A   1      43.854  25.313  26.364  1.00  0.00     0.031 C 
ATOM     42  C   UNL A   1      39.680  26.349  28.937  1.00  0.00     0.029 A 
ATOM     43  N   UNL A   1      41.145  28.015  28.664  1.00  0.00    -0.354 N 
ATOM     44  C   UNL A   1      44.900  27.338  26.594  1.00  0.00     0.074 A 
ATOM     45  C   UNL A   1      44.951  25.991  26.064  1.00  0.00     0.031 C 
ATOM     46  C   UNL A   1      39.141  27.452  29.480  1.00  0.00     0.029 A 
ATOM     47  C   UNL A   1      40.104  28.545  29.391  1.00  0.00     0.049 A 
ATOM     48  H   UNL A   1      41.919  28.544  28.366  1.00  0.00     0.167 HD
ATOM     49  C   UNL A   1      45.858  28.281  26.409  1.00  0.00     0.034 A 
ATOM     50  C   UNL A   1      39.966  29.755  29.969  1.00  0.00     0.034 A 
ATOM     51  C   UNL A   1      45.775  29.620  26.941  1.00  0.00     0.049 A 
ATOM     52  C   UNL A   1      41.083  30.757  29.825  1.00  0.00     0.074 A 
ATOM     53  C   UNL A   1      46.680  30.659  26.807  1.00  0.00     0.029 A 
ATOM     54  N   UNL A   1      44.728  30.106  27.716  1.00  0.00    -0.354 N 
ATOM     55  N   UNL A   1      42.223  30.637  29.183  1.00  0.00    -0.248 NA
ATOM     56  C   UNL A   1      40.897  32.055  30.487  1.00  0.00     0.031 C 
ATOM     57  C   UNL A   1      46.217  31.745  27.559  1.00  0.00     0.029 A 
ATOM     58  C   UNL A   1      44.983  31.416  28.097  1.00  0.00     0.049 A 
ATOM     59  H   UNL A   1      43.923  29.595  27.959  1.00  0.00     0.167 HD
ATOM     60  C   UNL A   1      42.881  31.852  29.349  1.00  0.00     0.074 A 
ATOM     61  C   UNL A   1      42.002  32.696  30.134  1.00  0.00     0.031 C 
ATOM     62  C   UNL A   1      44.102  32.238  28.894  1.00  0.00     0.034 A 
BRANCH  49  63
ATOM     63  C   UNL A   1      47.105  27.864  25.667  1.00  0.00     0.023 A 
ATOM     64  C   UNL A   1      47.266  28.088  24.289  1.00  0.00     0.031 A 
ATOM     65  C   UNL A   1      48.139  27.195  26.349  1.00  0.00     0.131 A 
ATOM     66  C   UNL A   1      48.394  27.581  23.624  1.00  0.00     0.055 A 
ATOM     67  C   UNL A   1      49.296  26.765  25.697  1.00  0.00     0.041 A 
ATOM     68  F   UNL A   1      48.031  26.931  27.661  1.00  0.00    -0.206 F 
ATOM     69  C   UNL A   1      49.421  26.943  24.323  1.00  0.00     0.022 A 
BRANCH  66  70
ATOM     70  S   UNL A   1      48.429  27.632  21.811  1.00  0.00     0.124 S 
ATOM     71  O   UNL A   1      47.091  28.130  21.505  1.00  0.00    -0.237 OA
ATOM     72  O   UNL A   1      49.530  28.549  21.544  1.00  0.00    -0.237 OA
ATOM     73  O   UNL A   1      48.669  26.240  21.433  1.00  0.00    -0.744 OA
ENDBRANCH  66  70
ENDBRANCH  49  63
BRANCH  50  74
ATOM     74  C   UNL A   1      38.766  30.061  30.799  1.00  0.00     0.023 A 
ATOM     75  C   UNL A   1      37.725  30.865  30.309  1.00  0.00     0.031 A 
ATOM     76  C   UNL A   1      38.663  29.583  32.120  1.00  0.00     0.131 A 
ATOM     77  C   UNL A   1      36.645  31.195  31.143  1.00  0.00     0.055 A 
ATOM     78  C   UNL A   1      37.561  29.870  32.927  1.00  0.00     0.041 A 
ATOM     79  F   UNL A   1      39.631  28.813  32.641  1.00  0.00    -0.206 F 
ATOM     80  C   UNL A   1      36.549  30.692  32.443  1.00  0.00     0.022 A 
BRANCH  77  81
ATOM     81  S   UNL A   1      35.400  32.363  30.530  1.00  0.00     0.124 S 
ATOM     82  O   UNL A   1      35.011  31.745  29.268  1.00  0.00    -0.237 OA
ATOM     83  O   UNL A   1      34.404  32.327  31.596  1.00  0.00    -0.237 OA
ATOM     84  O   UNL A   1      36.139  33.617  30.412  1.00  0.00    -0.744 OA
ENDBRANCH  77  81
ENDBRANCH  50  74
BRANCH  62  85
ATOM     85  C   UNL A   1      44.528  33.652  29.203  1.00  0.00     0.023 A 
ATOM     86  C   UNL A   1      44.189  34.728  28.364  1.00  0.00     0.031 A 
ATOM     87  C   UNL A   1      45.298  33.924  30.349  1.00  0.00     0.131 A 
ATOM     88  C   UNL A   1      44.666  36.015  28.651  1.00  0.00     0.055 A 
ATOM     89  C   UNL A   1      45.716  35.217  30.663  1.00  0.00     0.041 A 
ATOM     90  F   UNL A   1      45.653  32.934  31.184  1.00  0.00    -0.206 F 
ATOM     91  C   UNL A   1      45.413  36.270  29.805  1.00  0.00     0.022 A 
BRANCH  88  92
ATOM     92  S   UNL A   1      44.376  37.340  27.447  1.00  0.00     0.124 S 
ATOM     93  O   UNL A   1      45.629  37.348  26.698  1.00  0.00    -0.237 OA
ATOM     94  O   UNL A   1      43.205  36.857  26.725  1.00  0.00    -0.237 OA
ATOM     95  O   UNL A   1      44.146  38.518  28.282  1.00  0.00    -0.744 OA
ENDBRANCH  88  92
ENDBRANCH  62  85
ENDBRANCH  36  37
ENDBRANCH  29  31
ENDBRANCH  28  29
ENDBRANCH  27  28
ENDBRANCH   1  27
TORSDOF 20
ENDMDL
MODEL 2
REMARK VINA RESULT:     -11.3      4.807      8.401
REMARK SMILES Cn1ccnc1[C@@H]1[C@@H](C(=O)OCCOC(=O)c2ccc(-c3c4nc(c(-c5cc(S(=O)(=O)[O-])ccc5F)c5ccc([nH]5)c(-c5cc(S(=O)(=O)[O-])ccc5F)c5nc(c(-c6cc(S(=O)(=O)[O-])ccc6F)c6ccc3[nH]6)C=C5)C=C4)cc2)CC(=O)N1CCCOC1CCCCC1
REMARK SMILES IDX 12 1 11 2 9 3 10 4 8 5 7 6 83 7 80 8 81 9 82 10 6 11 1 12
REMARK SMILES IDX 2 13 3 14 4 15 5 16 84 17 85 18 86 19 87 20 88 21 89 22
REMARK SMILES IDX 93 23 90 24 92 25 91 26 13 27 14 28 15 29 16 30 17 31 18 32
REMARK SMILES IDX 79 33 19 34 78 35 20 36 21 37 22 38 72 39 23 40 77 41 71 42
REMARK SMILES IDX 73 43 24 44 76 45 70 46 69 47 25 49 57 50 37 51 56 52 38 53
REMARK SMILES IDX 41 54 55 55 74 56 39 57 40 58 54 60 75 61 42 62 26 63 27 64
REMARK SMILES IDX 35 65 28 66 34 67 36 68 33 69 29 70 30 71 31 72 32 73 58 74
REMARK SMILES IDX 59 75 67 76 60 77 66 78 68 79 65 80 61 81 62 82 63 83 64 84
REMARK SMILES IDX 43 85 44 86 52 87 45 88 51 89 53 90 50 91 46 92 47 93 48 94
REMARK SMILES IDX 49 95
REMARK H PARENT 73 48 41 59
REMARK Flexibility Score: inf
ROOT
ATOM      1  C   UNL A   1      31.606  28.290  26.259  1.00  0.00     0.274 C 
ENDROOT
BRANCH   1   2
ATOM      2  O   UNL A   1      31.464  27.206  27.193  1.00  0.00    -0.462 OA
BRANCH   2   3
ATOM      3  C   UNL A   1      31.082  26.037  26.634  1.00  0.00     0.312 C 
ATOM      4  O   UNL A   1      29.923  25.647  26.539  1.00  0.00    -0.252 OA
BRANCH   3   5
ATOM      5  C   UNL A   1      32.223  25.227  26.105  1.00  0.00     0.139 C 
ATOM      6  C   UNL A   1      31.987  24.881  24.649  1.00  0.00     0.166 C 
ATOM      7  N   UNL A   1      32.889  23.760  24.417  1.00  0.00    -0.331 N 
ATOM      8  C   UNL A   1      32.568  23.919  26.773  1.00  0.00     0.118 C 
ATOM      9  C   UNL A   1      33.239  23.173  25.653  1.00  0.00     0.224 C 
ATOM     10  O   UNL A   1      33.887  22.146  25.803  1.00  0.00    -0.275 OA
BRANCH   6  11
ATOM     11  C   UNL A   1      32.116  26.102  23.765  1.00  0.00     0.132 A 
ATOM     12  C   UNL A   1      29.682  26.849  23.300  1.00  0.00     0.151 C 
ATOM     13  N   UNL A   1      31.121  26.870  23.169  1.00  0.00    -0.336 N 
ATOM     14  C   UNL A   1      31.728  27.744  22.298  1.00  0.00     0.107 A 
ATOM     15  C   UNL A   1      33.064  27.471  22.375  1.00  0.00     0.131 A 
ATOM     16  N   UNL A   1      33.295  26.467  23.274  1.00  0.00    -0.239 NA
ENDBRANCH   6  11
BRANCH   7  17
ATOM     17  C   UNL A   1      32.940  22.842  23.275  1.00  0.00     0.122 C 
BRANCH  17  18
ATOM     18  C   UNL A   1      32.029  21.633  23.110  1.00  0.00     0.050 C 
BRANCH  18  19
ATOM     19  C   UNL A   1      32.535  20.200  23.256  1.00  0.00     0.162 C 
BRANCH  19  20
ATOM     20  O   UNL A   1      32.036  19.472  24.374  1.00  0.00    -0.378 OA
BRANCH  20  21
ATOM     21  C   UNL A   1      32.307  18.062  24.338  1.00  0.00     0.118 C 
ATOM     22  C   UNL A   1      33.418  17.822  23.323  1.00  0.00     0.032 C 
ATOM     23  C   UNL A   1      32.696  17.584  25.739  1.00  0.00     0.032 C 
ATOM     24  C   UNL A   1      34.132  16.488  23.390  1.00  0.00     0.003 C 
ATOM     25  C   UNL A   1      33.254  16.163  25.709  1.00  0.00     0.003 C 
ATOM     26  C   UNL A   1      34.480  16.084  24.807  1.00  0.00     0.000 C 
ENDBRANCH  20  21
ENDBRANCH  19  20
ENDBRANCH  18  19
ENDBRANCH  17  18
ENDBRANCH   7  17
ENDBRANCH   3   5
ENDBRANCH   2   3
ENDBRANCH   1   2
BRANCH   1  27
ATOM     27  C   UNL A   1      31.838  29.627  26.976  1.00  0.00     0.275 C 
BRANCH  27  28
ATOM     28  O   UNL A   1      32.837  30.452  26.338  1.00  0.00    -0.458 OA
BRANCH  28  29
ATOM     29  C   UNL A   1      33.252  31.522  27.060  1.00  0.00     0.338 C 
ATOM     30  O   UNL A   1      32.600  32.521  27.315  1.00  0.00    -0.246 OA
BRANCH  29  31
ATOM     31  C   UNL A   1      34.573  31.270  27.666  1.00  0.00     0.060 A 
ATOM     32  C   UNL A   1      34.871  29.963  28.056  1.00  0.00     0.016 A 
ATOM     33  C   UNL A   1      35.461  32.301  27.960  1.00  0.00     0.016 A 
ATOM     34  C   UNL A   1      36.043  29.668  28.742  1.00  0.00     0.010 A 
ATOM     35  C   UNL A   1      36.651  32.007  28.641  1.00  0.00     0.010 A 
ATOM     36  C   UNL A   1      36.947  30.689  29.040  1.00  0.00    -0.014 A 
BRANCH  36  37
ATOM     37  C   UNL A   1      38.170  30.371  29.819  1.00  0.00     0.031 A 
ATOM     38  C   UNL A   1      39.201  29.446  29.240  1.00  0.00     0.074 A 
ATOM     39  C   UNL A   1      38.368  30.939  31.024  1.00  0.00     0.049 A 
ATOM     40  N   UNL A   1      40.261  28.928  29.804  1.00  0.00    -0.248 NA
ATOM     41  C   UNL A   1      39.007  29.049  27.838  1.00  0.00     0.031 C 
ATOM     42  C   UNL A   1      37.476  31.915  31.653  1.00  0.00     0.029 A 
ATOM     43  N   UNL A   1      39.377  30.774  31.938  1.00  0.00    -0.354 N 
ATOM     44  C   UNL A   1      40.843  28.113  28.839  1.00  0.00     0.074 A 
ATOM     45  C   UNL A   1      40.008  28.200  27.659  1.00  0.00     0.031 C 
ATOM     46  C   UNL A   1      37.975  32.257  32.852  1.00  0.00     0.029 A 
ATOM     47  C   UNL A   1      39.177  31.471  33.108  1.00  0.00     0.049 A 
ATOM     48  H   UNL A   1      40.168  30.212  31.774  1.00  0.00     0.167 HD
ATOM     49  C   UNL A   1      41.968  27.361  28.938  1.00  0.00     0.034 A 
ATOM     50  C   UNL A   1      39.854  31.437  34.274  1.00  0.00     0.034 A 
ATOM     51  C   UNL A   1      42.788  27.302  30.124  1.00  0.00     0.049 A 
ATOM     52  C   UNL A   1      41.049  30.526  34.391  1.00  0.00     0.074 A 
ATOM     53  C   UNL A   1      43.953  26.584  30.333  1.00  0.00     0.029 A 
ATOM     54  N   UNL A   1      42.527  27.983  31.308  1.00  0.00    -0.354 N 
ATOM     55  N   UNL A   1      41.571  29.728  33.487  1.00  0.00    -0.248 NA
ATOM     56  C   UNL A   1      41.743  30.507  35.685  1.00  0.00     0.031 C 
ATOM     57  C   UNL A   1      44.354  26.772  31.660  1.00  0.00     0.029 A 
ATOM     58  C   UNL A   1      43.487  27.672  32.260  1.00  0.00     0.049 A 
ATOM     59  H   UNL A   1      41.770  28.595  31.450  1.00  0.00     0.167 HD
ATOM     60  C   UNL A   1      42.668  29.128  34.100  1.00  0.00     0.074 A 
ATOM     61  C   UNL A   1      42.742  29.671  35.441  1.00  0.00     0.031 C 
ATOM     62  C   UNL A   1      43.536  28.211  33.600  1.00  0.00     0.034 A 
BRANCH  49  63
ATOM     63  C   UNL A   1      42.324  26.487  27.758  1.00  0.00     0.023 A 
ATOM     64  C   UNL A   1      41.880  25.158  27.651  1.00  0.00     0.031 A 
ATOM     65  C   UNL A   1      43.156  26.987  26.740  1.00  0.00     0.131 A 
ATOM     66  C   UNL A   1      42.332  24.353  26.593  1.00  0.00     0.055 A 
ATOM     67  C   UNL A   1      43.536  26.206  25.647  1.00  0.00     0.041 A 
ATOM     68  F   UNL A   1      43.631  28.241  26.800  1.00  0.00    -0.206 F 
ATOM     69  C   UNL A   1      43.138  24.875  25.577  1.00  0.00     0.022 A 
BRANCH  66  70
ATOM     70  S   UNL A   1      41.978  22.575  26.643  1.00  0.00     0.124 S 
ATOM     71  O   UNL A   1      42.261  22.179  25.266  1.00  0.00    -0.237 OA
ATOM     72  O   UNL A   1      42.915  22.096  27.652  1.00  0.00    -0.237 OA
ATOM     73  O   UNL A   1      40.568  22.516  27.022  1.00  0.00    -0.744 OA
ENDBRANCH  66  70
ENDBRANCH  49  63
BRANCH  50  74
ATOM     74  C   UNL A   1      39.375  32.226  35.445  1.00  0.00     0.023 A 
ATOM     75  C   UNL A   1      39.813  33.540  35.668  1.00  0.00     0.031 A 
ATOM     76  C   UNL A   1      38.498  31.656  36.388  1.00  0.00     0.131 A 
ATOM     77  C   UNL A   1      39.403  34.228  36.821  1.00  0.00     0.055 A 
ATOM     78  C   UNL A   1      38.049  32.363  37.504  1.00  0.00     0.041 A 
ATOM     79  F   UNL A   1      38.050  30.400  36.226  1.00  0.00    -0.206 F 
ATOM     80  C   UNL A   1      38.512  33.654  37.732  1.00  0.00     0.022 A 
BRANCH  77  81
ATOM     81  S   UNL A   1      40.112  35.862  37.156  1.00  0.00     0.124 S 
ATOM     82  O   UNL A   1      39.473  36.210  38.420  1.00  0.00    -0.237 OA
ATOM     83  O   UNL A   1      41.540  35.563  37.220  1.00  0.00    -0.237 OA
ATOM     84  O   UNL A   1      39.696  36.657  36.004  1.00  0.00    -0.744 OA
ENDBRANCH  77  81
ENDBRANCH  50  74
BRANCH  62  85
ATOM     85  C   UNL A   1      44.664  27.777  34.504  1.00  0.00     0.023 A 
ATOM     86  C   UNL A   1      44.576  26.615  35.292  1.00  0.00     0.031 A 
ATOM     87  C   UNL A   1      45.839  28.546  34.588  1.00  0.00     0.131 A 
ATOM     88  C   UNL A   1      45.618  26.288  36.172  1.00  0.00     0.055 A 
ATOM     89  C   UNL A   1      46.898  28.180  35.418  1.00  0.00     0.041 A 
ATOM     90  F   UNL A   1      45.975  29.665  33.860  1.00  0.00    -0.206 F 
ATOM     91  C   UNL A   1      46.786  27.053  36.227  1.00  0.00     0.022 A 
BRANCH  88  92
ATOM     92  S   UNL A   1      45.389  24.898  37.314  1.00  0.00     0.124 S 
ATOM     93  O   UNL A   1      44.705  23.923  36.471  1.00  0.00    -0.237 OA
ATOM     94  O   UNL A   1      46.760  24.569  37.686  1.00  0.00    -0.237 OA
ATOM     95  O   UNL A   1      44.576  25.467  38.388  1.00  0.00    -0.744 OA
ENDBRANCH  88  92
ENDBRANCH  62  85
ENDBRANCH  36  37
ENDBRANCH  29  31
ENDBRANCH  28  29
ENDBRANCH  27  28
ENDBRANCH   1  27
TORSDOF 20
ENDMDL
MODEL 3
REMARK VINA RESULT:     -11.3      1.447      7.563
REMARK SMILES Cn1ccnc1[C@@H]1[C@@H](C(=O)OCCOC(=O)c2ccc(-c3c4nc(c(-c5cc(S(=O)(=O)[O-])ccc5F)c5ccc([nH]5)c(-c5cc(S(=O)(=O)[O-])ccc5F)c5nc(c(-c6cc(S(=O)(=O)[O-])ccc6F)c6ccc3[nH]6)C=C5)C=C4)cc2)CC(=O)N1CCCOC1CCCCC1
REMARK SMILES IDX 12 1 11 2 9 3 10 4 8 5 7 6 83 7 80 8 81 9 82 10 6 11 1 12
REMARK SMILES IDX 2 13 3 14 4 15 5 16 84 17 85 18 86 19 87 20 88 21 89 22
REMARK SMILES IDX 93 23 90 24 92 25 91 26 13 27 14 28 15 29 16 30 17 31 18 32
REMARK SMILES IDX 79 33 19 34 78 35 20 36 21 37 22 38 72 39 23 40 77 41 71 42
REMARK SMILES IDX 73 43 24 44 76 45 70 46 69 47 25 49 57 50 37 51 56 52 38 53
REMARK SMILES IDX 41 54 55 55 74 56 39 57 40 58 54 60 75 61 42 62 26 63 27 64
REMARK SMILES IDX 35 65 28 66 34 67 36 68 33 69 29 70 30 71 31 72 32 73 58 74
REMARK SMILES IDX 59 75 67 76 60 77 66 78 68 79 65 80 61 81 62 82 63 83 64 84
REMARK SMILES IDX 43 85 44 86 52 87 45 88 51 89 53 90 50 91 46 92 47 93 48 94
REMARK SMILES IDX 49 95
REMARK H PARENT 73 48 41 59
REMARK Flexibility Score: inf
ROOT
ATOM      1  C   UNL A   1      36.063  21.596  24.274  1.00  0.00     0.274 C 
ENDROOT
BRANCH   1   2
ATOM      2  O   UNL A   1      36.130  23.032  24.246  1.00  0.00    -0.462 OA
BRANCH   2   3
ATOM      3  C   UNL A   1      34.969  23.635  23.905  1.00  0.00     0.312 C 
ATOM      4  O   UNL A   1      34.593  23.836  22.755  1.00  0.00    -0.252 OA
BRANCH   3   5
ATOM      5  C   UNL A   1      34.139  24.043  25.080  1.00  0.00     0.139 C 
ATOM      6  C   UNL A   1      32.729  23.509  24.934  1.00  0.00     0.166 C 
ATOM      7  N   UNL A   1      31.958  24.334  25.855  1.00  0.00    -0.331 N 
ATOM      8  C   UNL A   1      33.978  25.511  25.392  1.00  0.00     0.118 C 
ATOM      9  C   UNL A   1      32.670  25.521  26.134  1.00  0.00     0.224 C 
ATOM     10  O   UNL A   1      32.253  26.474  26.778  1.00  0.00    -0.275 OA
BRANCH   6  11
ATOM     11  C   UNL A   1      32.689  22.006  25.109  1.00  0.00     0.132 A 
ATOM     12  C   UNL A   1      33.808  21.572  27.402  1.00  0.00     0.151 C 
ATOM     13  N   UNL A   1      33.206  21.224  26.137  1.00  0.00    -0.336 N 
ATOM     14  C   UNL A   1      33.104  19.906  25.754  1.00  0.00     0.107 A 
ATOM     15  C   UNL A   1      32.549  19.928  24.506  1.00  0.00     0.131 A 
ATOM     16  N   UNL A   1      32.297  21.214  24.118  1.00  0.00    -0.239 NA
ENDBRANCH   6  11
BRANCH   7  17
ATOM     17  C   UNL A   1      30.502  24.457  25.980  1.00  0.00     0.122 C 
BRANCH  17  18
ATOM     18  C   UNL A   1      29.730  25.746  25.732  1.00  0.00     0.050 C 
BRANCH  18  19
ATOM     19  C   UNL A   1      29.640  26.394  24.352  1.00  0.00     0.162 C 
BRANCH  19  20
ATOM     20  O   UNL A   1      30.278  27.660  24.213  1.00  0.00    -0.378 OA
BRANCH  20  21
ATOM     21  C   UNL A   1      31.138  27.773  23.068  1.00  0.00     0.118 C 
ATOM     22  C   UNL A   1      32.292  28.699  23.437  1.00  0.00     0.032 C 
ATOM     23  C   UNL A   1      31.626  26.381  22.662  1.00  0.00     0.032 C 
ATOM     24  C   UNL A   1      33.512  28.664  22.540  1.00  0.00     0.003 C 
ATOM     25  C   UNL A   1      32.750  26.463  21.630  1.00  0.00     0.003 C 
ATOM     26  C   UNL A   1      33.930  27.255  22.180  1.00  0.00     0.000 C 
ENDBRANCH  20  21
ENDBRANCH  19  20
ENDBRANCH  18  19
ENDBRANCH  17  18
ENDBRANCH   7  17
ENDBRANCH   3   5
ENDBRANCH   2   3
ENDBRANCH   1   2
BRANCH   1  27
ATOM     27  C   UNL A   1      37.244  20.990  25.045  1.00  0.00     0.275 C 
BRANCH  27  28
ATOM     28  O   UNL A   1      38.346  21.907  25.215  1.00  0.00    -0.458 OA
BRANCH  28  29
ATOM     29  C   UNL A   1      39.188  21.618  26.238  1.00  0.00     0.338 C 
ATOM     30  O   UNL A   1      39.573  20.507  26.567  1.00  0.00    -0.246 OA
BRANCH  29  31
ATOM     31  C   UNL A   1      39.737  22.848  26.836  1.00  0.00     0.060 A 
ATOM     32  C   UNL A   1      39.294  24.072  26.329  1.00  0.00     0.016 A 
ATOM     33  C   UNL A   1      40.751  22.819  27.789  1.00  0.00     0.016 A 
ATOM     34  C   UNL A   1      39.852  25.270  26.756  1.00  0.00     0.010 A 
ATOM     35  C   UNL A   1      41.309  24.027  28.232  1.00  0.00     0.010 A 
ATOM     36  C   UNL A   1      40.867  25.260  27.714  1.00  0.00    -0.014 A 
BRANCH  36  37
ATOM     37  C   UNL A   1      41.492  26.543  28.123  1.00  0.00     0.031 A 
ATOM     38  C   UNL A   1      40.676  27.566  28.860  1.00  0.00     0.074 A 
ATOM     39  C   UNL A   1      42.794  26.770  27.866  1.00  0.00     0.049 A 
ATOM     40  N   UNL A   1      40.983  28.796  29.180  1.00  0.00    -0.248 NA
ATOM     41  C   UNL A   1      39.335  27.145  29.288  1.00  0.00     0.031 C 
ATOM     42  C   UNL A   1      43.707  25.817  27.230  1.00  0.00     0.029 A 
ATOM     43  N   UNL A   1      43.576  27.872  28.100  1.00  0.00    -0.354 N 
ATOM     44  C   UNL A   1      39.858  29.313  29.815  1.00  0.00     0.074 A 
ATOM     45  C   UNL A   1      38.861  28.261  29.822  1.00  0.00     0.031 C 
ATOM     46  C   UNL A   1      44.921  26.379  27.119  1.00  0.00     0.029 A 
ATOM     47  C   UNL A   1      44.854  27.754  27.606  1.00  0.00     0.049 A 
ATOM     48  H   UNL A   1      43.253  28.671  28.576  1.00  0.00     0.167 HD
ATOM     49  C   UNL A   1      39.679  30.552  30.337  1.00  0.00     0.034 A 
ATOM     50  C   UNL A   1      45.842  28.666  27.504  1.00  0.00     0.034 A 
ATOM     51  C   UNL A   1      40.695  31.578  30.325  1.00  0.00     0.049 A 
ATOM     52  C   UNL A   1      45.591  30.064  28.010  1.00  0.00     0.074 A 
ATOM     53  C   UNL A   1      40.629  32.864  30.834  1.00  0.00     0.029 A 
ATOM     54  N   UNL A   1      41.962  31.439  29.771  1.00  0.00    -0.354 N 
ATOM     55  N   UNL A   1      44.512  30.557  28.574  1.00  0.00    -0.248 NA
ATOM     56  C   UNL A   1      46.688  31.028  27.861  1.00  0.00     0.031 C 
ATOM     57  C   UNL A   1      41.824  33.522  30.522  1.00  0.00     0.029 A 
ATOM     58  C   UNL A   1      42.671  32.625  29.891  1.00  0.00     0.049 A 
ATOM     59  H   UNL A   1      42.306  30.617  29.352  1.00  0.00     0.167 HD
ATOM     60  C   UNL A   1      44.810  31.885  28.865  1.00  0.00     0.074 A 
ATOM     61  C   UNL A   1      46.174  32.108  28.432  1.00  0.00     0.031 C 
ATOM     62  C   UNL A   1      44.027  32.836  29.439  1.00  0.00     0.034 A 
BRANCH  49  63
ATOM     63  C   UNL A   1      38.313  30.883  30.888  1.00  0.00     0.023 A 
ATOM     64  C   UNL A   1      37.318  31.494  30.106  1.00  0.00     0.031 A 
ATOM     65  C   UNL A   1      38.015  30.613  32.237  1.00  0.00     0.131 A 
ATOM     66  C   UNL A   1      36.105  31.884  30.696  1.00  0.00     0.055 A 
ATOM     67  C   UNL A   1      36.777  30.929  32.797  1.00  0.00     0.041 A 
ATOM     68  F   UNL A   1      38.934  30.053  33.040  1.00  0.00    -0.206 F 
ATOM     69  C   UNL A   1      35.818  31.583  32.030  1.00  0.00     0.022 A 
BRANCH  66  70
ATOM     70  S   UNL A   1      34.968  32.923  29.738  1.00  0.00     0.124 S 
ATOM     71  O   UNL A   1      35.890  33.867  29.111  1.00  0.00    -0.237 OA
ATOM     72  O   UNL A   1      34.335  31.959  28.847  1.00  0.00    -0.237 OA
ATOM     73  O   UNL A   1      34.093  33.503  30.755  1.00  0.00    -0.744 OA
ENDBRANCH  66  70
ENDBRANCH  49  63
BRANCH  50  74
ATOM     74  C   UNL A   1      47.125  28.315  26.831  1.00  0.00     0.023 A 
ATOM     75  C   UNL A   1      47.209  28.201  25.435  1.00  0.00     0.031 A 
ATOM     76  C   UNL A   1      48.285  28.047  27.584  1.00  0.00     0.131 A 
ATOM     77  C   UNL A   1      48.413  27.795  24.837  1.00  0.00     0.055 A 
ATOM     78  C   UNL A   1      49.494  27.697  26.982  1.00  0.00     0.041 A 
ATOM     79  F   UNL A   1      48.261  28.138  28.923  1.00  0.00    -0.206 F 
ATOM     80  C   UNL A   1      49.559  27.557  25.599  1.00  0.00     0.022 A 
BRANCH  77  81
ATOM     81  S   UNL A   1      48.440  27.505  23.047  1.00  0.00     0.124 S 
ATOM     82  O   UNL A   1      48.311  26.054  22.980  1.00  0.00    -0.237 OA
ATOM     83  O   UNL A   1      47.282  28.273  22.601  1.00  0.00    -0.237 OA
ATOM     84  O   UNL A   1      49.735  28.038  22.635  1.00  0.00    -0.744 OA
ENDBRANCH  77  81
ENDBRANCH  50  74
BRANCH  62  85
ATOM     85  C   UNL A   1      44.655  34.189  29.666  1.00  0.00     0.023 A 
ATOM     86  C   UNL A   1      44.453  35.258  28.774  1.00  0.00     0.031 A 
ATOM     87  C   UNL A   1      45.478  34.407  30.784  1.00  0.00     0.131 A 
ATOM     88  C   UNL A   1      45.113  36.477  28.985  1.00  0.00     0.055 A 
ATOM     89  C   UNL A   1      46.081  35.642  31.023  1.00  0.00     0.041 A 
ATOM     90  F   UNL A   1      45.708  33.422  31.667  1.00  0.00    -0.206 F 
ATOM     91  C   UNL A   1      45.912  36.682  30.113  1.00  0.00     0.022 A 
BRANCH  88  92
ATOM     92  S   UNL A   1      44.987  37.766  27.715  1.00  0.00     0.124 S 
ATOM     93  O   UNL A   1      44.719  38.956  28.517  1.00  0.00    -0.237 OA
ATOM     94  O   UNL A   1      46.298  37.707  27.079  1.00  0.00    -0.237 OA
ATOM     95  O   UNL A   1      43.874  37.318  26.880  1.00  0.00    -0.744 OA
ENDBRANCH  88  92
ENDBRANCH  62  85
ENDBRANCH  36  37
ENDBRANCH  29  31
ENDBRANCH  28  29
ENDBRANCH  27  28
ENDBRANCH   1  27
TORSDOF 20
ENDMDL
