MODEL 1
REMARK VINA RESULT:     -10.7      0.000      0.000
REMARK SMILES CC[C@@H](C)CNC(=O)N1CCO[C@@H](CC(=O)OCCOC(=O)c2ccc(-c3c4nc(c(-c5cc(S(=O)(=O)[O-])ccc5F)c5ccc([nH]5)c(-c5cc(S(=O)(=O)[O-])ccc5F)c5nc(c(-c6cc(S(=O)(=O)[O-])ccc6F)c6ccc3[nH]6)C=C5)C=C4)cc2)C1
REMARK SMILES IDX 18 1 17 2 15 3 16 4 14 5 13 6 9 7 10 8 86 9 11 10 12 11 7 12
REMARK SMILES IDX 6 13 8 15 5 16 3 17 4 18 2 19 1 20 19 21 20 22 21 23 22 24
REMARK SMILES IDX 23 25 24 26 85 27 25 28 84 29 26 30 27 31 28 32 78 33 29 34
REMARK SMILES IDX 83 35 77 36 79 37 30 38 82 39 76 40 75 41 31 43 63 44 43 45
REMARK SMILES IDX 62 46 44 47 47 48 61 49 80 50 45 51 46 52 60 54 81 55 48 56
REMARK SMILES IDX 32 57 33 58 41 59 34 60 40 61 42 62 39 63 35 64 36 65 37 66
REMARK SMILES IDX 38 67 64 68 65 69 73 70 66 71 72 72 74 73 71 74 67 75 68 76
REMARK SMILES IDX 69 77 70 78 49 79 50 80 58 81 51 82 57 83 59 84 56 85 52 86
REMARK SMILES IDX 53 87 54 88 55 89
REMARK H PARENT 6 14 79 42 47 53
REMARK Flexibility Score: inf
ROOT
ATOM      1  C   UNL A   1      35.171  20.058  24.958  1.00  0.00     0.274 C 
ENDROOT
BRANCH   1   2
ATOM      2  O   UNL A   1      34.042  20.749  25.528  1.00  0.00    -0.462 OA
BRANCH   2   3
ATOM      3  C   UNL A   1      32.951  20.897  24.736  1.00  0.00     0.308 C 
ATOM      4  O   UNL A   1      32.635  20.130  23.837  1.00  0.00    -0.252 OA
BRANCH   3   5
ATOM      5  C   UNL A   1      32.211  22.176  25.028  1.00  0.00     0.156 C 
BRANCH   5   6
ATOM      6  C   UNL A   1      32.946  23.460  24.650  1.00  0.00     0.149 C 
ATOM      7  N   UNL A   1      32.779  25.667  23.539  1.00  0.00    -0.320 N 
ATOM      8  C   UNL A   1      33.052  26.317  24.818  1.00  0.00     0.150 C 
ATOM      9  C   UNL A   1      32.136  24.361  23.690  1.00  0.00     0.154 C 
ATOM     10  C   UNL A   1      33.913  25.391  25.675  1.00  0.00     0.182 C 
ATOM     11  O   UNL A   1      33.212  24.155  25.899  1.00  0.00    -0.374 OA
BRANCH   7  12
ATOM     12  C   UNL A   1      32.855  26.233  22.302  1.00  0.00     0.317 C 
ATOM     13  N   UNL A   1      32.042  27.260  21.964  1.00  0.00    -0.338 N 
ATOM     14  H   UNL A   1      31.894  27.361  20.996  1.00  0.00     0.165 HD
ATOM     15  O   UNL A   1      33.666  25.856  21.453  1.00  0.00    -0.249 OA
BRANCH  13  16
ATOM     16  C   UNL A   1      31.349  28.243  22.783  1.00  0.00     0.121 C 
BRANCH  16  17
ATOM     17  C   UNL A   1      29.875  28.440  22.377  1.00  0.00     0.005 C 
ATOM     18  C   UNL A   1      29.675  29.905  21.969  1.00  0.00     0.009 C 
BRANCH  17  19
ATOM     19  C   UNL A   1      28.927  28.026  23.518  1.00  0.00     0.002 C 
ATOM     20  C   UNL A   1      29.011  26.550  23.886  1.00  0.00     0.004 C 
ENDBRANCH  17  19
ENDBRANCH  16  17
ENDBRANCH  13  16
ENDBRANCH   7  12
ENDBRANCH   5   6
ENDBRANCH   3   5
ENDBRANCH   2   3
ENDBRANCH   1   2
BRANCH   1  21
ATOM     21  C   UNL A   1      36.317  21.016  24.620  1.00  0.00     0.275 C 
BRANCH  21  22
ATOM     22  O   UNL A   1      36.991  21.479  25.805  1.00  0.00    -0.458 OA
BRANCH  22  23
ATOM     23  C   UNL A   1      38.317  21.208  25.853  1.00  0.00     0.338 C 
ATOM     24  O   UNL A   1      38.867  20.188  25.476  1.00  0.00    -0.246 OA
BRANCH  23  25
ATOM     25  C   UNL A   1      39.057  22.402  26.296  1.00  0.00     0.060 A 
ATOM     26  C   UNL A   1      38.529  23.657  25.976  1.00  0.00     0.016 A 
ATOM     27  C   UNL A   1      40.278  22.297  26.966  1.00  0.00     0.016 A 
ATOM     28  C   UNL A   1      39.222  24.813  26.322  1.00  0.00     0.010 A 
ATOM     29  C   UNL A   1      40.972  23.461  27.316  1.00  0.00     0.010 A 
ATOM     30  C   UNL A   1      40.451  24.726  26.989  1.00  0.00    -0.014 A 
BRANCH  30  31
ATOM     31  C   UNL A   1      41.193  25.969  27.315  1.00  0.00     0.031 A 
ATOM     32  C   UNL A   1      40.555  27.025  28.171  1.00  0.00     0.074 A 
ATOM     33  C   UNL A   1      42.453  26.128  26.867  1.00  0.00     0.049 A 
ATOM     34  N   UNL A   1      41.033  28.178  28.559  1.00  0.00    -0.248 NA
ATOM     35  C   UNL A   1      39.194  26.743  28.651  1.00  0.00     0.031 C 
ATOM     36  C   UNL A   1      43.185  25.155  26.054  1.00  0.00     0.029 A 
ATOM     37  N   UNL A   1      43.342  27.159  27.036  1.00  0.00    -0.354 N 
ATOM     38  C   UNL A   1      40.034  28.766  29.328  1.00  0.00     0.074 A 
ATOM     39  C   UNL A   1      38.909  27.853  29.318  1.00  0.00     0.031 C 
ATOM     40  C   UNL A   1      44.413  25.635  25.800  1.00  0.00     0.029 A 
ATOM     41  C   UNL A   1      44.542  26.962  26.395  1.00  0.00     0.049 A 
ATOM     42  H   UNL A   1      43.139  27.963  27.566  1.00  0.00     0.167 HD
ATOM     43  C   UNL A   1      40.059  29.952  29.986  1.00  0.00     0.034 A 
ATOM     44  C   UNL A   1      45.617  27.768  26.285  1.00  0.00     0.034 A 
ATOM     45  C   UNL A   1      41.186  30.856  29.976  1.00  0.00     0.049 A 
ATOM     46  C   UNL A   1      45.593  29.112  26.967  1.00  0.00     0.074 A 
ATOM     47  C   UNL A   1      41.322  32.075  30.618  1.00  0.00     0.029 A 
ATOM     48  N   UNL A   1      42.369  30.646  29.276  1.00  0.00    -0.354 N 
ATOM     49  N   UNL A   1      44.645  29.652  27.697  1.00  0.00    -0.248 NA
ATOM     50  C   UNL A   1      46.789  29.951  26.816  1.00  0.00     0.031 C 
ATOM     51  C   UNL A   1      42.555  32.631  30.256  1.00  0.00     0.029 A 
ATOM     52  C   UNL A   1      43.223  31.726  29.445  1.00  0.00     0.049 A 
ATOM     53  H   UNL A   1      42.571  29.847  28.739  1.00  0.00     0.167 HD
ATOM     54  C   UNL A   1      45.140  30.886  28.110  1.00  0.00     0.074 A 
ATOM     55  C   UNL A   1      46.477  30.999  27.563  1.00  0.00     0.031 C 
ATOM     56  C   UNL A   1      44.546  31.837  28.875  1.00  0.00     0.034 A 
BRANCH  43  57
ATOM     57  C   UNL A   1      38.807  30.357  30.727  1.00  0.00     0.023 A 
ATOM     58  C   UNL A   1      37.749  31.024  30.086  1.00  0.00     0.031 A 
ATOM     59  C   UNL A   1      38.683  30.096  32.104  1.00  0.00     0.131 A 
ATOM     60  C   UNL A   1      36.646  31.469  30.833  1.00  0.00     0.055 A 
ATOM     61  C   UNL A   1      37.550  30.473  32.826  1.00  0.00     0.041 A 
ATOM     62  F   UNL A   1      39.670  29.480  32.774  1.00  0.00    -0.206 F 
ATOM     63  C   UNL A   1      36.529  31.178  32.194  1.00  0.00     0.022 A 
BRANCH  60  64
ATOM     64  S   UNL A   1      35.432  32.552  30.030  1.00  0.00     0.124 S 
ATOM     65  O   UNL A   1      35.089  31.780  28.837  1.00  0.00    -0.237 OA
ATOM     66  O   UNL A   1      34.389  32.664  31.041  1.00  0.00    -0.237 OA
ATOM     67  O   UNL A   1      36.184  33.778  29.771  1.00  0.00    -0.744 OA
ENDBRANCH  60  64
ENDBRANCH  43  57
BRANCH  44  68
ATOM     68  C   UNL A   1      46.789  27.351  25.464  1.00  0.00     0.023 A 
ATOM     69  C   UNL A   1      46.964  27.818  24.152  1.00  0.00     0.031 A 
ATOM     70  C   UNL A   1      47.733  26.439  25.972  1.00  0.00     0.131 A 
ATOM     71  C   UNL A   1      48.034  27.342  23.378  1.00  0.00     0.055 A 
ATOM     72  C   UNL A   1      48.824  26.008  25.217  1.00  0.00     0.041 A 
ATOM     73  F   UNL A   1      47.611  25.961  27.221  1.00  0.00    -0.206 F 
ATOM     74  C   UNL A   1      48.972  26.451  23.906  1.00  0.00     0.022 A 
BRANCH  71  75
ATOM     75  S   UNL A   1      48.141  27.844  21.639  1.00  0.00     0.124 S 
ATOM     76  O   UNL A   1      48.315  26.560  20.968  1.00  0.00    -0.237 OA
ATOM     77  O   UNL A   1      46.856  28.505  21.435  1.00  0.00    -0.237 OA
ATOM     78  O   UNL A   1      49.304  28.726  21.609  1.00  0.00    -0.744 OA
ENDBRANCH  71  75
ENDBRANCH  44  68
BRANCH  56  79
ATOM     79  C   UNL A   1      45.364  33.067  29.187  1.00  0.00     0.023 A 
ATOM     80  C   UNL A   1      45.389  34.177  28.323  1.00  0.00     0.031 A 
ATOM     81  C   UNL A   1      46.150  33.118  30.353  1.00  0.00     0.131 A 
ATOM     82  C   UNL A   1      46.230  35.264  28.607  1.00  0.00     0.055 A 
ATOM     83  C   UNL A   1      46.939  34.227  30.659  1.00  0.00     0.041 A 
ATOM     84  F   UNL A   1      46.166  32.086  31.211  1.00  0.00    -0.206 F 
ATOM     85  C   UNL A   1      46.994  35.303  29.777  1.00  0.00     0.022 A 
BRANCH  82  86
ATOM     86  S   UNL A   1      46.384  36.591  27.380  1.00  0.00     0.124 S 
ATOM     87  O   UNL A   1      47.447  36.084  26.516  1.00  0.00    -0.237 OA
ATOM     88  O   UNL A   1      45.049  36.631  26.793  1.00  0.00    -0.237 OA
ATOM     89  O   UNL A   1      46.743  37.760  28.181  1.00  0.00    -0.744 OA
ENDBRANCH  82  86
ENDBRANCH  56  79
ENDBRANCH  30  31
ENDBRANCH  23  25
ENDBRANCH  22  23
ENDBRANCH  21  22
ENDBRANCH   1  21
TORSDOF 19
ENDMDL
MODEL 2
REMARK VINA RESULT:     -10.6      1.269      7.814
REMARK SMILES CC[C@@H](C)CNC(=O)N1CCO[C@@H](CC(=O)OCCOC(=O)c2ccc(-c3c4nc(c(-c5cc(S(=O)(=O)[O-])ccc5F)c5ccc([nH]5)c(-c5cc(S(=O)(=O)[O-])ccc5F)c5nc(c(-c6cc(S(=O)(=O)[O-])ccc6F)c6ccc3[nH]6)C=C5)C=C4)cc2)C1
REMARK SMILES IDX 18 1 17 2 15 3 16 4 14 5 13 6 9 7 10 8 86 9 11 10 12 11 7 12
REMARK SMILES IDX 6 13 8 15 5 16 3 17 4 18 2 19 1 20 19 21 20 22 21 23 22 24
REMARK SMILES IDX 23 25 24 26 85 27 25 28 84 29 26 30 27 31 28 32 78 33 29 34
REMARK SMILES IDX 83 35 77 36 79 37 30 38 82 39 76 40 75 41 31 43 63 44 43 45
REMARK SMILES IDX 62 46 44 47 47 48 61 49 80 50 45 51 46 52 60 54 81 55 48 56
REMARK SMILES IDX 32 57 33 58 41 59 34 60 40 61 42 62 39 63 35 64 36 65 37 66
REMARK SMILES IDX 38 67 64 68 65 69 73 70 66 71 72 72 74 73 71 74 67 75 68 76
REMARK SMILES IDX 69 77 70 78 49 79 50 80 58 81 51 82 57 83 59 84 56 85 52 86
REMARK SMILES IDX 53 87 54 88 55 89
REMARK H PARENT 6 14 79 42 47 53
REMARK Flexibility Score: inf
ROOT
ATOM      1  C   UNL A   1      35.495  21.036  24.664  1.00  0.00     0.274 C 
ENDROOT
BRANCH   1   2
ATOM      2  O   UNL A   1      34.503  19.991  24.659  1.00  0.00    -0.462 OA
BRANCH   2   3
ATOM      3  C   UNL A   1      33.360  20.228  25.350  1.00  0.00     0.308 C 
ATOM      4  O   UNL A   1      32.438  19.432  25.464  1.00  0.00    -0.252 OA
BRANCH   3   5
ATOM      5  C   UNL A   1      33.310  21.632  25.893  1.00  0.00     0.156 C 
BRANCH   5   6
ATOM      6  C   UNL A   1      32.164  22.496  25.371  1.00  0.00     0.149 C 
ATOM      7  N   UNL A   1      31.296  24.798  25.090  1.00  0.00    -0.320 N 
ATOM      8  C   UNL A   1      31.345  24.626  23.640  1.00  0.00     0.150 C 
ATOM      9  C   UNL A   1      32.282  23.978  25.794  1.00  0.00     0.154 C 
ATOM     10  C   UNL A   1      31.150  23.148  23.307  1.00  0.00     0.182 C 
ATOM     11  O   UNL A   1      32.196  22.376  23.923  1.00  0.00    -0.374 OA
BRANCH   7  12
ATOM     12  C   UNL A   1      30.618  25.760  25.776  1.00  0.00     0.317 C 
ATOM     13  N   UNL A   1      30.937  27.067  25.627  1.00  0.00    -0.338 N 
ATOM     14  H   UNL A   1      30.683  27.638  26.388  1.00  0.00     0.165 HD
ATOM     15  O   UNL A   1      29.686  25.494  26.539  1.00  0.00    -0.249 OA
BRANCH  13  16
ATOM     16  C   UNL A   1      31.589  27.775  24.536  1.00  0.00     0.121 C 
BRANCH  16  17
ATOM     17  C   UNL A   1      32.747  28.677  25.005  1.00  0.00     0.005 C 
ATOM     18  C   UNL A   1      33.693  27.840  25.876  1.00  0.00     0.009 C 
BRANCH  17  19
ATOM     19  C   UNL A   1      32.216  29.914  25.755  1.00  0.00     0.002 C 
ATOM     20  C   UNL A   1      32.542  29.920  27.242  1.00  0.00     0.004 C 
ENDBRANCH  17  19
ENDBRANCH  16  17
ENDBRANCH  13  16
ENDBRANCH   7  12
ENDBRANCH   5   6
ENDBRANCH   3   5
ENDBRANCH   2   3
ENDBRANCH   1   2
BRANCH   1  21
ATOM     21  C   UNL A   1      36.889  20.502  25.006  1.00  0.00     0.275 C 
BRANCH  21  22
ATOM     22  O   UNL A   1      37.527  21.295  26.025  1.00  0.00    -0.458 OA
BRANCH  22  23
ATOM     23  C   UNL A   1      38.869  21.139  26.115  1.00  0.00     0.338 C 
ATOM     24  O   UNL A   1      39.515  20.166  25.766  1.00  0.00    -0.246 OA
BRANCH  23  25
ATOM     25  C   UNL A   1      39.491  22.396  26.565  1.00  0.00     0.060 A 
ATOM     26  C   UNL A   1      38.921  23.599  26.137  1.00  0.00     0.016 A 
ATOM     27  C   UNL A   1      40.647  22.398  27.349  1.00  0.00     0.016 A 
ATOM     28  C   UNL A   1      39.508  24.811  26.487  1.00  0.00     0.010 A 
ATOM     29  C   UNL A   1      41.233  23.619  27.704  1.00  0.00     0.010 A 
ATOM     30  C   UNL A   1      40.671  24.833  27.269  1.00  0.00    -0.014 A 
BRANCH  30  31
ATOM     31  C   UNL A   1      41.303  26.133  27.600  1.00  0.00     0.031 A 
ATOM     32  C   UNL A   1      42.679  26.453  27.093  1.00  0.00     0.074 A 
ATOM     33  C   UNL A   1      40.620  27.038  28.328  1.00  0.00     0.049 A 
ATOM     34  N   UNL A   1      43.403  27.527  27.279  1.00  0.00    -0.248 NA
ATOM     35  C   UNL A   1      43.328  25.423  26.269  1.00  0.00     0.031 C 
ATOM     36  C   UNL A   1      39.265  26.848  28.847  1.00  0.00     0.029 A 
ATOM     37  N   UNL A   1      40.967  28.295  28.751  1.00  0.00    -0.354 N 
ATOM     38  C   UNL A   1      44.595  27.306  26.598  1.00  0.00     0.074 A 
ATOM     39  C   UNL A   1      44.508  25.977  26.026  1.00  0.00     0.031 C 
ATOM     40  C   UNL A   1      38.894  27.953  29.515  1.00  0.00     0.029 A 
ATOM     41  C   UNL A   1      39.997  28.910  29.506  1.00  0.00     0.049 A 
ATOM     42  H   UNL A   1      41.830  28.718  28.534  1.00  0.00     0.167 HD
ATOM     43  C   UNL A   1      45.658  28.138  26.457  1.00  0.00     0.034 A 
ATOM     44  C   UNL A   1      40.003  30.102  30.136  1.00  0.00     0.034 A 
ATOM     45  C   UNL A   1      45.732  29.455  27.044  1.00  0.00     0.049 A 
ATOM     46  C   UNL A   1      41.223  30.980  30.023  1.00  0.00     0.074 A 
ATOM     47  C   UNL A   1      46.753  30.385  26.953  1.00  0.00     0.029 A 
ATOM     48  N   UNL A   1      44.749  30.028  27.844  1.00  0.00    -0.354 N 
ATOM     49  N   UNL A   1      42.342  30.761  29.370  1.00  0.00    -0.248 NA
ATOM     50  C   UNL A   1      41.179  32.268  30.726  1.00  0.00     0.031 C 
ATOM     51  C   UNL A   1      46.419  31.489  27.748  1.00  0.00     0.029 A 
ATOM     52  C   UNL A   1      45.155  31.282  28.278  1.00  0.00     0.049 A 
ATOM     53  H   UNL A   1      43.889  29.606  28.069  1.00  0.00     0.167 HD
ATOM     54  C   UNL A   1      43.124  31.896  29.567  1.00  0.00     0.074 A 
ATOM     55  C   UNL A   1      42.341  32.802  30.383  1.00  0.00     0.031 C 
ATOM     56  C   UNL A   1      44.373  32.167  29.111  1.00  0.00     0.034 A 
BRANCH  43  57
ATOM     57  C   UNL A   1      46.843  27.618  25.680  1.00  0.00     0.023 A 
ATOM     58  C   UNL A   1      47.076  27.993  24.345  1.00  0.00     0.031 A 
ATOM     59  C   UNL A   1      47.738  26.710  26.275  1.00  0.00     0.131 A 
ATOM     60  C   UNL A   1      48.134  27.410  23.628  1.00  0.00     0.055 A 
ATOM     61  C   UNL A   1      48.832  26.193  25.580  1.00  0.00     0.041 A 
ATOM     62  F   UNL A   1      47.555  26.300  27.540  1.00  0.00    -0.206 F 
ATOM     63  C   UNL A   1      49.027  26.530  24.244  1.00  0.00     0.022 A 
BRANCH  60  64
ATOM     64  S   UNL A   1      48.245  27.713  21.843  1.00  0.00     0.124 S 
ATOM     65  O   UNL A   1      49.355  28.661  21.771  1.00  0.00    -0.237 OA
ATOM     66  O   UNL A   1      48.507  26.381  21.311  1.00  0.00    -0.237 OA
ATOM     67  O   UNL A   1      46.937  28.272  21.507  1.00  0.00    -0.744 OA
ENDBRANCH  60  64
ENDBRANCH  43  57
BRANCH  44  68
ATOM     68  C   UNL A   1      38.837  30.522  30.964  1.00  0.00     0.023 A 
ATOM     69  C   UNL A   1      37.729  31.163  30.389  1.00  0.00     0.031 A 
ATOM     70  C   UNL A   1      38.836  30.322  32.356  1.00  0.00     0.131 A 
ATOM     71  C   UNL A   1      36.683  31.619  31.208  1.00  0.00     0.055 A 
ATOM     72  C   UNL A   1      37.771  30.731  33.160  1.00  0.00     0.041 A 
ATOM     73  F   UNL A   1      39.873  29.714  32.956  1.00  0.00    -0.206 F 
ATOM     74  C   UNL A   1      36.691  31.396  32.587  1.00  0.00     0.022 A 
BRANCH  71  75
ATOM     75  S   UNL A   1      35.344  32.582  30.455  1.00  0.00     0.124 S 
ATOM     76  O   UNL A   1      36.019  33.836  30.140  1.00  0.00    -0.237 OA
ATOM     77  O   UNL A   1      34.975  31.749  29.315  1.00  0.00    -0.237 OA
ATOM     78  O   UNL A   1      34.343  32.661  31.515  1.00  0.00    -0.744 OA
ENDBRANCH  71  75
ENDBRANCH  44  68
BRANCH  56  79
ATOM     79  C   UNL A   1      44.949  33.517  29.466  1.00  0.00     0.023 A 
ATOM     80  C   UNL A   1      44.640  34.670  28.721  1.00  0.00     0.031 A 
ATOM     81  C   UNL A   1      45.839  33.645  30.547  1.00  0.00     0.131 A 
ATOM     82  C   UNL A   1      45.264  35.888  29.032  1.00  0.00     0.055 A 
ATOM     83  C   UNL A   1      46.411  34.872  30.886  1.00  0.00     0.041 A 
ATOM     84  F   UNL A   1      46.170  32.577  31.290  1.00  0.00    -0.206 F 
ATOM     85  C   UNL A   1      46.136  36.000  30.118  1.00  0.00     0.022 A 
BRANCH  82  86
ATOM     86  S   UNL A   1      44.993  37.310  27.937  1.00  0.00     0.124 S 
ATOM     87  O   UNL A   1      46.350  37.613  27.492  1.00  0.00    -0.237 OA
ATOM     88  O   UNL A   1      44.097  36.759  26.926  1.00  0.00    -0.237 OA
ATOM     89  O   UNL A   1      44.392  38.311  28.817  1.00  0.00    -0.744 OA
ENDBRANCH  82  86
ENDBRANCH  56  79
ENDBRANCH  30  31
ENDBRANCH  23  25
ENDBRANCH  22  23
ENDBRANCH  21  22
ENDBRANCH   1  21
TORSDOF 19
ENDMDL
MODEL 3
REMARK VINA RESULT:     -10.4      5.105      7.948
REMARK SMILES CC[C@@H](C)CNC(=O)N1CCO[C@@H](CC(=O)OCCOC(=O)c2ccc(-c3c4nc(c(-c5cc(S(=O)(=O)[O-])ccc5F)c5ccc([nH]5)c(-c5cc(S(=O)(=O)[O-])ccc5F)c5nc(c(-c6cc(S(=O)(=O)[O-])ccc6F)c6ccc3[nH]6)C=C5)C=C4)cc2)C1
REMARK SMILES IDX 18 1 17 2 15 3 16 4 14 5 13 6 9 7 10 8 86 9 11 10 12 11 7 12
REMARK SMILES IDX 6 13 8 15 5 16 3 17 4 18 2 19 1 20 19 21 20 22 21 23 22 24
REMARK SMILES IDX 23 25 24 26 85 27 25 28 84 29 26 30 27 31 28 32 78 33 29 34
REMARK SMILES IDX 83 35 77 36 79 37 30 38 82 39 76 40 75 41 31 43 63 44 43 45
REMARK SMILES IDX 62 46 44 47 47 48 61 49 80 50 45 51 46 52 60 54 81 55 48 56
REMARK SMILES IDX 32 57 33 58 41 59 34 60 40 61 42 62 39 63 35 64 36 65 37 66
REMARK SMILES IDX 38 67 64 68 65 69 73 70 66 71 72 72 74 73 71 74 67 75 68 76
REMARK SMILES IDX 69 77 70 78 49 79 50 80 58 81 51 82 57 83 59 84 56 85 52 86
REMARK SMILES IDX 53 87 54 88 55 89
REMARK H PARENT 6 14 79 42 47 53
REMARK Flexibility Score: inf
ROOT
ATOM      1  C   UNL A   1      31.339  30.618  25.463  1.00  0.00     0.274 C 
ENDROOT
BRANCH   1   2
ATOM      2  O   UNL A   1      32.243  29.546  25.130  1.00  0.00    -0.462 OA
BRANCH   2   3
ATOM      3  C   UNL A   1      31.770  28.581  24.302  1.00  0.00     0.308 C 
ATOM      4  O   UNL A   1      31.865  28.603  23.082  1.00  0.00    -0.252 OA
BRANCH   3   5
ATOM      5  C   UNL A   1      31.024  27.509  25.053  1.00  0.00     0.156 C 
BRANCH   5   6
ATOM      6  C   UNL A   1      31.544  26.087  24.853  1.00  0.00     0.149 C 
ATOM      7  N   UNL A   1      31.627  23.788  25.768  1.00  0.00    -0.320 N 
ATOM      8  C   UNL A   1      30.917  23.305  24.586  1.00  0.00     0.150 C 
ATOM      9  C   UNL A   1      31.321  25.182  26.087  1.00  0.00     0.154 C 
ATOM     10  C   UNL A   1      31.248  24.212  23.402  1.00  0.00     0.182 C 
ATOM     11  O   UNL A   1      30.837  25.558  23.698  1.00  0.00    -0.374 OA
BRANCH   7  12
ATOM     12  C   UNL A   1      32.320  23.035  26.668  1.00  0.00     0.317 C 
ATOM     13  N   UNL A   1      33.426  22.355  26.290  1.00  0.00    -0.338 N 
ATOM     14  H   UNL A   1      33.642  21.579  26.857  1.00  0.00     0.165 HD
ATOM     15  O   UNL A   1      31.989  22.954  27.853  1.00  0.00    -0.249 OA
BRANCH  13  16
ATOM     16  C   UNL A   1      34.354  22.570  25.189  1.00  0.00     0.121 C 
BRANCH  16  17
ATOM     17  C   UNL A   1      34.833  21.260  24.534  1.00  0.00     0.005 C 
ATOM     18  C   UNL A   1      33.688  20.240  24.594  1.00  0.00     0.009 C 
BRANCH  17  19
ATOM     19  C   UNL A   1      36.109  20.734  25.218  1.00  0.00     0.002 C 
ATOM     20  C   UNL A   1      37.397  21.327  24.662  1.00  0.00     0.004 C 
ENDBRANCH  17  19
ENDBRANCH  16  17
ENDBRANCH  13  16
ENDBRANCH   7  12
ENDBRANCH   5   6
ENDBRANCH   3   5
ENDBRANCH   2   3
ENDBRANCH   1   2
BRANCH   1  21
ATOM     21  C   UNL A   1      31.752  31.336  26.751  1.00  0.00     0.275 C 
BRANCH  21  22
ATOM     22  O   UNL A   1      33.091  30.986  27.150  1.00  0.00    -0.458 OA
BRANCH  22  23
ATOM     23  C   UNL A   1      33.841  32.018  27.606  1.00  0.00     0.338 C 
ATOM     24  O   UNL A   1      33.496  33.182  27.705  1.00  0.00    -0.246 OA
BRANCH  23  25
ATOM     25  C   UNL A   1      35.122  31.513  28.128  1.00  0.00     0.060 A 
ATOM     26  C   UNL A   1      35.160  30.204  28.620  1.00  0.00     0.016 A 
ATOM     27  C   UNL A   1      36.256  32.326  28.188  1.00  0.00     0.016 A 
ATOM     28  C   UNL A   1      36.333  29.704  29.177  1.00  0.00     0.010 A 
ATOM     29  C   UNL A   1      37.436  31.819  28.746  1.00  0.00     0.010 A 
ATOM     30  C   UNL A   1      37.479  30.506  29.250  1.00  0.00    -0.014 A 
BRANCH  30  31
ATOM     31  C   UNL A   1      38.707  29.967  29.883  1.00  0.00     0.031 A 
ATOM     32  C   UNL A   1      39.128  30.448  31.242  1.00  0.00     0.074 A 
ATOM     33  C   UNL A   1      39.421  29.019  29.246  1.00  0.00     0.049 A 
ATOM     34  N   UNL A   1      40.169  30.106  31.956  1.00  0.00    -0.248 NA
ATOM     35  C   UNL A   1      38.262  31.450  31.878  1.00  0.00     0.031 C 
ATOM     36  C   UNL A   1      39.090  28.455  27.937  1.00  0.00     0.029 A 
ATOM     37  N   UNL A   1      40.567  28.360  29.614  1.00  0.00    -0.354 N 
ATOM     38  C   UNL A   1      40.089  30.851  33.128  1.00  0.00     0.074 A 
ATOM     39  C   UNL A   1      38.913  31.690  33.008  1.00  0.00     0.031 C 
ATOM     40  C   UNL A   1      40.009  27.530  27.615  1.00  0.00     0.029 A 
ATOM     41  C   UNL A   1      41.014  27.465  28.672  1.00  0.00     0.049 A 
ATOM     42  H   UNL A   1      41.024  28.514  30.472  1.00  0.00     0.167 HD
ATOM     43  C   UNL A   1      40.913  30.829  34.205  1.00  0.00     0.034 A 
ATOM     44  C   UNL A   1      42.120  26.694  28.654  1.00  0.00     0.034 A 
ATOM     45  C   UNL A   1      42.088  29.993  34.302  1.00  0.00     0.049 A 
ATOM     46  C   UNL A   1      43.060  26.739  29.832  1.00  0.00     0.074 A 
ATOM     47  C   UNL A   1      42.984  29.883  35.351  1.00  0.00     0.029 A 
ATOM     48  N   UNL A   1      42.539  29.133  33.307  1.00  0.00    -0.354 N 
ATOM     49  N   UNL A   1      42.967  27.443  30.937  1.00  0.00    -0.248 NA
ATOM     50  C   UNL A   1      44.248  25.880  29.763  1.00  0.00     0.031 C 
ATOM     51  C   UNL A   1      44.009  29.009  34.968  1.00  0.00     0.029 A 
ATOM     52  C   UNL A   1      43.716  28.515  33.706  1.00  0.00     0.049 A 
ATOM     53  H   UNL A   1      42.088  28.983  32.446  1.00  0.00     0.167 HD
ATOM     54  C   UNL A   1      44.075  27.093  31.703  1.00  0.00     0.074 A 
ATOM     55  C   UNL A   1      44.809  26.102  30.942  1.00  0.00     0.031 C 
ATOM     56  C   UNL A   1      44.450  27.545  32.927  1.00  0.00     0.034 A 
BRANCH  43  57
ATOM     57  C   UNL A   1      40.597  31.776  35.337  1.00  0.00     0.023 A 
ATOM     58  C   UNL A   1      39.518  31.555  36.210  1.00  0.00     0.031 A 
ATOM     59  C   UNL A   1      41.370  32.936  35.527  1.00  0.00     0.131 A 
ATOM     60  C   UNL A   1      39.199  32.511  37.187  1.00  0.00     0.055 A 
ATOM     61  C   UNL A   1      41.094  33.845  36.549  1.00  0.00     0.041 A 
ATOM     62  F   UNL A   1      42.400  33.212  34.712  1.00  0.00    -0.206 F 
ATOM     63  C   UNL A   1      39.994  33.644  37.378  1.00  0.00     0.022 A 
BRANCH  60  64
ATOM     64  S   UNL A   1      37.651  32.323  38.116  1.00  0.00     0.124 S 
ATOM     65  O   UNL A   1      38.031  32.835  39.431  1.00  0.00    -0.237 OA
ATOM     66  O   UNL A   1      36.722  33.146  37.353  1.00  0.00    -0.237 OA
ATOM     67  O   UNL A   1      37.395  30.884  38.068  1.00  0.00    -0.744 OA
ENDBRANCH  60  64
ENDBRANCH  43  57
BRANCH  44  68
ATOM     68  C   UNL A   1      42.426  25.845  27.467  1.00  0.00     0.023 A 
ATOM     69  C   UNL A   1      42.019  24.504  27.407  1.00  0.00     0.031 A 
ATOM     70  C   UNL A   1      43.172  26.359  26.390  1.00  0.00     0.131 A 
ATOM     71  C   UNL A   1      42.394  23.709  26.312  1.00  0.00     0.055 A 
ATOM     72  C   UNL A   1      43.497  25.579  25.280  1.00  0.00     0.041 A 
ATOM     73  F   UNL A   1      43.585  27.637  26.399  1.00  0.00    -0.206 F 
ATOM     74  C   UNL A   1      43.119  24.241  25.242  1.00  0.00     0.022 A 
BRANCH  71  75
ATOM     75  S   UNL A   1      41.988  21.941  26.340  1.00  0.00     0.124 S 
ATOM     76  O   UNL A   1      40.555  21.960  26.072  1.00  0.00    -0.237 OA
ATOM     77  O   UNL A   1      42.834  21.419  25.272  1.00  0.00    -0.237 OA
ATOM     78  O   UNL A   1      42.365  21.527  27.689  1.00  0.00    -0.744 OA
ENDBRANCH  71  75
ENDBRANCH  44  68
BRANCH  56  79
ATOM     79  C   UNL A   1      45.698  26.939  33.523  1.00  0.00     0.023 A 
ATOM     80  C   UNL A   1      45.682  25.678  34.146  1.00  0.00     0.031 A 
ATOM     81  C   UNL A   1      46.913  27.645  33.490  1.00  0.00     0.131 A 
ATOM     82  C   UNL A   1      46.843  25.189  34.763  1.00  0.00     0.055 A 
ATOM     83  C   UNL A   1      48.080  27.127  34.055  1.00  0.00     0.041 A 
ATOM     84  F   UNL A   1      46.986  28.854  32.910  1.00  0.00    -0.206 F 
ATOM     85  C   UNL A   1      48.046  25.899  34.709  1.00  0.00     0.022 A 
BRANCH  82  86
ATOM     86  S   UNL A   1      46.741  23.652  35.722  1.00  0.00     0.124 S 
ATOM     87  O   UNL A   1      47.634  23.933  36.843  1.00  0.00    -0.237 OA
ATOM     88  O   UNL A   1      45.319  23.578  36.043  1.00  0.00    -0.237 OA
ATOM     89  O   UNL A   1      47.219  22.633  34.789  1.00  0.00    -0.744 OA
ENDBRANCH  82  86
ENDBRANCH  56  79
ENDBRANCH  30  31
ENDBRANCH  23  25
ENDBRANCH  22  23
ENDBRANCH  21  22
ENDBRANCH   1  21
TORSDOF 19
ENDMDL
