MODEL 1
REMARK VINA RESULT:      -9.8      0.000      0.000
REMARK SMILES O=C(COc1cc(-c2ccccc2)nc(Nc2ccccc2Br)n1)OCCOC(=O)c1ccc(-c2c3nc(c(-c4cc(S(=O)(=O)[O-])ccc4F)c4ccc([nH]4)c(-c4cc(S(=O)(=O)[O-])ccc4F)c4nc(c(-c5cc(S(=O)(=O)[O-])ccc5F)c5ccc2[nH]5)C=C4)C=C3)cc1
REMARK SMILES IDX 26 1 25 2 2 3 1 4 3 5 4 6 5 7 6 8 24 9 7 10 15 11 14 12 8 13
REMARK SMILES IDX 9 14 13 15 10 16 12 17 11 18 16 19 17 21 18 22 22 23 19 24
REMARK SMILES IDX 21 25 23 26 20 27 27 28 28 29 29 30 30 31 31 32 32 33 93 34
REMARK SMILES IDX 33 35 92 36 34 37 35 38 36 39 86 40 37 41 91 42 85 43 87 44
REMARK SMILES IDX 38 45 90 46 84 47 83 48 39 50 71 51 51 52 70 53 52 54 55 55
REMARK SMILES IDX 69 56 88 57 53 58 54 59 68 61 89 62 56 63 40 64 41 65 49 66
REMARK SMILES IDX 42 67 48 68 50 69 47 70 43 71 44 72 45 73 46 74 72 75 73 76
REMARK SMILES IDX 81 77 74 78 80 79 82 80 79 81 75 82 76 83 77 84 78 85 57 86
REMARK SMILES IDX 58 87 66 88 59 89 65 90 67 91 64 92 60 93 61 94 62 95 63 96
REMARK H PARENT 16 20 87 49 55 60
REMARK Flexibility Score: inf
ROOT
ATOM      1  C   UNL A   1      33.244  36.354  31.624  1.00  0.00     0.274 C 
ENDROOT
BRANCH   1   2
ATOM      2  O   UNL A   1      34.363  35.738  32.293  1.00  0.00    -0.460 OA
BRANCH   2   3
ATOM      3  C   UNL A   1      34.289  34.536  32.919  1.00  0.00     0.344 C 
ATOM      4  O   UNL A   1      33.195  34.017  33.133  1.00  0.00    -0.248 OA
BRANCH   3   5
ATOM      5  C   UNL A   1      35.589  33.809  33.235  1.00  0.00     0.353 C 
BRANCH   5   6
ATOM      6  O   UNL A   1      35.990  33.985  34.592  1.00  0.00    -0.466 OA
BRANCH   6   7
ATOM      7  C   UNL A   1      36.814  32.961  34.972  1.00  0.00     0.219 A 
ATOM      8  C   UNL A   1      37.361  32.120  34.048  1.00  0.00     0.097 A 
ATOM      9  N   UNL A   1      37.040  32.871  36.278  1.00  0.00    -0.177 NA
ATOM     10  C   UNL A   1      38.111  31.079  34.546  1.00  0.00     0.080 A 
ATOM     11  C   UNL A   1      37.787  31.838  36.696  1.00  0.00     0.231 A 
ATOM     12  N   UNL A   1      38.333  30.923  35.871  1.00  0.00    -0.212 NA
BRANCH  10  13
ATOM     13  C   UNL A   1      38.633  30.070  33.610  1.00  0.00     0.000 A 
ATOM     14  C   UNL A   1      39.978  29.674  33.638  1.00  0.00     0.010 A 
ATOM     15  C   UNL A   1      37.758  29.361  32.760  1.00  0.00     0.010 A 
ATOM     16  C   UNL A   1      40.418  28.579  32.884  1.00  0.00     0.001 A 
ATOM     17  C   UNL A   1      38.194  28.267  32.010  1.00  0.00     0.001 A 
ATOM     18  C   UNL A   1      39.524  27.870  32.083  1.00  0.00     0.000 A 
ENDBRANCH  10  13
BRANCH  11  19
ATOM     19  N   UNL A   1      38.034  31.723  38.061  1.00  0.00    -0.323 N 
ATOM     20  H   UNL A   1      38.080  30.810  38.430  1.00  0.00     0.170 HD
BRANCH  19  21
ATOM     21  C   UNL A   1      38.225  32.781  38.962  1.00  0.00     0.055 A 
ATOM     22  C   UNL A   1      39.252  33.702  38.703  1.00  0.00     0.027 A 
ATOM     23  C   UNL A   1      37.462  32.953  40.132  1.00  0.00     0.041 A 
ATOM     24  C   UNL A   1      39.460  34.806  39.537  1.00  0.00     0.002 A 
ATOM     25  C   UNL A   1      37.674  34.054  40.971  1.00  0.00     0.018 A 
ATOM     26  Br  UNL A   1      36.135  31.701  40.663  1.00  0.00    -0.049 Br
ATOM     27  C   UNL A   1      38.663  34.986  40.666  1.00  0.00     0.001 A 
ENDBRANCH  19  21
ENDBRANCH  11  19
ENDBRANCH   6   7
ENDBRANCH   5   6
ENDBRANCH   3   5
ENDBRANCH   2   3
ENDBRANCH   1   2
BRANCH   1  28
ATOM     28  C   UNL A   1      33.212  35.966  30.146  1.00  0.00     0.275 C 
BRANCH  28  29
ATOM     29  O   UNL A   1      32.867  34.574  30.014  1.00  0.00    -0.458 OA
BRANCH  29  30
ATOM     30  C   UNL A   1      33.235  33.988  28.845  1.00  0.00     0.338 C 
ATOM     31  O   UNL A   1      32.646  34.073  27.781  1.00  0.00    -0.246 OA
BRANCH  30  32
ATOM     32  C   UNL A   1      34.583  33.394  29.005  1.00  0.00     0.060 A 
ATOM     33  C   UNL A   1      34.755  32.405  29.980  1.00  0.00     0.016 A 
ATOM     34  C   UNL A   1      35.661  33.782  28.201  1.00  0.00     0.016 A 
ATOM     35  C   UNL A   1      36.012  31.829  30.179  1.00  0.00     0.010 A 
ATOM     36  C   UNL A   1      36.920  33.205  28.405  1.00  0.00     0.010 A 
ATOM     37  C   UNL A   1      37.109  32.247  29.415  1.00  0.00    -0.014 A 
BRANCH  37  38
ATOM     38  C   UNL A   1      38.473  31.788  29.783  1.00  0.00     0.031 A 
ATOM     39  C   UNL A   1      39.254  32.574  30.802  1.00  0.00     0.074 A 
ATOM     40  C   UNL A   1      38.994  30.664  29.259  1.00  0.00     0.049 A 
ATOM     41  N   UNL A   1      40.431  32.329  31.317  1.00  0.00    -0.248 NA
ATOM     42  C   UNL A   1      38.618  33.802  31.304  1.00  0.00     0.031 C 
ATOM     43  C   UNL A   1      38.335  29.807  28.275  1.00  0.00     0.029 A 
ATOM     44  N   UNL A   1      40.200  30.049  29.484  1.00  0.00    -0.354 N 
ATOM     45  C   UNL A   1      40.664  33.353  32.229  1.00  0.00     0.074 A 
ATOM     46  C   UNL A   1      39.536  34.256  32.143  1.00  0.00     0.031 C 
ATOM     47  C   UNL A   1      39.150  28.781  27.977  1.00  0.00     0.029 A 
ATOM     48  C   UNL A   1      40.394  28.914  28.732  1.00  0.00     0.049 A 
ATOM     49  H   UNL A   1      40.867  30.389  30.125  1.00  0.00     0.167 HD
ATOM     50  C   UNL A   1      41.711  33.515  33.077  1.00  0.00     0.034 A 
ATOM     51  C   UNL A   1      41.452  28.081  28.657  1.00  0.00     0.034 A 
ATOM     52  C   UNL A   1      42.850  32.632  33.130  1.00  0.00     0.049 A 
ATOM     53  C   UNL A   1      42.643  28.326  29.554  1.00  0.00     0.074 A 
ATOM     54  C   UNL A   1      43.966  32.712  33.945  1.00  0.00     0.029 A 
ATOM     55  N   UNL A   1      43.027  31.511  32.328  1.00  0.00    -0.354 N 
ATOM     56  N   UNL A   1      42.835  29.280  30.437  1.00  0.00    -0.248 NA
ATOM     57  C   UNL A   1      43.750  27.365  29.460  1.00  0.00     0.031 C 
ATOM     58  C   UNL A   1      44.845  31.681  33.591  1.00  0.00     0.029 A 
ATOM     59  C   UNL A   1      44.246  30.911  32.608  1.00  0.00     0.049 A 
ATOM     60  H   UNL A   1      42.381  31.190  31.658  1.00  0.00     0.167 HD
ATOM     61  C   UNL A   1      44.071  29.013  31.022  1.00  0.00     0.074 A 
ATOM     62  C   UNL A   1      44.564  27.797  30.410  1.00  0.00     0.031 C 
ATOM     63  C   UNL A   1      44.739  29.709  31.979  1.00  0.00     0.034 A 
BRANCH  50  64
ATOM     64  C   UNL A   1      41.672  34.716  33.989  1.00  0.00     0.023 A 
ATOM     65  C   UNL A   1      42.422  35.873  33.710  1.00  0.00     0.031 A 
ATOM     66  C   UNL A   1      40.902  34.697  35.164  1.00  0.00     0.131 A 
ATOM     67  C   UNL A   1      42.436  36.935  34.625  1.00  0.00     0.055 A 
ATOM     68  C   UNL A   1      40.862  35.787  36.035  1.00  0.00     0.041 A 
ATOM     69  F   UNL A   1      40.186  33.610  35.494  1.00  0.00    -0.206 F 
ATOM     70  C   UNL A   1      41.643  36.911  35.773  1.00  0.00     0.022 A 
BRANCH  67  71
ATOM     71  S   UNL A   1      43.606  38.296  34.358  1.00  0.00     0.124 S 
ATOM     72  O   UNL A   1      44.601  37.665  33.495  1.00  0.00    -0.237 OA
ATOM     73  O   UNL A   1      42.769  39.314  33.733  1.00  0.00    -0.237 OA
ATOM     74  O   UNL A   1      44.073  38.615  35.706  1.00  0.00    -0.744 OA
ENDBRANCH  67  71
ENDBRANCH  50  64
BRANCH  51  75
ATOM     75  C   UNL A   1      41.463  26.952  27.681  1.00  0.00     0.023 A 
ATOM     76  C   UNL A   1      41.392  25.615  28.104  1.00  0.00     0.031 A 
ATOM     77  C   UNL A   1      41.632  27.199  26.305  1.00  0.00     0.131 A 
ATOM     78  C   UNL A   1      41.550  24.576  27.173  1.00  0.00     0.055 A 
ATOM     79  C   UNL A   1      41.732  26.162  25.376  1.00  0.00     0.041 A 
ATOM     80  F   UNL A   1      41.709  28.459  25.846  1.00  0.00    -0.206 F 
ATOM     81  C   UNL A   1      41.709  24.842  25.810  1.00  0.00     0.022 A 
BRANCH  78  82
ATOM     82  S   UNL A   1      41.658  22.871  27.782  1.00  0.00     0.124 S 
ATOM     83  O   UNL A   1      42.613  22.282  26.850  1.00  0.00    -0.237 OA
ATOM     84  O   UNL A   1      42.132  23.066  29.148  1.00  0.00    -0.237 OA
ATOM     85  O   UNL A   1      40.286  22.379  27.664  1.00  0.00    -0.744 OA
ENDBRANCH  78  82
ENDBRANCH  51  75
BRANCH  63  86
ATOM     86  C   UNL A   1      46.064  29.142  32.437  1.00  0.00     0.023 A 
ATOM     87  C   UNL A   1      46.147  28.234  33.508  1.00  0.00     0.031 A 
ATOM     88  C   UNL A   1      47.261  29.545  31.820  1.00  0.00     0.131 A 
ATOM     89  C   UNL A   1      47.403  27.815  33.974  1.00  0.00     0.055 A 
ATOM     90  C   UNL A   1      48.504  29.074  32.247  1.00  0.00     0.041 A 
ATOM     91  F   UNL A   1      47.244  30.410  30.794  1.00  0.00    -0.206 F 
ATOM     92  C   UNL A   1      48.581  28.217  33.341  1.00  0.00     0.022 A 
BRANCH  89  93
ATOM     93  S   UNL A   1      47.483  26.829  35.496  1.00  0.00     0.124 S 
ATOM     94  O   UNL A   1      48.508  27.532  36.261  1.00  0.00    -0.237 OA
ATOM     95  O   UNL A   1      46.120  26.938  36.008  1.00  0.00    -0.237 OA
ATOM     96  O   UNL A   1      47.863  25.499  35.023  1.00  0.00    -0.744 OA
ENDBRANCH  89  93
ENDBRANCH  63  86
ENDBRANCH  37  38
ENDBRANCH  30  32
ENDBRANCH  29  30
ENDBRANCH  28  29
ENDBRANCH   1  28
TORSDOF 19
ENDMDL
MODEL 2
REMARK VINA RESULT:      -9.3      2.055      2.521
REMARK SMILES O=C(COc1cc(-c2ccccc2)nc(Nc2ccccc2Br)n1)OCCOC(=O)c1ccc(-c2c3nc(c(-c4cc(S(=O)(=O)[O-])ccc4F)c4ccc([nH]4)c(-c4cc(S(=O)(=O)[O-])ccc4F)c4nc(c(-c5cc(S(=O)(=O)[O-])ccc5F)c5ccc2[nH]5)C=C4)C=C3)cc1
REMARK SMILES IDX 26 1 25 2 2 3 1 4 3 5 4 6 5 7 6 8 24 9 7 10 15 11 14 12 8 13
REMARK SMILES IDX 9 14 13 15 10 16 12 17 11 18 16 19 17 21 18 22 22 23 19 24
REMARK SMILES IDX 21 25 23 26 20 27 27 28 28 29 29 30 30 31 31 32 32 33 93 34
REMARK SMILES IDX 33 35 92 36 34 37 35 38 36 39 86 40 37 41 91 42 85 43 87 44
REMARK SMILES IDX 38 45 90 46 84 47 83 48 39 50 71 51 51 52 70 53 52 54 55 55
REMARK SMILES IDX 69 56 88 57 53 58 54 59 68 61 89 62 56 63 40 64 41 65 49 66
REMARK SMILES IDX 42 67 48 68 50 69 47 70 43 71 44 72 45 73 46 74 72 75 73 76
REMARK SMILES IDX 81 77 74 78 80 79 82 80 79 81 75 82 76 83 77 84 78 85 57 86
REMARK SMILES IDX 58 87 66 88 59 89 65 90 67 91 64 92 60 93 61 94 62 95 63 96
REMARK H PARENT 16 20 87 49 55 60
REMARK Flexibility Score: inf
ROOT
ATOM      1  C   UNL A   1      32.208  36.087  32.141  1.00  0.00     0.274 C 
ENDROOT
BRANCH   1   2
ATOM      2  O   UNL A   1      33.166  35.492  33.040  1.00  0.00    -0.460 OA
BRANCH   2   3
ATOM      3  C   UNL A   1      34.458  35.898  33.131  1.00  0.00     0.344 C 
ATOM      4  O   UNL A   1      34.742  37.087  33.003  1.00  0.00    -0.248 OA
BRANCH   3   5
ATOM      5  C   UNL A   1      35.510  34.865  33.511  1.00  0.00     0.353 C 
BRANCH   5   6
ATOM      6  O   UNL A   1      35.122  34.092  34.644  1.00  0.00    -0.466 OA
BRANCH   6   7
ATOM      7  C   UNL A   1      36.214  33.465  35.180  1.00  0.00     0.219 A 
ATOM      8  C   UNL A   1      36.950  32.585  34.443  1.00  0.00     0.097 A 
ATOM      9  N   UNL A   1      36.495  33.792  36.436  1.00  0.00    -0.177 NA
ATOM     10  C   UNL A   1      37.980  31.955  35.103  1.00  0.00     0.080 A 
ATOM     11  C   UNL A   1      37.517  33.147  37.019  1.00  0.00     0.231 A 
ATOM     12  N   UNL A   1      38.276  32.224  36.395  1.00  0.00    -0.212 NA
BRANCH  10  13
ATOM     13  C   UNL A   1      38.740  30.909  34.399  1.00  0.00     0.000 A 
ATOM     14  C   UNL A   1      38.155  30.141  33.381  1.00  0.00     0.010 A 
ATOM     15  C   UNL A   1      40.124  30.755  34.625  1.00  0.00     0.010 A 
ATOM     16  C   UNL A   1      38.935  29.292  32.588  1.00  0.00     0.001 A 
ATOM     17  C   UNL A   1      40.904  29.911  33.832  1.00  0.00     0.001 A 
ATOM     18  C   UNL A   1      40.308  29.188  32.804  1.00  0.00     0.000 A 
ENDBRANCH  10  13
BRANCH  11  19
ATOM     19  N   UNL A   1      37.828  33.472  38.336  1.00  0.00    -0.323 N 
ATOM     20  H   UNL A   1      38.464  34.212  38.474  1.00  0.00     0.170 HD
BRANCH  19  21
ATOM     21  C   UNL A   1      37.323  32.848  39.486  1.00  0.00     0.055 A 
ATOM     22  C   UNL A   1      36.272  31.929  39.340  1.00  0.00     0.027 A 
ATOM     23  C   UNL A   1      37.792  33.115  40.786  1.00  0.00     0.041 A 
ATOM     24  C   UNL A   1      35.759  31.238  40.444  1.00  0.00     0.002 A 
ATOM     25  C   UNL A   1      37.275  32.428  41.891  1.00  0.00     0.018 A 
ATOM     26  Br  UNL A   1      39.117  34.434  41.127  1.00  0.00    -0.049 Br
ATOM     27  C   UNL A   1      36.268  31.481  41.717  1.00  0.00     0.001 A 
ENDBRANCH  19  21
ENDBRANCH  11  19
ENDBRANCH   6   7
ENDBRANCH   5   6
ENDBRANCH   3   5
ENDBRANCH   2   3
ENDBRANCH   1   2
BRANCH   1  28
ATOM     28  C   UNL A   1      32.614  35.859  30.685  1.00  0.00     0.275 C 
BRANCH  28  29
ATOM     29  O   UNL A   1      33.016  34.488  30.500  1.00  0.00    -0.458 OA
BRANCH  29  30
ATOM     30  C   UNL A   1      33.439  34.166  29.250  1.00  0.00     0.338 C 
ATOM     31  O   UNL A   1      32.898  34.481  28.203  1.00  0.00    -0.246 OA
BRANCH  30  32
ATOM     32  C   UNL A   1      34.781  33.544  29.338  1.00  0.00     0.060 A 
ATOM     33  C   UNL A   1      35.035  32.676  30.406  1.00  0.00     0.016 A 
ATOM     34  C   UNL A   1      35.772  33.788  28.381  1.00  0.00     0.016 A 
ATOM     35  C   UNL A   1      36.291  32.080  30.541  1.00  0.00     0.010 A 
ATOM     36  C   UNL A   1      37.031  33.191  28.520  1.00  0.00     0.010 A 
ATOM     37  C   UNL A   1      37.307  32.358  29.617  1.00  0.00    -0.014 A 
BRANCH  37  38
ATOM     38  C   UNL A   1      38.691  31.895  29.892  1.00  0.00     0.031 A 
ATOM     39  C   UNL A   1      39.529  32.657  30.882  1.00  0.00     0.074 A 
ATOM     40  C   UNL A   1      39.182  30.786  29.310  1.00  0.00     0.049 A 
ATOM     41  N   UNL A   1      40.735  32.404  31.321  1.00  0.00    -0.248 NA
ATOM     42  C   UNL A   1      38.921  33.870  31.453  1.00  0.00     0.031 C 
ATOM     43  C   UNL A   1      38.468  29.952  28.344  1.00  0.00     0.029 A 
ATOM     44  N   UNL A   1      40.401  30.170  29.448  1.00  0.00    -0.354 N 
ATOM     45  C   UNL A   1      41.020  33.405  32.243  1.00  0.00     0.074 A 
ATOM     46  C   UNL A   1      39.886  34.306  32.247  1.00  0.00     0.031 C 
ATOM     47  C   UNL A   1      39.267  28.936  27.973  1.00  0.00     0.029 A 
ATOM     48  C   UNL A   1      40.553  29.055  28.657  1.00  0.00     0.049 A 
ATOM     49  H   UNL A   1      41.103  30.496  30.057  1.00  0.00     0.167 HD
ATOM     50  C   UNL A   1      42.114  33.549  33.031  1.00  0.00     0.034 A 
ATOM     51  C   UNL A   1      41.606  28.228  28.498  1.00  0.00     0.034 A 
ATOM     52  C   UNL A   1      43.256  32.669  32.995  1.00  0.00     0.049 A 
ATOM     53  C   UNL A   1      42.848  28.455  29.329  1.00  0.00     0.074 A 
ATOM     54  C   UNL A   1      44.419  32.733  33.744  1.00  0.00     0.029 A 
ATOM     55  N   UNL A   1      43.388  31.570  32.156  1.00  0.00    -0.354 N 
ATOM     56  N   UNL A   1      43.089  29.386  30.223  1.00  0.00    -0.248 NA
ATOM     57  C   UNL A   1      43.949  27.500  29.145  1.00  0.00     0.031 C 
ATOM     58  C   UNL A   1      45.277  31.715  33.313  1.00  0.00     0.029 A 
ATOM     59  C   UNL A   1      44.623  30.967  32.348  1.00  0.00     0.049 A 
ATOM     60  H   UNL A   1      42.704  31.264  31.517  1.00  0.00     0.167 HD
ATOM     61  C   UNL A   1      44.358  29.110  30.727  1.00  0.00     0.074 A 
ATOM     62  C   UNL A   1      44.817  27.911  30.056  1.00  0.00     0.031 C 
ATOM     63  C   UNL A   1      45.081  29.783  31.660  1.00  0.00     0.034 A 
BRANCH  50  64
ATOM     64  C   UNL A   1      42.127  34.727  33.975  1.00  0.00     0.023 A 
ATOM     65  C   UNL A   1      41.621  34.622  35.284  1.00  0.00     0.031 A 
ATOM     66  C   UNL A   1      42.622  35.973  33.557  1.00  0.00     0.131 A 
ATOM     67  C   UNL A   1      41.562  35.757  36.105  1.00  0.00     0.055 A 
ATOM     68  C   UNL A   1      42.629  37.083  34.405  1.00  0.00     0.041 A 
ATOM     69  F   UNL A   1      43.094  36.137  32.311  1.00  0.00    -0.206 F 
ATOM     70  C   UNL A   1      42.085  36.982  35.683  1.00  0.00     0.022 A 
BRANCH  67  71
ATOM     71  S   UNL A   1      40.676  35.644  37.683  1.00  0.00     0.124 S 
ATOM     72  O   UNL A   1      39.358  36.158  37.320  1.00  0.00    -0.237 OA
ATOM     73  O   UNL A   1      40.747  34.219  37.984  1.00  0.00    -0.237 OA
ATOM     74  O   UNL A   1      41.450  36.508  38.572  1.00  0.00    -0.744 OA
ENDBRANCH  67  71
ENDBRANCH  50  64
BRANCH  51  75
ATOM     75  C   UNL A   1      41.562  27.124  27.494  1.00  0.00     0.023 A 
ATOM     76  C   UNL A   1      41.322  25.795  27.876  1.00  0.00     0.031 A 
ATOM     77  C   UNL A   1      41.846  27.379  26.139  1.00  0.00     0.131 A 
ATOM     78  C   UNL A   1      41.430  24.764  26.929  1.00  0.00     0.055 A 
ATOM     79  C   UNL A   1      41.897  26.357  25.191  1.00  0.00     0.041 A 
ATOM     80  F   UNL A   1      42.087  28.632  25.720  1.00  0.00    -0.206 F 
ATOM     81  C   UNL A   1      41.705  25.038  25.587  1.00  0.00     0.022 A 
BRANCH  78  82
ATOM     82  S   UNL A   1      41.316  23.045  27.498  1.00  0.00     0.124 S 
ATOM     83  O   UNL A   1      39.877  22.811  27.454  1.00  0.00    -0.237 OA
ATOM     84  O   UNL A   1      42.110  22.341  26.497  1.00  0.00    -0.237 OA
ATOM     85  O   UNL A   1      41.901  23.089  28.837  1.00  0.00    -0.744 OA
ENDBRANCH  78  82
ENDBRANCH  51  75
BRANCH  63  86
ATOM     86  C   UNL A   1      46.431  29.210  32.025  1.00  0.00     0.023 A 
ATOM     87  C   UNL A   1      47.601  29.580  31.337  1.00  0.00     0.031 A 
ATOM     88  C   UNL A   1      46.543  28.253  33.048  1.00  0.00     0.131 A 
ATOM     89  C   UNL A   1      48.817  28.944  31.631  1.00  0.00     0.055 A 
ATOM     90  C   UNL A   1      47.769  27.672  33.382  1.00  0.00     0.041 A 
ATOM     91  F   UNL A   1      45.462  27.860  33.740  1.00  0.00    -0.206 F 
ATOM     92  C   UNL A   1      48.911  28.004  32.660  1.00  0.00     0.022 A 
BRANCH  89  93
ATOM     93  S   UNL A   1      50.253  29.278  30.573  1.00  0.00     0.124 S 
ATOM     94  O   UNL A   1      51.344  28.691  31.346  1.00  0.00    -0.237 OA
ATOM     95  O   UNL A   1      49.899  28.581  29.340  1.00  0.00    -0.237 OA
ATOM     96  O   UNL A   1      50.276  30.736  30.476  1.00  0.00    -0.744 OA
ENDBRANCH  89  93
ENDBRANCH  63  86
ENDBRANCH  37  38
ENDBRANCH  30  32
ENDBRANCH  29  30
ENDBRANCH  28  29
ENDBRANCH   1  28
TORSDOF 19
ENDMDL
MODEL 3
REMARK VINA RESULT:      -9.1      5.598      9.078
REMARK SMILES O=C(COc1cc(-c2ccccc2)nc(Nc2ccccc2Br)n1)OCCOC(=O)c1ccc(-c2c3nc(c(-c4cc(S(=O)(=O)[O-])ccc4F)c4ccc([nH]4)c(-c4cc(S(=O)(=O)[O-])ccc4F)c4nc(c(-c5cc(S(=O)(=O)[O-])ccc5F)c5ccc2[nH]5)C=C4)C=C3)cc1
REMARK SMILES IDX 26 1 25 2 2 3 1 4 3 5 4 6 5 7 6 8 24 9 7 10 15 11 14 12 8 13
REMARK SMILES IDX 9 14 13 15 10 16 12 17 11 18 16 19 17 21 18 22 22 23 19 24
REMARK SMILES IDX 21 25 23 26 20 27 27 28 28 29 29 30 30 31 31 32 32 33 93 34
REMARK SMILES IDX 33 35 92 36 34 37 35 38 36 39 86 40 37 41 91 42 85 43 87 44
REMARK SMILES IDX 38 45 90 46 84 47 83 48 39 50 71 51 51 52 70 53 52 54 55 55
REMARK SMILES IDX 69 56 88 57 53 58 54 59 68 61 89 62 56 63 40 64 41 65 49 66
REMARK SMILES IDX 42 67 48 68 50 69 47 70 43 71 44 72 45 73 46 74 72 75 73 76
REMARK SMILES IDX 81 77 74 78 80 79 82 80 79 81 75 82 76 83 77 84 78 85 57 86
REMARK SMILES IDX 58 87 66 88 59 89 65 90 67 91 64 92 60 93 61 94 62 95 63 96
REMARK H PARENT 16 20 87 49 55 60
REMARK Flexibility Score: inf
ROOT
ATOM      1  C   UNL A   1      32.827  29.390  25.943  1.00  0.00     0.274 C 
ENDROOT
BRANCH   1   2
ATOM      2  O   UNL A   1      33.193  29.293  24.551  1.00  0.00    -0.460 OA
BRANCH   2   3
ATOM      3  C   UNL A   1      33.950  28.286  24.047  1.00  0.00     0.344 C 
ATOM      4  O   UNL A   1      34.393  27.413  24.791  1.00  0.00    -0.248 OA
BRANCH   3   5
ATOM      5  C   UNL A   1      34.126  28.208  22.536  1.00  0.00     0.353 C 
BRANCH   5   6
ATOM      6  O   UNL A   1      33.551  27.025  21.986  1.00  0.00    -0.466 OA
BRANCH   6   7
ATOM      7  C   UNL A   1      32.263  26.882  22.427  1.00  0.00     0.219 A 
ATOM      8  C   UNL A   1      31.384  27.923  22.372  1.00  0.00     0.097 A 
ATOM      9  N   UNL A   1      31.951  25.675  22.883  1.00  0.00    -0.177 NA
ATOM     10  C   UNL A   1      30.139  27.693  22.912  1.00  0.00     0.080 A 
ATOM     11  C   UNL A   1      30.718  25.515  23.388  1.00  0.00     0.231 A 
ATOM     12  N   UNL A   1      29.790  26.492  23.427  1.00  0.00    -0.212 NA
BRANCH  10  13
ATOM     13  C   UNL A   1      29.182  28.809  22.989  1.00  0.00     0.000 A 
ATOM     14  C   UNL A   1      27.799  28.582  23.061  1.00  0.00     0.010 A 
ATOM     15  C   UNL A   1      29.639  30.135  23.148  1.00  0.00     0.010 A 
ATOM     16  C   UNL A   1      26.915  29.633  23.332  1.00  0.00     0.001 A 
ATOM     17  C   UNL A   1      28.759  31.183  23.423  1.00  0.00     0.001 A 
ATOM     18  C   UNL A   1      27.396  30.927  23.526  1.00  0.00     0.000 A 
ENDBRANCH  10  13
BRANCH  11  19
ATOM     19  N   UNL A   1      30.370  24.258  23.874  1.00  0.00    -0.323 N 
ATOM     20  H   UNL A   1      29.448  24.148  24.202  1.00  0.00     0.170 HD
BRANCH  19  21
ATOM     21  C   UNL A   1      31.206  23.134  23.941  1.00  0.00     0.055 A 
ATOM     22  C   UNL A   1      31.451  22.412  22.763  1.00  0.00     0.027 A 
ATOM     23  C   UNL A   1      31.791  22.670  25.134  1.00  0.00     0.041 A 
ATOM     24  C   UNL A   1      32.314  21.311  22.757  1.00  0.00     0.002 A 
ATOM     25  C   UNL A   1      32.650  21.565  25.131  1.00  0.00     0.018 A 
ATOM     26  Br  UNL A   1      31.429  23.481  26.815  1.00  0.00    -0.049 Br
ATOM     27  C   UNL A   1      32.922  20.895  23.939  1.00  0.00     0.001 A 
ENDBRANCH  19  21
ENDBRANCH  11  19
ENDBRANCH   6   7
ENDBRANCH   5   6
ENDBRANCH   3   5
ENDBRANCH   2   3
ENDBRANCH   1   2
BRANCH   1  28
ATOM     28  C   UNL A   1      32.449  30.826  26.307  1.00  0.00     0.275 C 
BRANCH  28  29
ATOM     29  O   UNL A   1      32.899  31.126  27.642  1.00  0.00    -0.458 OA
BRANCH  29  30
ATOM     30  C   UNL A   1      33.786  32.149  27.744  1.00  0.00     0.338 C 
ATOM     31  O   UNL A   1      33.523  33.338  27.694  1.00  0.00    -0.246 OA
BRANCH  30  32
ATOM     32  C   UNL A   1      35.107  31.605  28.138  1.00  0.00     0.060 A 
ATOM     33  C   UNL A   1      35.182  30.256  28.501  1.00  0.00     0.016 A 
ATOM     34  C   UNL A   1      36.263  32.396  28.133  1.00  0.00     0.016 A 
ATOM     35  C   UNL A   1      36.402  29.704  28.897  1.00  0.00     0.010 A 
ATOM     36  C   UNL A   1      37.484  31.840  28.532  1.00  0.00     0.010 A 
ATOM     37  C   UNL A   1      37.555  30.499  28.945  1.00  0.00    -0.014 A 
BRANCH  37  38
ATOM     38  C   UNL A   1      38.789  29.960  29.571  1.00  0.00     0.031 A 
ATOM     39  C   UNL A   1      39.202  30.476  30.923  1.00  0.00     0.074 A 
ATOM     40  C   UNL A   1      39.507  28.992  28.973  1.00  0.00     0.049 A 
ATOM     41  N   UNL A   1      40.203  30.110  31.683  1.00  0.00    -0.248 NA
ATOM     42  C   UNL A   1      38.374  31.550  31.492  1.00  0.00     0.031 C 
ATOM     43  C   UNL A   1      39.206  28.399  27.671  1.00  0.00     0.029 A 
ATOM     44  N   UNL A   1      40.641  28.337  29.385  1.00  0.00    -0.354 N 
ATOM     45  C   UNL A   1      40.106  30.885  32.833  1.00  0.00     0.074 A 
ATOM     46  C   UNL A   1      38.990  31.786  32.639  1.00  0.00     0.031 C 
ATOM     47  C   UNL A   1      40.136  27.471  27.390  1.00  0.00     0.029 A 
ATOM     48  C   UNL A   1      41.109  27.415  28.479  1.00  0.00     0.049 A 
ATOM     49  H   UNL A   1      41.079  28.511  30.250  1.00  0.00     0.167 HD
ATOM     50  C   UNL A   1      40.863  30.834  33.958  1.00  0.00     0.034 A 
ATOM     51  C   UNL A   1      42.198  26.620  28.519  1.00  0.00     0.034 A 
ATOM     52  C   UNL A   1      41.996  29.959  34.130  1.00  0.00     0.049 A 
ATOM     53  C   UNL A   1      43.074  26.638  29.751  1.00  0.00     0.074 A 
ATOM     54  C   UNL A   1      42.835  29.838  35.225  1.00  0.00     0.029 A 
ATOM     55  N   UNL A   1      42.463  29.064  33.176  1.00  0.00    -0.354 N 
ATOM     56  N   UNL A   1      42.950  27.351  30.847  1.00  0.00    -0.248 NA
ATOM     57  C   UNL A   1      44.224  25.723  29.757  1.00  0.00     0.031 C 
ATOM     58  C   UNL A   1      43.842  28.919  34.909  1.00  0.00     0.029 A 
ATOM     59  C   UNL A   1      43.592  28.409  33.646  1.00  0.00     0.049 A 
ATOM     60  H   UNL A   1      42.051  28.915  32.294  1.00  0.00     0.167 HD
ATOM     61  C   UNL A   1      43.989  26.948  31.683  1.00  0.00     0.074 A 
ATOM     62  C   UNL A   1      44.711  25.912  30.973  1.00  0.00     0.031 C 
ATOM     63  C   UNL A   1      44.318  27.391  32.924  1.00  0.00     0.034 A 
BRANCH  50  64
ATOM     64  C   UNL A   1      40.493  31.781  35.074  1.00  0.00     0.023 A 
ATOM     65  C   UNL A   1      39.513  31.446  36.024  1.00  0.00     0.031 A 
ATOM     66  C   UNL A   1      41.105  33.042  35.173  1.00  0.00     0.131 A 
ATOM     67  C   UNL A   1      39.127  32.384  36.993  1.00  0.00     0.055 A 
ATOM     68  C   UNL A   1      40.769  33.944  36.184  1.00  0.00     0.041 A 
ATOM     69  F   UNL A   1      42.030  33.425  34.279  1.00  0.00    -0.206 F 
ATOM     70  C   UNL A   1      39.765  33.622  37.094  1.00  0.00     0.022 A 
BRANCH  67  71
ATOM     71  S   UNL A   1      37.690  32.016  38.036  1.00  0.00     0.124 S 
ATOM     72  O   UNL A   1      38.223  32.266  39.373  1.00  0.00    -0.237 OA
ATOM     73  O   UNL A   1      36.696  32.969  37.554  1.00  0.00    -0.237 OA
ATOM     74  O   UNL A   1      37.403  30.613  37.741  1.00  0.00    -0.744 OA
ENDBRANCH  67  71
ENDBRANCH  50  64
BRANCH  51  75
ATOM     75  C   UNL A   1      42.554  25.758  27.354  1.00  0.00     0.023 A 
ATOM     76  C   UNL A   1      42.111  24.429  27.262  1.00  0.00     0.031 A 
ATOM     77  C   UNL A   1      43.420  26.234  26.351  1.00  0.00     0.131 A 
ATOM     78  C   UNL A   1      42.581  23.604  26.228  1.00  0.00     0.055 A 
ATOM     79  C   UNL A   1      43.840  25.426  25.294  1.00  0.00     0.041 A 
ATOM     80  F   UNL A   1      43.878  27.496  26.392  1.00  0.00    -0.206 F 
ATOM     81  C   UNL A   1      43.434  24.097  25.237  1.00  0.00     0.022 A 
BRANCH  78  82
ATOM     82  S   UNL A   1      42.150  21.842  26.256  1.00  0.00     0.124 S 
ATOM     83  O   UNL A   1      40.751  21.870  25.847  1.00  0.00    -0.237 OA
ATOM     84  O   UNL A   1      43.090  21.284  25.290  1.00  0.00    -0.237 OA
ATOM     85  O   UNL A   1      42.386  21.456  27.647  1.00  0.00    -0.744 OA
ENDBRANCH  78  82
ENDBRANCH  51  75
BRANCH  63  86
ATOM     86  C   UNL A   1      45.496  26.726  33.598  1.00  0.00     0.023 A 
ATOM     87  C   UNL A   1      46.808  27.211  33.441  1.00  0.00     0.031 A 
ATOM     88  C   UNL A   1      45.310  25.570  34.376  1.00  0.00     0.131 A 
ATOM     89  C   UNL A   1      47.887  26.502  33.992  1.00  0.00     0.055 A 
ATOM     90  C   UNL A   1      46.382  24.906  34.977  1.00  0.00     0.041 A 
ATOM     91  F   UNL A   1      44.082  25.061  34.562  1.00  0.00    -0.206 F 
ATOM     92  C   UNL A   1      47.681  25.362  34.772  1.00  0.00     0.022 A 
BRANCH  89  93
ATOM     93  S   UNL A   1      49.574  27.026  33.579  1.00  0.00     0.124 S 
ATOM     94  O   UNL A   1      50.153  25.796  33.046  1.00  0.00    -0.237 OA
ATOM     95  O   UNL A   1      49.340  28.091  32.608  1.00  0.00    -0.237 OA
ATOM     96  O   UNL A   1      50.121  27.465  34.861  1.00  0.00    -0.744 OA
ENDBRANCH  89  93
ENDBRANCH  63  86
ENDBRANCH  37  38
ENDBRANCH  30  32
ENDBRANCH  29  30
ENDBRANCH  28  29
ENDBRANCH   1  28
TORSDOF 19
ENDMDL
