MODEL 1
REMARK VINA RESULT:     -12.4      0.000      0.000
REMARK SMILES O=C(OCCOC(=O)c1cn(C2C[NH+](Cc3cc(F)ccc3F)C2)nn1)c1ccc(-c2c3nc(c(-c4cc(S(=O)(=O)[O-])ccc4F)c4ccc([nH]4)c(-c4cc(S(=O)(=O)[O-])ccc4F)c4nc(c(-c5cc(S(=O)(=O)[O-])ccc5F)c5ccc2[nH]5)C=C4)C=C3)cc1
REMARK SMILES IDX 4 1 3 2 2 3 1 4 27 5 28 6 89 7 29 8 88 9 30 10 31 11 32 12
REMARK SMILES IDX 82 13 33 14 87 15 81 16 83 17 34 18 86 19 80 20 79 21 35 23
REMARK SMILES IDX 67 24 47 25 66 26 48 27 51 28 65 29 84 30 49 31 50 32 64 34
REMARK SMILES IDX 85 35 52 36 36 37 37 38 45 39 38 40 44 41 46 42 43 43 39 44
REMARK SMILES IDX 40 45 41 46 42 47 68 48 69 49 77 50 70 51 76 52 78 53 75 54
REMARK SMILES IDX 71 55 72 56 73 57 74 58 53 59 54 60 62 61 55 62 61 63 63 64
REMARK SMILES IDX 60 65 56 66 57 67 58 68 59 69 5 70 6 71 7 72 8 73 9 74 10 75
REMARK SMILES IDX 26 76 11 77 25 78 12 79 13 80 24 81 14 82 15 84 16 85 17 86
REMARK SMILES IDX 22 87 18 88 21 89 23 90 19 91 20 92
REMARK H PARENT 83 22 51 33 14 83
REMARK Flexibility Score: inf
ROOT
ATOM      1  C   UNL A   1      38.785  21.588  25.835  1.00  0.00     0.275 C 
ENDROOT
BRANCH   1   2
ATOM      2  O   UNL A   1      39.179  22.884  26.328  1.00  0.00    -0.458 OA
BRANCH   2   3
ATOM      3  C   UNL A   1      40.145  22.971  27.272  1.00  0.00     0.338 C 
ATOM      4  O   UNL A   1      40.921  22.069  27.537  1.00  0.00    -0.246 OA
BRANCH   3   5
ATOM      5  C   UNL A   1      40.281  24.359  27.771  1.00  0.00     0.060 A 
ATOM      6  C   UNL A   1      39.257  25.298  27.603  1.00  0.00     0.016 A 
ATOM      7  C   UNL A   1      41.469  24.724  28.414  1.00  0.00     0.016 A 
ATOM      8  C   UNL A   1      39.449  26.612  28.000  1.00  0.00     0.010 A 
ATOM      9  C   UNL A   1      41.662  26.044  28.814  1.00  0.00     0.010 A 
ATOM     10  C   UNL A   1      40.661  26.992  28.580  1.00  0.00    -0.014 A 
BRANCH  10  11
ATOM     11  C   UNL A   1      40.774  28.370  29.058  1.00  0.00     0.031 A 
ATOM     12  C   UNL A   1      41.912  29.143  28.483  1.00  0.00     0.074 A 
ATOM     13  C   UNL A   1      39.859  28.964  29.851  1.00  0.00     0.049 A 
ATOM     14  N   UNL A   1      42.882  29.729  29.107  1.00  0.00    -0.248 NA
ATOM     15  C   UNL A   1      42.035  29.189  27.017  1.00  0.00     0.031 C 
ATOM     16  C   UNL A   1      38.573  28.418  30.287  1.00  0.00     0.029 A 
ATOM     17  N   UNL A   1      39.839  30.238  30.345  1.00  0.00    -0.354 N 
ATOM     18  C   UNL A   1      43.603  30.416  28.133  1.00  0.00     0.074 A 
ATOM     19  C   UNL A   1      43.136  29.926  26.866  1.00  0.00     0.031 C 
ATOM     20  C   UNL A   1      37.810  29.419  30.779  1.00  0.00     0.029 A 
ATOM     21  C   UNL A   1      38.590  30.648  30.804  1.00  0.00     0.049 A 
ATOM     22  H   UNL A   1      40.637  30.815  30.374  1.00  0.00     0.167 HD
ATOM     23  C   UNL A   1      44.365  31.502  28.439  1.00  0.00     0.034 A 
ATOM     24  C   UNL A   1      38.194  31.910  31.118  1.00  0.00     0.034 A 
ATOM     25  C   UNL A   1      44.754  31.507  29.826  1.00  0.00     0.049 A 
ATOM     26  C   UNL A   1      39.415  32.700  31.404  1.00  0.00     0.074 A 
ATOM     27  C   UNL A   1      45.392  30.598  30.649  1.00  0.00     0.029 A 
ATOM     28  N   UNL A   1      44.176  32.421  30.677  1.00  0.00    -0.354 N 
ATOM     29  N   UNL A   1      40.188  32.486  32.432  1.00  0.00    -0.248 NA
ATOM     30  C   UNL A   1      40.031  33.438  30.310  1.00  0.00     0.031 C 
ATOM     31  C   UNL A   1      44.702  30.693  31.892  1.00  0.00     0.029 A 
ATOM     32  C   UNL A   1      43.754  31.711  31.774  1.00  0.00     0.049 A 
ATOM     33  H   UNL A   1      44.082  33.390  30.529  1.00  0.00     0.167 HD
ATOM     34  C   UNL A   1      41.476  32.663  31.955  1.00  0.00     0.074 A 
ATOM     35  C   UNL A   1      41.313  33.351  30.676  1.00  0.00     0.031 C 
ATOM     36  C   UNL A   1      42.533  31.993  32.501  1.00  0.00     0.034 A 
BRANCH  23  37
ATOM     37  C   UNL A   1      44.445  32.742  27.575  1.00  0.00     0.023 A 
ATOM     38  C   UNL A   1      43.766  33.893  28.020  1.00  0.00     0.031 A 
ATOM     39  C   UNL A   1      44.852  32.753  26.222  1.00  0.00     0.131 A 
ATOM     40  C   UNL A   1      43.423  34.917  27.120  1.00  0.00     0.055 A 
ATOM     41  C   UNL A   1      44.608  33.826  25.362  1.00  0.00     0.041 A 
ATOM     42  F   UNL A   1      45.389  31.683  25.627  1.00  0.00    -0.206 F 
ATOM     43  C   UNL A   1      43.855  34.902  25.797  1.00  0.00     0.022 A 
BRANCH  40  44
ATOM     44  S   UNL A   1      42.184  36.130  27.649  1.00  0.00     0.124 S 
ATOM     45  O   UNL A   1      40.954  35.357  27.518  1.00  0.00    -0.237 OA
ATOM     46  O   UNL A   1      42.616  36.427  29.011  1.00  0.00    -0.237 OA
ATOM     47  O   UNL A   1      42.346  37.220  26.689  1.00  0.00    -0.744 OA
ENDBRANCH  40  44
ENDBRANCH  23  37
BRANCH  24  48
ATOM     48  C   UNL A   1      36.848  32.517  30.915  1.00  0.00     0.023 A 
ATOM     49  C   UNL A   1      36.159  33.211  31.932  1.00  0.00     0.031 A 
ATOM     50  C   UNL A   1      36.316  32.619  29.610  1.00  0.00     0.131 A 
ATOM     51  C   UNL A   1      34.991  33.953  31.625  1.00  0.00     0.055 A 
ATOM     52  C   UNL A   1      35.159  33.341  29.314  1.00  0.00     0.041 A 
ATOM     53  F   UNL A   1      36.953  32.087  28.554  1.00  0.00    -0.206 F 
ATOM     54  C   UNL A   1      34.495  34.020  30.321  1.00  0.00     0.022 A 
BRANCH  51  55
ATOM     55  S   UNL A   1      34.151  34.937  32.909  1.00  0.00     0.124 S 
ATOM     56  O   UNL A   1      34.622  36.288  32.624  1.00  0.00    -0.237 OA
ATOM     57  O   UNL A   1      32.742  34.670  32.641  1.00  0.00    -0.237 OA
ATOM     58  O   UNL A   1      34.652  34.365  34.160  1.00  0.00    -0.744 OA
ENDBRANCH  51  55
ENDBRANCH  24  48
BRANCH  36  59
ATOM     59  C   UNL A   1      42.358  31.288  33.829  1.00  0.00     0.023 A 
ATOM     60  C   UNL A   1      42.101  29.907  33.983  1.00  0.00     0.031 A 
ATOM     61  C   UNL A   1      42.605  32.039  34.994  1.00  0.00     0.131 A 
ATOM     62  C   UNL A   1      42.088  29.333  35.268  1.00  0.00     0.055 A 
ATOM     63  C   UNL A   1      42.617  31.462  36.261  1.00  0.00     0.041 A 
ATOM     64  F   UNL A   1      42.887  33.350  34.913  1.00  0.00    -0.206 F 
ATOM     65  C   UNL A   1      42.351  30.106  36.404  1.00  0.00     0.022 A 
BRANCH  62  66
ATOM     66  S   UNL A   1      41.716  27.565  35.494  1.00  0.00     0.124 S 
ATOM     67  O   UNL A   1      41.091  27.509  36.810  1.00  0.00    -0.237 OA
ATOM     68  O   UNL A   1      40.846  27.279  34.356  1.00  0.00    -0.237 OA
ATOM     69  O   UNL A   1      43.035  26.931  35.421  1.00  0.00    -0.744 OA
ENDBRANCH  62  66
ENDBRANCH  36  59
ENDBRANCH  10  11
ENDBRANCH   3   5
ENDBRANCH   2   3
ENDBRANCH   1   2
BRANCH   1  70
ATOM     70  C   UNL A   1      37.535  21.529  24.961  1.00  0.00     0.275 C 
BRANCH  70  71
ATOM     71  O   UNL A   1      36.379  21.384  25.796  1.00  0.00    -0.457 OA
BRANCH  71  72
ATOM     72  C   UNL A   1      35.272  20.855  25.197  1.00  0.00     0.360 C 
ATOM     73  O   UNL A   1      35.155  19.692  24.824  1.00  0.00    -0.244 OA
BRANCH  72  74
ATOM     74  C   UNL A   1      34.266  21.870  25.000  1.00  0.00     0.190 A 
ATOM     75  C   UNL A   1      34.226  22.824  24.003  1.00  0.00     0.147 A 
ATOM     76  N   UNL A   1      33.212  22.062  25.853  1.00  0.00    -0.123 NA
ATOM     77  N   UNL A   1      33.135  23.578  24.321  1.00  0.00    -0.237 N 
ATOM     78  N   UNL A   1      32.532  23.118  25.432  1.00  0.00    -0.066 NA
BRANCH  77  79
ATOM     79  C   UNL A   1      32.615  24.721  23.642  1.00  0.00     0.218 C 
ATOM     80  C   UNL A   1      31.144  24.664  23.176  1.00  0.00     0.296 C 
ATOM     81  C   UNL A   1      32.117  25.812  24.622  1.00  0.00     0.296 C 
ATOM     82  N   UNL A   1      30.900  25.978  23.802  1.00  0.00    -0.327 N 
ATOM     83  H   UNL A   1      30.007  26.184  24.249  1.00  0.00     0.348 HD
BRANCH  82  84
ATOM     84  C   UNL A   1      30.935  27.117  22.854  1.00  0.00     0.302 C 
BRANCH  84  85
ATOM     85  C   UNL A   1      29.790  28.105  22.824  1.00  0.00     0.045 A 
ATOM     86  C   UNL A   1      28.529  27.781  23.344  1.00  0.00     0.051 A 
ATOM     87  C   UNL A   1      29.952  29.365  22.231  1.00  0.00     0.132 A 
ATOM     88  C   UNL A   1      27.461  28.654  23.166  1.00  0.00     0.123 A 
ATOM     89  C   UNL A   1      28.884  30.248  22.081  1.00  0.00     0.043 A 
ATOM     90  F   UNL A   1      31.154  29.735  21.765  1.00  0.00    -0.206 F 
ATOM     91  F   UNL A   1      26.247  28.292  23.587  1.00  0.00    -0.207 F 
ATOM     92  C   UNL A   1      27.620  29.878  22.529  1.00  0.00     0.042 A 
ENDBRANCH  84  85
ENDBRANCH  82  84
ENDBRANCH  77  79
ENDBRANCH  72  74
ENDBRANCH  71  72
ENDBRANCH  70  71
ENDBRANCH   1  70
TORSDOF 17
ENDMDL
MODEL 2
REMARK VINA RESULT:     -12.2      1.574      2.264
REMARK SMILES O=C(OCCOC(=O)c1cn(C2C[NH+](Cc3cc(F)ccc3F)C2)nn1)c1ccc(-c2c3nc(c(-c4cc(S(=O)(=O)[O-])ccc4F)c4ccc([nH]4)c(-c4cc(S(=O)(=O)[O-])ccc4F)c4nc(c(-c5cc(S(=O)(=O)[O-])ccc5F)c5ccc2[nH]5)C=C4)C=C3)cc1
REMARK SMILES IDX 4 1 3 2 2 3 1 4 27 5 28 6 89 7 29 8 88 9 30 10 31 11 32 12
REMARK SMILES IDX 82 13 33 14 87 15 81 16 83 17 34 18 86 19 80 20 79 21 35 23
REMARK SMILES IDX 67 24 47 25 66 26 48 27 51 28 65 29 84 30 49 31 50 32 64 34
REMARK SMILES IDX 85 35 52 36 36 37 37 38 45 39 38 40 44 41 46 42 43 43 39 44
REMARK SMILES IDX 40 45 41 46 42 47 68 48 69 49 77 50 70 51 76 52 78 53 75 54
REMARK SMILES IDX 71 55 72 56 73 57 74 58 53 59 54 60 62 61 55 62 61 63 63 64
REMARK SMILES IDX 60 65 56 66 57 67 58 68 59 69 5 70 6 71 7 72 8 73 9 74 10 75
REMARK SMILES IDX 26 76 11 77 25 78 12 79 13 80 24 81 14 82 15 84 16 85 17 86
REMARK SMILES IDX 22 87 18 88 21 89 23 90 19 91 20 92
REMARK H PARENT 83 22 51 33 14 83
REMARK Flexibility Score: inf
ROOT
ATOM      1  C   UNL A   1      38.750  22.429  26.165  1.00  0.00     0.275 C 
ENDROOT
BRANCH   1   2
ATOM      2  O   UNL A   1      39.684  22.637  27.244  1.00  0.00    -0.458 OA
BRANCH   2   3
ATOM      3  C   UNL A   1      40.884  23.207  26.984  1.00  0.00     0.338 C 
ATOM      4  O   UNL A   1      41.745  22.694  26.290  1.00  0.00    -0.246 OA
BRANCH   3   5
ATOM      5  C   UNL A   1      40.922  24.611  27.453  1.00  0.00     0.060 A 
ATOM      6  C   UNL A   1      41.829  25.027  28.434  1.00  0.00     0.016 A 
ATOM      7  C   UNL A   1      40.019  25.525  26.899  1.00  0.00     0.016 A 
ATOM      8  C   UNL A   1      41.781  26.326  28.917  1.00  0.00     0.010 A 
ATOM      9  C   UNL A   1      39.970  26.830  27.383  1.00  0.00     0.010 A 
ATOM     10  C   UNL A   1      40.833  27.219  28.412  1.00  0.00    -0.014 A 
BRANCH  10  11
ATOM     11  C   UNL A   1      40.887  28.599  28.896  1.00  0.00     0.031 A 
ATOM     12  C   UNL A   1      42.044  29.394  28.397  1.00  0.00     0.074 A 
ATOM     13  C   UNL A   1      39.910  29.175  29.627  1.00  0.00     0.049 A 
ATOM     14  N   UNL A   1      42.960  29.999  29.083  1.00  0.00    -0.248 NA
ATOM     15  C   UNL A   1      42.263  29.444  26.942  1.00  0.00     0.031 C 
ATOM     16  C   UNL A   1      38.610  28.604  29.977  1.00  0.00     0.029 A 
ATOM     17  N   UNL A   1      39.833  30.448  30.117  1.00  0.00    -0.354 N 
ATOM     18  C   UNL A   1      43.730  30.700  28.158  1.00  0.00     0.074 A 
ATOM     19  C   UNL A   1      43.357  30.202  26.863  1.00  0.00     0.031 C 
ATOM     20  C   UNL A   1      37.796  29.589  30.418  1.00  0.00     0.029 A 
ATOM     21  C   UNL A   1      38.549  30.832  30.493  1.00  0.00     0.049 A 
ATOM     22  H   UNL A   1      40.616  31.040  30.198  1.00  0.00     0.167 HD
ATOM     23  C   UNL A   1      44.448  31.802  28.512  1.00  0.00     0.034 A 
ATOM     24  C   UNL A   1      38.109  32.087  30.779  1.00  0.00     0.034 A 
ATOM     25  C   UNL A   1      44.745  31.813  29.922  1.00  0.00     0.049 A 
ATOM     26  C   UNL A   1      39.292  32.900  31.144  1.00  0.00     0.074 A 
ATOM     27  C   UNL A   1      45.346  30.916  30.786  1.00  0.00     0.029 A 
ATOM     28  N   UNL A   1      44.095  32.715  30.732  1.00  0.00    -0.354 N 
ATOM     29  N   UNL A   1      39.999  32.701  32.221  1.00  0.00    -0.248 NA
ATOM     30  C   UNL A   1      39.964  33.651  30.093  1.00  0.00     0.031 C 
ATOM     31  C   UNL A   1      44.574  30.997  31.980  1.00  0.00     0.029 A 
ATOM     32  C   UNL A   1      43.615  31.996  31.799  1.00  0.00     0.049 A 
ATOM     33  H   UNL A   1      43.992  33.682  30.578  1.00  0.00     0.167 HD
ATOM     34  C   UNL A   1      41.313  32.903  31.829  1.00  0.00     0.074 A 
ATOM     35  C   UNL A   1      41.221  33.589  30.542  1.00  0.00     0.031 C 
ATOM     36  C   UNL A   1      42.345  32.254  32.444  1.00  0.00     0.034 A 
BRANCH  23  37
ATOM     37  C   UNL A   1      44.561  33.043  27.654  1.00  0.00     0.023 A 
ATOM     38  C   UNL A   1      43.862  34.191  28.073  1.00  0.00     0.031 A 
ATOM     39  C   UNL A   1      45.022  33.057  26.319  1.00  0.00     0.131 A 
ATOM     40  C   UNL A   1      43.554  35.216  27.162  1.00  0.00     0.055 A 
ATOM     41  C   UNL A   1      44.811  34.132  25.451  1.00  0.00     0.041 A 
ATOM     42  F   UNL A   1      45.585  31.989  25.744  1.00  0.00    -0.206 F 
ATOM     43  C   UNL A   1      44.039  35.205  25.858  1.00  0.00     0.022 A 
BRANCH  40  44
ATOM     44  S   UNL A   1      42.292  36.426  27.643  1.00  0.00     0.124 S 
ATOM     45  O   UNL A   1      42.680  36.711  29.021  1.00  0.00    -0.237 OA
ATOM     46  O   UNL A   1      42.517  37.496  26.677  1.00  0.00    -0.237 OA
ATOM     47  O   UNL A   1      41.040  35.691  27.483  1.00  0.00    -0.744 OA
ENDBRANCH  40  44
ENDBRANCH  23  37
BRANCH  24  48
ATOM     48  C   UNL A   1      36.767  32.668  30.488  1.00  0.00     0.023 A 
ATOM     49  C   UNL A   1      35.893  33.123  31.497  1.00  0.00     0.031 A 
ATOM     50  C   UNL A   1      36.422  32.998  29.158  1.00  0.00     0.131 A 
ATOM     51  C   UNL A   1      34.734  33.864  31.157  1.00  0.00     0.055 A 
ATOM     52  C   UNL A   1      35.272  33.718  28.826  1.00  0.00     0.041 A 
ATOM     53  F   UNL A   1      37.238  32.707  28.133  1.00  0.00    -0.206 F 
ATOM     54  C   UNL A   1      34.426  34.162  29.827  1.00  0.00     0.022 A 
BRANCH  51  55
ATOM     55  S   UNL A   1      33.652  34.546  32.456  1.00  0.00     0.124 S 
ATOM     56  O   UNL A   1      34.536  35.490  33.132  1.00  0.00    -0.237 OA
ATOM     57  O   UNL A   1      32.555  35.121  31.686  1.00  0.00    -0.237 OA
ATOM     58  O   UNL A   1      33.289  33.371  33.250  1.00  0.00    -0.744 OA
ENDBRANCH  51  55
ENDBRANCH  24  48
BRANCH  36  59
ATOM     59  C   UNL A   1      42.096  31.545  33.759  1.00  0.00     0.023 A 
ATOM     60  C   UNL A   1      41.973  30.146  33.911  1.00  0.00     0.031 A 
ATOM     61  C   UNL A   1      42.128  32.328  34.928  1.00  0.00     0.131 A 
ATOM     62  C   UNL A   1      41.876  29.584  35.198  1.00  0.00     0.055 A 
ATOM     63  C   UNL A   1      42.057  31.766  36.201  1.00  0.00     0.041 A 
ATOM     64  F   UNL A   1      42.274  33.661  34.853  1.00  0.00    -0.206 F 
ATOM     65  C   UNL A   1      41.924  30.391  36.341  1.00  0.00     0.022 A 
BRANCH  62  66
ATOM     66  S   UNL A   1      41.673  27.788  35.417  1.00  0.00     0.124 S 
ATOM     67  O   UNL A   1      43.037  27.277  35.366  1.00  0.00    -0.237 OA
ATOM     68  O   UNL A   1      41.004  27.703  36.713  1.00  0.00    -0.237 OA
ATOM     69  O   UNL A   1      40.837  27.402  34.279  1.00  0.00    -0.744 OA
ENDBRANCH  62  66
ENDBRANCH  36  59
ENDBRANCH  10  11
ENDBRANCH   3   5
ENDBRANCH   2   3
ENDBRANCH   1   2
BRANCH   1  70
ATOM     70  C   UNL A   1      38.566  20.994  25.676  1.00  0.00     0.275 C 
BRANCH  70  71
ATOM     71  O   UNL A   1      37.591  20.973  24.625  1.00  0.00    -0.457 OA
BRANCH  71  72
ATOM     72  C   UNL A   1      36.499  20.183  24.840  1.00  0.00     0.360 C 
ATOM     73  O   UNL A   1      36.521  18.964  24.975  1.00  0.00    -0.244 OA
BRANCH  72  74
ATOM     74  C   UNL A   1      35.291  20.971  24.827  1.00  0.00     0.190 A 
ATOM     75  C   UNL A   1      35.186  22.342  24.944  1.00  0.00     0.147 A 
ATOM     76  N   UNL A   1      34.036  20.426  24.759  1.00  0.00    -0.123 NA
ATOM     77  N   UNL A   1      33.841  22.564  24.961  1.00  0.00    -0.237 N 
ATOM     78  N   UNL A   1      33.156  21.412  24.853  1.00  0.00    -0.066 NA
BRANCH  77  79
ATOM     79  C   UNL A   1      33.145  23.805  25.079  1.00  0.00     0.218 C 
ATOM     80  C   UNL A   1      33.008  24.412  26.493  1.00  0.00     0.296 C 
ATOM     81  C   UNL A   1      34.061  25.022  24.798  1.00  0.00     0.296 C 
ATOM     82  N   UNL A   1      33.498  25.706  25.980  1.00  0.00    -0.327 N 
ATOM     83  H   UNL A   1      34.092  26.303  26.555  1.00  0.00     0.348 HD
BRANCH  82  84
ATOM     84  C   UNL A   1      32.427  26.686  25.684  1.00  0.00     0.302 C 
BRANCH  84  85
ATOM     85  C   UNL A   1      32.624  28.144  26.038  1.00  0.00     0.045 A 
ATOM     86  C   UNL A   1      33.688  28.564  26.847  1.00  0.00     0.051 A 
ATOM     87  C   UNL A   1      31.714  29.113  25.595  1.00  0.00     0.132 A 
ATOM     88  C   UNL A   1      33.755  29.886  27.275  1.00  0.00     0.123 A 
ATOM     89  C   UNL A   1      31.802  30.444  26.004  1.00  0.00     0.043 A 
ATOM     90  F   UNL A   1      30.709  28.764  24.779  1.00  0.00    -0.206 F 
ATOM     91  F   UNL A   1      34.724  30.250  28.118  1.00  0.00    -0.207 F 
ATOM     92  C   UNL A   1      32.816  30.828  26.873  1.00  0.00     0.042 A 
ENDBRANCH  84  85
ENDBRANCH  82  84
ENDBRANCH  77  79
ENDBRANCH  72  74
ENDBRANCH  71  72
ENDBRANCH  70  71
ENDBRANCH   1  70
TORSDOF 17
ENDMDL
MODEL 3
REMARK VINA RESULT:     -12.2      1.432      1.985
REMARK SMILES O=C(OCCOC(=O)c1cn(C2C[NH+](Cc3cc(F)ccc3F)C2)nn1)c1ccc(-c2c3nc(c(-c4cc(S(=O)(=O)[O-])ccc4F)c4ccc([nH]4)c(-c4cc(S(=O)(=O)[O-])ccc4F)c4nc(c(-c5cc(S(=O)(=O)[O-])ccc5F)c5ccc2[nH]5)C=C4)C=C3)cc1
REMARK SMILES IDX 4 1 3 2 2 3 1 4 27 5 28 6 89 7 29 8 88 9 30 10 31 11 32 12
REMARK SMILES IDX 82 13 33 14 87 15 81 16 83 17 34 18 86 19 80 20 79 21 35 23
REMARK SMILES IDX 67 24 47 25 66 26 48 27 51 28 65 29 84 30 49 31 50 32 64 34
REMARK SMILES IDX 85 35 52 36 36 37 37 38 45 39 38 40 44 41 46 42 43 43 39 44
REMARK SMILES IDX 40 45 41 46 42 47 68 48 69 49 77 50 70 51 76 52 78 53 75 54
REMARK SMILES IDX 71 55 72 56 73 57 74 58 53 59 54 60 62 61 55 62 61 63 63 64
REMARK SMILES IDX 60 65 56 66 57 67 58 68 59 69 5 70 6 71 7 72 8 73 9 74 10 75
REMARK SMILES IDX 26 76 11 77 25 78 12 79 13 80 24 81 14 82 15 84 16 85 17 86
REMARK SMILES IDX 22 87 18 88 21 89 23 90 19 91 20 92
REMARK H PARENT 83 22 51 33 14 83
REMARK Flexibility Score: inf
ROOT
ATOM      1  C   UNL A   1      38.615  22.507  25.950  1.00  0.00     0.275 C 
ENDROOT
BRANCH   1   2
ATOM      2  O   UNL A   1      39.526  22.557  27.066  1.00  0.00    -0.458 OA
BRANCH   2   3
ATOM      3  C   UNL A   1      40.768  23.065  26.888  1.00  0.00     0.338 C 
ATOM      4  O   UNL A   1      41.631  22.532  26.210  1.00  0.00    -0.246 OA
BRANCH   3   5
ATOM      5  C   UNL A   1      40.865  24.442  27.424  1.00  0.00     0.060 A 
ATOM      6  C   UNL A   1      41.854  24.796  28.348  1.00  0.00     0.016 A 
ATOM      7  C   UNL A   1      39.933  25.394  26.994  1.00  0.00     0.016 A 
ATOM      8  C   UNL A   1      41.865  26.068  28.900  1.00  0.00     0.010 A 
ATOM      9  C   UNL A   1      39.944  26.671  27.548  1.00  0.00     0.010 A 
ATOM     10  C   UNL A   1      40.892  26.996  28.522  1.00  0.00    -0.014 A 
BRANCH  10  11
ATOM     11  C   UNL A   1      41.006  28.348  29.071  1.00  0.00     0.031 A 
ATOM     12  C   UNL A   1      42.103  29.171  28.489  1.00  0.00     0.074 A 
ATOM     13  C   UNL A   1      40.119  28.882  29.935  1.00  0.00     0.049 A 
ATOM     14  N   UNL A   1      43.092  29.740  29.100  1.00  0.00    -0.248 NA
ATOM     15  C   UNL A   1      42.158  29.300  27.023  1.00  0.00     0.031 C 
ATOM     16  C   UNL A   1      38.863  28.290  30.397  1.00  0.00     0.029 A 
ATOM     17  N   UNL A   1      40.102  30.126  30.499  1.00  0.00    -0.354 N 
ATOM     18  C   UNL A   1      43.758  30.492  28.134  1.00  0.00     0.074 A 
ATOM     19  C   UNL A   1      43.240  30.063  26.864  1.00  0.00     0.031 C 
ATOM     20  C   UNL A   1      38.108  29.249  30.978  1.00  0.00     0.029 A 
ATOM     21  C   UNL A   1      38.869  30.487  31.037  1.00  0.00     0.049 A 
ATOM     22  H   UNL A   1      40.892  30.714  30.525  1.00  0.00     0.167 HD
ATOM     23  C   UNL A   1      44.515  31.574  28.465  1.00  0.00     0.034 A 
ATOM     24  C   UNL A   1      38.469  31.724  31.437  1.00  0.00     0.034 A 
ATOM     25  C   UNL A   1      44.967  31.509  29.832  1.00  0.00     0.049 A 
ATOM     26  C   UNL A   1      39.689  32.518  31.711  1.00  0.00     0.074 A 
ATOM     27  C   UNL A   1      45.657  30.568  30.574  1.00  0.00     0.029 A 
ATOM     28  N   UNL A   1      44.415  32.365  30.757  1.00  0.00    -0.354 N 
ATOM     29  N   UNL A   1      40.511  32.263  32.690  1.00  0.00    -0.248 NA
ATOM     30  C   UNL A   1      40.243  33.326  30.634  1.00  0.00     0.031 C 
ATOM     31  C   UNL A   1      45.023  30.583  31.849  1.00  0.00     0.029 A 
ATOM     32  C   UNL A   1      44.054  31.589  31.830  1.00  0.00     0.049 A 
ATOM     33  H   UNL A   1      44.300  33.338  30.667  1.00  0.00     0.167 HD
ATOM     34  C   UNL A   1      41.773  32.488  32.166  1.00  0.00     0.074 A 
ATOM     35  C   UNL A   1      41.541  33.242  30.936  1.00  0.00     0.031 C 
ATOM     36  C   UNL A   1      42.865  31.808  32.626  1.00  0.00     0.034 A 
BRANCH  23  37
ATOM     37  C   UNL A   1      44.537  32.860  27.669  1.00  0.00     0.023 A 
ATOM     38  C   UNL A   1      43.815  33.956  28.179  1.00  0.00     0.031 A 
ATOM     39  C   UNL A   1      44.930  32.960  26.315  1.00  0.00     0.131 A 
ATOM     40  C   UNL A   1      43.423  35.012  27.338  1.00  0.00     0.055 A 
ATOM     41  C   UNL A   1      44.635  34.066  25.516  1.00  0.00     0.041 A 
ATOM     42  F   UNL A   1      45.505  31.946  25.660  1.00  0.00    -0.206 F 
ATOM     43  C   UNL A   1      43.842  35.085  26.014  1.00  0.00     0.022 A 
BRANCH  40  44
ATOM     44  S   UNL A   1      42.140  36.143  27.941  1.00  0.00     0.124 S 
ATOM     45  O   UNL A   1      40.946  35.316  27.810  1.00  0.00    -0.237 OA
ATOM     46  O   UNL A   1      42.592  36.412  29.302  1.00  0.00    -0.237 OA
ATOM     47  O   UNL A   1      42.225  37.273  27.019  1.00  0.00    -0.744 OA
ENDBRANCH  40  44
ENDBRANCH  23  37
BRANCH  24  48
ATOM     48  C   UNL A   1      37.106  32.317  31.329  1.00  0.00     0.023 A 
ATOM     49  C   UNL A   1      36.490  32.602  30.091  1.00  0.00     0.031 A 
ATOM     50  C   UNL A   1      36.284  32.397  32.476  1.00  0.00     0.131 A 
ATOM     51  C   UNL A   1      35.119  32.956  30.041  1.00  0.00     0.055 A 
ATOM     52  C   UNL A   1      34.936  32.757  32.422  1.00  0.00     0.041 A 
ATOM     53  F   UNL A   1      36.741  32.042  33.686  1.00  0.00    -0.206 F 
ATOM     54  C   UNL A   1      34.344  33.030  31.201  1.00  0.00     0.022 A 
BRANCH  51  55
ATOM     55  S   UNL A   1      34.287  33.226  28.441  1.00  0.00     0.124 S 
ATOM     56  O   UNL A   1      33.829  31.884  28.099  1.00  0.00    -0.237 OA
ATOM     57  O   UNL A   1      33.254  34.198  28.781  1.00  0.00    -0.237 OA
ATOM     58  O   UNL A   1      35.354  33.745  27.585  1.00  0.00    -0.744 OA
ENDBRANCH  51  55
ENDBRANCH  24  48
BRANCH  36  59
ATOM     59  C   UNL A   1      42.761  31.029  33.920  1.00  0.00     0.023 A 
ATOM     60  C   UNL A   1      42.300  29.698  34.026  1.00  0.00     0.031 A 
ATOM     61  C   UNL A   1      43.292  31.629  35.077  1.00  0.00     0.131 A 
ATOM     62  C   UNL A   1      42.371  29.024  35.260  1.00  0.00     0.055 A 
ATOM     63  C   UNL A   1      43.383  30.951  36.291  1.00  0.00     0.041 A 
ATOM     64  F   UNL A   1      43.775  32.882  35.036  1.00  0.00    -0.206 F 
ATOM     65  C   UNL A   1      42.917  29.647  36.389  1.00  0.00     0.022 A 
BRANCH  62  66
ATOM     66  S   UNL A   1      41.743  27.324  35.431  1.00  0.00     0.124 S 
ATOM     67  O   UNL A   1      42.951  26.508  35.425  1.00  0.00    -0.237 OA
ATOM     68  O   UNL A   1      41.015  27.383  36.696  1.00  0.00    -0.237 OA
ATOM     69  O   UNL A   1      40.893  27.159  34.251  1.00  0.00    -0.744 OA
ENDBRANCH  62  66
ENDBRANCH  36  59
ENDBRANCH  10  11
ENDBRANCH   3   5
ENDBRANCH   2   3
ENDBRANCH   1   2
BRANCH   1  70
ATOM     70  C   UNL A   1      38.250  21.124  25.416  1.00  0.00     0.275 C 
BRANCH  70  71
ATOM     71  O   UNL A   1      37.348  21.266  24.310  1.00  0.00    -0.457 OA
BRANCH  71  72
ATOM     72  C   UNL A   1      36.020  21.152  24.605  1.00  0.00     0.360 C 
ATOM     73  O   UNL A   1      35.476  20.145  25.048  1.00  0.00    -0.244 OA
BRANCH  72  74
ATOM     74  C   UNL A   1      35.317  22.365  24.266  1.00  0.00     0.190 A 
ATOM     75  C   UNL A   1      34.293  22.962  24.973  1.00  0.00     0.147 A 
ATOM     76  N   UNL A   1      35.545  23.072  23.115  1.00  0.00    -0.123 NA
ATOM     77  N   UNL A   1      33.929  24.015  24.187  1.00  0.00    -0.237 N 
ATOM     78  N   UNL A   1      34.681  24.075  23.073  1.00  0.00    -0.066 NA
BRANCH  77  79
ATOM     79  C   UNL A   1      32.903  24.981  24.414  1.00  0.00     0.218 C 
ATOM     80  C   UNL A   1      32.889  26.231  23.507  1.00  0.00     0.296 C 
ATOM     81  C   UNL A   1      31.581  24.617  23.693  1.00  0.00     0.296 C 
ATOM     82  N   UNL A   1      31.455  26.017  23.240  1.00  0.00    -0.327 N 
ATOM     83  H   UNL A   1      31.060  26.223  22.322  1.00  0.00     0.348 HD
BRANCH  82  84
ATOM     84  C   UNL A   1      30.552  26.860  24.058  1.00  0.00     0.302 C 
BRANCH  84  85
ATOM     85  C   UNL A   1      29.582  27.802  23.379  1.00  0.00     0.045 A 
ATOM     86  C   UNL A   1      30.029  28.875  22.596  1.00  0.00     0.051 A 
ATOM     87  C   UNL A   1      28.200  27.647  23.552  1.00  0.00     0.132 A 
ATOM     88  C   UNL A   1      29.117  29.807  22.110  1.00  0.00     0.123 A 
ATOM     89  C   UNL A   1      27.288  28.568  23.038  1.00  0.00     0.043 A 
ATOM     90  F   UNL A   1      27.726  26.606  24.252  1.00  0.00    -0.206 F 
ATOM     91  F   UNL A   1      29.567  30.871  21.443  1.00  0.00    -0.207 F 
ATOM     92  C   UNL A   1      27.753  29.673  22.333  1.00  0.00     0.042 A 
ENDBRANCH  84  85
ENDBRANCH  82  84
ENDBRANCH  77  79
ENDBRANCH  72  74
ENDBRANCH  71  72
ENDBRANCH  70  71
ENDBRANCH   1  70
TORSDOF 17
ENDMDL
