MODEL 1
REMARK VINA RESULT:     -12.6      0.000      0.000
REMARK SMILES CC(=O)Nc1cccc(-c2ccc(F)c(C(=O)OCCOC(=O)c3ccc(-c4c5nc(c(-c6cc(S(=O)(=O)[O-])ccc6F)c6ccc([nH]6)c(-c6cc(S(=O)(=O)[O-])ccc6F)c6nc(c(-c7cc(S(=O)(=O)[O-])ccc7F)c7ccc4[nH]7)C=C6)C=C5)cc3)c2)c1
REMARK SMILES IDX 20 1 19 2 18 3 16 4 17 5 15 6 10 7 11 8 87 9 12 10 13 11
REMARK SMILES IDX 14 12 9 13 5 14 6 15 88 16 7 17 8 18 4 19 1 20 2 21 3 22
REMARK SMILES IDX 21 24 22 25 23 26 24 27 25 28 86 29 26 30 85 31 27 32 28 33
REMARK SMILES IDX 29 34 79 35 30 36 84 37 78 38 80 39 31 40 83 41 77 42 76 43
REMARK SMILES IDX 32 45 64 46 44 47 63 48 45 49 48 50 62 51 81 52 46 53 47 54
REMARK SMILES IDX 61 56 82 57 49 58 33 59 34 60 42 61 35 62 41 63 43 64 40 65
REMARK SMILES IDX 36 66 37 67 38 68 39 69 65 70 66 71 74 72 67 73 73 74 75 75
REMARK SMILES IDX 72 76 68 77 69 78 70 79 71 80 50 81 51 82 59 83 52 84 58 85
REMARK SMILES IDX 60 86 57 87 53 88 54 89 55 90 56 91
REMARK H PARENT 4 23 80 44 48 55
REMARK Flexibility Score: inf
ROOT
ATOM      1  C   UNL A   1      36.442  20.318  24.995  1.00  0.00     0.275 C 
ENDROOT
BRANCH   1   2
ATOM      2  C   UNL A   1      34.973  20.681  25.227  1.00  0.00     0.275 C 
BRANCH   2   3
ATOM      3  O   UNL A   1      34.830  22.094  25.474  1.00  0.00    -0.458 OA
BRANCH   3   4
ATOM      4  C   UNL A   1      34.164  22.811  24.532  1.00  0.00     0.341 C 
ATOM      5  O   UNL A   1      34.437  22.862  23.346  1.00  0.00    -0.246 OA
BRANCH   4   6
ATOM      6  C   UNL A   1      33.010  23.501  25.155  1.00  0.00     0.096 A 
ATOM      7  C   UNL A   1      31.935  25.517  26.008  1.00  0.00    -0.017 A 
ATOM      8  C   UNL A   1      30.832  24.747  26.407  1.00  0.00     0.012 A 
ATOM      9  C   UNL A   1      33.047  24.869  25.434  1.00  0.00     0.027 A 
ATOM     10  C   UNL A   1      30.793  23.381  26.130  1.00  0.00     0.041 A 
ATOM     11  C   UNL A   1      31.857  22.779  25.463  1.00  0.00     0.137 A 
ATOM     12  F   UNL A   1      31.765  21.472  25.185  1.00  0.00    -0.206 F 
BRANCH   7  13
ATOM     13  C   UNL A   1      31.859  26.980  25.988  1.00  0.00    -0.016 A 
ATOM     14  C   UNL A   1      31.329  28.966  24.661  1.00  0.00     0.041 A 
ATOM     15  C   UNL A   1      31.635  29.765  25.762  1.00  0.00     0.026 A 
ATOM     16  C   UNL A   1      31.477  27.590  24.779  1.00  0.00     0.034 A 
ATOM     17  C   UNL A   1      32.003  29.180  26.980  1.00  0.00     0.003 A 
ATOM     18  C   UNL A   1      32.102  27.790  27.098  1.00  0.00     0.009 A 
BRANCH  14  19
ATOM     19  N   UNL A   1      30.943  29.584  23.460  1.00  0.00    -0.326 N 
ATOM     20  C   UNL A   1      28.777  28.415  23.023  1.00  0.00     0.114 C 
ATOM     21  C   UNL A   1      29.925  29.295  22.593  1.00  0.00     0.221 C 
ATOM     22  O   UNL A   1      29.926  29.822  21.478  1.00  0.00    -0.275 OA
ATOM     23  H   UNL A   1      31.499  30.354  23.199  1.00  0.00     0.169 HD
ENDBRANCH  14  19
ENDBRANCH   7  13
ENDBRANCH   4   6
ENDBRANCH   3   4
ENDBRANCH   2   3
ENDBRANCH   1   2
BRANCH   1  24
ATOM     24  O   UNL A   1      37.299  21.409  25.383  1.00  0.00    -0.458 OA
BRANCH  24  25
ATOM     25  C   UNL A   1      38.536  21.046  25.799  1.00  0.00     0.338 C 
ATOM     26  O   UNL A   1      39.101  19.984  25.593  1.00  0.00    -0.246 OA
BRANCH  25  27
ATOM     27  C   UNL A   1      39.220  22.209  26.384  1.00  0.00     0.060 A 
ATOM     28  C   UNL A   1      38.648  23.450  26.127  1.00  0.00     0.016 A 
ATOM     29  C   UNL A   1      40.439  22.128  27.052  1.00  0.00     0.016 A 
ATOM     30  C   UNL A   1      39.282  24.623  26.513  1.00  0.00     0.010 A 
ATOM     31  C   UNL A   1      41.075  23.314  27.461  1.00  0.00     0.010 A 
ATOM     32  C   UNL A   1      40.513  24.574  27.175  1.00  0.00    -0.014 A 
BRANCH  32  33
ATOM     33  C   UNL A   1      41.217  25.857  27.458  1.00  0.00     0.031 A 
ATOM     34  C   UNL A   1      40.563  26.903  28.321  1.00  0.00     0.074 A 
ATOM     35  C   UNL A   1      42.480  26.049  27.027  1.00  0.00     0.049 A 
ATOM     36  N   UNL A   1      41.005  28.083  28.680  1.00  0.00    -0.248 NA
ATOM     37  C   UNL A   1      39.228  26.579  28.840  1.00  0.00     0.031 C 
ATOM     38  C   UNL A   1      43.246  25.096  26.222  1.00  0.00     0.029 A 
ATOM     39  N   UNL A   1      43.348  27.096  27.219  1.00  0.00    -0.354 N 
ATOM     40  C   UNL A   1      39.989  28.657  29.439  1.00  0.00     0.074 A 
ATOM     41  C   UNL A   1      38.897  27.705  29.454  1.00  0.00     0.031 C 
ATOM     42  C   UNL A   1      44.476  25.591  26.011  1.00  0.00     0.029 A 
ATOM     43  C   UNL A   1      44.567  26.921  26.607  1.00  0.00     0.049 A 
ATOM     44  H   UNL A   1      43.119  27.896  27.745  1.00  0.00     0.167 HD
ATOM     45  C   UNL A   1      39.972  29.860  30.072  1.00  0.00     0.034 A 
ATOM     46  C   UNL A   1      45.630  27.744  26.508  1.00  0.00     0.034 A 
ATOM     47  C   UNL A   1      41.075  30.793  30.059  1.00  0.00     0.049 A 
ATOM     48  C   UNL A   1      45.579  29.089  27.183  1.00  0.00     0.074 A 
ATOM     49  C   UNL A   1      41.168  32.030  30.674  1.00  0.00     0.029 A 
ATOM     50  N   UNL A   1      42.280  30.599  29.390  1.00  0.00    -0.354 N 
ATOM     51  N   UNL A   1      44.606  29.628  27.880  1.00  0.00    -0.248 NA
ATOM     52  C   UNL A   1      46.774  29.932  27.063  1.00  0.00     0.031 C 
ATOM     53  C   UNL A   1      42.391  32.612  30.317  1.00  0.00     0.029 A 
ATOM     54  C   UNL A   1      43.105  31.705  29.552  1.00  0.00     0.049 A 
ATOM     55  H   UNL A   1      42.515  29.792  28.875  1.00  0.00     0.167 HD
ATOM     56  C   UNL A   1      45.077  30.871  28.294  1.00  0.00     0.074 A 
ATOM     57  C   UNL A   1      46.432  30.985  27.791  1.00  0.00     0.031 C 
ATOM     58  C   UNL A   1      44.447  31.829  29.022  1.00  0.00     0.034 A 
BRANCH  45  59
ATOM     59  C   UNL A   1      38.683  30.251  30.765  1.00  0.00     0.023 A 
ATOM     60  C   UNL A   1      37.619  30.862  30.077  1.00  0.00     0.031 A 
ATOM     61  C   UNL A   1      38.548  30.081  32.155  1.00  0.00     0.131 A 
ATOM     62  C   UNL A   1      36.524  31.375  30.790  1.00  0.00     0.055 A 
ATOM     63  C   UNL A   1      37.410  30.505  32.845  1.00  0.00     0.041 A 
ATOM     64  F   UNL A   1      39.535  29.524  32.875  1.00  0.00    -0.206 F 
ATOM     65  C   UNL A   1      36.400  31.179  32.167  1.00  0.00     0.022 A 
BRANCH  62  66
ATOM     66  S   UNL A   1      35.367  32.477  29.927  1.00  0.00     0.124 S 
ATOM     67  O   UNL A   1      34.390  32.761  30.976  1.00  0.00    -0.237 OA
ATOM     68  O   UNL A   1      36.224  33.589  29.535  1.00  0.00    -0.237 OA
ATOM     69  O   UNL A   1      34.865  31.654  28.828  1.00  0.00    -0.744 OA
ENDBRANCH  62  66
ENDBRANCH  45  59
BRANCH  46  70
ATOM     70  C   UNL A   1      46.806  27.338  25.685  1.00  0.00     0.023 A 
ATOM     71  C   UNL A   1      46.968  27.769  24.358  1.00  0.00     0.031 A 
ATOM     72  C   UNL A   1      47.792  26.493  26.229  1.00  0.00     0.131 A 
ATOM     73  C   UNL A   1      48.079  27.335  23.615  1.00  0.00     0.055 A 
ATOM     74  C   UNL A   1      48.919  26.107  25.503  1.00  0.00     0.041 A 
ATOM     75  F   UNL A   1      47.683  26.049  27.491  1.00  0.00    -0.206 F 
ATOM     76  C   UNL A   1      49.063  26.523  24.185  1.00  0.00     0.022 A 
BRANCH  73  77
ATOM     77  S   UNL A   1      48.200  27.806  21.866  1.00  0.00     0.124 S 
ATOM     78  O   UNL A   1      48.405  26.514  21.223  1.00  0.00    -0.237 OA
ATOM     79  O   UNL A   1      46.907  28.441  21.632  1.00  0.00    -0.237 OA
ATOM     80  O   UNL A   1      49.348  28.709  21.835  1.00  0.00    -0.744 OA
ENDBRANCH  73  77
ENDBRANCH  46  70
BRANCH  58  81
ATOM     81  C   UNL A   1      45.242  33.076  29.343  1.00  0.00     0.023 A 
ATOM     82  C   UNL A   1      45.199  34.216  28.519  1.00  0.00     0.031 A 
ATOM     83  C   UNL A   1      46.093  33.106  30.462  1.00  0.00     0.131 A 
ATOM     84  C   UNL A   1      46.050  35.302  28.781  1.00  0.00     0.055 A 
ATOM     85  C   UNL A   1      46.882  34.220  30.759  1.00  0.00     0.041 A 
ATOM     86  F   UNL A   1      46.181  32.048  31.284  1.00  0.00    -0.206 F 
ATOM     87  C   UNL A   1      46.878  35.319  29.905  1.00  0.00     0.022 A 
BRANCH  84  88
ATOM     88  S   UNL A   1      46.163  36.636  27.556  1.00  0.00     0.124 S 
ATOM     89  O   UNL A   1      45.047  36.326  26.666  1.00  0.00    -0.237 OA
ATOM     90  O   UNL A   1      46.009  37.831  28.380  1.00  0.00    -0.237 OA
ATOM     91  O   UNL A   1      47.490  36.453  26.970  1.00  0.00    -0.744 OA
ENDBRANCH  84  88
ENDBRANCH  58  81
ENDBRANCH  32  33
ENDBRANCH  25  27
ENDBRANCH  24  25
ENDBRANCH   1  24
TORSDOF 16
ENDMDL
MODEL 2
REMARK VINA RESULT:     -12.5      1.068      7.591
REMARK SMILES CC(=O)Nc1cccc(-c2ccc(F)c(C(=O)OCCOC(=O)c3ccc(-c4c5nc(c(-c6cc(S(=O)(=O)[O-])ccc6F)c6ccc([nH]6)c(-c6cc(S(=O)(=O)[O-])ccc6F)c6nc(c(-c7cc(S(=O)(=O)[O-])ccc7F)c7ccc4[nH]7)C=C6)C=C5)cc3)c2)c1
REMARK SMILES IDX 20 1 19 2 18 3 16 4 17 5 15 6 10 7 11 8 87 9 12 10 13 11
REMARK SMILES IDX 14 12 9 13 5 14 6 15 88 16 7 17 8 18 4 19 1 20 2 21 3 22
REMARK SMILES IDX 21 24 22 25 23 26 24 27 25 28 86 29 26 30 85 31 27 32 28 33
REMARK SMILES IDX 29 34 79 35 30 36 84 37 78 38 80 39 31 40 83 41 77 42 76 43
REMARK SMILES IDX 32 45 64 46 44 47 63 48 45 49 48 50 62 51 81 52 46 53 47 54
REMARK SMILES IDX 61 56 82 57 49 58 33 59 34 60 42 61 35 62 41 63 43 64 40 65
REMARK SMILES IDX 36 66 37 67 38 68 39 69 65 70 66 71 74 72 67 73 73 74 75 75
REMARK SMILES IDX 72 76 68 77 69 78 70 79 71 80 50 81 51 82 59 83 52 84 58 85
REMARK SMILES IDX 60 86 57 87 53 88 54 89 55 90 56 91
REMARK H PARENT 4 23 80 44 48 55
REMARK Flexibility Score: inf
ROOT
ATOM      1  C   UNL A   1      37.380  20.629  24.982  1.00  0.00     0.275 C 
ENDROOT
BRANCH   1   2
ATOM      2  C   UNL A   1      35.884  20.931  24.874  1.00  0.00     0.275 C 
BRANCH   2   3
ATOM      3  O   UNL A   1      35.642  22.348  24.977  1.00  0.00    -0.458 OA
BRANCH   3   4
ATOM      4  C   UNL A   1      35.204  22.973  23.853  1.00  0.00     0.341 C 
ATOM      5  O   UNL A   1      35.828  23.096  22.813  1.00  0.00    -0.246 OA
BRANCH   4   6
ATOM      6  C   UNL A   1      33.818  23.455  24.058  1.00  0.00     0.096 A 
ATOM      7  C   UNL A   1      32.238  25.173  24.765  1.00  0.00    -0.017 A 
ATOM      8  C   UNL A   1      31.179  24.292  24.502  1.00  0.00     0.012 A 
ATOM      9  C   UNL A   1      33.561  24.720  24.594  1.00  0.00     0.027 A 
ATOM     10  C   UNL A   1      31.433  23.030  23.968  1.00  0.00     0.041 A 
ATOM     11  C   UNL A   1      32.743  22.641  23.703  1.00  0.00     0.137 A 
ATOM     12  F   UNL A   1      32.941  21.433  23.156  1.00  0.00    -0.206 F 
BRANCH   7  13
ATOM     13  C   UNL A   1      31.987  26.596  25.008  1.00  0.00    -0.016 A 
ATOM     14  C   UNL A   1      31.243  28.718  24.044  1.00  0.00     0.041 A 
ATOM     15  C   UNL A   1      31.432  29.330  25.282  1.00  0.00     0.026 A 
ATOM     16  C   UNL A   1      31.554  27.371  23.916  1.00  0.00     0.034 A 
ATOM     17  C   UNL A   1      31.847  28.577  26.387  1.00  0.00     0.003 A 
ATOM     18  C   UNL A   1      32.112  27.210  26.255  1.00  0.00     0.009 A 
BRANCH  14  19
ATOM     19  N   UNL A   1      30.805  29.499  22.962  1.00  0.00    -0.326 N 
ATOM     20  C   UNL A   1      28.383  28.879  22.905  1.00  0.00     0.114 C 
ATOM     21  C   UNL A   1      29.609  29.512  22.295  1.00  0.00     0.221 C 
ATOM     22  O   UNL A   1      29.535  30.111  21.219  1.00  0.00    -0.275 OA
ATOM     23  H   UNL A   1      31.469  30.143  22.626  1.00  0.00     0.169 HD
ENDBRANCH  14  19
ENDBRANCH   7  13
ENDBRANCH   4   6
ENDBRANCH   3   4
ENDBRANCH   2   3
ENDBRANCH   1   2
BRANCH   1  24
ATOM     24  O   UNL A   1      38.092  21.775  25.489  1.00  0.00    -0.458 OA
BRANCH  24  25
ATOM     25  C   UNL A   1      39.242  21.490  26.146  1.00  0.00     0.338 C 
ATOM     26  O   UNL A   1      39.888  20.457  26.088  1.00  0.00    -0.246 OA
BRANCH  25  27
ATOM     27  C   UNL A   1      39.741  22.703  26.812  1.00  0.00     0.060 A 
ATOM     28  C   UNL A   1      39.201  23.908  26.375  1.00  0.00     0.016 A 
ATOM     29  C   UNL A   1      40.783  22.699  27.735  1.00  0.00     0.016 A 
ATOM     30  C   UNL A   1      39.696  25.120  26.836  1.00  0.00     0.010 A 
ATOM     31  C   UNL A   1      41.274  23.925  28.218  1.00  0.00     0.010 A 
ATOM     32  C   UNL A   1      40.749  25.149  27.756  1.00  0.00    -0.014 A 
BRANCH  32  33
ATOM     33  C   UNL A   1      41.332  26.470  28.126  1.00  0.00     0.031 A 
ATOM     34  C   UNL A   1      42.729  26.827  27.693  1.00  0.00     0.074 A 
ATOM     35  C   UNL A   1      40.580  27.389  28.765  1.00  0.00     0.049 A 
ATOM     36  N   UNL A   1      43.417  27.919  27.917  1.00  0.00    -0.248 NA
ATOM     37  C   UNL A   1      43.448  25.814  26.911  1.00  0.00     0.031 C 
ATOM     38  C   UNL A   1      39.197  27.189  29.199  1.00  0.00     0.029 A 
ATOM     39  N   UNL A   1      40.864  28.679  29.142  1.00  0.00    -0.354 N 
ATOM     40  C   UNL A   1      44.664  27.712  27.333  1.00  0.00     0.074 A 
ATOM     41  C   UNL A   1      44.642  26.373  26.779  1.00  0.00     0.031 C 
ATOM     42  C   UNL A   1      38.746  28.321  29.761  1.00  0.00     0.029 A 
ATOM     43  C   UNL A   1      39.822  29.307  29.785  1.00  0.00     0.049 A 
ATOM     44  H   UNL A   1      41.730  29.114  28.968  1.00  0.00     0.167 HD
ATOM     45  C   UNL A   1      45.723  28.560  27.258  1.00  0.00     0.034 A 
ATOM     46  C   UNL A   1      39.746  30.524  30.359  1.00  0.00     0.034 A 
ATOM     47  C   UNL A   1      45.724  29.898  27.805  1.00  0.00     0.049 A 
ATOM     48  C   UNL A   1      40.943  31.437  30.300  1.00  0.00     0.074 A 
ATOM     49  C   UNL A   1      46.736  30.843  27.774  1.00  0.00     0.029 A 
ATOM     50  N   UNL A   1      44.664  30.484  28.490  1.00  0.00    -0.354 N 
ATOM     51  N   UNL A   1      42.121  31.222  29.763  1.00  0.00    -0.248 NA
ATOM     52  C   UNL A   1      40.793  32.759  30.918  1.00  0.00     0.031 C 
ATOM     53  C   UNL A   1      46.317  31.964  28.501  1.00  0.00     0.029 A 
ATOM     54  C   UNL A   1      45.010  31.761  28.912  1.00  0.00     0.049 A 
ATOM     55  H   UNL A   1      43.792  30.054  28.652  1.00  0.00     0.167 HD
ATOM     56  C   UNL A   1      42.851  32.389  29.968  1.00  0.00     0.074 A 
ATOM     57  C   UNL A   1      41.967  33.313  30.651  1.00  0.00     0.031 C 
ATOM     58  C   UNL A   1      44.135  32.671  29.622  1.00  0.00     0.034 A 
BRANCH  45  59
ATOM     59  C   UNL A   1      46.988  28.022  26.621  1.00  0.00     0.023 A 
ATOM     60  C   UNL A   1      47.272  28.200  25.255  1.00  0.00     0.031 A 
ATOM     61  C   UNL A   1      47.887  27.251  27.380  1.00  0.00     0.131 A 
ATOM     62  C   UNL A   1      48.358  27.529  24.671  1.00  0.00     0.055 A 
ATOM     63  C   UNL A   1      49.022  26.667  26.812  1.00  0.00     0.041 A 
ATOM     64  F   UNL A   1      47.665  27.025  28.684  1.00  0.00    -0.206 F 
ATOM     65  C   UNL A   1      49.250  26.783  25.445  1.00  0.00     0.022 A 
BRANCH  62  66
ATOM     66  S   UNL A   1      48.471  27.476  22.860  1.00  0.00     0.124 S 
ATOM     67  O   UNL A   1      48.429  26.038  22.602  1.00  0.00    -0.237 OA
ATOM     68  O   UNL A   1      47.296  28.234  22.448  1.00  0.00    -0.237 OA
ATOM     69  O   UNL A   1      49.758  28.112  22.577  1.00  0.00    -0.744 OA
ENDBRANCH  62  66
ENDBRANCH  45  59
BRANCH  46  70
ATOM     70  C   UNL A   1      38.509  30.921  31.091  1.00  0.00     0.023 A 
ATOM     71  C   UNL A   1      37.439  31.565  30.448  1.00  0.00     0.031 A 
ATOM     72  C   UNL A   1      38.388  30.660  32.469  1.00  0.00     0.131 A 
ATOM     73  C   UNL A   1      36.307  31.945  31.188  1.00  0.00     0.055 A 
ATOM     74  C   UNL A   1      37.241  30.993  33.188  1.00  0.00     0.041 A 
ATOM     75  F   UNL A   1      39.383  30.050  33.133  1.00  0.00    -0.206 F 
ATOM     76  C   UNL A   1      36.193  31.647  32.549  1.00  0.00     0.022 A 
BRANCH  73  77
ATOM     77  S   UNL A   1      34.995  32.886  30.359  1.00  0.00     0.124 S 
ATOM     78  O   UNL A   1      34.580  31.959  29.312  1.00  0.00    -0.237 OA
ATOM     79  O   UNL A   1      34.040  33.097  31.443  1.00  0.00    -0.237 OA
ATOM     80  O   UNL A   1      35.680  34.089  29.893  1.00  0.00    -0.744 OA
ENDBRANCH  73  77
ENDBRANCH  46  70
BRANCH  58  81
ATOM     81  C   UNL A   1      44.644  34.056  29.956  1.00  0.00     0.023 A 
ATOM     82  C   UNL A   1      44.445  35.148  29.092  1.00  0.00     0.031 A 
ATOM     83  C   UNL A   1      45.382  34.276  31.134  1.00  0.00     0.131 A 
ATOM     84  C   UNL A   1      45.044  36.386  29.378  1.00  0.00     0.055 A 
ATOM     85  C   UNL A   1      45.912  35.528  31.449  1.00  0.00     0.041 A 
ATOM     86  F   UNL A   1      45.609  33.273  31.996  1.00  0.00    -0.206 F 
ATOM     87  C   UNL A   1      45.761  36.588  30.559  1.00  0.00     0.022 A 
BRANCH  84  88
ATOM     88  S   UNL A   1      44.992  37.691  28.117  1.00  0.00     0.124 S 
ATOM     89  O   UNL A   1      44.618  36.942  26.921  1.00  0.00    -0.237 OA
ATOM     90  O   UNL A   1      43.977  38.595  28.647  1.00  0.00    -0.237 OA
ATOM     91  O   UNL A   1      46.355  38.220  28.115  1.00  0.00    -0.744 OA
ENDBRANCH  84  88
ENDBRANCH  58  81
ENDBRANCH  32  33
ENDBRANCH  25  27
ENDBRANCH  24  25
ENDBRANCH   1  24
TORSDOF 16
ENDMDL
MODEL 3
REMARK VINA RESULT:     -12.5      5.191      7.961
REMARK SMILES CC(=O)Nc1cccc(-c2ccc(F)c(C(=O)OCCOC(=O)c3ccc(-c4c5nc(c(-c6cc(S(=O)(=O)[O-])ccc6F)c6ccc([nH]6)c(-c6cc(S(=O)(=O)[O-])ccc6F)c6nc(c(-c7cc(S(=O)(=O)[O-])ccc7F)c7ccc4[nH]7)C=C6)C=C5)cc3)c2)c1
REMARK SMILES IDX 20 1 19 2 18 3 16 4 17 5 15 6 10 7 11 8 87 9 12 10 13 11
REMARK SMILES IDX 14 12 9 13 5 14 6 15 88 16 7 17 8 18 4 19 1 20 2 21 3 22
REMARK SMILES IDX 21 24 22 25 23 26 24 27 25 28 86 29 26 30 85 31 27 32 28 33
REMARK SMILES IDX 29 34 79 35 30 36 84 37 78 38 80 39 31 40 83 41 77 42 76 43
REMARK SMILES IDX 32 45 64 46 44 47 63 48 45 49 48 50 62 51 81 52 46 53 47 54
REMARK SMILES IDX 61 56 82 57 49 58 33 59 34 60 42 61 35 62 41 63 43 64 40 65
REMARK SMILES IDX 36 66 37 67 38 68 39 69 65 70 66 71 74 72 67 73 73 74 75 75
REMARK SMILES IDX 72 76 68 77 69 78 70 79 71 80 50 81 51 82 59 83 52 84 58 85
REMARK SMILES IDX 60 86 57 87 53 88 54 89 55 90 56 91
REMARK H PARENT 4 23 80 44 48 55
REMARK Flexibility Score: inf
ROOT
ATOM      1  C   UNL A   1      31.933  30.586  26.430  1.00  0.00     0.275 C 
ENDROOT
BRANCH   1   2
ATOM      2  C   UNL A   1      31.975  29.531  25.323  1.00  0.00     0.275 C 
BRANCH   2   3
ATOM      3  O   UNL A   1      32.723  28.375  25.749  1.00  0.00    -0.458 OA
BRANCH   3   4
ATOM      4  C   UNL A   1      32.018  27.226  25.923  1.00  0.00     0.341 C 
ATOM      5  O   UNL A   1      31.194  27.016  26.795  1.00  0.00    -0.246 OA
BRANCH   4   6
ATOM      6  C   UNL A   1      32.369  26.261  24.854  1.00  0.00     0.096 A 
ATOM      7  C   UNL A   1      33.666  24.368  24.028  1.00  0.00    -0.017 A 
ATOM      8  C   UNL A   1      33.052  24.508  22.775  1.00  0.00     0.012 A 
ATOM      9  C   UNL A   1      33.356  25.292  25.046  1.00  0.00     0.027 A 
ATOM     10  C   UNL A   1      32.066  25.474  22.580  1.00  0.00     0.041 A 
ATOM     11  C   UNL A   1      31.697  26.308  23.633  1.00  0.00     0.137 A 
ATOM     12  F   UNL A   1      30.720  27.199  23.414  1.00  0.00    -0.206 F 
BRANCH   7  13
ATOM     13  C   UNL A   1      34.448  23.171  24.351  1.00  0.00    -0.016 A 
ATOM     14  C   UNL A   1      34.384  20.862  25.156  1.00  0.00     0.041 A 
ATOM     15  C   UNL A   1      35.767  20.785  25.002  1.00  0.00     0.026 A 
ATOM     16  C   UNL A   1      33.749  22.061  24.860  1.00  0.00     0.034 A 
ATOM     17  C   UNL A   1      36.482  21.871  24.482  1.00  0.00     0.003 A 
ATOM     18  C   UNL A   1      35.823  23.058  24.145  1.00  0.00     0.009 A 
BRANCH  14  19
ATOM     19  N   UNL A   1      33.695  19.746  25.660  1.00  0.00    -0.326 N 
ATOM     20  C   UNL A   1      32.759  18.797  23.545  1.00  0.00     0.114 C 
ATOM     21  C   UNL A   1      32.828  18.880  25.050  1.00  0.00     0.221 C 
ATOM     22  O   UNL A   1      32.155  18.120  25.751  1.00  0.00    -0.275 OA
ATOM     23  H   UNL A   1      33.863  19.557  26.611  1.00  0.00     0.169 HD
ENDBRANCH  14  19
ENDBRANCH   7  13
ENDBRANCH   4   6
ENDBRANCH   3   4
ENDBRANCH   2   3
ENDBRANCH   1   2
BRANCH   1  24
ATOM     24  O   UNL A   1      33.025  30.397  27.350  1.00  0.00    -0.458 OA
BRANCH  24  25
ATOM     25  C   UNL A   1      33.783  31.498  27.575  1.00  0.00     0.338 C 
ATOM     26  O   UNL A   1      33.403  32.656  27.625  1.00  0.00    -0.246 OA
BRANCH  25  27
ATOM     27  C   UNL A   1      35.142  31.089  27.961  1.00  0.00     0.060 A 
ATOM     28  C   UNL A   1      35.308  29.750  28.295  1.00  0.00     0.016 A 
ATOM     29  C   UNL A   1      36.196  31.984  28.122  1.00  0.00     0.016 A 
ATOM     30  C   UNL A   1      36.512  29.284  28.804  1.00  0.00     0.010 A 
ATOM     31  C   UNL A   1      37.424  31.512  28.620  1.00  0.00     0.010 A 
ATOM     32  C   UNL A   1      37.587  30.161  28.987  1.00  0.00    -0.014 A 
BRANCH  32  33
ATOM     33  C   UNL A   1      38.817  29.646  29.653  1.00  0.00     0.031 A 
ATOM     34  C   UNL A   1      39.186  30.126  31.032  1.00  0.00     0.074 A 
ATOM     35  C   UNL A   1      39.551  28.678  29.069  1.00  0.00     0.049 A 
ATOM     36  N   UNL A   1      40.214  29.806  31.778  1.00  0.00    -0.248 NA
ATOM     37  C   UNL A   1      38.280  31.105  31.646  1.00  0.00     0.031 C 
ATOM     38  C   UNL A   1      39.277  28.091  27.757  1.00  0.00     0.029 A 
ATOM     39  N   UNL A   1      40.664  28.003  29.509  1.00  0.00    -0.354 N 
ATOM     40  C   UNL A   1      40.098  30.569  32.936  1.00  0.00     0.074 A 
ATOM     41  C   UNL A   1      38.917  31.392  32.771  1.00  0.00     0.031 C 
ATOM     42  C   UNL A   1      40.180  27.130  27.509  1.00  0.00     0.029 A 
ATOM     43  C   UNL A   1      41.135  27.073  28.612  1.00  0.00     0.049 A 
ATOM     44  H   UNL A   1      41.084  28.169  30.384  1.00  0.00     0.167 HD
ATOM     45  C   UNL A   1      40.894  30.575  34.038  1.00  0.00     0.034 A 
ATOM     46  C   UNL A   1      42.227  26.284  28.653  1.00  0.00     0.034 A 
ATOM     47  C   UNL A   1      42.061  29.738  34.193  1.00  0.00     0.049 A 
ATOM     48  C   UNL A   1      43.120  26.332  29.864  1.00  0.00     0.074 A 
ATOM     49  C   UNL A   1      42.930  29.656  35.268  1.00  0.00     0.029 A 
ATOM     50  N   UNL A   1      42.534  28.838  33.242  1.00  0.00    -0.354 N 
ATOM     51  N   UNL A   1      43.010  27.071  30.943  1.00  0.00    -0.248 NA
ATOM     52  C   UNL A   1      44.279  25.432  29.864  1.00  0.00     0.031 C 
ATOM     53  C   UNL A   1      43.962  28.768  34.939  1.00  0.00     0.029 A 
ATOM     54  C   UNL A   1      43.695  28.224  33.694  1.00  0.00     0.049 A 
ATOM     55  H   UNL A   1      42.105  28.661  32.373  1.00  0.00     0.167 HD
ATOM     56  C   UNL A   1      44.082  26.716  31.758  1.00  0.00     0.074 A 
ATOM     57  C   UNL A   1      44.806  25.676  31.055  1.00  0.00     0.031 C 
ATOM     58  C   UNL A   1      44.434  27.206  32.976  1.00  0.00     0.034 A 
BRANCH  45  59
ATOM     59  C   UNL A   1      40.557  31.579  35.121  1.00  0.00     0.023 A 
ATOM     60  C   UNL A   1      39.614  31.306  36.128  1.00  0.00     0.031 A 
ATOM     61  C   UNL A   1      41.135  32.862  35.099  1.00  0.00     0.131 A 
ATOM     62  C   UNL A   1      39.198  32.327  36.997  1.00  0.00     0.055 A 
ATOM     63  C   UNL A   1      40.789  33.845  36.030  1.00  0.00     0.041 A 
ATOM     64  F   UNL A   1      42.026  33.195  34.153  1.00  0.00    -0.206 F 
ATOM     65  C   UNL A   1      39.797  33.589  36.971  1.00  0.00     0.022 A 
BRANCH  62  66
ATOM     66  S   UNL A   1      37.726  32.047  38.021  1.00  0.00     0.124 S 
ATOM     67  O   UNL A   1      36.798  33.042  37.485  1.00  0.00    -0.237 OA
ATOM     68  O   UNL A   1      37.404  30.654  37.736  1.00  0.00    -0.237 OA
ATOM     69  O   UNL A   1      38.196  32.317  39.379  1.00  0.00    -0.744 OA
ENDBRANCH  62  66
ENDBRANCH  45  59
BRANCH  46  70
ATOM     70  C   UNL A   1      42.565  25.427  27.479  1.00  0.00     0.023 A 
ATOM     71  C   UNL A   1      42.138  24.092  27.387  1.00  0.00     0.031 A 
ATOM     72  C   UNL A   1      43.339  25.946  26.424  1.00  0.00     0.131 A 
ATOM     73  C   UNL A   1      42.507  23.318  26.274  1.00  0.00     0.055 A 
ATOM     74  C   UNL A   1      43.658  25.188  25.298  1.00  0.00     0.041 A 
ATOM     75  F   UNL A   1      43.775  27.215  26.464  1.00  0.00    -0.206 F 
ATOM     76  C   UNL A   1      43.248  23.862  25.222  1.00  0.00     0.022 A 
BRANCH  73  77
ATOM     77  S   UNL A   1      42.048  21.562  26.239  1.00  0.00     0.124 S 
ATOM     78  O   UNL A   1      40.675  21.623  25.752  1.00  0.00    -0.237 OA
ATOM     79  O   UNL A   1      43.032  21.008  25.315  1.00  0.00    -0.237 OA
ATOM     80  O   UNL A   1      42.199  21.142  27.630  1.00  0.00    -0.744 OA
ENDBRANCH  73  77
ENDBRANCH  46  70
BRANCH  58  81
ATOM     81  C   UNL A   1      45.647  26.589  33.636  1.00  0.00     0.023 A 
ATOM     82  C   UNL A   1      45.568  25.380  34.352  1.00  0.00     0.031 A 
ATOM     83  C   UNL A   1      46.891  27.245  33.589  1.00  0.00     0.131 A 
ATOM     84  C   UNL A   1      46.688  24.909  35.056  1.00  0.00     0.055 A 
ATOM     85  C   UNL A   1      48.020  26.731  34.231  1.00  0.00     0.041 A 
ATOM     86  F   UNL A   1      47.029  28.403  32.925  1.00  0.00    -0.206 F 
ATOM     87  C   UNL A   1      47.917  25.567  34.986  1.00  0.00     0.022 A 
BRANCH  84  88
ATOM     88  S   UNL A   1      46.480  23.499  36.181  1.00  0.00     0.124 S 
ATOM     89  O   UNL A   1      45.058  23.202  36.036  1.00  0.00    -0.237 OA
ATOM     90  O   UNL A   1      47.398  22.514  35.618  1.00  0.00    -0.237 OA
ATOM     91  O   UNL A   1      46.870  24.038  37.483  1.00  0.00    -0.744 OA
ENDBRANCH  84  88
ENDBRANCH  58  81
ENDBRANCH  32  33
ENDBRANCH  25  27
ENDBRANCH  24  25
ENDBRANCH   1  24
TORSDOF 16
ENDMDL
