MODEL 1
REMARK VINA RESULT:     -11.7      0.000      0.000
REMARK SMILES Cc1csc(NC(=O)[C@@H]2CC=CC[C@H]2C(=O)OCCOC(=O)c2ccc(-c3c4nc(c(-c5cc(S(=O)(=O)[O-])ccc5F)c5ccc([nH]5)c(-c5cc(S(=O)(=O)[O-])ccc5F)c5nc(c(-c6cc(S(=O)(=O)[O-])ccc6F)c6ccc3[nH]6)C=C5)C=C4)cc2)n1
REMARK SMILES IDX 19 1 18 2 17 3 15 4 16 5 14 6 9 7 10 8 11 9 13 10 12 11 7 12
REMARK SMILES IDX 6 13 8 15 5 16 1 17 2 18 3 19 86 20 4 21 20 22 21 23 22 24
REMARK SMILES IDX 23 25 24 26 85 27 25 28 84 29 26 30 27 31 28 32 78 33 29 34
REMARK SMILES IDX 83 35 77 36 79 37 30 38 82 39 76 40 75 41 31 43 63 44 43 45
REMARK SMILES IDX 62 46 44 47 47 48 61 49 80 50 45 51 46 52 60 54 81 55 48 56
REMARK SMILES IDX 32 57 33 58 41 59 34 60 40 61 42 62 39 63 35 64 36 65 37 66
REMARK SMILES IDX 38 67 64 68 65 69 73 70 66 71 72 72 74 73 71 74 67 75 68 76
REMARK SMILES IDX 69 77 70 78 49 79 50 80 58 81 51 82 57 83 59 84 56 85 52 86
REMARK SMILES IDX 53 87 54 88 55 89
REMARK H PARENT 6 14 79 42 47 53
REMARK Flexibility Score: inf
ROOT
ATOM      1  C   UNL A   1      37.576  20.577  24.974  1.00  0.00     0.275 C 
ENDROOT
BRANCH   1   2
ATOM      2  C   UNL A   1      36.111  21.012  24.868  1.00  0.00     0.274 C 
BRANCH   2   3
ATOM      3  O   UNL A   1      35.925  22.438  24.962  1.00  0.00    -0.462 OA
BRANCH   3   4
ATOM      4  C   UNL A   1      35.706  23.075  23.791  1.00  0.00     0.310 C 
ATOM      5  O   UNL A   1      36.364  22.883  22.771  1.00  0.00    -0.252 OA
BRANCH   4   6
ATOM      6  C   UNL A   1      34.687  24.197  23.857  1.00  0.00     0.116 C 
ATOM      7  C   UNL A   1      33.185  23.878  23.664  1.00  0.00     0.097 C 
ATOM      8  C   UNL A   1      32.391  25.173  23.870  1.00  0.00     0.041 C 
ATOM      9  C   UNL A   1      32.729  25.925  25.119  1.00  0.00    -0.030 C 
ATOM     10  C   UNL A   1      34.968  24.857  25.230  1.00  0.00     0.043 C 
ATOM     11  C   UNL A   1      33.909  25.785  25.731  1.00  0.00    -0.030 C 
BRANCH   7  12
ATOM     12  C   UNL A   1      32.898  23.073  22.376  1.00  0.00     0.230 C 
ATOM     13  N   UNL A   1      32.243  21.888  22.288  1.00  0.00    -0.302 N 
ATOM     14  H   UNL A   1      31.594  21.815  21.552  1.00  0.00     0.172 HD
ATOM     15  O   UNL A   1      33.168  23.616  21.293  1.00  0.00    -0.274 OA
BRANCH  13  16
ATOM     16  C   UNL A   1      32.361  20.781  23.080  1.00  0.00     0.189 A 
ATOM     17  C   UNL A   1      32.912  17.287  23.662  1.00  0.00     0.068 C 
ATOM     18  C   UNL A   1      32.615  18.728  23.863  1.00  0.00     0.051 A 
ATOM     19  C   UNL A   1      32.496  19.406  25.061  1.00  0.00     0.092 A 
ATOM     20  N   UNL A   1      32.460  19.524  22.742  1.00  0.00    -0.225 NA
ATOM     21  S   UNL A   1      32.252  21.083  24.757  1.00  0.00    -0.105 S 
ENDBRANCH  13  16
ENDBRANCH   7  12
ENDBRANCH   4   6
ENDBRANCH   3   4
ENDBRANCH   2   3
ENDBRANCH   1   2
BRANCH   1  22
ATOM     22  O   UNL A   1      38.438  21.681  25.298  1.00  0.00    -0.458 OA
BRANCH  22  23
ATOM     23  C   UNL A   1      39.354  21.443  26.261  1.00  0.00     0.338 C 
ATOM     24  O   UNL A   1      39.823  20.368  26.605  1.00  0.00    -0.246 OA
BRANCH  23  25
ATOM     25  C   UNL A   1      39.789  22.704  26.869  1.00  0.00     0.060 A 
ATOM     26  C   UNL A   1      39.301  23.906  26.353  1.00  0.00     0.016 A 
ATOM     27  C   UNL A   1      40.800  22.698  27.830  1.00  0.00     0.016 A 
ATOM     28  C   UNL A   1      39.837  25.116  26.781  1.00  0.00     0.010 A 
ATOM     29  C   UNL A   1      41.329  23.913  28.269  1.00  0.00     0.010 A 
ATOM     30  C   UNL A   1      40.865  25.127  27.731  1.00  0.00    -0.014 A 
BRANCH  30  31
ATOM     31  C   UNL A   1      41.508  26.406  28.113  1.00  0.00     0.031 A 
ATOM     32  C   UNL A   1      40.707  27.451  28.834  1.00  0.00     0.074 A 
ATOM     33  C   UNL A   1      42.801  26.617  27.813  1.00  0.00     0.049 A 
ATOM     34  N   UNL A   1      41.030  28.681  29.138  1.00  0.00    -0.248 NA
ATOM     35  C   UNL A   1      39.358  27.056  29.265  1.00  0.00     0.031 C 
ATOM     36  C   UNL A   1      43.686  25.646  27.166  1.00  0.00     0.029 A 
ATOM     37  N   UNL A   1      43.594  27.719  28.002  1.00  0.00    -0.354 N 
ATOM     38  C   UNL A   1      39.917  29.219  29.774  1.00  0.00     0.074 A 
ATOM     39  C   UNL A   1      38.905  28.182  29.797  1.00  0.00     0.031 C 
ATOM     40  C   UNL A   1      44.897  26.200  27.005  1.00  0.00     0.029 A 
ATOM     41  C   UNL A   1      44.859  27.578  27.482  1.00  0.00     0.049 A 
ATOM     42  H   UNL A   1      43.288  28.531  28.466  1.00  0.00     0.167 HD
ATOM     43  C   UNL A   1      39.759  30.465  30.287  1.00  0.00     0.034 A 
ATOM     44  C   UNL A   1      45.856  28.476  27.364  1.00  0.00     0.034 A 
ATOM     45  C   UNL A   1      40.784  31.481  30.247  1.00  0.00     0.049 A 
ATOM     46  C   UNL A   1      45.633  29.876  27.873  1.00  0.00     0.074 A 
ATOM     47  C   UNL A   1      40.741  32.775  30.736  1.00  0.00     0.029 A 
ATOM     48  N   UNL A   1      42.042  31.316  29.677  1.00  0.00    -0.354 N 
ATOM     49  N   UNL A   1      44.564  30.388  28.441  1.00  0.00    -0.248 NA
ATOM     50  C   UNL A   1      46.747  30.818  27.721  1.00  0.00     0.031 C 
ATOM     51  C   UNL A   1      41.947  33.409  30.412  1.00  0.00     0.029 A 
ATOM     52  C   UNL A   1      42.771  32.491  29.778  1.00  0.00     0.049 A 
ATOM     53  H   UNL A   1      42.368  30.484  29.263  1.00  0.00     0.167 HD
ATOM     54  C   UNL A   1      44.885  31.710  28.727  1.00  0.00     0.074 A 
ATOM     55  C   UNL A   1      46.251  31.911  28.283  1.00  0.00     0.031 C 
ATOM     56  C   UNL A   1      44.124  32.673  29.306  1.00  0.00     0.034 A 
BRANCH  43  57
ATOM     57  C   UNL A   1      38.408  30.805  30.867  1.00  0.00     0.023 A 
ATOM     58  C   UNL A   1      37.396  31.405  30.097  1.00  0.00     0.031 A 
ATOM     59  C   UNL A   1      38.144  30.565  32.229  1.00  0.00     0.131 A 
ATOM     60  C   UNL A   1      36.197  31.806  30.707  1.00  0.00     0.055 A 
ATOM     61  C   UNL A   1      36.921  30.901  32.813  1.00  0.00     0.041 A 
ATOM     62  F   UNL A   1      39.079  30.017  33.019  1.00  0.00    -0.206 F 
ATOM     63  C   UNL A   1      35.944  31.539  32.055  1.00  0.00     0.022 A 
BRANCH  60  64
ATOM     64  S   UNL A   1      35.026  32.806  29.745  1.00  0.00     0.124 S 
ATOM     65  O   UNL A   1      34.129  33.298  30.787  1.00  0.00    -0.237 OA
ATOM     66  O   UNL A   1      35.893  33.802  29.128  1.00  0.00    -0.237 OA
ATOM     67  O   UNL A   1      34.428  31.842  28.823  1.00  0.00    -0.744 OA
ENDBRANCH  60  64
ENDBRANCH  43  57
BRANCH  44  68
ATOM     68  C   UNL A   1      47.125  28.097  26.686  1.00  0.00     0.023 A 
ATOM     69  C   UNL A   1      47.217  28.055  25.287  1.00  0.00     0.031 A 
ATOM     70  C   UNL A   1      48.264  27.754  27.436  1.00  0.00     0.131 A 
ATOM     71  C   UNL A   1      48.417  27.653  24.679  1.00  0.00     0.055 A 
ATOM     72  C   UNL A   1      49.467  27.397  26.827  1.00  0.00     0.041 A 
ATOM     73  F   UNL A   1      48.227  27.780  28.778  1.00  0.00    -0.206 F 
ATOM     74  C   UNL A   1      49.546  27.337  25.440  1.00  0.00     0.022 A 
BRANCH  71  75
ATOM     75  S   UNL A   1      48.466  27.493  22.874  1.00  0.00     0.124 S 
ATOM     76  O   UNL A   1      47.286  28.252  22.475  1.00  0.00    -0.237 OA
ATOM     77  O   UNL A   1      49.755  28.095  22.551  1.00  0.00    -0.237 OA
ATOM     78  O   UNL A   1      48.383  26.050  22.658  1.00  0.00    -0.744 OA
ENDBRANCH  71  75
ENDBRANCH  44  68
BRANCH  56  79
ATOM     79  C   UNL A   1      44.780  34.014  29.517  1.00  0.00     0.023 A 
ATOM     80  C   UNL A   1      44.713  35.026  28.544  1.00  0.00     0.031 A 
ATOM     81  C   UNL A   1      45.504  34.268  30.694  1.00  0.00     0.131 A 
ATOM     82  C   UNL A   1      45.408  36.229  28.742  1.00  0.00     0.055 A 
ATOM     83  C   UNL A   1      46.151  35.486  30.908  1.00  0.00     0.041 A 
ATOM     84  F   UNL A   1      45.600  33.333  31.653  1.00  0.00    -0.206 F 
ATOM     85  C   UNL A   1      46.115  36.470  29.924  1.00  0.00     0.022 A 
BRANCH  82  86
ATOM     86  S   UNL A   1      45.448  37.444  27.397  1.00  0.00     0.124 S 
ATOM     87  O   UNL A   1      45.997  38.620  28.065  1.00  0.00    -0.237 OA
ATOM     88  O   UNL A   1      46.320  36.801  26.420  1.00  0.00    -0.237 OA
ATOM     89  O   UNL A   1      44.047  37.558  26.994  1.00  0.00    -0.744 OA
ENDBRANCH  82  86
ENDBRANCH  56  79
ENDBRANCH  30  31
ENDBRANCH  23  25
ENDBRANCH  22  23
ENDBRANCH   1  22
TORSDOF 16
ENDMDL
MODEL 2
REMARK VINA RESULT:     -11.6      5.465     10.305
REMARK SMILES Cc1csc(NC(=O)[C@@H]2CC=CC[C@H]2C(=O)OCCOC(=O)c2ccc(-c3c4nc(c(-c5cc(S(=O)(=O)[O-])ccc5F)c5ccc([nH]5)c(-c5cc(S(=O)(=O)[O-])ccc5F)c5nc(c(-c6cc(S(=O)(=O)[O-])ccc6F)c6ccc3[nH]6)C=C5)C=C4)cc2)n1
REMARK SMILES IDX 19 1 18 2 17 3 15 4 16 5 14 6 9 7 10 8 11 9 13 10 12 11 7 12
REMARK SMILES IDX 6 13 8 15 5 16 1 17 2 18 3 19 86 20 4 21 20 22 21 23 22 24
REMARK SMILES IDX 23 25 24 26 85 27 25 28 84 29 26 30 27 31 28 32 78 33 29 34
REMARK SMILES IDX 83 35 77 36 79 37 30 38 82 39 76 40 75 41 31 43 63 44 43 45
REMARK SMILES IDX 62 46 44 47 47 48 61 49 80 50 45 51 46 52 60 54 81 55 48 56
REMARK SMILES IDX 32 57 33 58 41 59 34 60 40 61 42 62 39 63 35 64 36 65 37 66
REMARK SMILES IDX 38 67 64 68 65 69 73 70 66 71 72 72 74 73 71 74 67 75 68 76
REMARK SMILES IDX 69 77 70 78 49 79 50 80 58 81 51 82 57 83 59 84 56 85 52 86
REMARK SMILES IDX 53 87 54 88 55 89
REMARK H PARENT 6 14 79 42 47 53
REMARK Flexibility Score: inf
ROOT
ATOM      1  C   UNL A   1      31.598  30.933  26.127  1.00  0.00     0.275 C 
ENDROOT
BRANCH   1   2
ATOM      2  C   UNL A   1      31.794  29.605  25.389  1.00  0.00     0.274 C 
BRANCH   2   3
ATOM      3  O   UNL A   1      32.645  28.677  26.090  1.00  0.00    -0.462 OA
BRANCH   3   4
ATOM      4  C   UNL A   1      32.006  27.685  26.749  1.00  0.00     0.310 C 
ATOM      5  O   UNL A   1      31.298  27.863  27.738  1.00  0.00    -0.252 OA
BRANCH   4   6
ATOM      6  C   UNL A   1      32.361  26.284  26.290  1.00  0.00     0.116 C 
ATOM      7  C   UNL A   1      31.567  25.633  25.133  1.00  0.00     0.097 C 
ATOM      8  C   UNL A   1      32.197  24.270  24.828  1.00  0.00     0.041 C 
ATOM      9  C   UNL A   1      33.683  24.289  24.651  1.00  0.00    -0.030 C 
ATOM     10  C   UNL A   1      33.874  26.383  25.972  1.00  0.00     0.043 C 
ATOM     11  C   UNL A   1      34.445  25.249  25.182  1.00  0.00    -0.030 C 
BRANCH   7  12
ATOM     12  C   UNL A   1      30.038  25.670  25.353  1.00  0.00     0.230 C 
ATOM     13  N   UNL A   1      29.100  26.100  24.470  1.00  0.00    -0.302 N 
ATOM     14  H   UNL A   1      28.297  25.536  24.397  1.00  0.00     0.172 HD
ATOM     15  O   UNL A   1      29.597  25.131  26.380  1.00  0.00    -0.274 OA
BRANCH  13  16
ATOM     16  C   UNL A   1      29.118  27.207  23.670  1.00  0.00     0.189 A 
ATOM     17  C   UNL A   1      27.742  30.241  22.347  1.00  0.00     0.068 C 
ATOM     18  C   UNL A   1      28.631  29.078  22.595  1.00  0.00     0.051 A 
ATOM     19  C   UNL A   1      29.908  28.872  22.109  1.00  0.00     0.092 A 
ATOM     20  N   UNL A   1      28.172  28.074  23.429  1.00  0.00    -0.225 NA
ATOM     21  S   UNL A   1      30.555  27.421  22.773  1.00  0.00    -0.105 S 
ENDBRANCH  13  16
ENDBRANCH   7  12
ENDBRANCH   4   6
ENDBRANCH   3   4
ENDBRANCH   2   3
ENDBRANCH   1   2
BRANCH   1  22
ATOM     22  O   UNL A   1      32.420  31.015  27.305  1.00  0.00    -0.458 OA
BRANCH  22  23
ATOM     23  C   UNL A   1      33.242  32.084  27.369  1.00  0.00     0.338 C 
ATOM     24  O   UNL A   1      32.982  33.251  27.112  1.00  0.00    -0.246 OA
BRANCH  23  25
ATOM     25  C   UNL A   1      34.564  31.679  27.855  1.00  0.00     0.060 A 
ATOM     26  C   UNL A   1      34.752  30.360  28.276  1.00  0.00     0.016 A 
ATOM     27  C   UNL A   1      35.557  32.638  28.049  1.00  0.00     0.016 A 
ATOM     28  C   UNL A   1      35.933  29.995  28.915  1.00  0.00     0.010 A 
ATOM     29  C   UNL A   1      36.747  32.269  28.678  1.00  0.00     0.010 A 
ATOM     30  C   UNL A   1      36.932  30.952  29.133  1.00  0.00    -0.014 A 
BRANCH  30  31
ATOM     31  C   UNL A   1      38.145  30.592  29.903  1.00  0.00     0.031 A 
ATOM     32  C   UNL A   1      39.129  29.617  29.323  1.00  0.00     0.074 A 
ATOM     33  C   UNL A   1      38.357  31.144  31.111  1.00  0.00     0.049 A 
ATOM     34  N   UNL A   1      40.176  29.065  29.878  1.00  0.00    -0.248 NA
ATOM     35  C   UNL A   1      38.894  29.205  27.931  1.00  0.00     0.031 C 
ATOM     36  C   UNL A   1      37.495  32.146  31.741  1.00  0.00     0.029 A 
ATOM     37  N   UNL A   1      39.353  30.934  32.027  1.00  0.00    -0.354 N 
ATOM     38  C   UNL A   1      40.714  28.220  28.914  1.00  0.00     0.074 A 
ATOM     39  C   UNL A   1      39.866  28.323  27.745  1.00  0.00     0.031 C 
ATOM     40  C   UNL A   1      37.997  32.457  32.946  1.00  0.00     0.029 A 
ATOM     41  C   UNL A   1      39.179  31.637  33.196  1.00  0.00     0.049 A 
ATOM     42  H   UNL A   1      40.121  30.339  31.864  1.00  0.00     0.167 HD
ATOM     43  C   UNL A   1      41.815  27.432  29.004  1.00  0.00     0.034 A 
ATOM     44  C   UNL A   1      39.868  31.589  34.352  1.00  0.00     0.034 A 
ATOM     45  C   UNL A   1      42.642  27.346  30.184  1.00  0.00     0.049 A 
ATOM     46  C   UNL A   1      41.042  30.651  34.455  1.00  0.00     0.074 A 
ATOM     47  C   UNL A   1      43.780  26.586  30.392  1.00  0.00     0.029 A 
ATOM     48  N   UNL A   1      42.413  28.044  31.365  1.00  0.00    -0.354 N 
ATOM     49  N   UNL A   1      41.523  29.827  33.552  1.00  0.00    -0.248 NA
ATOM     50  C   UNL A   1      41.760  30.633  35.735  1.00  0.00     0.031 C 
ATOM     51  C   UNL A   1      44.205  26.780  31.712  1.00  0.00     0.029 A 
ATOM     52  C   UNL A   1      43.370  27.711  32.312  1.00  0.00     0.049 A 
ATOM     53  H   UNL A   1      41.677  28.682  31.509  1.00  0.00     0.167 HD
ATOM     54  C   UNL A   1      42.612  29.204  34.151  1.00  0.00     0.074 A 
ATOM     55  C   UNL A   1      42.725  29.758  35.486  1.00  0.00     0.031 C 
ATOM     56  C   UNL A   1      43.447  28.260  33.645  1.00  0.00     0.034 A 
BRANCH  43  57
ATOM     57  C   UNL A   1      42.135  26.557  27.817  1.00  0.00     0.023 A 
ATOM     58  C   UNL A   1      41.616  25.257  27.688  1.00  0.00     0.031 A 
ATOM     59  C   UNL A   1      43.012  27.018  26.817  1.00  0.00     0.131 A 
ATOM     60  C   UNL A   1      42.030  24.439  26.624  1.00  0.00     0.055 A 
ATOM     61  C   UNL A   1      43.363  26.225  25.723  1.00  0.00     0.041 A 
ATOM     62  F   UNL A   1      43.557  28.241  26.897  1.00  0.00    -0.206 F 
ATOM     63  C   UNL A   1      42.883  24.922  25.629  1.00  0.00     0.022 A 
BRANCH  60  64
ATOM     64  S   UNL A   1      41.546  22.690  26.634  1.00  0.00     0.124 S 
ATOM     65  O   UNL A   1      42.176  22.199  25.411  1.00  0.00    -0.237 OA
ATOM     66  O   UNL A   1      42.120  22.210  27.885  1.00  0.00    -0.237 OA
ATOM     67  O   UNL A   1      40.085  22.738  26.597  1.00  0.00    -0.744 OA
ENDBRANCH  60  64
ENDBRANCH  43  57
BRANCH  44  68
ATOM     68  C   UNL A   1      39.431  32.405  35.516  1.00  0.00     0.023 A 
ATOM     69  C   UNL A   1      39.855  33.733  35.673  1.00  0.00     0.031 A 
ATOM     70  C   UNL A   1      38.590  31.857  36.502  1.00  0.00     0.131 A 
ATOM     71  C   UNL A   1      39.458  34.462  36.806  1.00  0.00     0.055 A 
ATOM     72  C   UNL A   1      38.163  32.600  37.603  1.00  0.00     0.041 A 
ATOM     73  F   UNL A   1      38.154  30.591  36.396  1.00  0.00    -0.206 F 
ATOM     74  C   UNL A   1      38.605  33.909  37.763  1.00  0.00     0.022 A 
BRANCH  71  75
ATOM     75  S   UNL A   1      40.122  36.133  37.039  1.00  0.00     0.124 S 
ATOM     76  O   UNL A   1      39.319  36.622  38.154  1.00  0.00    -0.237 OA
ATOM     77  O   UNL A   1      41.526  35.863  37.331  1.00  0.00    -0.237 OA
ATOM     78  O   UNL A   1      39.870  36.782  35.755  1.00  0.00    -0.744 OA
ENDBRANCH  71  75
ENDBRANCH  44  68
BRANCH  56  79
ATOM     79  C   UNL A   1      44.571  27.806  34.542  1.00  0.00     0.023 A 
ATOM     80  C   UNL A   1      44.344  26.937  35.622  1.00  0.00     0.031 A 
ATOM     81  C   UNL A   1      45.878  28.274  34.327  1.00  0.00     0.131 A 
ATOM     82  C   UNL A   1      45.400  26.604  36.483  1.00  0.00     0.055 A 
ATOM     83  C   UNL A   1      46.936  27.899  35.156  1.00  0.00     0.041 A 
ATOM     84  F   UNL A   1      46.147  29.108  33.310  1.00  0.00    -0.206 F 
ATOM     85  C   UNL A   1      46.698  27.070  36.249  1.00  0.00     0.022 A 
BRANCH  82  86
ATOM     86  S   UNL A   1      45.041  25.624  37.966  1.00  0.00     0.124 S 
ATOM     87  O   UNL A   1      46.274  25.773  38.734  1.00  0.00    -0.237 OA
ATOM     88  O   UNL A   1      43.867  26.298  38.510  1.00  0.00    -0.237 OA
ATOM     89  O   UNL A   1      44.797  24.282  37.440  1.00  0.00    -0.744 OA
ENDBRANCH  82  86
ENDBRANCH  56  79
ENDBRANCH  30  31
ENDBRANCH  23  25
ENDBRANCH  22  23
ENDBRANCH   1  22
TORSDOF 16
ENDMDL
MODEL 3
REMARK VINA RESULT:     -11.5      2.010      2.950
REMARK SMILES Cc1csc(NC(=O)[C@@H]2CC=CC[C@H]2C(=O)OCCOC(=O)c2ccc(-c3c4nc(c(-c5cc(S(=O)(=O)[O-])ccc5F)c5ccc([nH]5)c(-c5cc(S(=O)(=O)[O-])ccc5F)c5nc(c(-c6cc(S(=O)(=O)[O-])ccc6F)c6ccc3[nH]6)C=C5)C=C4)cc2)n1
REMARK SMILES IDX 19 1 18 2 17 3 15 4 16 5 14 6 9 7 10 8 11 9 13 10 12 11 7 12
REMARK SMILES IDX 6 13 8 15 5 16 1 17 2 18 3 19 86 20 4 21 20 22 21 23 22 24
REMARK SMILES IDX 23 25 24 26 85 27 25 28 84 29 26 30 27 31 28 32 78 33 29 34
REMARK SMILES IDX 83 35 77 36 79 37 30 38 82 39 76 40 75 41 31 43 63 44 43 45
REMARK SMILES IDX 62 46 44 47 47 48 61 49 80 50 45 51 46 52 60 54 81 55 48 56
REMARK SMILES IDX 32 57 33 58 41 59 34 60 40 61 42 62 39 63 35 64 36 65 37 66
REMARK SMILES IDX 38 67 64 68 65 69 73 70 66 71 72 72 74 73 71 74 67 75 68 76
REMARK SMILES IDX 69 77 70 78 49 79 50 80 58 81 51 82 57 83 59 84 56 85 52 86
REMARK SMILES IDX 53 87 54 88 55 89
REMARK H PARENT 6 14 79 42 47 53
REMARK Flexibility Score: inf
ROOT
ATOM      1  C   UNL A   1      36.813  20.349  25.003  1.00  0.00     0.275 C 
ENDROOT
BRANCH   1   2
ATOM      2  C   UNL A   1      35.429  21.003  24.947  1.00  0.00     0.274 C 
BRANCH   2   3
ATOM      3  O   UNL A   1      35.302  22.155  25.805  1.00  0.00    -0.462 OA
BRANCH   3   4
ATOM      4  C   UNL A   1      34.923  23.297  25.192  1.00  0.00     0.310 C 
ATOM      5  O   UNL A   1      35.704  24.076  24.648  1.00  0.00    -0.252 OA
BRANCH   4   6
ATOM      6  C   UNL A   1      33.461  23.662  25.369  1.00  0.00     0.116 C 
ATOM      7  C   UNL A   1      32.429  23.221  24.305  1.00  0.00     0.097 C 
ATOM      8  C   UNL A   1      31.036  23.644  24.785  1.00  0.00     0.041 C 
ATOM      9  C   UNL A   1      30.711  23.251  26.193  1.00  0.00    -0.030 C 
ATOM     10  C   UNL A   1      33.121  23.106  26.774  1.00  0.00     0.043 C 
ATOM     11  C   UNL A   1      31.664  23.016  27.099  1.00  0.00    -0.030 C 
BRANCH   7  12
ATOM     12  C   UNL A   1      32.831  23.624  22.868  1.00  0.00     0.230 C 
ATOM     13  N   UNL A   1      33.162  24.867  22.436  1.00  0.00    -0.302 N 
ATOM     14  H   UNL A   1      33.942  24.915  21.837  1.00  0.00     0.172 HD
ATOM     15  O   UNL A   1      33.003  22.709  22.047  1.00  0.00    -0.274 OA
BRANCH  13  16
ATOM     16  C   UNL A   1      32.562  26.062  22.716  1.00  0.00     0.189 A 
ATOM     17  C   UNL A   1      29.855  28.409  22.592  1.00  0.00     0.068 C 
ATOM     18  C   UNL A   1      31.174  27.779  22.853  1.00  0.00     0.051 A 
ATOM     19  C   UNL A   1      32.196  28.259  23.650  1.00  0.00     0.092 A 
ATOM     20  N   UNL A   1      31.437  26.553  22.269  1.00  0.00    -0.225 NA
ATOM     21  S   UNL A   1      33.474  27.108  23.711  1.00  0.00    -0.105 S 
ENDBRANCH  13  16
ENDBRANCH   7  12
ENDBRANCH   4   6
ENDBRANCH   3   4
ENDBRANCH   2   3
ENDBRANCH   1   2
BRANCH   1  22
ATOM     22  O   UNL A   1      37.865  21.328  25.043  1.00  0.00    -0.458 OA
BRANCH  22  23
ATOM     23  C   UNL A   1      38.923  21.016  25.822  1.00  0.00     0.338 C 
ATOM     24  O   UNL A   1      39.436  19.920  25.991  1.00  0.00    -0.246 OA
BRANCH  23  25
ATOM     25  C   UNL A   1      39.458  22.223  26.458  1.00  0.00     0.060 A 
ATOM     26  C   UNL A   1      38.976  23.470  26.052  1.00  0.00     0.016 A 
ATOM     27  C   UNL A   1      40.545  22.127  27.326  1.00  0.00     0.016 A 
ATOM     28  C   UNL A   1      39.594  24.634  26.497  1.00  0.00     0.010 A 
ATOM     29  C   UNL A   1      41.157  23.295  27.784  1.00  0.00     0.010 A 
ATOM     30  C   UNL A   1      40.698  24.554  27.354  1.00  0.00    -0.014 A 
BRANCH  30  31
ATOM     31  C   UNL A   1      41.421  25.785  27.748  1.00  0.00     0.031 A 
ATOM     32  C   UNL A   1      40.696  26.860  28.505  1.00  0.00     0.074 A 
ATOM     33  C   UNL A   1      42.719  25.927  27.428  1.00  0.00     0.049 A 
ATOM     34  N   UNL A   1      41.096  28.063  28.826  1.00  0.00    -0.248 NA
ATOM     35  C   UNL A   1      39.334  26.535  28.954  1.00  0.00     0.031 C 
ATOM     36  C   UNL A   1      43.534  24.920  26.746  1.00  0.00     0.029 A 
ATOM     37  N   UNL A   1      43.578  26.977  27.624  1.00  0.00    -0.354 N 
ATOM     38  C   UNL A   1      40.027  28.651  29.493  1.00  0.00     0.074 A 
ATOM     39  C   UNL A   1      38.957  27.674  29.516  1.00  0.00     0.031 C 
ATOM     40  C   UNL A   1      44.773  25.405  26.573  1.00  0.00     0.029 A 
ATOM     41  C   UNL A   1      44.823  26.774  27.077  1.00  0.00     0.049 A 
ATOM     42  H   UNL A   1      43.328  27.796  28.109  1.00  0.00     0.167 HD
ATOM     43  C   UNL A   1      39.952  29.894  30.034  1.00  0.00     0.034 A 
ATOM     44  C   UNL A   1      45.868  27.614  26.957  1.00  0.00     0.034 A 
ATOM     45  C   UNL A   1      41.033  30.849  29.994  1.00  0.00     0.049 A 
ATOM     46  C   UNL A   1      45.737  29.014  27.498  1.00  0.00     0.074 A 
ATOM     47  C   UNL A   1      41.074  32.133  30.508  1.00  0.00     0.029 A 
ATOM     48  N   UNL A   1      42.269  30.623  29.397  1.00  0.00    -0.354 N 
ATOM     49  N   UNL A   1      44.710  29.576  28.095  1.00  0.00    -0.248 NA
ATOM     50  C   UNL A   1      46.902  29.893  27.342  1.00  0.00     0.031 C 
ATOM     51  C   UNL A   1      42.310  32.702  30.173  1.00  0.00     0.029 A 
ATOM     52  C   UNL A   1      43.067  31.752  29.506  1.00  0.00     0.049 A 
ATOM     53  H   UNL A   1      42.538  29.783  28.960  1.00  0.00     0.167 HD
ATOM     54  C   UNL A   1      45.113  30.871  28.400  1.00  0.00     0.074 A 
ATOM     55  C   UNL A   1      46.480  31.001  27.935  1.00  0.00     0.031 C 
ATOM     56  C   UNL A   1      44.419  31.865  29.013  1.00  0.00     0.034 A 
BRANCH  43  57
ATOM     57  C   UNL A   1      38.634  30.300  30.646  1.00  0.00     0.023 A 
ATOM     58  C   UNL A   1      37.655  30.995  29.914  1.00  0.00     0.031 A 
ATOM     59  C   UNL A   1      38.370  30.025  32.001  1.00  0.00     0.131 A 
ATOM     60  C   UNL A   1      36.492  31.450  30.555  1.00  0.00     0.055 A 
ATOM     61  C   UNL A   1      37.180  30.418  32.615  1.00  0.00     0.041 A 
ATOM     62  F   UNL A   1      39.276  29.386  32.756  1.00  0.00    -0.206 F 
ATOM     63  C   UNL A   1      36.238  31.148  31.895  1.00  0.00     0.022 A 
BRANCH  60  64
ATOM     64  S   UNL A   1      35.379  32.562  29.649  1.00  0.00     0.124 S 
ATOM     65  O   UNL A   1      34.629  31.623  28.820  1.00  0.00    -0.237 OA
ATOM     66  O   UNL A   1      34.630  33.204  30.723  1.00  0.00    -0.237 OA
ATOM     67  O   UNL A   1      36.292  33.437  28.915  1.00  0.00    -0.744 OA
ENDBRANCH  60  64
ENDBRANCH  43  57
BRANCH  44  68
ATOM     68  C   UNL A   1      47.101  27.176  26.248  1.00  0.00     0.023 A 
ATOM     69  C   UNL A   1      48.122  26.489  26.922  1.00  0.00     0.031 A 
ATOM     70  C   UNL A   1      47.281  27.457  24.882  1.00  0.00     0.131 A 
ATOM     71  C   UNL A   1      49.291  26.127  26.233  1.00  0.00     0.055 A 
ATOM     72  C   UNL A   1      48.425  27.056  24.191  1.00  0.00     0.041 A 
ATOM     73  F   UNL A   1      46.332  28.110  24.191  1.00  0.00    -0.206 F 
ATOM     74  C   UNL A   1      49.442  26.394  24.870  1.00  0.00     0.022 A 
BRANCH  71  75
ATOM     75  S   UNL A   1      50.639  25.349  27.161  1.00  0.00     0.124 S 
ATOM     76  O   UNL A   1      49.952  24.242  27.818  1.00  0.00    -0.237 OA
ATOM     77  O   UNL A   1      51.569  24.984  26.097  1.00  0.00    -0.237 OA
ATOM     78  O   UNL A   1      51.100  26.413  28.050  1.00  0.00    -0.744 OA
ENDBRANCH  71  75
ENDBRANCH  44  68
BRANCH  56  79
ATOM     79  C   UNL A   1      45.156  33.161  29.236  1.00  0.00     0.023 A 
ATOM     80  C   UNL A   1      45.122  34.199  28.290  1.00  0.00     0.031 A 
ATOM     81  C   UNL A   1      45.925  33.343  30.398  1.00  0.00     0.131 A 
ATOM     82  C   UNL A   1      45.889  35.355  28.497  1.00  0.00     0.055 A 
ATOM     83  C   UNL A   1      46.645  34.517  30.623  1.00  0.00     0.041 A 
ATOM     84  F   UNL A   1      45.993  32.381  31.332  1.00  0.00    -0.206 F 
ATOM     85  C   UNL A   1      46.640  35.526  29.664  1.00  0.00     0.022 A 
BRANCH  82  86
ATOM     86  S   UNL A   1      45.963  36.599  27.180  1.00  0.00     0.124 S 
ATOM     87  O   UNL A   1      44.577  37.053  27.113  1.00  0.00    -0.237 OA
ATOM     88  O   UNL A   1      46.923  37.562  27.711  1.00  0.00    -0.237 OA
ATOM     89  O   UNL A   1      46.424  35.843  26.017  1.00  0.00    -0.744 OA
ENDBRANCH  82  86
ENDBRANCH  56  79
ENDBRANCH  30  31
ENDBRANCH  23  25
ENDBRANCH  22  23
ENDBRANCH   1  22
TORSDOF 16
ENDMDL
