MODEL 1
REMARK VINA RESULT:     -12.3      0.000      0.000
REMARK SMILES O=C(OCCOC(=O)[C@@H]1CN(c2ncccn2)CCN1C(=O)C1CCOCC1)c1ccc(-c2c3nc(c(-c4cc(S(=O)(=O)[O-])ccc4F)c4ccc([nH]4)c(-c4cc(S(=O)(=O)[O-])ccc4F)c4nc(c(-c5cc(S(=O)(=O)[O-])ccc5F)c5ccc2[nH]5)C=C4)C=C3)cc1
REMARK SMILES IDX 4 1 3 2 2 3 1 4 29 5 30 6 91 7 31 8 90 9 32 10 33 11 34 12
REMARK SMILES IDX 84 13 35 14 89 15 83 16 85 17 36 18 88 19 82 20 81 21 37 23
REMARK SMILES IDX 69 24 49 25 68 26 50 27 53 28 67 29 86 30 51 31 52 32 66 34
REMARK SMILES IDX 87 35 54 36 38 37 39 38 47 39 40 40 46 41 48 42 45 43 41 44
REMARK SMILES IDX 42 45 43 46 44 47 70 48 71 49 79 50 72 51 78 52 80 53 77 54
REMARK SMILES IDX 73 55 74 56 75 57 76 58 55 59 56 60 64 61 57 62 63 63 65 64
REMARK SMILES IDX 62 65 58 66 59 67 60 68 61 69 5 70 6 71 7 72 8 73 9 74 10 75
REMARK SMILES IDX 20 76 11 77 19 78 18 79 21 80 22 81 23 82 24 83 28 84 25 85
REMARK SMILES IDX 27 86 26 87 12 88 13 89 17 90 14 91 16 92 15 93
REMARK H PARENT 85 22 53 33
REMARK Flexibility Score: inf
ROOT
ATOM      1  C   UNL A   1      37.591  21.311  25.189  1.00  0.00     0.275 C 
ENDROOT
BRANCH   1   2
ATOM      2  O   UNL A   1      38.117  22.523  25.747  1.00  0.00    -0.458 OA
BRANCH   2   3
ATOM      3  C   UNL A   1      39.219  22.635  26.534  1.00  0.00     0.338 C 
ATOM      4  O   UNL A   1      39.755  21.652  27.033  1.00  0.00    -0.246 OA
BRANCH   3   5
ATOM      5  C   UNL A   1      39.649  23.992  26.935  1.00  0.00     0.060 A 
ATOM      6  C   UNL A   1      40.257  24.890  26.055  1.00  0.00     0.016 A 
ATOM      7  C   UNL A   1      39.403  24.374  28.255  1.00  0.00     0.016 A 
ATOM      8  C   UNL A   1      40.463  26.215  26.436  1.00  0.00     0.010 A 
ATOM      9  C   UNL A   1      39.642  25.690  28.645  1.00  0.00     0.010 A 
ATOM     10  C   UNL A   1      40.136  26.631  27.728  1.00  0.00    -0.014 A 
BRANCH  10  11
ATOM     11  C   UNL A   1      40.511  27.992  28.174  1.00  0.00     0.031 A 
ATOM     12  C   UNL A   1      41.975  28.321  28.200  1.00  0.00     0.074 A 
ATOM     13  C   UNL A   1      39.580  28.902  28.525  1.00  0.00     0.049 A 
ATOM     14  N   UNL A   1      42.570  29.438  28.522  1.00  0.00    -0.248 NA
ATOM     15  C   UNL A   1      42.895  27.233  27.825  1.00  0.00     0.031 C 
ATOM     16  C   UNL A   1      38.134  28.669  28.581  1.00  0.00     0.029 A 
ATOM     17  N   UNL A   1      39.713  30.203  28.945  1.00  0.00    -0.354 N 
ATOM     18  C   UNL A   1      43.921  29.205  28.297  1.00  0.00     0.074 A 
ATOM     19  C   UNL A   1      44.074  27.800  28.003  1.00  0.00     0.031 C 
ATOM     20  C   UNL A   1      37.528  29.753  29.102  1.00  0.00     0.029 A 
ATOM     21  C   UNL A   1      38.533  30.775  29.370  1.00  0.00     0.049 A 
ATOM     22  H   UNL A   1      40.572  30.682  28.944  1.00  0.00     0.167 HD
ATOM     23  C   UNL A   1      44.932  30.103  28.229  1.00  0.00     0.034 A 
ATOM     24  C   UNL A   1      38.307  31.984  29.923  1.00  0.00     0.034 A 
ATOM     25  C   UNL A   1      44.762  31.492  28.550  1.00  0.00     0.049 A 
ATOM     26  C   UNL A   1      39.472  32.944  29.993  1.00  0.00     0.074 A 
ATOM     27  C   UNL A   1      45.696  32.508  28.554  1.00  0.00     0.029 A 
ATOM     28  N   UNL A   1      43.551  32.055  28.937  1.00  0.00    -0.354 N 
ATOM     29  N   UNL A   1      40.737  32.730  29.703  1.00  0.00    -0.248 NA
ATOM     30  C   UNL A   1      39.170  34.320  30.403  1.00  0.00     0.031 C 
ATOM     31  C   UNL A   1      45.057  33.679  28.983  1.00  0.00     0.029 A 
ATOM     32  C   UNL A   1      43.714  33.402  29.197  1.00  0.00     0.049 A 
ATOM     33  H   UNL A   1      42.701  31.565  29.015  1.00  0.00     0.167 HD
ATOM     34  C   UNL A   1      41.366  33.966  29.824  1.00  0.00     0.074 A 
ATOM     35  C   UNL A   1      40.344  34.910  30.235  1.00  0.00     0.031 C 
ATOM     36  C   UNL A   1      42.661  34.305  29.595  1.00  0.00     0.034 A 
BRANCH  23  37
ATOM     37  C   UNL A   1      46.261  29.567  27.759  1.00  0.00     0.023 A 
ATOM     38  C   UNL A   1      46.444  29.211  26.407  1.00  0.00     0.031 A 
ATOM     39  C   UNL A   1      47.296  29.280  28.660  1.00  0.00     0.131 A 
ATOM     40  C   UNL A   1      47.573  28.479  26.021  1.00  0.00     0.055 A 
ATOM     41  C   UNL A   1      48.464  28.632  28.248  1.00  0.00     0.041 A 
ATOM     42  F   UNL A   1      47.169  29.575  29.963  1.00  0.00    -0.206 F 
ATOM     43  C   UNL A   1      48.598  28.206  26.927  1.00  0.00     0.022 A 
BRANCH  40  44
ATOM     44  S   UNL A   1      47.590  27.730  24.368  1.00  0.00     0.124 S 
ATOM     45  O   UNL A   1      46.776  28.678  23.611  1.00  0.00    -0.237 OA
ATOM     46  O   UNL A   1      49.011  27.711  24.041  1.00  0.00    -0.237 OA
ATOM     47  O   UNL A   1      46.980  26.420  24.579  1.00  0.00    -0.744 OA
ENDBRANCH  40  44
ENDBRANCH  23  37
BRANCH  24  48
ATOM     48  C   UNL A   1      36.966  32.370  30.460  1.00  0.00     0.023 A 
ATOM     49  C   UNL A   1      36.067  33.154  29.720  1.00  0.00     0.031 A 
ATOM     50  C   UNL A   1      36.607  32.044  31.780  1.00  0.00     0.131 A 
ATOM     51  C   UNL A   1      34.894  33.639  30.326  1.00  0.00     0.055 A 
ATOM     52  C   UNL A   1      35.421  32.491  32.365  1.00  0.00     0.041 A 
ATOM     53  F   UNL A   1      37.425  31.306  32.542  1.00  0.00    -0.206 F 
ATOM     54  C   UNL A   1      34.563  33.310  31.642  1.00  0.00     0.022 A 
BRANCH  51  55
ATOM     55  S   UNL A   1      33.853  34.806  29.403  1.00  0.00     0.124 S 
ATOM     56  O   UNL A   1      33.514  35.782  30.433  1.00  0.00    -0.237 OA
ATOM     57  O   UNL A   1      34.767  35.262  28.362  1.00  0.00    -0.237 OA
ATOM     58  O   UNL A   1      32.742  33.978  28.937  1.00  0.00    -0.744 OA
ENDBRANCH  51  55
ENDBRANCH  24  48
BRANCH  36  59
ATOM     59  C   UNL A   1      43.005  35.765  29.715  1.00  0.00     0.023 A 
ATOM     60  C   UNL A   1      42.748  36.669  28.673  1.00  0.00     0.031 A 
ATOM     61  C   UNL A   1      43.617  36.248  30.885  1.00  0.00     0.131 A 
ATOM     62  C   UNL A   1      43.162  38.001  28.794  1.00  0.00     0.055 A 
ATOM     63  C   UNL A   1      43.971  37.589  31.025  1.00  0.00     0.041 A 
ATOM     64  F   UNL A   1      43.882  35.420  31.909  1.00  0.00    -0.206 F 
ATOM     65  C   UNL A   1      43.756  38.471  29.969  1.00  0.00     0.022 A 
BRANCH  62  66
ATOM     66  S   UNL A   1      43.000  39.088  27.353  1.00  0.00     0.124 S 
ATOM     67  O   UNL A   1      42.829  40.394  27.979  1.00  0.00    -0.237 OA
ATOM     68  O   UNL A   1      44.267  38.874  26.661  1.00  0.00    -0.237 OA
ATOM     69  O   UNL A   1      41.821  38.568  26.664  1.00  0.00    -0.744 OA
ENDBRANCH  62  66
ENDBRANCH  36  59
ENDBRANCH  10  11
ENDBRANCH   3   5
ENDBRANCH   2   3
ENDBRANCH   1   2
BRANCH   1  70
ATOM     70  C   UNL A   1      36.112  21.203  24.766  1.00  0.00     0.274 C 
BRANCH  70  71
ATOM     71  O   UNL A   1      35.175  22.295  24.778  1.00  0.00    -0.460 OA
BRANCH  71  72
ATOM     72  C   UNL A   1      35.007  23.013  23.632  1.00  0.00     0.330 C 
ATOM     73  O   UNL A   1      35.867  23.147  22.788  1.00  0.00    -0.250 OA
BRANCH  72  74
ATOM     74  C   UNL A   1      33.590  23.605  23.508  1.00  0.00     0.214 C 
ATOM     75  C   UNL A   1      33.621  24.760  24.546  1.00  0.00     0.157 C 
ATOM     76  N   UNL A   1      32.461  22.614  23.723  1.00  0.00    -0.325 N 
ATOM     77  N   UNL A   1      32.308  25.259  24.947  1.00  0.00    -0.336 N 
ATOM     78  C   UNL A   1      31.230  23.201  24.314  1.00  0.00     0.142 C 
ATOM     79  C   UNL A   1      31.444  24.206  25.445  1.00  0.00     0.141 C 
BRANCH  76  80
ATOM     80  C   UNL A   1      32.219  21.414  23.053  1.00  0.00     0.226 C 
ATOM     81  O   UNL A   1      31.993  21.432  21.830  1.00  0.00    -0.275 OA
BRANCH  80  82
ATOM     82  C   UNL A   1      32.127  20.022  23.697  1.00  0.00     0.083 C 
ATOM     83  C   UNL A   1      32.575  20.018  25.165  1.00  0.00     0.042 C 
ATOM     84  C   UNL A   1      32.535  18.838  22.829  1.00  0.00     0.042 C 
ATOM     85  C   UNL A   1      33.074  18.679  25.705  1.00  0.00     0.161 C 
ATOM     86  C   UNL A   1      32.658  17.575  23.657  1.00  0.00     0.161 C 
ATOM     87  O   UNL A   1      33.583  17.796  24.711  1.00  0.00    -0.381 OA
ENDBRANCH  80  82
ENDBRANCH  76  80
BRANCH  77  88
ATOM     88  C   UNL A   1      32.420  26.343  25.819  1.00  0.00     0.225 A 
ATOM     89  N   UNL A   1      33.571  27.043  25.857  1.00  0.00    -0.221 NA
ATOM     90  N   UNL A   1      31.344  26.654  26.546  1.00  0.00    -0.221 NA
ATOM     91  C   UNL A   1      33.597  28.137  26.652  1.00  0.00     0.117 A 
ATOM     92  C   UNL A   1      31.428  27.748  27.333  1.00  0.00     0.117 A 
ATOM     93  C   UNL A   1      32.539  28.545  27.420  1.00  0.00     0.040 A 
ENDBRANCH  77  88
ENDBRANCH  72  74
ENDBRANCH  71  72
ENDBRANCH  70  71
ENDBRANCH   1  70
TORSDOF 17
ENDMDL
MODEL 2
REMARK VINA RESULT:     -12.2      5.131     10.498
REMARK SMILES O=C(OCCOC(=O)[C@@H]1CN(c2ncccn2)CCN1C(=O)C1CCOCC1)c1ccc(-c2c3nc(c(-c4cc(S(=O)(=O)[O-])ccc4F)c4ccc([nH]4)c(-c4cc(S(=O)(=O)[O-])ccc4F)c4nc(c(-c5cc(S(=O)(=O)[O-])ccc5F)c5ccc2[nH]5)C=C4)C=C3)cc1
REMARK SMILES IDX 4 1 3 2 2 3 1 4 29 5 30 6 91 7 31 8 90 9 32 10 33 11 34 12
REMARK SMILES IDX 84 13 35 14 89 15 83 16 85 17 36 18 88 19 82 20 81 21 37 23
REMARK SMILES IDX 69 24 49 25 68 26 50 27 53 28 67 29 86 30 51 31 52 32 66 34
REMARK SMILES IDX 87 35 54 36 38 37 39 38 47 39 40 40 46 41 48 42 45 43 41 44
REMARK SMILES IDX 42 45 43 46 44 47 70 48 71 49 79 50 72 51 78 52 80 53 77 54
REMARK SMILES IDX 73 55 74 56 75 57 76 58 55 59 56 60 64 61 57 62 63 63 65 64
REMARK SMILES IDX 62 65 58 66 59 67 60 68 61 69 5 70 6 71 7 72 8 73 9 74 10 75
REMARK SMILES IDX 20 76 11 77 19 78 18 79 21 80 22 81 23 82 24 83 28 84 25 85
REMARK SMILES IDX 27 86 26 87 12 88 13 89 17 90 14 91 16 92 15 93
REMARK H PARENT 85 22 53 33
REMARK Flexibility Score: inf
ROOT
ATOM      1  C   UNL A   1      33.936  29.166  26.696  1.00  0.00     0.275 C 
ENDROOT
BRANCH   1   2
ATOM      2  O   UNL A   1      33.640  30.471  27.210  1.00  0.00    -0.458 OA
BRANCH   2   3
ATOM      3  C   UNL A   1      34.485  31.274  27.905  1.00  0.00     0.338 C 
ATOM      4  O   UNL A   1      34.314  32.487  27.968  1.00  0.00    -0.246 OA
BRANCH   3   5
ATOM      5  C   UNL A   1      35.734  30.679  28.430  1.00  0.00     0.060 A 
ATOM      6  C   UNL A   1      35.800  29.996  29.646  1.00  0.00     0.016 A 
ATOM      7  C   UNL A   1      36.879  30.802  27.640  1.00  0.00     0.016 A 
ATOM      8  C   UNL A   1      36.952  29.293  29.994  1.00  0.00     0.010 A 
ATOM      9  C   UNL A   1      38.041  30.127  28.007  1.00  0.00     0.010 A 
ATOM     10  C   UNL A   1      38.075  29.335  29.166  1.00  0.00    -0.014 A 
BRANCH  10  11
ATOM     11  C   UNL A   1      39.344  28.725  29.623  1.00  0.00     0.031 A 
ATOM     12  C   UNL A   1      40.053  29.400  30.761  1.00  0.00     0.074 A 
ATOM     13  C   UNL A   1      39.834  27.604  29.056  1.00  0.00     0.049 A 
ATOM     14  N   UNL A   1      41.158  29.062  31.368  1.00  0.00    -0.248 NA
ATOM     15  C   UNL A   1      39.434  30.634  31.275  1.00  0.00     0.031 C 
ATOM     16  C   UNL A   1      39.249  26.898  27.913  1.00  0.00     0.029 A 
ATOM     17  N   UNL A   1      40.967  26.880  29.337  1.00  0.00    -0.354 N 
ATOM     18  C   UNL A   1      41.308  29.994  32.389  1.00  0.00     0.074 A 
ATOM     19  C   UNL A   1      40.301  31.009  32.198  1.00  0.00     0.031 C 
ATOM     20  C   UNL A   1      40.076  25.906  27.532  1.00  0.00     0.029 A 
ATOM     21  C   UNL A   1      41.223  25.872  28.432  1.00  0.00     0.049 A 
ATOM     22  H   UNL A   1      41.543  27.064  30.113  1.00  0.00     0.167 HD
ATOM     23  C   UNL A   1      42.139  29.949  33.457  1.00  0.00     0.034 A 
ATOM     24  C   UNL A   1      42.276  25.035  28.345  1.00  0.00     0.034 A 
ATOM     25  C   UNL A   1      43.152  28.943  33.613  1.00  0.00     0.049 A 
ATOM     26  C   UNL A   1      43.296  25.083  29.458  1.00  0.00     0.074 A 
ATOM     27  C   UNL A   1      44.080  28.787  34.622  1.00  0.00     0.029 A 
ATOM     28  N   UNL A   1      43.365  27.910  32.706  1.00  0.00    -0.354 N 
ATOM     29  N   UNL A   1      43.382  25.927  30.464  1.00  0.00    -0.248 NA
ATOM     30  C   UNL A   1      44.321  24.033  29.462  1.00  0.00     0.031 C 
ATOM     31  C   UNL A   1      44.883  27.683  34.304  1.00  0.00     0.029 A 
ATOM     32  C   UNL A   1      44.420  27.121  33.122  1.00  0.00     0.049 A 
ATOM     33  H   UNL A   1      42.840  27.763  31.886  1.00  0.00     0.167 HD
ATOM     34  C   UNL A   1      44.425  25.462  31.259  1.00  0.00     0.074 A 
ATOM     35  C   UNL A   1      44.948  24.279  30.602  1.00  0.00     0.031 C 
ATOM     36  C   UNL A   1      44.899  25.945  32.437  1.00  0.00     0.034 A 
BRANCH  23  37
ATOM     37  C   UNL A   1      41.923  31.008  34.508  1.00  0.00     0.023 A 
ATOM     38  C   UNL A   1      40.798  30.945  35.355  1.00  0.00     0.031 A 
ATOM     39  C   UNL A   1      42.741  32.144  34.584  1.00  0.00     0.131 A 
ATOM     40  C   UNL A   1      40.453  32.047  36.147  1.00  0.00     0.055 A 
ATOM     41  C   UNL A   1      42.442  33.202  35.448  1.00  0.00     0.041 A 
ATOM     42  F   UNL A   1      43.811  32.270  33.785  1.00  0.00    -0.206 F 
ATOM     43  C   UNL A   1      41.281  33.169  36.218  1.00  0.00     0.022 A 
BRANCH  40  44
ATOM     44  S   UNL A   1      38.817  32.067  36.932  1.00  0.00     0.124 S 
ATOM     45  O   UNL A   1      38.147  33.125  36.181  1.00  0.00    -0.237 OA
ATOM     46  O   UNL A   1      38.333  30.712  36.693  1.00  0.00    -0.237 OA
ATOM     47  O   UNL A   1      39.111  32.388  38.327  1.00  0.00    -0.744 OA
ENDBRANCH  40  44
ENDBRANCH  23  37
BRANCH  24  48
ATOM     48  C   UNL A   1      42.447  24.097  27.193  1.00  0.00     0.023 A 
ATOM     49  C   UNL A   1      41.911  22.800  27.205  1.00  0.00     0.031 A 
ATOM     50  C   UNL A   1      43.251  24.456  26.096  1.00  0.00     0.131 A 
ATOM     51  C   UNL A   1      42.242  21.893  26.181  1.00  0.00     0.055 A 
ATOM     52  C   UNL A   1      43.542  23.568  25.059  1.00  0.00     0.041 A 
ATOM     53  F   UNL A   1      43.800  25.676  26.029  1.00  0.00    -0.206 F 
ATOM     54  C   UNL A   1      43.051  22.269  25.107  1.00  0.00     0.022 A 
BRANCH  51  55
ATOM     55  S   UNL A   1      41.689  20.170  26.329  1.00  0.00     0.124 S 
ATOM     56  O   UNL A   1      42.139  19.827  27.673  1.00  0.00    -0.237 OA
ATOM     57  O   UNL A   1      40.247  20.303  26.149  1.00  0.00    -0.237 OA
ATOM     58  O   UNL A   1      42.392  19.491  25.242  1.00  0.00    -0.744 OA
ENDBRANCH  51  55
ENDBRANCH  24  48
BRANCH  36  59
ATOM     59  C   UNL A   1      45.980  25.142  33.107  1.00  0.00     0.023 A 
ATOM     60  C   UNL A   1      45.680  24.039  33.920  1.00  0.00     0.031 A 
ATOM     61  C   UNL A   1      47.328  25.504  32.940  1.00  0.00     0.131 A 
ATOM     62  C   UNL A   1      46.713  23.372  34.592  1.00  0.00     0.055 A 
ATOM     63  C   UNL A   1      48.357  24.799  33.562  1.00  0.00     0.041 A 
ATOM     64  F   UNL A   1      47.664  26.553  32.171  1.00  0.00    -0.206 F 
ATOM     65  C   UNL A   1      48.050  23.734  34.405  1.00  0.00     0.022 A 
BRANCH  62  66
ATOM     66  S   UNL A   1      46.272  22.087  35.791  1.00  0.00     0.124 S 
ATOM     67  O   UNL A   1      45.786  21.020  34.923  1.00  0.00    -0.237 OA
ATOM     68  O   UNL A   1      47.546  21.835  36.457  1.00  0.00    -0.237 OA
ATOM     69  O   UNL A   1      45.254  22.728  36.621  1.00  0.00    -0.744 OA
ENDBRANCH  62  66
ENDBRANCH  36  59
ENDBRANCH  10  11
ENDBRANCH   3   5
ENDBRANCH   2   3
ENDBRANCH   1   2
BRANCH   1  70
ATOM     70  C   UNL A   1      33.033  28.498  25.640  1.00  0.00     0.274 C 
BRANCH  70  71
ATOM     71  O   UNL A   1      32.702  27.098  25.613  1.00  0.00    -0.460 OA
BRANCH  71  72
ATOM     72  C   UNL A   1      31.586  26.687  26.278  1.00  0.00     0.330 C 
ATOM     73  O   UNL A   1      31.117  27.268  27.232  1.00  0.00    -0.250 OA
BRANCH  72  74
ATOM     74  C   UNL A   1      30.961  25.423  25.659  1.00  0.00     0.214 C 
ATOM     75  C   UNL A   1      32.165  24.442  25.620  1.00  0.00     0.157 C 
ATOM     76  N   UNL A   1      30.295  25.631  24.311  1.00  0.00    -0.325 N 
ATOM     77  N   UNL A   1      31.996  23.297  24.730  1.00  0.00    -0.336 N 
ATOM     78  C   UNL A   1      30.347  24.452  23.408  1.00  0.00     0.142 C 
ATOM     79  C   UNL A   1      31.674  23.695  23.372  1.00  0.00     0.141 C 
BRANCH  76  80
ATOM     80  C   UNL A   1      29.277  26.524  23.974  1.00  0.00     0.226 C 
ATOM     81  O   UNL A   1      28.094  26.137  23.994  1.00  0.00    -0.275 OA
BRANCH  80  82
ATOM     82  C   UNL A   1      29.465  27.970  23.493  1.00  0.00     0.083 C 
ATOM     83  C   UNL A   1      28.145  28.632  23.073  1.00  0.00     0.042 C 
ATOM     84  C   UNL A   1      30.699  28.254  22.645  1.00  0.00     0.042 C 
ATOM     85  C   UNL A   1      28.263  29.780  22.074  1.00  0.00     0.161 C 
ATOM     86  C   UNL A   1      30.621  29.632  22.018  1.00  0.00     0.161 C 
ATOM     87  O   UNL A   1      29.427  29.731  21.256  1.00  0.00    -0.381 OA
ENDBRANCH  80  82
ENDBRANCH  76  80
BRANCH  77  88
ATOM     88  C   UNL A   1      33.082  22.425  24.809  1.00  0.00     0.225 A 
ATOM     89  N   UNL A   1      34.261  22.879  25.280  1.00  0.00    -0.221 NA
ATOM     90  N   UNL A   1      32.873  21.156  24.448  1.00  0.00    -0.221 NA
ATOM     91  C   UNL A   1      35.255  21.974  25.420  1.00  0.00     0.117 A 
ATOM     92  C   UNL A   1      33.904  20.296  24.596  1.00  0.00     0.117 A 
ATOM     93  C   UNL A   1      35.130  20.650  25.094  1.00  0.00     0.040 A 
ENDBRANCH  77  88
ENDBRANCH  72  74
ENDBRANCH  71  72
ENDBRANCH  70  71
ENDBRANCH   1  70
TORSDOF 17
ENDMDL
MODEL 3
REMARK VINA RESULT:     -12.1      1.166      3.692
REMARK SMILES O=C(OCCOC(=O)[C@@H]1CN(c2ncccn2)CCN1C(=O)C1CCOCC1)c1ccc(-c2c3nc(c(-c4cc(S(=O)(=O)[O-])ccc4F)c4ccc([nH]4)c(-c4cc(S(=O)(=O)[O-])ccc4F)c4nc(c(-c5cc(S(=O)(=O)[O-])ccc5F)c5ccc2[nH]5)C=C4)C=C3)cc1
REMARK SMILES IDX 4 1 3 2 2 3 1 4 29 5 30 6 91 7 31 8 90 9 32 10 33 11 34 12
REMARK SMILES IDX 84 13 35 14 89 15 83 16 85 17 36 18 88 19 82 20 81 21 37 23
REMARK SMILES IDX 69 24 49 25 68 26 50 27 53 28 67 29 86 30 51 31 52 32 66 34
REMARK SMILES IDX 87 35 54 36 38 37 39 38 47 39 40 40 46 41 48 42 45 43 41 44
REMARK SMILES IDX 42 45 43 46 44 47 70 48 71 49 79 50 72 51 78 52 80 53 77 54
REMARK SMILES IDX 73 55 74 56 75 57 76 58 55 59 56 60 64 61 57 62 63 63 65 64
REMARK SMILES IDX 62 65 58 66 59 67 60 68 61 69 5 70 6 71 7 72 8 73 9 74 10 75
REMARK SMILES IDX 20 76 11 77 19 78 18 79 21 80 22 81 23 82 24 83 28 84 25 85
REMARK SMILES IDX 27 86 26 87 12 88 13 89 17 90 14 91 16 92 15 93
REMARK H PARENT 85 22 53 33
REMARK Flexibility Score: inf
ROOT
ATOM      1  C   UNL A   1      37.415  21.969  24.419  1.00  0.00     0.275 C 
ENDROOT
BRANCH   1   2
ATOM      2  O   UNL A   1      37.671  22.475  25.736  1.00  0.00    -0.458 OA
BRANCH   2   3
ATOM      3  C   UNL A   1      38.890  22.680  26.298  1.00  0.00     0.338 C 
ATOM      4  O   UNL A   1      39.656  21.751  26.530  1.00  0.00    -0.246 OA
BRANCH   3   5
ATOM      5  C   UNL A   1      39.202  24.035  26.803  1.00  0.00     0.060 A 
ATOM      6  C   UNL A   1      38.900  24.453  28.100  1.00  0.00     0.016 A 
ATOM      7  C   UNL A   1      39.848  24.908  25.925  1.00  0.00     0.016 A 
ATOM      8  C   UNL A   1      39.389  25.667  28.578  1.00  0.00     0.010 A 
ATOM      9  C   UNL A   1      40.307  26.137  26.394  1.00  0.00     0.010 A 
ATOM     10  C   UNL A   1      40.117  26.510  27.734  1.00  0.00    -0.014 A 
BRANCH  10  11
ATOM     11  C   UNL A   1      40.488  27.866  28.198  1.00  0.00     0.031 A 
ATOM     12  C   UNL A   1      41.954  28.177  28.288  1.00  0.00     0.074 A 
ATOM     13  C   UNL A   1      39.554  28.786  28.511  1.00  0.00     0.049 A 
ATOM     14  N   UNL A   1      42.548  29.286  28.636  1.00  0.00    -0.248 NA
ATOM     15  C   UNL A   1      42.876  27.078  27.950  1.00  0.00     0.031 C 
ATOM     16  C   UNL A   1      38.105  28.570  28.506  1.00  0.00     0.029 A 
ATOM     17  N   UNL A   1      39.685  30.085  28.939  1.00  0.00    -0.354 N 
ATOM     18  C   UNL A   1      43.905  29.037  28.468  1.00  0.00     0.074 A 
ATOM     19  C   UNL A   1      44.053  27.631  28.179  1.00  0.00     0.031 C 
ATOM     20  C   UNL A   1      37.490  29.660  29.002  1.00  0.00     0.029 A 
ATOM     21  C   UNL A   1      38.494  30.671  29.314  1.00  0.00     0.049 A 
ATOM     22  H   UNL A   1      40.549  30.554  28.975  1.00  0.00     0.167 HD
ATOM     23  C   UNL A   1      44.928  29.923  28.445  1.00  0.00     0.034 A 
ATOM     24  C   UNL A   1      38.260  31.881  29.859  1.00  0.00     0.034 A 
ATOM     25  C   UNL A   1      44.761  31.314  28.761  1.00  0.00     0.049 A 
ATOM     26  C   UNL A   1      39.432  32.828  29.981  1.00  0.00     0.074 A 
ATOM     27  C   UNL A   1      45.706  32.319  28.807  1.00  0.00     0.029 A 
ATOM     28  N   UNL A   1      43.541  31.891  29.097  1.00  0.00    -0.354 N 
ATOM     29  N   UNL A   1      40.706  32.599  29.744  1.00  0.00    -0.248 NA
ATOM     30  C   UNL A   1      39.129  34.206  30.379  1.00  0.00     0.031 C 
ATOM     31  C   UNL A   1      45.064  33.497  29.210  1.00  0.00     0.029 A 
ATOM     32  C   UNL A   1      43.710  33.236  29.366  1.00  0.00     0.049 A 
ATOM     33  H   UNL A   1      42.683  31.411  29.138  1.00  0.00     0.167 HD
ATOM     34  C   UNL A   1      41.343  33.827  29.893  1.00  0.00     0.074 A 
ATOM     35  C   UNL A   1      40.316  34.782  30.262  1.00  0.00     0.031 C 
ATOM     36  C   UNL A   1      42.652  34.151  29.721  1.00  0.00     0.034 A 
BRANCH  23  37
ATOM     37  C   UNL A   1      46.270  29.372  28.032  1.00  0.00     0.023 A 
ATOM     38  C   UNL A   1      46.538  29.108  26.673  1.00  0.00     0.031 A 
ATOM     39  C   UNL A   1      47.226  28.981  28.979  1.00  0.00     0.131 A 
ATOM     40  C   UNL A   1      47.668  28.362  26.313  1.00  0.00     0.055 A 
ATOM     41  C   UNL A   1      48.399  28.321  28.603  1.00  0.00     0.041 A 
ATOM     42  F   UNL A   1      47.013  29.186  30.288  1.00  0.00    -0.206 F 
ATOM     43  C   UNL A   1      48.614  27.986  27.267  1.00  0.00     0.022 A 
BRANCH  40  44
ATOM     44  S   UNL A   1      47.781  27.735  24.615  1.00  0.00     0.124 S 
ATOM     45  O   UNL A   1      49.191  27.965  24.313  1.00  0.00    -0.237 OA
ATOM     46  O   UNL A   1      47.382  26.339  24.763  1.00  0.00    -0.237 OA
ATOM     47  O   UNL A   1      46.843  28.577  23.875  1.00  0.00    -0.744 OA
ENDBRANCH  40  44
ENDBRANCH  23  37
BRANCH  24  48
ATOM     48  C   UNL A   1      36.902  32.283  30.339  1.00  0.00     0.023 A 
ATOM     49  C   UNL A   1      35.978  32.926  29.501  1.00  0.00     0.031 A 
ATOM     50  C   UNL A   1      36.548  32.121  31.690  1.00  0.00     0.131 A 
ATOM     51  C   UNL A   1      34.783  33.441  30.036  1.00  0.00     0.055 A 
ATOM     52  C   UNL A   1      35.342  32.596  32.210  1.00  0.00     0.041 A 
ATOM     53  F   UNL A   1      37.390  31.524  32.545  1.00  0.00    -0.206 F 
ATOM     54  C   UNL A   1      34.458  33.278  31.384  1.00  0.00     0.022 A 
BRANCH  51  55
ATOM     55  S   UNL A   1      33.704  34.433  28.966  1.00  0.00     0.124 S 
ATOM     56  O   UNL A   1      32.725  34.944  29.920  1.00  0.00    -0.237 OA
ATOM     57  O   UNL A   1      34.640  35.411  28.421  1.00  0.00    -0.237 OA
ATOM     58  O   UNL A   1      33.189  33.461  28.004  1.00  0.00    -0.744 OA
ENDBRANCH  51  55
ENDBRANCH  24  48
BRANCH  36  59
ATOM     59  C   UNL A   1      43.007  35.606  29.858  1.00  0.00     0.023 A 
ATOM     60  C   UNL A   1      42.779  36.520  28.818  1.00  0.00     0.031 A 
ATOM     61  C   UNL A   1      43.602  36.075  31.042  1.00  0.00     0.131 A 
ATOM     62  C   UNL A   1      43.203  37.847  28.956  1.00  0.00     0.055 A 
ATOM     63  C   UNL A   1      43.966  37.411  31.199  1.00  0.00     0.041 A 
ATOM     64  F   UNL A   1      43.840  35.237  32.065  1.00  0.00    -0.206 F 
ATOM     65  C   UNL A   1      43.780  38.303  30.145  1.00  0.00     0.022 A 
BRANCH  62  66
ATOM     66  S   UNL A   1      43.079  38.946  27.520  1.00  0.00     0.124 S 
ATOM     67  O   UNL A   1      42.549  38.049  26.500  1.00  0.00    -0.237 OA
ATOM     68  O   UNL A   1      42.164  39.978  27.999  1.00  0.00    -0.237 OA
ATOM     69  O   UNL A   1      44.456  39.387  27.308  1.00  0.00    -0.744 OA
ENDBRANCH  62  66
ENDBRANCH  36  59
ENDBRANCH  10  11
ENDBRANCH   3   5
ENDBRANCH   2   3
ENDBRANCH   1   2
BRANCH   1  70
ATOM     70  C   UNL A   1      36.656  22.809  23.373  1.00  0.00     0.274 C 
BRANCH  70  71
ATOM     71  O   UNL A   1      35.896  23.995  23.671  1.00  0.00    -0.460 OA
BRANCH  71  72
ATOM     72  C   UNL A   1      34.556  23.980  23.425  1.00  0.00     0.330 C 
ATOM     73  O   UNL A   1      34.062  24.281  22.360  1.00  0.00    -0.250 OA
BRANCH  72  74
ATOM     74  C   UNL A   1      33.738  23.499  24.638  1.00  0.00     0.214 C 
ATOM     75  C   UNL A   1      33.654  21.967  24.396  1.00  0.00     0.157 C 
ATOM     76  N   UNL A   1      32.387  24.169  24.807  1.00  0.00    -0.325 N 
ATOM     77  N   UNL A   1      32.614  21.282  25.158  1.00  0.00    -0.336 N 
ATOM     78  C   UNL A   1      31.345  23.310  25.427  1.00  0.00     0.142 C 
ATOM     79  C   UNL A   1      31.301  21.860  24.946  1.00  0.00     0.141 C 
BRANCH  76  80
ATOM     80  C   UNL A   1      32.101  25.531  24.919  1.00  0.00     0.226 C 
ATOM     81  O   UNL A   1      31.467  26.099  24.011  1.00  0.00    -0.275 OA
BRANCH  80  82
ATOM     82  C   UNL A   1      32.563  26.461  26.051  1.00  0.00     0.083 C 
ATOM     83  C   UNL A   1      31.400  27.221  26.705  1.00  0.00     0.042 C 
ATOM     84  C   UNL A   1      33.865  27.220  25.825  1.00  0.00     0.042 C 
ATOM     85  C   UNL A   1      31.764  28.538  27.385  1.00  0.00     0.161 C 
ATOM     86  C   UNL A   1      34.059  28.290  26.881  1.00  0.00     0.161 C 
ATOM     87  O   UNL A   1      32.938  29.161  26.874  1.00  0.00    -0.381 OA
ENDBRANCH  80  82
ENDBRANCH  76  80
BRANCH  77  88
ATOM     88  C   UNL A   1      32.653  19.903  24.946  1.00  0.00     0.225 A 
ATOM     89  N   UNL A   1      32.728  19.074  26.006  1.00  0.00    -0.221 NA
ATOM     90  N   UNL A   1      32.568  19.477  23.683  1.00  0.00    -0.221 NA
ATOM     91  C   UNL A   1      32.674  17.747  25.752  1.00  0.00     0.117 A 
ATOM     92  C   UNL A   1      32.531  18.142  23.484  1.00  0.00     0.117 A 
ATOM     93  C   UNL A   1      32.569  17.217  24.493  1.00  0.00     0.040 A 
ENDBRANCH  77  88
ENDBRANCH  72  74
ENDBRANCH  71  72
ENDBRANCH  70  71
ENDBRANCH   1  70
TORSDOF 17
ENDMDL
