MODEL 1
REMARK VINA RESULT:     -12.1      0.000      0.000
REMARK SMILES CC[C@@](C)(NC(=O)c1sc2cc(F)ccc2c1Cl)C(=O)OCCOC(=O)c1ccc(-c2c3nc(c(-c4cc(S(=O)(=O)[O-])ccc4F)c4ccc([nH]4)c(-c4cc(S(=O)(=O)[O-])ccc4F)c4nc(c(-c5cc(S(=O)(=O)[O-])ccc5F)c5ccc2[nH]5)C=C4)C=C3)cc1
REMARK SMILES IDX 23 1 22 2 21 3 19 4 20 5 3 6 4 7 2 8 1 9 5 10 6 11 7 13 8 14
REMARK SMILES IDX 9 15 17 16 10 17 16 18 18 19 11 20 15 21 12 22 14 23 13 24
REMARK SMILES IDX 24 25 25 26 26 27 27 28 28 29 89 30 29 31 88 32 30 33 31 34
REMARK SMILES IDX 32 35 82 36 33 37 87 38 81 39 83 40 34 41 86 42 80 43 79 44
REMARK SMILES IDX 35 46 67 47 47 48 66 49 48 50 51 51 65 52 84 53 49 54 50 55
REMARK SMILES IDX 64 57 85 58 52 59 36 60 37 61 45 62 38 63 44 64 46 65 43 66
REMARK SMILES IDX 39 67 40 68 41 69 42 70 68 71 69 72 77 73 70 74 76 75 78 76
REMARK SMILES IDX 75 77 71 78 72 79 73 80 74 81 53 82 54 83 62 84 55 85 61 86
REMARK SMILES IDX 63 87 60 88 56 89 57 90 58 91 59 92
REMARK H PARENT 5 12 83 45 51 56
REMARK Flexibility Score: inf
ROOT
ATOM      1  C   UNL A   1      35.840  21.809  24.108  1.00  0.00     0.275 C 
ENDROOT
BRANCH   1   2
ATOM      2  C   UNL A   1      35.237  22.890  23.196  1.00  0.00     0.274 C 
BRANCH   2   3
ATOM      3  O   UNL A   1      35.354  24.214  23.791  1.00  0.00    -0.460 OA
BRANCH   3   4
ATOM      4  C   UNL A   1      34.177  24.872  23.977  1.00  0.00     0.331 C 
ATOM      5  O   UNL A   1      33.529  25.324  23.036  1.00  0.00    -0.249 OA
BRANCH   4   6
ATOM      6  C   UNL A   1      33.770  25.123  25.476  1.00  0.00     0.135 C 
ATOM      7  C   UNL A   1      34.973  24.653  26.318  1.00  0.00     0.047 C 
BRANCH   6   8
ATOM      8  C   UNL A   1      33.564  26.664  25.710  1.00  0.00     0.037 C 
ATOM      9  C   UNL A   1      32.444  27.104  26.625  1.00  0.00     0.007 C 
ENDBRANCH   6   8
BRANCH   6  10
ATOM     10  N   UNL A   1      32.508  24.561  26.064  1.00  0.00    -0.336 N 
ATOM     11  C   UNL A   1      31.992  23.354  26.428  1.00  0.00     0.263 C 
ATOM     12  H   UNL A   1      31.859  25.281  26.239  1.00  0.00     0.165 HD
ATOM     13  O   UNL A   1      31.163  23.381  27.340  1.00  0.00    -0.268 OA
BRANCH  11  14
ATOM     14  C   UNL A   1      32.243  22.165  25.669  1.00  0.00     0.112 A 
ATOM     15  S   UNL A   1      33.151  20.941  26.450  1.00  0.00    -0.128 S 
ATOM     16  C   UNL A   1      32.006  21.853  24.352  1.00  0.00     0.072 A 
ATOM     17  C   UNL A   1      33.011  19.876  25.113  1.00  0.00     0.040 A 
ATOM     18  C   UNL A   1      32.362  20.491  24.037  1.00  0.00     0.012 A 
ATOM     19  Cl  UNL A   1      31.302  22.896  23.190  1.00  0.00    -0.082 Cl
ATOM     20  C   UNL A   1      33.427  18.531  25.064  1.00  0.00     0.059 A 
ATOM     21  C   UNL A   1      32.123  19.709  22.876  1.00  0.00     0.014 A 
ATOM     22  C   UNL A   1      33.124  17.790  23.928  1.00  0.00     0.124 A 
ATOM     23  C   UNL A   1      32.480  18.359  22.843  1.00  0.00     0.040 A 
ATOM     24  F   UNL A   1      33.435  16.488  23.895  1.00  0.00    -0.207 F 
ENDBRANCH  11  14
ENDBRANCH   6  10
ENDBRANCH   4   6
ENDBRANCH   3   4
ENDBRANCH   2   3
ENDBRANCH   1   2
BRANCH   1  25
ATOM     25  O   UNL A   1      37.270  21.809  24.044  1.00  0.00    -0.458 OA
BRANCH  25  26
ATOM     26  C   UNL A   1      37.836  20.992  24.964  1.00  0.00     0.338 C 
ATOM     27  O   UNL A   1      37.999  19.788  24.847  1.00  0.00    -0.246 OA
BRANCH  26  28
ATOM     28  C   UNL A   1      38.525  21.861  25.941  1.00  0.00     0.060 A 
ATOM     29  C   UNL A   1      38.187  23.216  26.067  1.00  0.00     0.016 A 
ATOM     30  C   UNL A   1      39.676  21.355  26.541  1.00  0.00     0.016 A 
ATOM     31  C   UNL A   1      39.078  24.096  26.665  1.00  0.00     0.010 A 
ATOM     32  C   UNL A   1      40.547  22.237  27.163  1.00  0.00     0.010 A 
ATOM     33  C   UNL A   1      40.291  23.616  27.163  1.00  0.00    -0.014 A 
BRANCH  33  34
ATOM     34  C   UNL A   1      41.112  24.510  27.977  1.00  0.00     0.031 A 
ATOM     35  C   UNL A   1      40.404  25.776  28.230  1.00  0.00     0.074 A 
ATOM     36  C   UNL A   1      42.335  24.341  28.517  1.00  0.00     0.049 A 
ATOM     37  N   UNL A   1      40.479  26.826  27.482  1.00  0.00    -0.248 NA
ATOM     38  C   UNL A   1      39.356  25.821  29.256  1.00  0.00     0.031 C 
ATOM     39  C   UNL A   1      43.152  23.133  28.604  1.00  0.00     0.029 A 
ATOM     40  N   UNL A   1      43.073  25.253  29.225  1.00  0.00    -0.354 N 
ATOM     41  C   UNL A   1      39.672  27.756  28.107  1.00  0.00     0.074 A 
ATOM     42  C   UNL A   1      38.805  27.005  28.982  1.00  0.00     0.031 C 
ATOM     43  C   UNL A   1      44.100  23.298  29.558  1.00  0.00     0.029 A 
ATOM     44  C   UNL A   1      44.116  24.698  29.947  1.00  0.00     0.049 A 
ATOM     45  H   UNL A   1      42.878  26.218  29.221  1.00  0.00     0.167 HD
ATOM     46  C   UNL A   1      40.020  29.072  28.122  1.00  0.00     0.034 A 
ATOM     47  C   UNL A   1      44.973  25.344  30.771  1.00  0.00     0.034 A 
ATOM     48  C   UNL A   1      41.158  29.322  27.270  1.00  0.00     0.049 A 
ATOM     49  C   UNL A   1      45.102  26.740  30.300  1.00  0.00     0.074 A 
ATOM     50  C   UNL A   1      41.409  29.369  25.918  1.00  0.00     0.029 A 
ATOM     51  N   UNL A   1      42.370  29.201  27.904  1.00  0.00    -0.354 N 
ATOM     52  N   UNL A   1      45.676  27.071  29.177  1.00  0.00    -0.248 NA
ATOM     53  C   UNL A   1      44.348  27.807  30.948  1.00  0.00     0.031 C 
ATOM     54  C   UNL A   1      42.804  29.122  25.756  1.00  0.00     0.029 A 
ATOM     55  C   UNL A   1      43.380  28.937  27.013  1.00  0.00     0.049 A 
ATOM     56  H   UNL A   1      42.497  29.291  28.876  1.00  0.00     0.167 HD
ATOM     57  C   UNL A   1      44.964  28.173  28.756  1.00  0.00     0.074 A 
ATOM     58  C   UNL A   1      44.347  28.706  29.961  1.00  0.00     0.031 C 
ATOM     59  C   UNL A   1      44.637  28.338  27.441  1.00  0.00     0.034 A 
BRANCH  46  60
ATOM     60  C   UNL A   1      39.647  30.025  29.230  1.00  0.00     0.023 A 
ATOM     61  C   UNL A   1      38.648  31.005  29.096  1.00  0.00     0.031 A 
ATOM     62  C   UNL A   1      40.143  29.829  30.531  1.00  0.00     0.131 A 
ATOM     63  C   UNL A   1      38.213  31.773  30.179  1.00  0.00     0.055 A 
ATOM     64  C   UNL A   1      39.653  30.541  31.634  1.00  0.00     0.041 A 
ATOM     65  F   UNL A   1      41.083  28.903  30.779  1.00  0.00    -0.206 F 
ATOM     66  C   UNL A   1      38.688  31.527  31.460  1.00  0.00     0.022 A 
BRANCH  63  67
ATOM     67  S   UNL A   1      37.010  33.105  29.914  1.00  0.00     0.124 S 
ATOM     68  O   UNL A   1      37.855  34.171  29.387  1.00  0.00    -0.237 OA
ATOM     69  O   UNL A   1      36.092  32.487  28.959  1.00  0.00    -0.237 OA
ATOM     70  O   UNL A   1      36.453  33.332  31.245  1.00  0.00    -0.744 OA
ENDBRANCH  63  67
ENDBRANCH  46  60
BRANCH  47  71
ATOM     71  C   UNL A   1      45.575  24.892  32.040  1.00  0.00     0.023 A 
ATOM     72  C   UNL A   1      44.789  24.191  32.973  1.00  0.00     0.031 A 
ATOM     73  C   UNL A   1      46.801  25.416  32.484  1.00  0.00     0.131 A 
ATOM     74  C   UNL A   1      45.200  24.099  34.311  1.00  0.00     0.055 A 
ATOM     75  C   UNL A   1      47.215  25.310  33.815  1.00  0.00     0.041 A 
ATOM     76  F   UNL A   1      47.589  26.110  31.648  1.00  0.00    -0.206 F 
ATOM     77  C   UNL A   1      46.403  24.664  34.741  1.00  0.00     0.022 A 
BRANCH  74  78
ATOM     78  S   UNL A   1      44.140  23.298  35.548  1.00  0.00     0.124 S 
ATOM     79  O   UNL A   1      42.806  23.470  34.976  1.00  0.00    -0.237 OA
ATOM     80  O   UNL A   1      44.653  21.933  35.542  1.00  0.00    -0.237 OA
ATOM     81  O   UNL A   1      44.393  24.069  36.762  1.00  0.00    -0.744 OA
ENDBRANCH  74  78
ENDBRANCH  47  71
BRANCH  59  82
ATOM     82  C   UNL A   1      45.519  27.704  26.390  1.00  0.00     0.023 A 
ATOM     83  C   UNL A   1      45.297  26.343  26.105  1.00  0.00     0.031 A 
ATOM     84  C   UNL A   1      46.609  28.325  25.754  1.00  0.00     0.131 A 
ATOM     85  C   UNL A   1      46.155  25.643  25.248  1.00  0.00     0.055 A 
ATOM     86  C   UNL A   1      47.420  27.642  24.840  1.00  0.00     0.041 A 
ATOM     87  F   UNL A   1      46.968  29.585  26.039  1.00  0.00    -0.206 F 
ATOM     88  C   UNL A   1      47.205  26.290  24.594  1.00  0.00     0.022 A 
BRANCH  85  89
ATOM     89  S   UNL A   1      46.013  23.845  25.073  1.00  0.00     0.124 S 
ATOM     90  O   UNL A   1      44.567  23.654  25.010  1.00  0.00    -0.237 OA
ATOM     91  O   UNL A   1      46.733  23.596  23.826  1.00  0.00    -0.237 OA
ATOM     92  O   UNL A   1      46.663  23.323  26.272  1.00  0.00    -0.744 OA
ENDBRANCH  85  89
ENDBRANCH  59  82
ENDBRANCH  33  34
ENDBRANCH  26  28
ENDBRANCH  25  26
ENDBRANCH   1  25
TORSDOF 17
ENDMDL
MODEL 2
REMARK VINA RESULT:     -12.0      3.265      6.922
REMARK SMILES CC[C@@](C)(NC(=O)c1sc2cc(F)ccc2c1Cl)C(=O)OCCOC(=O)c1ccc(-c2c3nc(c(-c4cc(S(=O)(=O)[O-])ccc4F)c4ccc([nH]4)c(-c4cc(S(=O)(=O)[O-])ccc4F)c4nc(c(-c5cc(S(=O)(=O)[O-])ccc5F)c5ccc2[nH]5)C=C4)C=C3)cc1
REMARK SMILES IDX 23 1 22 2 21 3 19 4 20 5 3 6 4 7 2 8 1 9 5 10 6 11 7 13 8 14
REMARK SMILES IDX 9 15 17 16 10 17 16 18 18 19 11 20 15 21 12 22 14 23 13 24
REMARK SMILES IDX 24 25 25 26 26 27 27 28 28 29 89 30 29 31 88 32 30 33 31 34
REMARK SMILES IDX 32 35 82 36 33 37 87 38 81 39 83 40 34 41 86 42 80 43 79 44
REMARK SMILES IDX 35 46 67 47 47 48 66 49 48 50 51 51 65 52 84 53 49 54 50 55
REMARK SMILES IDX 64 57 85 58 52 59 36 60 37 61 45 62 38 63 44 64 46 65 43 66
REMARK SMILES IDX 39 67 40 68 41 69 42 70 68 71 69 72 77 73 70 74 76 75 78 76
REMARK SMILES IDX 75 77 71 78 72 79 73 80 74 81 53 82 54 83 62 84 55 85 61 86
REMARK SMILES IDX 63 87 60 88 56 89 57 90 58 91 59 92
REMARK H PARENT 5 12 83 45 51 56
REMARK Flexibility Score: inf
ROOT
ATOM      1  C   UNL A   1      33.054  30.943  27.509  1.00  0.00     0.275 C 
ENDROOT
BRANCH   1   2
ATOM      2  C   UNL A   1      32.266  30.203  26.415  1.00  0.00     0.274 C 
BRANCH   2   3
ATOM      3  O   UNL A   1      32.771  28.852  26.216  1.00  0.00    -0.460 OA
BRANCH   3   4
ATOM      4  C   UNL A   1      31.911  27.856  26.565  1.00  0.00     0.331 C 
ATOM      5  O   UNL A   1      31.307  27.862  27.634  1.00  0.00    -0.249 OA
BRANCH   4   6
ATOM      6  C   UNL A   1      31.842  26.640  25.568  1.00  0.00     0.135 C 
ATOM      7  C   UNL A   1      31.974  25.377  26.444  1.00  0.00     0.047 C 
BRANCH   6   8
ATOM      8  C   UNL A   1      30.437  26.619  24.864  1.00  0.00     0.037 C 
ATOM      9  C   UNL A   1      30.144  27.675  23.822  1.00  0.00     0.007 C 
ENDBRANCH   6   8
BRANCH   6  10
ATOM     10  N   UNL A   1      32.767  26.521  24.392  1.00  0.00    -0.336 N 
ATOM     11  C   UNL A   1      33.135  25.595  23.462  1.00  0.00     0.263 C 
ATOM     12  H   UNL A   1      33.254  27.365  24.249  1.00  0.00     0.165 HD
ATOM     13  O   UNL A   1      33.508  26.047  22.377  1.00  0.00    -0.268 OA
BRANCH  11  14
ATOM     14  C   UNL A   1      33.273  24.208  23.791  1.00  0.00     0.112 A 
ATOM     15  S   UNL A   1      31.954  23.194  23.381  1.00  0.00    -0.128 S 
ATOM     16  C   UNL A   1      34.225  23.528  24.511  1.00  0.00     0.072 A 
ATOM     17  C   UNL A   1      32.764  21.786  23.935  1.00  0.00     0.040 A 
ATOM     18  C   UNL A   1      33.993  22.104  24.524  1.00  0.00     0.012 A 
ATOM     19  Cl  UNL A   1      35.595  24.227  25.265  1.00  0.00    -0.082 Cl
ATOM     20  C   UNL A   1      32.324  20.456  23.795  1.00  0.00     0.059 A 
ATOM     21  C   UNL A   1      34.803  21.030  24.979  1.00  0.00     0.014 A 
ATOM     22  C   UNL A   1      33.174  19.436  24.206  1.00  0.00     0.124 A 
ATOM     23  C   UNL A   1      34.400  19.706  24.791  1.00  0.00     0.040 A 
ATOM     24  F   UNL A   1      32.812  18.162  24.006  1.00  0.00    -0.207 F 
ENDBRANCH  11  14
ENDBRANCH   6  10
ENDBRANCH   4   6
ENDBRANCH   3   4
ENDBRANCH   2   3
ENDBRANCH   1   2
BRANCH   1  25
ATOM     25  O   UNL A   1      34.404  31.191  27.103  1.00  0.00    -0.458 OA
BRANCH  25  26
ATOM     26  C   UNL A   1      35.088  31.950  27.993  1.00  0.00     0.338 C 
ATOM     27  O   UNL A   1      34.697  32.993  28.491  1.00  0.00    -0.246 OA
BRANCH  26  28
ATOM     28  C   UNL A   1      36.195  31.115  28.504  1.00  0.00     0.060 A 
ATOM     29  C   UNL A   1      37.391  31.696  28.952  1.00  0.00     0.016 A 
ATOM     30  C   UNL A   1      36.106  29.741  28.292  1.00  0.00     0.016 A 
ATOM     31  C   UNL A   1      38.541  30.924  29.040  1.00  0.00     0.010 A 
ATOM     32  C   UNL A   1      37.254  28.971  28.412  1.00  0.00     0.010 A 
ATOM     33  C   UNL A   1      38.487  29.568  28.713  1.00  0.00    -0.014 A 
BRANCH  33  34
ATOM     34  C   UNL A   1      39.646  28.732  29.019  1.00  0.00     0.031 A 
ATOM     35  C   UNL A   1      39.873  28.675  30.473  1.00  0.00     0.074 A 
ATOM     36  C   UNL A   1      40.466  28.027  28.215  1.00  0.00     0.049 A 
ATOM     37  N   UNL A   1      40.625  29.491  31.134  1.00  0.00    -0.248 NA
ATOM     38  C   UNL A   1      39.035  27.799  31.298  1.00  0.00     0.031 C 
ATOM     39  C   UNL A   1      40.343  27.739  26.787  1.00  0.00     0.029 A 
ATOM     40  N   UNL A   1      41.576  27.308  28.571  1.00  0.00    -0.354 N 
ATOM     41  C   UNL A   1      40.548  29.052  32.441  1.00  0.00     0.074 A 
ATOM     42  C   UNL A   1      39.360  28.236  32.516  1.00  0.00     0.031 C 
ATOM     43  C   UNL A   1      41.138  26.689  26.471  1.00  0.00     0.029 A 
ATOM     44  C   UNL A   1      42.007  26.416  27.603  1.00  0.00     0.049 A 
ATOM     45  H   UNL A   1      42.028  27.416  29.439  1.00  0.00     0.167 HD
ATOM     46  C   UNL A   1      41.640  29.101  33.252  1.00  0.00     0.034 A 
ATOM     47  C   UNL A   1      43.037  25.545  27.696  1.00  0.00     0.034 A 
ATOM     48  C   UNL A   1      42.725  29.817  32.625  1.00  0.00     0.049 A 
ATOM     49  C   UNL A   1      44.034  26.107  28.634  1.00  0.00     0.074 A 
ATOM     50  C   UNL A   1      43.016  31.126  32.313  1.00  0.00     0.029 A 
ATOM     51  N   UNL A   1      43.562  29.026  31.877  1.00  0.00    -0.354 N 
ATOM     52  N   UNL A   1      44.743  27.172  28.377  1.00  0.00    -0.248 NA
ATOM     53  C   UNL A   1      44.082  25.650  30.018  1.00  0.00     0.031 C 
ATOM     54  C   UNL A   1      43.957  31.087  31.241  1.00  0.00     0.029 A 
ATOM     55  C   UNL A   1      44.228  29.756  30.925  1.00  0.00     0.049 A 
ATOM     56  H   UNL A   1      43.670  28.057  32.008  1.00  0.00     0.167 HD
ATOM     57  C   UNL A   1      44.898  27.769  29.609  1.00  0.00     0.074 A 
ATOM     58  C   UNL A   1      44.691  26.699  30.574  1.00  0.00     0.031 C 
ATOM     59  C   UNL A   1      44.811  29.123  29.749  1.00  0.00     0.034 A 
BRANCH  46  60
ATOM     60  C   UNL A   1      41.892  28.130  34.379  1.00  0.00     0.023 A 
ATOM     61  C   UNL A   1      42.465  26.861  34.185  1.00  0.00     0.031 A 
ATOM     62  C   UNL A   1      41.757  28.545  35.716  1.00  0.00     0.131 A 
ATOM     63  C   UNL A   1      42.830  26.042  35.257  1.00  0.00     0.055 A 
ATOM     64  C   UNL A   1      42.194  27.760  36.791  1.00  0.00     0.041 A 
ATOM     65  F   UNL A   1      41.242  29.748  36.016  1.00  0.00    -0.206 F 
ATOM     66  C   UNL A   1      42.727  26.496  36.565  1.00  0.00     0.022 A 
BRANCH  63  67
ATOM     67  S   UNL A   1      43.452  24.367  34.939  1.00  0.00     0.124 S 
ATOM     68  O   UNL A   1      44.435  24.207  36.005  1.00  0.00    -0.237 OA
ATOM     69  O   UNL A   1      42.234  23.571  35.070  1.00  0.00    -0.237 OA
ATOM     70  O   UNL A   1      43.990  24.454  33.584  1.00  0.00    -0.744 OA
ENDBRANCH  63  67
ENDBRANCH  46  60
BRANCH  47  71
ATOM     71  C   UNL A   1      43.161  24.177  27.158  1.00  0.00     0.023 A 
ATOM     72  C   UNL A   1      44.100  23.909  26.144  1.00  0.00     0.031 A 
ATOM     73  C   UNL A   1      42.161  23.216  27.390  1.00  0.00     0.131 A 
ATOM     74  C   UNL A   1      43.974  22.757  25.355  1.00  0.00     0.055 A 
ATOM     75  C   UNL A   1      42.048  22.061  26.612  1.00  0.00     0.041 A 
ATOM     76  F   UNL A   1      41.226  23.419  28.331  1.00  0.00    -0.206 F 
ATOM     77  C   UNL A   1      42.947  21.836  25.575  1.00  0.00     0.022 A 
BRANCH  74  78
ATOM     78  S   UNL A   1      45.109  22.459  23.969  1.00  0.00     0.124 S 
ATOM     79  O   UNL A   1      45.827  21.264  24.404  1.00  0.00    -0.237 OA
ATOM     80  O   UNL A   1      44.181  22.265  22.861  1.00  0.00    -0.237 OA
ATOM     81  O   UNL A   1      45.912  23.677  23.923  1.00  0.00    -0.744 OA
ENDBRANCH  74  78
ENDBRANCH  47  71
BRANCH  59  82
ATOM     82  C   UNL A   1      45.153  29.998  28.565  1.00  0.00     0.023 A 
ATOM     83  C   UNL A   1      46.506  30.349  28.397  1.00  0.00     0.031 A 
ATOM     84  C   UNL A   1      44.224  30.579  27.683  1.00  0.00     0.131 A 
ATOM     85  C   UNL A   1      46.890  31.265  27.410  1.00  0.00     0.055 A 
ATOM     86  C   UNL A   1      44.620  31.436  26.649  1.00  0.00     0.041 A 
ATOM     87  F   UNL A   1      42.904  30.393  27.825  1.00  0.00    -0.206 F 
ATOM     88  C   UNL A   1      45.957  31.795  26.518  1.00  0.00     0.022 A 
BRANCH  85  89
ATOM     89  S   UNL A   1      48.587  31.896  27.354  1.00  0.00     0.124 S 
ATOM     90  O   UNL A   1      48.921  32.014  28.771  1.00  0.00    -0.237 OA
ATOM     91  O   UNL A   1      49.290  30.836  26.632  1.00  0.00    -0.237 OA
ATOM     92  O   UNL A   1      48.470  33.159  26.630  1.00  0.00    -0.744 OA
ENDBRANCH  85  89
ENDBRANCH  59  82
ENDBRANCH  33  34
ENDBRANCH  26  28
ENDBRANCH  25  26
ENDBRANCH   1  25
TORSDOF 17
ENDMDL
MODEL 3
REMARK VINA RESULT:     -12.0      2.913      7.404
REMARK SMILES CC[C@@](C)(NC(=O)c1sc2cc(F)ccc2c1Cl)C(=O)OCCOC(=O)c1ccc(-c2c3nc(c(-c4cc(S(=O)(=O)[O-])ccc4F)c4ccc([nH]4)c(-c4cc(S(=O)(=O)[O-])ccc4F)c4nc(c(-c5cc(S(=O)(=O)[O-])ccc5F)c5ccc2[nH]5)C=C4)C=C3)cc1
REMARK SMILES IDX 23 1 22 2 21 3 19 4 20 5 3 6 4 7 2 8 1 9 5 10 6 11 7 13 8 14
REMARK SMILES IDX 9 15 17 16 10 17 16 18 18 19 11 20 15 21 12 22 14 23 13 24
REMARK SMILES IDX 24 25 25 26 26 27 27 28 28 29 89 30 29 31 88 32 30 33 31 34
REMARK SMILES IDX 32 35 82 36 33 37 87 38 81 39 83 40 34 41 86 42 80 43 79 44
REMARK SMILES IDX 35 46 67 47 47 48 66 49 48 50 51 51 65 52 84 53 49 54 50 55
REMARK SMILES IDX 64 57 85 58 52 59 36 60 37 61 45 62 38 63 44 64 46 65 43 66
REMARK SMILES IDX 39 67 40 68 41 69 42 70 68 71 69 72 77 73 70 74 76 75 78 76
REMARK SMILES IDX 75 77 71 78 72 79 73 80 74 81 53 82 54 83 62 84 55 85 61 86
REMARK SMILES IDX 63 87 60 88 56 89 57 90 58 91 59 92
REMARK H PARENT 5 12 83 45 51 56
REMARK Flexibility Score: inf
ROOT
ATOM      1  C   UNL A   1      37.778  21.001  25.264  1.00  0.00     0.275 C 
ENDROOT
BRANCH   1   2
ATOM      2  C   UNL A   1      36.267  21.231  25.093  1.00  0.00     0.274 C 
BRANCH   2   3
ATOM      3  O   UNL A   1      35.973  22.620  24.768  1.00  0.00    -0.460 OA
BRANCH   3   4
ATOM      4  C   UNL A   1      35.083  23.232  25.597  1.00  0.00     0.331 C 
ATOM      5  O   UNL A   1      35.128  23.093  26.816  1.00  0.00    -0.249 OA
BRANCH   4   6
ATOM      6  C   UNL A   1      33.923  24.020  24.883  1.00  0.00     0.135 C 
ATOM      7  C   UNL A   1      34.044  25.476  25.376  1.00  0.00     0.047 C 
BRANCH   6   8
ATOM      8  C   UNL A   1      34.153  23.994  23.328  1.00  0.00     0.037 C 
ATOM      9  C   UNL A   1      33.679  25.178  22.516  1.00  0.00     0.007 C 
ENDBRANCH   6   8
BRANCH   6  10
ATOM     10  N   UNL A   1      32.488  23.586  24.979  1.00  0.00    -0.336 N 
ATOM     11  C   UNL A   1      31.770  22.473  25.295  1.00  0.00     0.263 C 
ATOM     12  H   UNL A   1      31.887  24.330  24.743  1.00  0.00     0.165 HD
ATOM     13  O   UNL A   1      30.646  22.677  25.761  1.00  0.00    -0.268 OA
BRANCH  11  14
ATOM     14  C   UNL A   1      32.207  21.161  24.924  1.00  0.00     0.112 A 
ATOM     15  S   UNL A   1      32.846  20.187  26.180  1.00  0.00    -0.128 S 
ATOM     16  C   UNL A   1      32.344  20.554  23.698  1.00  0.00     0.072 A 
ATOM     17  C   UNL A   1      33.071  18.847  25.132  1.00  0.00     0.040 A 
ATOM     18  C   UNL A   1      32.756  19.176  23.809  1.00  0.00     0.012 A 
ATOM     19  Cl  UNL A   1      32.005  21.277  22.183  1.00  0.00    -0.082 Cl
ATOM     20  C   UNL A   1      33.467  17.548  25.506  1.00  0.00     0.059 A 
ATOM     21  C   UNL A   1      32.841  18.146  22.835  1.00  0.00     0.014 A 
ATOM     22  C   UNL A   1      33.484  16.560  24.528  1.00  0.00     0.124 A 
ATOM     23  C   UNL A   1      33.176  16.842  23.208  1.00  0.00     0.040 A 
ATOM     24  F   UNL A   1      33.776  15.300  24.877  1.00  0.00    -0.207 F 
ENDBRANCH  11  14
ENDBRANCH   6  10
ENDBRANCH   4   6
ENDBRANCH   3   4
ENDBRANCH   2   3
ENDBRANCH   1   2
BRANCH   1  25
ATOM     25  O   UNL A   1      38.462  22.222  25.562  1.00  0.00    -0.458 OA
BRANCH  25  26
ATOM     26  C   UNL A   1      39.427  22.066  26.500  1.00  0.00     0.338 C 
ATOM     27  O   UNL A   1      39.994  21.020  26.776  1.00  0.00    -0.246 OA
BRANCH  26  28
ATOM     28  C   UNL A   1      39.904  23.420  26.852  1.00  0.00     0.060 A 
ATOM     29  C   UNL A   1      41.043  23.600  27.650  1.00  0.00     0.016 A 
ATOM     30  C   UNL A   1      39.050  24.486  26.579  1.00  0.00     0.016 A 
ATOM     31  C   UNL A   1      41.245  24.810  28.299  1.00  0.00     0.010 A 
ATOM     32  C   UNL A   1      39.276  25.701  27.209  1.00  0.00     0.010 A 
ATOM     33  C   UNL A   1      40.327  25.846  28.126  1.00  0.00    -0.014 A 
BRANCH  33  34
ATOM     34  C   UNL A   1      40.669  27.172  28.638  1.00  0.00     0.031 A 
ATOM     35  C   UNL A   1      41.937  27.641  28.056  1.00  0.00     0.074 A 
ATOM     36  C   UNL A   1      40.016  27.986  29.492  1.00  0.00     0.049 A 
ATOM     37  N   UNL A   1      43.104  27.438  28.568  1.00  0.00    -0.248 NA
ATOM     38  C   UNL A   1      41.946  28.177  26.691  1.00  0.00     0.031 C 
ATOM     39  C   UNL A   1      38.665  27.867  30.038  1.00  0.00     0.029 A 
ATOM     40  N   UNL A   1      40.429  29.200  29.975  1.00  0.00    -0.354 N 
ATOM     41  C   UNL A   1      43.978  28.060  27.700  1.00  0.00     0.074 A 
ATOM     42  C   UNL A   1      43.259  28.218  26.459  1.00  0.00     0.031 C 
ATOM     43  C   UNL A   1      38.265  29.071  30.514  1.00  0.00     0.029 A 
ATOM     44  C   UNL A   1      39.417  29.956  30.543  1.00  0.00     0.049 A 
ATOM     45  H   UNL A   1      41.363  29.506  29.924  1.00  0.00     0.167 HD
ATOM     46  C   UNL A   1      45.080  28.705  28.173  1.00  0.00     0.034 A 
ATOM     47  C   UNL A   1      39.519  31.206  31.051  1.00  0.00     0.034 A 
ATOM     48  C   UNL A   1      45.261  28.464  29.584  1.00  0.00     0.049 A 
ATOM     49  C   UNL A   1      40.903  31.393  31.540  1.00  0.00     0.074 A 
ATOM     50  C   UNL A   1      45.653  27.412  30.381  1.00  0.00     0.029 A 
ATOM     51  N   UNL A   1      44.626  29.372  30.394  1.00  0.00    -0.354 N 
ATOM     52  N   UNL A   1      41.395  30.758  32.568  1.00  0.00    -0.248 NA
ATOM     53  C   UNL A   1      41.881  32.106  30.726  1.00  0.00     0.031 C 
ATOM     54  C   UNL A   1      45.099  27.655  31.672  1.00  0.00     0.029 A 
ATOM     55  C   UNL A   1      44.387  28.853  31.642  1.00  0.00     0.049 A 
ATOM     56  H   UNL A   1      44.374  30.282  30.115  1.00  0.00     0.167 HD
ATOM     57  C   UNL A   1      42.723  30.585  32.243  1.00  0.00     0.074 A 
ATOM     58  C   UNL A   1      43.005  31.613  31.251  1.00  0.00     0.031 C 
ATOM     59  C   UNL A   1      43.367  29.415  32.518  1.00  0.00     0.034 A 
BRANCH  46  60
ATOM     60  C   UNL A   1      45.708  29.897  27.495  1.00  0.00     0.023 A 
ATOM     61  C   UNL A   1      44.960  30.977  26.994  1.00  0.00     0.031 A 
ATOM     62  C   UNL A   1      47.102  30.080  27.529  1.00  0.00     0.131 A 
ATOM     63  C   UNL A   1      45.567  32.138  26.510  1.00  0.00     0.055 A 
ATOM     64  C   UNL A   1      47.711  31.273  27.118  1.00  0.00     0.041 A 
ATOM     65  F   UNL A   1      47.911  29.123  28.009  1.00  0.00    -0.206 F 
ATOM     66  C   UNL A   1      46.943  32.309  26.597  1.00  0.00     0.022 A 
BRANCH  63  67
ATOM     67  S   UNL A   1      44.552  33.443  25.763  1.00  0.00     0.124 S 
ATOM     68  O   UNL A   1      45.561  34.275  25.118  1.00  0.00    -0.237 OA
ATOM     69  O   UNL A   1      43.693  32.672  24.867  1.00  0.00    -0.237 OA
ATOM     70  O   UNL A   1      43.870  34.041  26.908  1.00  0.00    -0.744 OA
ENDBRANCH  63  67
ENDBRANCH  46  60
BRANCH  47  71
ATOM     71  C   UNL A   1      38.553  32.319  31.006  1.00  0.00     0.023 A 
ATOM     72  C   UNL A   1      38.127  32.922  32.204  1.00  0.00     0.031 A 
ATOM     73  C   UNL A   1      37.804  32.578  29.844  1.00  0.00     0.131 A 
ATOM     74  C   UNL A   1      36.951  33.686  32.228  1.00  0.00     0.055 A 
ATOM     75  C   UNL A   1      36.641  33.352  29.869  1.00  0.00     0.041 A 
ATOM     76  F   UNL A   1      38.147  32.020  28.673  1.00  0.00    -0.206 F 
ATOM     77  C   UNL A   1      36.198  33.895  31.071  1.00  0.00     0.022 A 
BRANCH  74  78
ATOM     78  S   UNL A   1      36.329  34.372  33.790  1.00  0.00     0.124 S 
ATOM     79  O   UNL A   1      35.567  33.254  34.341  1.00  0.00    -0.237 OA
ATOM     80  O   UNL A   1      37.569  34.690  34.490  1.00  0.00    -0.237 OA
ATOM     81  O   UNL A   1      35.526  35.514  33.362  1.00  0.00    -0.744 OA
ENDBRANCH  74  78
ENDBRANCH  47  71
BRANCH  59  82
ATOM     82  C   UNL A   1      42.874  28.570  33.670  1.00  0.00     0.023 A 
ATOM     83  C   UNL A   1      43.659  28.559  34.839  1.00  0.00     0.031 A 
ATOM     84  C   UNL A   1      41.760  27.710  33.636  1.00  0.00     0.131 A 
ATOM     85  C   UNL A   1      43.350  27.699  35.900  1.00  0.00     0.055 A 
ATOM     86  C   UNL A   1      41.411  26.908  34.728  1.00  0.00     0.041 A 
ATOM     87  F   UNL A   1      41.013  27.569  32.532  1.00  0.00    -0.206 F 
ATOM     88  C   UNL A   1      42.215  26.888  35.862  1.00  0.00     0.022 A 
BRANCH  85  89
ATOM     89  S   UNL A   1      44.493  27.513  37.293  1.00  0.00     0.124 S 
ATOM     90  O   UNL A   1      45.552  26.690  36.718  1.00  0.00    -0.237 OA
ATOM     91  O   UNL A   1      44.862  28.898  37.580  1.00  0.00    -0.237 OA
ATOM     92  O   UNL A   1      43.687  26.867  38.326  1.00  0.00    -0.744 OA
ENDBRANCH  85  89
ENDBRANCH  59  82
ENDBRANCH  33  34
ENDBRANCH  26  28
ENDBRANCH  25  26
ENDBRANCH   1  25
TORSDOF 17
ENDMDL
