MODEL 1
REMARK VINA RESULT:     -10.9      0.000      0.000
REMARK SMILES CCc1cc(S(F)(F)(F)(F)F)cc2c1O[C@@H](C(F)(F)F)C(C(=O)OCCOC(=O)c1ccc(-c3c4nc(c(-c5cc(S(=O)(=O)[O-])ccc5F)c5ccc([nH]5)c(-c5cc(S(=O)(=O)[O-])ccc5F)c5nc(c(-c6cc(S(=O)(=O)[O-])ccc6F)c6ccc3[nH]6)C=C5)C=C4)cc1)=C2
REMARK SMILES IDX 26 1 25 2 24 3 22 4 23 5 21 6 3 7 4 8 14 9 5 10 13 11 15 12
REMARK SMILES IDX 12 13 93 14 16 15 2 16 1 17 6 18 7 19 8 20 9 21 10 22 11 23
REMARK SMILES IDX 17 24 18 25 19 26 20 27 27 28 28 29 29 30 30 31 31 32 92 33
REMARK SMILES IDX 32 34 91 35 33 36 34 37 35 38 85 39 36 40 90 41 84 42 86 43
REMARK SMILES IDX 37 44 89 45 83 46 82 47 38 49 70 50 50 51 69 52 51 53 54 54
REMARK SMILES IDX 68 55 87 56 52 57 53 58 67 60 88 61 55 62 39 63 40 64 48 65
REMARK SMILES IDX 41 66 47 67 49 68 46 69 42 70 43 71 44 72 45 73 71 74 72 75
REMARK SMILES IDX 80 76 73 77 79 78 81 79 78 80 74 81 75 82 76 83 77 84 56 85
REMARK SMILES IDX 57 86 65 87 58 88 64 89 66 90 63 91 59 92 60 93 61 94 62 95
REMARK H PARENT 86 48 54 59
REMARK Flexibility Score: inf
ROOT
ATOM      1  C   UNL A   1      40.921  19.877  26.569  1.00  0.00     0.275 C 
ENDROOT
BRANCH   1   2
ATOM      2  C   UNL A   1      42.334  19.815  27.125  1.00  0.00     0.275 C 
BRANCH   2   3
ATOM      3  O   UNL A   1      43.248  20.298  26.153  1.00  0.00    -0.459 OA
BRANCH   3   4
ATOM      4  C   UNL A   1      43.236  21.670  25.786  1.00  0.00     0.338 C 
ATOM      5  O   UNL A   1      42.359  22.103  24.974  1.00  0.00    -0.246 OA
BRANCH   4   6
ATOM      6  C   UNL A   1      44.270  22.621  26.366  1.00  0.00     0.087 C 
ATOM      7  C   UNL A   1      47.391  24.818  28.064  1.00  0.00    -0.004 A 
ATOM      8  C   UNL A   1      47.190  25.497  29.251  1.00  0.00     0.032 A 
ATOM      9  C   UNL A   1      46.364  24.060  27.556  1.00  0.00     0.131 A 
ATOM     10  C   UNL A   1      45.994  25.417  29.916  1.00  0.00     0.108 A 
ATOM     11  C   UNL A   1      45.138  23.970  28.188  1.00  0.00     0.019 A 
ATOM     12  O   UNL A   1      46.615  23.303  26.438  1.00  0.00    -0.475 OA
ATOM     13  C   UNL A   1      44.970  24.662  29.383  1.00  0.00     0.036 A 
ATOM     14  C   UNL A   1      44.129  23.112  27.591  1.00  0.00     0.027 C 
ATOM     15  C   UNL A   1      45.491  23.032  25.553  1.00  0.00     0.316 C 
BRANCH   7  16
ATOM     16  C   UNL A   1      48.678  25.109  27.308  1.00  0.00     0.036 C 
ATOM     17  C   UNL A   1      49.868  24.856  28.220  1.00  0.00     0.009 C 
ENDBRANCH   7  16
BRANCH  10  18
ATOM     18  S   UNL A   1      45.760  26.295  31.482  1.00  0.00     0.310 S 
ATOM     19  F   UNL A   1      44.345  25.618  31.718  1.00  0.00    -0.094 F 
ATOM     20  F   UNL A   1      45.007  27.429  30.687  1.00  0.00    -0.094 F 
ATOM     21  F   UNL A   1      45.551  27.056  32.821  1.00  0.00    -0.094 F 
ATOM     22  F   UNL A   1      46.391  25.085  32.277  1.00  0.00    -0.094 F 
ATOM     23  F   UNL A   1      45.877  25.458  30.145  1.00  0.00    -0.094 F 
ENDBRANCH  10  18
BRANCH  15  24
ATOM     24  C   UNL A   1      45.864  21.900  24.610  1.00  0.00     0.430 C 
ATOM     25  F   UNL A   1      47.040  22.162  24.048  1.00  0.00    -0.167 F 
ATOM     26  F   UNL A   1      45.942  20.761  25.294  1.00  0.00    -0.167 F 
ATOM     27  F   UNL A   1      44.935  21.786  23.665  1.00  0.00    -0.167 F 
ENDBRANCH  15  24
ENDBRANCH   4   6
ENDBRANCH   3   4
ENDBRANCH   2   3
ENDBRANCH   1   2
BRANCH   1  28
ATOM     28  O   UNL A   1      40.170  20.842  27.291  1.00  0.00    -0.458 OA
BRANCH  28  29
ATOM     29  C   UNL A   1      39.550  21.918  26.602  1.00  0.00     0.338 C 
ATOM     30  O   UNL A   1      38.820  21.687  25.588  1.00  0.00    -0.246 OA
BRANCH  29  31
ATOM     31  C   UNL A   1      39.760  23.346  27.078  1.00  0.00     0.060 A 
ATOM     32  C   UNL A   1      39.288  24.366  26.268  1.00  0.00     0.016 A 
ATOM     33  C   UNL A   1      40.509  23.605  28.143  1.00  0.00     0.016 A 
ATOM     34  C   UNL A   1      39.903  25.618  26.504  1.00  0.00     0.010 A 
ATOM     35  C   UNL A   1      40.963  24.879  28.387  1.00  0.00     0.010 A 
ATOM     36  C   UNL A   1      40.584  25.925  27.593  1.00  0.00    -0.014 A 
BRANCH  36  37
ATOM     37  C   UNL A   1      40.927  27.363  27.944  1.00  0.00     0.031 A 
ATOM     38  C   UNL A   1      39.981  28.228  28.498  1.00  0.00     0.074 A 
ATOM     39  C   UNL A   1      42.268  27.675  27.794  1.00  0.00     0.049 A 
ATOM     40  N   UNL A   1      40.188  29.448  28.995  1.00  0.00    -0.248 NA
ATOM     41  C   UNL A   1      38.551  27.912  28.626  1.00  0.00     0.031 C 
ATOM     42  C   UNL A   1      43.229  26.805  27.244  1.00  0.00     0.029 A 
ATOM     43  N   UNL A   1      42.906  28.846  28.135  1.00  0.00    -0.354 N 
ATOM     44  C   UNL A   1      39.044  29.960  29.453  1.00  0.00     0.074 A 
ATOM     45  C   UNL A   1      37.974  28.981  29.216  1.00  0.00     0.031 C 
ATOM     46  C   UNL A   1      44.427  27.447  27.244  1.00  0.00     0.029 A 
ATOM     47  C   UNL A   1      44.235  28.728  27.794  1.00  0.00     0.049 A 
ATOM     48  H   UNL A   1      42.486  29.633  28.553  1.00  0.00     0.167 HD
ATOM     49  C   UNL A   1      38.851  31.201  30.059  1.00  0.00     0.034 A 
ATOM     50  C   UNL A   1      45.238  29.673  27.943  1.00  0.00     0.034 A 
ATOM     51  C   UNL A   1      39.862  32.130  30.248  1.00  0.00     0.049 A 
ATOM     52  C   UNL A   1      45.034  30.939  28.498  1.00  0.00     0.074 A 
ATOM     53  C   UNL A   1      39.687  33.383  30.865  1.00  0.00     0.029 A 
ATOM     54  N   UNL A   1      41.187  32.020  29.884  1.00  0.00    -0.354 N 
ATOM     55  N   UNL A   1      43.897  31.434  28.990  1.00  0.00    -0.248 NA
ATOM     56  C   UNL A   1      46.080  31.960  28.631  1.00  0.00     0.031 C 
ATOM     57  C   UNL A   1      40.885  34.025  30.864  1.00  0.00     0.029 A 
ATOM     58  C   UNL A   1      41.830  33.183  30.247  1.00  0.00     0.049 A 
ATOM     59  H   UNL A   1      41.601  31.246  29.441  1.00  0.00     0.167 HD
ATOM     60  C   UNL A   1      44.096  32.670  29.450  1.00  0.00     0.074 A 
ATOM     61  C   UNL A   1      45.502  33.029  29.219  1.00  0.00     0.031 C 
ATOM     62  C   UNL A   1      43.163  33.514  30.058  1.00  0.00     0.034 A 
BRANCH  49  63
ATOM     63  C   UNL A   1      37.453  31.556  30.540  1.00  0.00     0.023 A 
ATOM     64  C   UNL A   1      36.535  32.071  29.640  1.00  0.00     0.031 A 
ATOM     65  C   UNL A   1      37.136  31.365  31.816  1.00  0.00     0.131 A 
ATOM     66  C   UNL A   1      35.386  32.630  30.250  1.00  0.00     0.055 A 
ATOM     67  C   UNL A   1      35.937  31.817  32.313  1.00  0.00     0.041 A 
ATOM     68  F   UNL A   1      37.985  30.731  32.619  1.00  0.00    -0.206 F 
ATOM     69  C   UNL A   1      35.006  32.391  31.492  1.00  0.00     0.022 A 
BRANCH  66  70
ATOM     70  S   UNL A   1      34.368  33.750  29.258  1.00  0.00     0.124 S 
ATOM     71  O   UNL A   1      33.347  34.447  30.161  1.00  0.00    -0.237 OA
ATOM     72  O   UNL A   1      35.262  34.799  28.594  1.00  0.00    -0.237 OA
ATOM     73  O   UNL A   1      33.546  32.856  28.055  1.00  0.00    -0.744 OA
ENDBRANCH  66  70
ENDBRANCH  49  63
BRANCH  50  74
ATOM     74  C   UNL A   1      46.639  29.311  27.478  1.00  0.00     0.023 A 
ATOM     75  C   UNL A   1      46.891  29.169  26.124  1.00  0.00     0.031 A 
ATOM     76  C   UNL A   1      47.600  29.138  28.379  1.00  0.00     0.131 A 
ATOM     77  C   UNL A   1      48.131  28.554  25.833  1.00  0.00     0.055 A 
ATOM     78  C   UNL A   1      48.833  28.663  28.005  1.00  0.00     0.041 A 
ATOM     79  F   UNL A   1      47.365  29.428  29.656  1.00  0.00    -0.206 F 
ATOM     80  C   UNL A   1      49.131  28.443  26.689  1.00  0.00     0.022 A 
BRANCH  77  81
ATOM     81  S   UNL A   1      48.364  27.873  24.172  1.00  0.00     0.124 S 
ATOM     82  O   UNL A   1      48.170  26.356  24.211  1.00  0.00    -0.237 OA
ATOM     83  O   UNL A   1      47.342  28.494  23.217  1.00  0.00    -0.237 OA
ATOM     84  O   UNL A   1      49.945  28.232  23.626  1.00  0.00    -0.744 OA
ENDBRANCH  77  81
ENDBRANCH  50  74
BRANCH  62  85
ATOM     85  C   UNL A   1      43.636  34.874  30.540  1.00  0.00     0.023 A 
ATOM     86  C   UNL A   1      43.532  35.932  29.651  1.00  0.00     0.031 A 
ATOM     87  C   UNL A   1      44.265  35.010  31.702  1.00  0.00     0.131 A 
ATOM     88  C   UNL A   1      44.382  37.022  29.955  1.00  0.00     0.055 A 
ATOM     89  C   UNL A   1      44.963  36.158  31.989  1.00  0.00     0.041 A 
ATOM     90  F   UNL A   1      44.219  34.026  32.595  1.00  0.00    -0.206 F 
ATOM     91  C   UNL A   1      44.953  37.221  31.129  1.00  0.00     0.022 A 
BRANCH  88  92
ATOM     92  S   UNL A   1      44.707  38.227  28.645  1.00  0.00     0.124 S 
ATOM     93  O   UNL A   1      46.215  38.330  28.409  1.00  0.00    -0.237 OA
ATOM     94  O   UNL A   1      44.019  37.777  27.354  1.00  0.00    -0.237 OA
ATOM     95  O   UNL A   1      44.098  39.755  29.112  1.00  0.00    -0.744 OA
ENDBRANCH  88  92
ENDBRANCH  62  85
ENDBRANCH  36  37
ENDBRANCH  29  31
ENDBRANCH  28  29
ENDBRANCH   1  28
TORSDOF 17
ENDMDL
MODEL 2
REMARK VINA RESULT:     -10.5      1.661      2.097
REMARK SMILES CCc1cc(S(F)(F)(F)(F)F)cc2c1O[C@@H](C(F)(F)F)C(C(=O)OCCOC(=O)c1ccc(-c3c4nc(c(-c5cc(S(=O)(=O)[O-])ccc5F)c5ccc([nH]5)c(-c5cc(S(=O)(=O)[O-])ccc5F)c5nc(c(-c6cc(S(=O)(=O)[O-])ccc6F)c6ccc3[nH]6)C=C5)C=C4)cc1)=C2
REMARK SMILES IDX 26 1 25 2 24 3 22 4 23 5 21 6 3 7 4 8 14 9 5 10 13 11 15 12
REMARK SMILES IDX 12 13 93 14 16 15 2 16 1 17 6 18 7 19 8 20 9 21 10 22 11 23
REMARK SMILES IDX 17 24 18 25 19 26 20 27 27 28 28 29 29 30 30 31 31 32 92 33
REMARK SMILES IDX 32 34 91 35 33 36 34 37 35 38 85 39 36 40 90 41 84 42 86 43
REMARK SMILES IDX 37 44 89 45 83 46 82 47 38 49 70 50 50 51 69 52 51 53 54 54
REMARK SMILES IDX 68 55 87 56 52 57 53 58 67 60 88 61 55 62 39 63 40 64 48 65
REMARK SMILES IDX 41 66 47 67 49 68 46 69 42 70 43 71 44 72 45 73 71 74 72 75
REMARK SMILES IDX 80 76 73 77 79 78 81 79 78 80 74 81 75 82 76 83 77 84 56 85
REMARK SMILES IDX 57 86 65 87 58 88 64 89 66 90 63 91 59 92 60 93 61 94 62 95
REMARK H PARENT 86 48 54 59
REMARK Flexibility Score: inf
ROOT
ATOM      1  C   UNL A   1      41.105  20.255  26.479  1.00  0.00     0.275 C 
ENDROOT
BRANCH   1   2
ATOM      2  C   UNL A   1      42.558  20.085  26.892  1.00  0.00     0.275 C 
BRANCH   2   3
ATOM      3  O   UNL A   1      43.404  20.574  25.863  1.00  0.00    -0.459 OA
BRANCH   3   4
ATOM      4  C   UNL A   1      43.396  21.955  25.532  1.00  0.00     0.338 C 
ATOM      5  O   UNL A   1      42.623  22.384  24.618  1.00  0.00    -0.246 OA
BRANCH   4   6
ATOM      6  C   UNL A   1      44.308  22.919  26.272  1.00  0.00     0.087 C 
ATOM      7  C   UNL A   1      47.138  25.173  28.360  1.00  0.00    -0.004 A 
ATOM      8  C   UNL A   1      46.842  25.654  29.622  1.00  0.00     0.032 A 
ATOM      9  C   UNL A   1      46.210  24.389  27.718  1.00  0.00     0.131 A 
ATOM     10  C   UNL A   1      45.650  25.355  30.228  1.00  0.00     0.108 A 
ATOM     11  C   UNL A   1      44.989  24.083  28.290  1.00  0.00     0.019 A 
ATOM     12  O   UNL A   1      46.563  23.828  26.516  1.00  0.00    -0.475 OA
ATOM     13  C   UNL A   1      44.725  24.578  29.563  1.00  0.00     0.036 A 
ATOM     14  C   UNL A   1      44.092  23.215  27.548  1.00  0.00     0.027 C 
ATOM     15  C   UNL A   1      45.492  23.566  25.565  1.00  0.00     0.316 C 
BRANCH   7  16
ATOM     16  C   UNL A   1      48.399  25.701  27.695  1.00  0.00     0.036 C 
ATOM     17  C   UNL A   1      49.552  24.749  27.969  1.00  0.00     0.009 C 
ENDBRANCH   7  16
BRANCH  10  18
ATOM     18  S   UNL A   1      45.292  25.975  31.892  1.00  0.00     0.310 S 
ATOM     19  F   UNL A   1      46.537  26.956  31.859  1.00  0.00    -0.094 F 
ATOM     20  F   UNL A   1      46.262  24.874  32.466  1.00  0.00    -0.094 F 
ATOM     21  F   UNL A   1      44.993  26.499  33.324  1.00  0.00    -0.094 F 
ATOM     22  F   UNL A   1      44.436  27.158  31.288  1.00  0.00    -0.094 F 
ATOM     23  F   UNL A   1      45.675  25.525  30.425  1.00  0.00    -0.094 F 
ENDBRANCH  10  18
BRANCH  15  24
ATOM     24  C   UNL A   1      46.004  22.624  24.488  1.00  0.00     0.430 C 
ATOM     25  F   UNL A   1      46.178  21.412  25.008  1.00  0.00    -0.167 F 
ATOM     26  F   UNL A   1      45.118  22.558  23.498  1.00  0.00    -0.167 F 
ATOM     27  F   UNL A   1      47.163  23.075  24.017  1.00  0.00    -0.167 F 
ENDBRANCH  15  24
ENDBRANCH   4   6
ENDBRANCH   3   4
ENDBRANCH   2   3
ENDBRANCH   1   2
BRANCH   1  28
ATOM     28  O   UNL A   1      40.476  21.196  27.336  1.00  0.00    -0.458 OA
BRANCH  28  29
ATOM     29  C   UNL A   1      39.780  22.303  26.783  1.00  0.00     0.338 C 
ATOM     30  O   UNL A   1      38.775  22.111  26.030  1.00  0.00    -0.246 OA
BRANCH  29  31
ATOM     31  C   UNL A   1      40.238  23.720  27.093  1.00  0.00     0.060 A 
ATOM     32  C   UNL A   1      40.457  24.044  28.421  1.00  0.00     0.016 A 
ATOM     33  C   UNL A   1      40.266  24.648  26.144  1.00  0.00     0.016 A 
ATOM     34  C   UNL A   1      40.415  25.433  28.687  1.00  0.00     0.010 A 
ATOM     35  C   UNL A   1      40.363  25.979  26.470  1.00  0.00     0.010 A 
ATOM     36  C   UNL A   1      40.522  26.375  27.769  1.00  0.00    -0.014 A 
BRANCH  36  37
ATOM     37  C   UNL A   1      40.809  27.822  28.135  1.00  0.00     0.031 A 
ATOM     38  C   UNL A   1      39.794  28.691  28.540  1.00  0.00     0.074 A 
ATOM     39  C   UNL A   1      42.157  28.140  28.162  1.00  0.00     0.049 A 
ATOM     40  N   UNL A   1      39.927  29.921  29.038  1.00  0.00    -0.248 NA
ATOM     41  C   UNL A   1      38.361  28.369  28.480  1.00  0.00     0.031 C 
ATOM     42  C   UNL A   1      43.187  27.266  27.763  1.00  0.00     0.029 A 
ATOM     43  N   UNL A   1      42.739  29.321  28.563  1.00  0.00    -0.354 N 
ATOM     44  C   UNL A   1      38.729  30.434  29.328  1.00  0.00     0.074 A 
ATOM     45  C   UNL A   1      37.705  29.445  28.967  1.00  0.00     0.031 C 
ATOM     46  C   UNL A   1      44.372  27.916  27.912  1.00  0.00     0.029 A 
ATOM     47  C   UNL A   1      44.102  29.206  28.406  1.00  0.00     0.049 A 
ATOM     48  H   UNL A   1      42.263  30.113  28.905  1.00  0.00     0.167 HD
ATOM     49  C   UNL A   1      38.452  31.685  29.878  1.00  0.00     0.034 A 
ATOM     50  C   UNL A   1      45.071  30.159  28.671  1.00  0.00     0.034 A 
ATOM     51  C   UNL A   1      39.425  32.623  30.184  1.00  0.00     0.049 A 
ATOM     52  C   UNL A   1      44.790  31.434  29.169  1.00  0.00     0.074 A 
ATOM     53  C   UNL A   1      39.163  33.886  30.748  1.00  0.00     0.029 A 
ATOM     54  N   UNL A   1      40.787  32.516  30.004  1.00  0.00    -0.354 N 
ATOM     55  N   UNL A   1      43.595  31.931  29.495  1.00  0.00    -0.248 NA
ATOM     56  C   UNL A   1      45.805  32.464  29.423  1.00  0.00     0.031 C 
ATOM     57  C   UNL A   1      40.348  34.536  30.896  1.00  0.00     0.029 A 
ATOM     58  C   UNL A   1      41.371  33.689  30.428  1.00  0.00     0.049 A 
ATOM     59  H   UNL A   1      41.260  31.736  29.636  1.00  0.00     0.167 HD
ATOM     60  C   UNL A   1      43.725  33.176  29.954  1.00  0.00     0.074 A 
ATOM     61  C   UNL A   1      45.148  33.540  29.907  1.00  0.00     0.031 C 
ATOM     62  C   UNL A   1      42.716  34.025  30.414  1.00  0.00     0.034 A 
BRANCH  49  63
ATOM     63  C   UNL A   1      37.001  32.039  30.160  1.00  0.00     0.023 A 
ATOM     64  C   UNL A   1      36.224  32.577  29.148  1.00  0.00     0.031 A 
ATOM     65  C   UNL A   1      36.503  31.827  31.373  1.00  0.00     0.131 A 
ATOM     66  C   UNL A   1      35.001  33.131  29.596  1.00  0.00     0.055 A 
ATOM     67  C   UNL A   1      35.246  32.278  31.701  1.00  0.00     0.041 A 
ATOM     68  F   UNL A   1      37.225  31.173  32.278  1.00  0.00    -0.206 F 
ATOM     69  C   UNL A   1      34.445  32.872  30.766  1.00  0.00     0.022 A 
BRANCH  66  70
ATOM     70  S   UNL A   1      34.140  34.276  28.490  1.00  0.00     0.124 S 
ATOM     71  O   UNL A   1      35.032  34.590  27.286  1.00  0.00    -0.237 OA
ATOM     72  O   UNL A   1      32.837  33.636  28.006  1.00  0.00    -0.237 OA
ATOM     73  O   UNL A   1      33.787  35.723  29.330  1.00  0.00    -0.744 OA
ENDBRANCH  66  70
ENDBRANCH  49  63
BRANCH  50  74
ATOM     74  C   UNL A   1      46.524  29.798  28.406  1.00  0.00     0.023 A 
ATOM     75  C   UNL A   1      47.256  29.157  29.392  1.00  0.00     0.031 A 
ATOM     76  C   UNL A   1      47.068  30.105  27.234  1.00  0.00     0.131 A 
ATOM     77  C   UNL A   1      48.649  29.138  29.149  1.00  0.00     0.055 A 
ATOM     78  C   UNL A   1      48.414  29.933  27.020  1.00  0.00     0.041 A 
ATOM     79  F   UNL A   1      46.301  30.583  26.257  1.00  0.00    -0.206 F 
ATOM     80  C   UNL A   1      49.209  29.360  27.973  1.00  0.00     0.022 A 
BRANCH  77  81
ATOM     81  S   UNL A   1      49.742  28.784  30.548  1.00  0.00     0.124 S 
ATOM     82  O   UNL A   1      49.933  27.271  30.677  1.00  0.00    -0.237 OA
ATOM     83  O   UNL A   1      51.100  29.453  30.318  1.00  0.00    -0.237 OA
ATOM     84  O   UNL A   1      49.044  29.394  31.986  1.00  0.00    -0.744 OA
ENDBRANCH  77  81
ENDBRANCH  50  74
BRANCH  62  85
ATOM     85  C   UNL A   1      43.115  35.397  30.930  1.00  0.00     0.023 A 
ATOM     86  C   UNL A   1      43.275  36.403  29.991  1.00  0.00     0.031 A 
ATOM     87  C   UNL A   1      43.447  35.582  32.202  1.00  0.00     0.131 A 
ATOM     88  C   UNL A   1      44.071  37.484  30.440  1.00  0.00     0.055 A 
ATOM     89  C   UNL A   1      44.101  36.724  32.595  1.00  0.00     0.041 A 
ATOM     90  F   UNL A   1      43.142  34.654  33.104  1.00  0.00    -0.206 F 
ATOM     91  C   UNL A   1      44.346  37.735  31.707  1.00  0.00     0.022 A 
BRANCH  88  92
ATOM     92  S   UNL A   1      44.756  38.601  29.192  1.00  0.00     0.124 S 
ATOM     93  O   UNL A   1      45.474  39.761  29.884  1.00  0.00    -0.237 OA
ATOM     94  O   UNL A   1      45.749  37.838  28.314  1.00  0.00    -0.237 OA
ATOM     95  O   UNL A   1      43.490  39.215  28.220  1.00  0.00    -0.744 OA
ENDBRANCH  88  92
ENDBRANCH  62  85
ENDBRANCH  36  37
ENDBRANCH  29  31
ENDBRANCH  28  29
ENDBRANCH   1  28
TORSDOF 17
ENDMDL
MODEL 3
REMARK VINA RESULT:     -10.4      5.006     10.828
REMARK SMILES CCc1cc(S(F)(F)(F)(F)F)cc2c1O[C@@H](C(F)(F)F)C(C(=O)OCCOC(=O)c1ccc(-c3c4nc(c(-c5cc(S(=O)(=O)[O-])ccc5F)c5ccc([nH]5)c(-c5cc(S(=O)(=O)[O-])ccc5F)c5nc(c(-c6cc(S(=O)(=O)[O-])ccc6F)c6ccc3[nH]6)C=C5)C=C4)cc1)=C2
REMARK SMILES IDX 26 1 25 2 24 3 22 4 23 5 21 6 3 7 4 8 14 9 5 10 13 11 15 12
REMARK SMILES IDX 12 13 93 14 16 15 2 16 1 17 6 18 7 19 8 20 9 21 10 22 11 23
REMARK SMILES IDX 17 24 18 25 19 26 20 27 27 28 28 29 29 30 30 31 31 32 92 33
REMARK SMILES IDX 32 34 91 35 33 36 34 37 35 38 85 39 36 40 90 41 84 42 86 43
REMARK SMILES IDX 37 44 89 45 83 46 82 47 38 49 70 50 50 51 69 52 51 53 54 54
REMARK SMILES IDX 68 55 87 56 52 57 53 58 67 60 88 61 55 62 39 63 40 64 48 65
REMARK SMILES IDX 41 66 47 67 49 68 46 69 42 70 43 71 44 72 45 73 71 74 72 75
REMARK SMILES IDX 80 76 73 77 79 78 81 79 78 80 74 81 75 82 76 83 77 84 56 85
REMARK SMILES IDX 57 86 65 87 58 88 64 89 66 90 63 91 59 92 60 93 61 94 62 95
REMARK H PARENT 86 48 54 59
REMARK Flexibility Score: inf
ROOT
ATOM      1  C   UNL A   1      36.867  20.551  24.851  1.00  0.00     0.275 C 
ENDROOT
BRANCH   1   2
ATOM      2  C   UNL A   1      35.348  20.534  24.849  1.00  0.00     0.275 C 
BRANCH   2   3
ATOM      3  O   UNL A   1      34.862  21.697  24.195  1.00  0.00    -0.459 OA
BRANCH   3   4
ATOM      4  C   UNL A   1      33.482  22.025  24.262  1.00  0.00     0.338 C 
ATOM      5  O   UNL A   1      32.605  21.139  24.013  1.00  0.00    -0.246 OA
BRANCH   4   6
ATOM      6  C   UNL A   1      33.053  23.435  24.633  1.00  0.00     0.087 C 
ATOM      7  C   UNL A   1      31.491  27.092  25.912  1.00  0.00    -0.004 A 
ATOM      8  C   UNL A   1      30.930  27.961  24.995  1.00  0.00     0.032 A 
ATOM      9  C   UNL A   1      31.948  25.873  25.472  1.00  0.00     0.131 A 
ATOM     10  C   UNL A   1      30.826  27.620  23.672  1.00  0.00     0.108 A 
ATOM     11  C   UNL A   1      31.877  25.502  24.142  1.00  0.00     0.019 A 
ATOM     12  O   UNL A   1      32.398  24.977  26.410  1.00  0.00    -0.475 OA
ATOM     13  C   UNL A   1      31.303  26.397  23.247  1.00  0.00     0.036 A 
ATOM     14  C   UNL A   1      32.353  24.177  23.783  1.00  0.00     0.027 C 
ATOM     15  C   UNL A   1      33.417  24.028  25.988  1.00  0.00     0.316 C 
BRANCH   7  16
ATOM     16  C   UNL A   1      31.729  27.624  27.316  1.00  0.00     0.036 C 
ATOM     17  C   UNL A   1      32.003  29.118  27.252  1.00  0.00     0.009 C 
ENDBRANCH   7  16
BRANCH  10  18
ATOM     18  S   UNL A   1      30.067  28.763  22.492  1.00  0.00     0.310 S 
ATOM     19  F   UNL A   1      29.923  29.897  23.591  1.00  0.00    -0.094 F 
ATOM     20  F   UNL A   1      28.655  28.235  22.950  1.00  0.00    -0.094 F 
ATOM     21  F   UNL A   1      29.404  29.742  21.483  1.00  0.00    -0.094 F 
ATOM     22  F   UNL A   1      31.481  29.378  22.147  1.00  0.00    -0.094 F 
ATOM     23  F   UNL A   1      30.747  27.855  23.593  1.00  0.00    -0.094 F 
ENDBRANCH  10  18
BRANCH  15  24
ATOM     24  C   UNL A   1      33.508  22.909  27.012  1.00  0.00     0.430 C 
ATOM     25  F   UNL A   1      32.849  21.844  26.563  1.00  0.00    -0.167 F 
ATOM     26  F   UNL A   1      34.784  22.589  27.208  1.00  0.00    -0.167 F 
ATOM     27  F   UNL A   1      32.970  23.312  28.159  1.00  0.00    -0.167 F 
ENDBRANCH  15  24
ENDBRANCH   4   6
ENDBRANCH   3   4
ENDBRANCH   2   3
ENDBRANCH   1   2
BRANCH   1  28
ATOM     28  O   UNL A   1      37.329  21.501  25.800  1.00  0.00    -0.458 OA
BRANCH  28  29
ATOM     29  C   UNL A   1      38.710  21.571  26.120  1.00  0.00     0.338 C 
ATOM     30  O   UNL A   1      39.468  20.577  25.889  1.00  0.00    -0.246 OA
BRANCH  29  31
ATOM     31  C   UNL A   1      39.284  22.835  26.741  1.00  0.00     0.060 A 
ATOM     32  C   UNL A   1      38.836  24.049  26.246  1.00  0.00     0.016 A 
ATOM     33  C   UNL A   1      40.289  22.773  27.605  1.00  0.00     0.016 A 
ATOM     34  C   UNL A   1      39.709  25.131  26.506  1.00  0.00     0.010 A 
ATOM     35  C   UNL A   1      41.015  23.897  27.917  1.00  0.00     0.010 A 
ATOM     36  C   UNL A   1      40.665  25.120  27.417  1.00  0.00    -0.014 A 
BRANCH  36  37
ATOM     37  C   UNL A   1      41.339  26.400  27.886  1.00  0.00     0.031 A 
ATOM     38  C   UNL A   1      42.675  26.676  27.588  1.00  0.00     0.074 A 
ATOM     39  C   UNL A   1      40.480  27.297  28.498  1.00  0.00     0.049 A 
ATOM     40  N   UNL A   1      43.335  27.816  27.796  1.00  0.00    -0.248 NA
ATOM     41  C   UNL A   1      43.598  25.713  26.971  1.00  0.00     0.031 C 
ATOM     42  C   UNL A   1      39.130  27.028  28.793  1.00  0.00     0.029 A 
ATOM     43  N   UNL A   1      40.758  28.577  28.923  1.00  0.00    -0.354 N 
ATOM     44  C   UNL A   1      44.593  27.707  27.362  1.00  0.00     0.074 A 
ATOM     45  C   UNL A   1      44.781  26.350  26.831  1.00  0.00     0.031 C 
ATOM     46  C   UNL A   1      38.604  28.126  29.398  1.00  0.00     0.029 A 
ATOM     47  C   UNL A   1      39.617  29.100  29.490  1.00  0.00     0.049 A 
ATOM     48  H   UNL A   1      41.623  29.040  28.836  1.00  0.00     0.167 HD
ATOM     49  C   UNL A   1      45.588  28.684  27.388  1.00  0.00     0.034 A 
ATOM     50  C   UNL A   1      39.449  30.350  30.062  1.00  0.00     0.034 A 
ATOM     51  C   UNL A   1      45.408  29.950  27.921  1.00  0.00     0.049 A 
ATOM     52  C   UNL A   1      40.462  31.309  30.140  1.00  0.00     0.074 A 
ATOM     53  C   UNL A   1      46.398  30.951  27.947  1.00  0.00     0.029 A 
ATOM     54  N   UNL A   1      44.273  30.464  28.511  1.00  0.00    -0.354 N 
ATOM     55  N   UNL A   1      41.708  31.212  29.672  1.00  0.00    -0.248 NA
ATOM     56  C   UNL A   1      40.307  32.625  30.773  1.00  0.00     0.031 C 
ATOM     57  C   UNL A   1      45.873  32.049  28.553  1.00  0.00     0.029 A 
ATOM     58  C   UNL A   1      44.545  31.753  28.915  1.00  0.00     0.049 A 
ATOM     59  H   UNL A   1      43.417  29.992  28.623  1.00  0.00     0.167 HD
ATOM     60  C   UNL A   1      42.380  32.338  29.916  1.00  0.00     0.074 A 
ATOM     61  C   UNL A   1      41.490  33.261  30.635  1.00  0.00     0.031 C 
ATOM     62  C   UNL A   1      43.699  32.637  29.566  1.00  0.00     0.034 A 
BRANCH  49  63
ATOM     63  C   UNL A   1      46.945  28.341  26.797  1.00  0.00     0.023 A 
ATOM     64  C   UNL A   1      47.137  28.446  25.429  1.00  0.00     0.031 A 
ATOM     65  C   UNL A   1      47.925  27.946  27.602  1.00  0.00     0.131 A 
ATOM     66  C   UNL A   1      48.326  27.830  24.968  1.00  0.00     0.055 A 
ATOM     67  C   UNL A   1      49.111  27.483  27.085  1.00  0.00     0.041 A 
ATOM     68  F   UNL A   1      47.757  28.000  28.920  1.00  0.00    -0.206 F 
ATOM     69  C   UNL A   1      49.347  27.502  25.739  1.00  0.00     0.022 A 
BRANCH  66  70
ATOM     70  S   UNL A   1      48.454  27.468  23.200  1.00  0.00     0.124 S 
ATOM     71  O   UNL A   1      48.335  25.958  22.978  1.00  0.00    -0.237 OA
ATOM     72  O   UNL A   1      47.328  28.183  22.449  1.00  0.00    -0.237 OA
ATOM     73  O   UNL A   1      49.966  28.011  22.615  1.00  0.00    -0.744 OA
ENDBRANCH  66  70
ENDBRANCH  49  63
BRANCH  50  74
ATOM     74  C   UNL A   1      38.086  30.699  30.638  1.00  0.00     0.023 A 
ATOM     75  C   UNL A   1      37.125  31.262  29.815  1.00  0.00     0.031 A 
ATOM     76  C   UNL A   1      37.840  30.460  31.921  1.00  0.00     0.131 A 
ATOM     77  C   UNL A   1      36.022  31.807  30.512  1.00  0.00     0.055 A 
ATOM     78  C   UNL A   1      36.679  30.903  32.505  1.00  0.00     0.041 A 
ATOM     79  F   UNL A   1      38.727  29.784  32.646  1.00  0.00    -0.206 F 
ATOM     80  C   UNL A   1      35.710  31.520  31.763  1.00  0.00     0.022 A 
BRANCH  77  81
ATOM     81  S   UNL A   1      34.962  32.978  29.628  1.00  0.00     0.124 S 
ATOM     82  O   UNL A   1      34.031  33.675  30.622  1.00  0.00    -0.237 OA
ATOM     83  O   UNL A   1      35.832  34.022  28.924  1.00  0.00    -0.237 OA
ATOM     84  O   UNL A   1      34.029  32.137  28.466  1.00  0.00    -0.744 OA
ENDBRANCH  77  81
ENDBRANCH  50  74
BRANCH  62  85
ATOM     85  C   UNL A   1      44.238  34.012  29.920  1.00  0.00     0.023 A 
ATOM     86  C   UNL A   1      44.766  34.177  31.191  1.00  0.00     0.031 A 
ATOM     87  C   UNL A   1      44.069  35.047  29.105  1.00  0.00     0.131 A 
ATOM     88  C   UNL A   1      44.816  35.524  31.621  1.00  0.00     0.055 A 
ATOM     89  C   UNL A   1      44.268  36.330  29.554  1.00  0.00     0.041 A 
ATOM     90  F   UNL A   1      43.703  34.839  27.844  1.00  0.00    -0.206 F 
ATOM     91  C   UNL A   1      44.731  36.569  30.818  1.00  0.00     0.022 A 
BRANCH  88  92
ATOM     92  S   UNL A   1      45.011  35.836  33.393  1.00  0.00     0.124 S 
ATOM     93  O   UNL A   1      46.499  35.949  33.730  1.00  0.00    -0.237 OA
ATOM     94  O   UNL A   1      44.305  37.142  33.762  1.00  0.00    -0.237 OA
ATOM     95  O   UNL A   1      44.323  34.545  34.278  1.00  0.00    -0.744 OA
ENDBRANCH  88  92
ENDBRANCH  62  85
ENDBRANCH  36  37
ENDBRANCH  29  31
ENDBRANCH  28  29
ENDBRANCH   1  28
TORSDOF 17
ENDMDL
