MODEL 1
REMARK VINA RESULT:     -10.5      0.000      0.000
REMARK SMILES O=C(CSc1nc(-c2cccc(Br)c2)c[nH]1)OCCOC(=O)c1ccc(-c2c3nc(c(-c4cc(S(=O)(=O)[O-])ccc4F)c4ccc([nH]4)c(-c4cc(S(=O)(=O)[O-])ccc4F)c4nc(c(-c5cc(S(=O)(=O)[O-])ccc5F)c5ccc2[nH]5)C=C4)C=C3)cc1
REMARK SMILES IDX 18 1 17 2 2 3 1 4 3 5 4 6 5 7 6 8 16 9 7 10 15 11 8 13 9 14
REMARK SMILES IDX 14 15 10 16 12 17 11 18 13 19 19 20 20 21 21 22 22 23 23 24
REMARK SMILES IDX 24 25 85 26 25 27 84 28 26 29 27 30 28 31 78 32 29 33 83 34
REMARK SMILES IDX 77 35 79 36 30 37 82 38 76 39 75 40 31 42 63 43 43 44 62 45
REMARK SMILES IDX 44 46 47 47 61 48 80 49 45 50 46 51 60 53 81 54 48 55 32 56
REMARK SMILES IDX 33 57 41 58 34 59 40 60 42 61 39 62 35 63 36 64 37 65 38 66
REMARK SMILES IDX 64 67 65 68 73 69 66 70 72 71 74 72 71 73 67 74 68 75 69 76
REMARK SMILES IDX 70 77 49 78 50 79 58 80 51 81 57 82 59 83 56 84 52 85 53 86
REMARK SMILES IDX 54 87 55 88
REMARK H PARENT 16 12 79 41 47 52
REMARK Flexibility Score: inf
ROOT
ATOM      1  C   UNL A   1      33.009  34.618  28.503  1.00  0.00     0.274 C 
ENDROOT
BRANCH   1   2
ATOM      2  O   UNL A   1      32.539  35.401  29.623  1.00  0.00    -0.461 OA
BRANCH   2   3
ATOM      3  C   UNL A   1      32.952  36.650  29.936  1.00  0.00     0.316 C 
ATOM      4  O   UNL A   1      33.278  37.433  29.043  1.00  0.00    -0.251 OA
BRANCH   3   5
ATOM      5  C   UNL A   1      33.018  37.079  31.384  1.00  0.00     0.200 C 
BRANCH   5   6
ATOM      6  S   UNL A   1      32.639  35.753  32.536  1.00  0.00    -0.076 SA
BRANCH   6   7
ATOM      7  C   UNL A   1      34.051  34.769  32.490  1.00  0.00     0.166 A 
ATOM      8  N   UNL A   1      35.271  35.236  32.563  1.00  0.00    -0.223 NA
ATOM      9  N   UNL A   1      34.030  33.405  32.408  1.00  0.00    -0.339 N 
ATOM     10  C   UNL A   1      36.081  34.133  32.458  1.00  0.00     0.089 A 
ATOM     11  C   UNL A   1      35.333  32.980  32.358  1.00  0.00     0.113 A 
ATOM     12  H   UNL A   1      33.230  32.834  32.389  1.00  0.00     0.168 HD
BRANCH  10  13
ATOM     13  C   UNL A   1      37.520  34.228  32.484  1.00  0.00     0.003 A 
ATOM     14  C   UNL A   1      38.161  34.408  33.716  1.00  0.00     0.010 A 
ATOM     15  C   UNL A   1      38.276  34.198  31.307  1.00  0.00     0.026 A 
ATOM     16  C   UNL A   1      39.546  34.549  33.781  1.00  0.00     0.002 A 
ATOM     17  C   UNL A   1      39.659  34.356  31.378  1.00  0.00     0.018 A 
ATOM     18  C   UNL A   1      40.298  34.526  32.607  1.00  0.00     0.016 A 
ATOM     19  Br  UNL A   1      40.685  34.361  29.788  1.00  0.00    -0.051 Br
ENDBRANCH  10  13
ENDBRANCH   6   7
ENDBRANCH   5   6
ENDBRANCH   3   5
ENDBRANCH   2   3
ENDBRANCH   1   2
BRANCH   1  20
ATOM     20  C   UNL A   1      34.450  34.150  28.724  1.00  0.00     0.275 C 
BRANCH  20  21
ATOM     21  O   UNL A   1      34.882  33.353  27.607  1.00  0.00    -0.458 OA
BRANCH  21  22
ATOM     22  C   UNL A   1      34.572  32.031  27.655  1.00  0.00     0.338 C 
ATOM     23  O   UNL A   1      33.603  31.497  27.146  1.00  0.00    -0.246 OA
BRANCH  22  24
ATOM     24  C   UNL A   1      35.732  31.297  28.220  1.00  0.00     0.060 A 
ATOM     25  C   UNL A   1      35.545  29.966  28.618  1.00  0.00     0.016 A 
ATOM     26  C   UNL A   1      37.004  31.875  28.284  1.00  0.00     0.016 A 
ATOM     27  C   UNL A   1      36.626  29.215  29.090  1.00  0.00     0.010 A 
ATOM     28  C   UNL A   1      38.083  31.124  28.758  1.00  0.00     0.010 A 
ATOM     29  C   UNL A   1      37.898  29.797  29.179  1.00  0.00    -0.014 A 
BRANCH  29  30
ATOM     30  C   UNL A   1      39.015  29.095  29.857  1.00  0.00     0.031 A 
ATOM     31  C   UNL A   1      39.458  29.595  31.203  1.00  0.00     0.074 A 
ATOM     32  C   UNL A   1      39.667  28.080  29.265  1.00  0.00     0.049 A 
ATOM     33  N   UNL A   1      40.480  29.230  31.931  1.00  0.00    -0.248 NA
ATOM     34  C   UNL A   1      38.645  30.669  31.789  1.00  0.00     0.031 C 
ATOM     35  C   UNL A   1      39.330  27.502  27.965  1.00  0.00     0.029 A 
ATOM     36  N   UNL A   1      40.776  27.378  29.670  1.00  0.00    -0.354 N 
ATOM     37  C   UNL A   1      40.437  30.033  33.065  1.00  0.00     0.074 A 
ATOM     38  C   UNL A   1      39.312  30.930  32.902  1.00  0.00     0.031 C 
ATOM     39  C   UNL A   1      40.238  26.556  27.662  1.00  0.00     0.029 A 
ATOM     40  C   UNL A   1      41.237  26.486  28.730  1.00  0.00     0.049 A 
ATOM     41  H   UNL A   1      41.201  27.501  30.550  1.00  0.00     0.167 HD
ATOM     42  C   UNL A   1      41.256  30.021  34.146  1.00  0.00     0.034 A 
ATOM     43  C   UNL A   1      42.356  25.733  28.713  1.00  0.00     0.034 A 
ATOM     44  C   UNL A   1      42.392  29.143  34.282  1.00  0.00     0.049 A 
ATOM     45  C   UNL A   1      43.303  25.784  29.889  1.00  0.00     0.074 A 
ATOM     46  C   UNL A   1      43.265  29.021  35.349  1.00  0.00     0.029 A 
ATOM     47  N   UNL A   1      42.830  28.255  33.308  1.00  0.00    -0.354 N 
ATOM     48  N   UNL A   1      43.228  26.513  30.979  1.00  0.00    -0.248 NA
ATOM     49  C   UNL A   1      44.481  24.907  29.835  1.00  0.00     0.031 C 
ATOM     50  C   UNL A   1      44.270  28.116  34.991  1.00  0.00     0.029 A 
ATOM     51  C   UNL A   1      43.983  27.613  33.731  1.00  0.00     0.049 A 
ATOM     52  H   UNL A   1      42.385  28.103  32.443  1.00  0.00     0.167 HD
ATOM     53  C   UNL A   1      44.334  26.162  31.750  1.00  0.00     0.074 A 
ATOM     54  C   UNL A   1      45.060  25.156  31.001  1.00  0.00     0.031 C 
ATOM     55  C   UNL A   1      44.706  26.620  32.972  1.00  0.00     0.034 A 
BRANCH  42  56
ATOM     56  C   UNL A   1      40.971  31.034  35.226  1.00  0.00     0.023 A 
ATOM     57  C   UNL A   1      39.783  30.996  35.976  1.00  0.00     0.031 A 
ATOM     58  C   UNL A   1      41.863  32.096  35.457  1.00  0.00     0.131 A 
ATOM     59  C   UNL A   1      39.473  32.050  36.847  1.00  0.00     0.055 A 
ATOM     60  C   UNL A   1      41.588  33.096  36.391  1.00  0.00     0.041 A 
ATOM     61  F   UNL A   1      43.003  32.197  34.755  1.00  0.00    -0.206 F 
ATOM     62  C   UNL A   1      40.377  33.088  37.077  1.00  0.00     0.022 A 
BRANCH  59  63
ATOM     63  S   UNL A   1      37.792  32.140  37.525  1.00  0.00     0.124 S 
ATOM     64  O   UNL A   1      37.482  30.727  37.735  1.00  0.00    -0.237 OA
ATOM     65  O   UNL A   1      37.983  32.938  38.730  1.00  0.00    -0.237 OA
ATOM     66  O   UNL A   1      37.027  32.785  36.461  1.00  0.00    -0.744 OA
ENDBRANCH  59  63
ENDBRANCH  42  56
BRANCH  43  67
ATOM     67  C   UNL A   1      42.680  24.908  27.516  1.00  0.00     0.023 A 
ATOM     68  C   UNL A   1      42.226  23.585  27.394  1.00  0.00     0.031 A 
ATOM     69  C   UNL A   1      43.479  25.432  26.484  1.00  0.00     0.131 A 
ATOM     70  C   UNL A   1      42.602  22.820  26.278  1.00  0.00     0.055 A 
ATOM     71  C   UNL A   1      43.816  24.681  25.358  1.00  0.00     0.041 A 
ATOM     72  F   UNL A   1      43.933  26.693  26.554  1.00  0.00    -0.206 F 
ATOM     73  C   UNL A   1      43.383  23.363  25.255  1.00  0.00     0.022 A 
BRANCH  70  74
ATOM     74  S   UNL A   1      42.093  21.080  26.205  1.00  0.00     0.124 S 
ATOM     75  O   UNL A   1      42.278  20.660  27.589  1.00  0.00    -0.237 OA
ATOM     76  O   UNL A   1      40.713  21.188  25.745  1.00  0.00    -0.237 OA
ATOM     77  O   UNL A   1      43.024  20.495  25.243  1.00  0.00    -0.744 OA
ENDBRANCH  70  74
ENDBRANCH  43  67
BRANCH  55  78
ATOM     78  C   UNL A   1      45.928  26.001  33.607  1.00  0.00     0.023 A 
ATOM     79  C   UNL A   1      45.854  24.830  34.382  1.00  0.00     0.031 A 
ATOM     80  C   UNL A   1      47.193  26.583  33.404  1.00  0.00     0.131 A 
ATOM     81  C   UNL A   1      47.021  24.292  34.947  1.00  0.00     0.055 A 
ATOM     82  C   UNL A   1      48.355  26.018  33.929  1.00  0.00     0.041 A 
ATOM     83  F   UNL A   1      47.319  27.701  32.673  1.00  0.00    -0.206 F 
ATOM     84  C   UNL A   1      48.273  24.870  34.712  1.00  0.00     0.022 A 
BRANCH  81  85
ATOM     85  S   UNL A   1      46.885  22.848  36.037  1.00  0.00     0.124 S 
ATOM     86  O   UNL A   1      45.531  22.382  35.754  1.00  0.00    -0.237 OA
ATOM     87  O   UNL A   1      47.967  21.992  35.559  1.00  0.00    -0.237 OA
ATOM     88  O   UNL A   1      47.083  23.406  37.373  1.00  0.00    -0.744 OA
ENDBRANCH  81  85
ENDBRANCH  55  78
ENDBRANCH  29  30
ENDBRANCH  22  24
ENDBRANCH  21  22
ENDBRANCH  20  21
ENDBRANCH   1  20
TORSDOF 17
ENDMDL
MODEL 2
REMARK VINA RESULT:     -10.2      4.791     12.528
REMARK SMILES O=C(CSc1nc(-c2cccc(Br)c2)c[nH]1)OCCOC(=O)c1ccc(-c2c3nc(c(-c4cc(S(=O)(=O)[O-])ccc4F)c4ccc([nH]4)c(-c4cc(S(=O)(=O)[O-])ccc4F)c4nc(c(-c5cc(S(=O)(=O)[O-])ccc5F)c5ccc2[nH]5)C=C4)C=C3)cc1
REMARK SMILES IDX 18 1 17 2 2 3 1 4 3 5 4 6 5 7 6 8 16 9 7 10 15 11 8 13 9 14
REMARK SMILES IDX 14 15 10 16 12 17 11 18 13 19 19 20 20 21 21 22 22 23 23 24
REMARK SMILES IDX 24 25 85 26 25 27 84 28 26 29 27 30 28 31 78 32 29 33 83 34
REMARK SMILES IDX 77 35 79 36 30 37 82 38 76 39 75 40 31 42 63 43 43 44 62 45
REMARK SMILES IDX 44 46 47 47 61 48 80 49 45 50 46 51 60 53 81 54 48 55 32 56
REMARK SMILES IDX 33 57 41 58 34 59 40 60 42 61 39 62 35 63 36 64 37 65 38 66
REMARK SMILES IDX 64 67 65 68 73 69 66 70 72 71 74 72 71 73 67 74 68 75 69 76
REMARK SMILES IDX 70 77 49 78 50 79 58 80 51 81 57 82 59 83 56 84 52 85 53 86
REMARK SMILES IDX 54 87 55 88
REMARK H PARENT 16 12 79 41 47 52
REMARK Flexibility Score: inf
ROOT
ATOM      1  C   UNL A   1      42.292  19.449  26.456  1.00  0.00     0.274 C 
ENDROOT
BRANCH   1   2
ATOM      2  O   UNL A   1      43.130  19.993  25.413  1.00  0.00    -0.461 OA
BRANCH   2   3
ATOM      3  C   UNL A   1      44.239  19.404  24.910  1.00  0.00     0.316 C 
ATOM      4  O   UNL A   1      44.242  18.196  24.674  1.00  0.00    -0.251 OA
BRANCH   3   5
ATOM      5  C   UNL A   1      45.476  20.233  24.647  1.00  0.00     0.200 C 
BRANCH   5   6
ATOM      6  S   UNL A   1      45.108  21.922  24.157  1.00  0.00    -0.076 SA
BRANCH   6   7
ATOM      7  C   UNL A   1      45.586  22.848  25.529  1.00  0.00     0.166 A 
ATOM      8  N   UNL A   1      44.982  22.805  26.688  1.00  0.00    -0.223 NA
ATOM      9  N   UNL A   1      46.663  23.690  25.545  1.00  0.00    -0.339 N 
ATOM     10  C   UNL A   1      45.655  23.707  27.473  1.00  0.00     0.089 A 
ATOM     11  C   UNL A   1      46.705  24.274  26.785  1.00  0.00     0.113 A 
ATOM     12  H   UNL A   1      47.292  23.848  24.804  1.00  0.00     0.168 HD
BRANCH  10  13
ATOM     13  C   UNL A   1      45.283  23.964  28.843  1.00  0.00     0.003 A 
ATOM     14  C   UNL A   1      44.316  23.147  29.443  1.00  0.00     0.010 A 
ATOM     15  C   UNL A   1      45.825  25.036  29.559  1.00  0.00     0.026 A 
ATOM     16  C   UNL A   1      43.897  23.388  30.751  1.00  0.00     0.002 A 
ATOM     17  C   UNL A   1      45.388  25.282  30.860  1.00  0.00     0.018 A 
ATOM     18  C   UNL A   1      44.431  24.462  31.460  1.00  0.00     0.016 A 
ATOM     19  Br  UNL A   1      46.083  26.758  31.819  1.00  0.00    -0.051 Br
ENDBRANCH  10  13
ENDBRANCH   6   7
ENDBRANCH   5   6
ENDBRANCH   3   5
ENDBRANCH   2   3
ENDBRANCH   1   2
BRANCH   1  20
ATOM     20  C   UNL A   1      40.822  19.807  26.225  1.00  0.00     0.275 C 
BRANCH  20  21
ATOM     21  O   UNL A   1      40.449  20.915  27.063  1.00  0.00    -0.458 OA
BRANCH  21  22
ATOM     22  C   UNL A   1      39.545  21.786  26.545  1.00  0.00     0.338 C 
ATOM     23  O   UNL A   1      38.480  21.501  26.029  1.00  0.00    -0.246 OA
BRANCH  22  24
ATOM     24  C   UNL A   1      39.948  23.163  26.925  1.00  0.00     0.060 A 
ATOM     25  C   UNL A   1      39.390  24.237  26.220  1.00  0.00     0.016 A 
ATOM     26  C   UNL A   1      40.797  23.404  28.011  1.00  0.00     0.016 A 
ATOM     27  C   UNL A   1      39.686  25.552  26.590  1.00  0.00     0.010 A 
ATOM     28  C   UNL A   1      41.096  24.718  28.378  1.00  0.00     0.010 A 
ATOM     29  C   UNL A   1      40.556  25.799  27.662  1.00  0.00    -0.014 A 
BRANCH  29  30
ATOM     30  C   UNL A   1      41.044  27.170  27.951  1.00  0.00     0.031 A 
ATOM     31  C   UNL A   1      42.486  27.487  27.669  1.00  0.00     0.074 A 
ATOM     32  C   UNL A   1      40.246  28.094  28.514  1.00  0.00     0.049 A 
ATOM     33  N   UNL A   1      43.171  28.564  27.949  1.00  0.00    -0.248 NA
ATOM     34  C   UNL A   1      43.257  26.430  27.001  1.00  0.00     0.031 C 
ATOM     35  C   UNL A   1      38.832  27.909  28.830  1.00  0.00     0.029 A 
ATOM     36  N   UNL A   1      40.528  29.365  28.952  1.00  0.00    -0.354 N 
ATOM     37  C   UNL A   1      44.460  28.315  27.493  1.00  0.00     0.074 A 
ATOM     38  C   UNL A   1      44.465  26.969  26.959  1.00  0.00     0.031 C 
ATOM     39  C   UNL A   1      38.377  29.015  29.446  1.00  0.00     0.029 A 
ATOM     40  C   UNL A   1      39.476  29.970  29.597  1.00  0.00     0.049 A 
ATOM     41  H   UNL A   1      41.400  29.801  28.816  1.00  0.00     0.167 HD
ATOM     42  C   UNL A   1      45.541  29.135  27.513  1.00  0.00     0.034 A 
ATOM     43  C   UNL A   1      39.417  31.139  30.267  1.00  0.00     0.034 A 
ATOM     44  C   UNL A   1      45.531  30.463  28.075  1.00  0.00     0.049 A 
ATOM     45  C   UNL A   1      40.648  32.011  30.350  1.00  0.00     0.074 A 
ATOM     46  C   UNL A   1      46.557  31.391  28.114  1.00  0.00     0.029 A 
ATOM     47  N   UNL A   1      44.448  31.042  28.724  1.00  0.00    -0.354 N 
ATOM     48  N   UNL A   1      41.851  31.787  29.874  1.00  0.00    -0.248 NA
ATOM     49  C   UNL A   1      40.511  33.294  31.054  1.00  0.00     0.031 C 
ATOM     50  C   UNL A   1      46.117  32.499  28.848  1.00  0.00     0.029 A 
ATOM     51  C   UNL A   1      44.792  32.296  29.202  1.00  0.00     0.049 A 
ATOM     52  H   UNL A   1      43.563  30.622  28.827  1.00  0.00     0.167 HD
ATOM     53  C   UNL A   1      42.606  32.914  30.199  1.00  0.00     0.074 A 
ATOM     54  C   UNL A   1      41.722  33.814  30.911  1.00  0.00     0.031 C 
ATOM     55  C   UNL A   1      43.906  33.182  29.921  1.00  0.00     0.034 A 
BRANCH  42  56
ATOM     56  C   UNL A   1      46.827  28.578  26.958  1.00  0.00     0.023 A 
ATOM     57  C   UNL A   1      47.062  28.507  25.574  1.00  0.00     0.031 A 
ATOM     58  C   UNL A   1      47.798  28.039  27.820  1.00  0.00     0.131 A 
ATOM     59  C   UNL A   1      48.188  27.826  25.090  1.00  0.00     0.055 A 
ATOM     60  C   UNL A   1      48.962  27.440  27.333  1.00  0.00     0.041 A 
ATOM     61  F   UNL A   1      47.618  28.057  29.150  1.00  0.00    -0.206 F 
ATOM     62  C   UNL A   1      49.152  27.312  25.960  1.00  0.00     0.022 A 
BRANCH  59  63
ATOM     63  S   UNL A   1      48.276  27.457  23.315  1.00  0.00     0.124 S 
ATOM     64  O   UNL A   1      47.089  28.144  22.812  1.00  0.00    -0.237 OA
ATOM     65  O   UNL A   1      49.559  28.038  22.938  1.00  0.00    -0.237 OA
ATOM     66  O   UNL A   1      48.210  25.998  23.265  1.00  0.00    -0.744 OA
ENDBRANCH  59  63
ENDBRANCH  42  56
BRANCH  43  67
ATOM     67  C   UNL A   1      38.164  31.531  30.971  1.00  0.00     0.023 A 
ATOM     68  C   UNL A   1      37.195  32.334  30.348  1.00  0.00     0.031 A 
ATOM     69  C   UNL A   1      37.934  31.125  32.297  1.00  0.00     0.131 A 
ATOM     70  C   UNL A   1      36.055  32.732  31.065  1.00  0.00     0.055 A 
ATOM     71  C   UNL A   1      36.780  31.488  32.991  1.00  0.00     0.041 A 
ATOM     72  F   UNL A   1      38.829  30.353  32.934  1.00  0.00    -0.206 F 
ATOM     73  C   UNL A   1      35.835  32.305  32.376  1.00  0.00     0.022 A 
BRANCH  70  74
ATOM     74  S   UNL A   1      34.879  33.862  30.271  1.00  0.00     0.124 S 
ATOM     75  O   UNL A   1      34.536  34.754  31.372  1.00  0.00    -0.237 OA
ATOM     76  O   UNL A   1      35.688  34.440  29.203  1.00  0.00    -0.237 OA
ATOM     77  O   UNL A   1      33.805  32.976  29.826  1.00  0.00    -0.744 OA
ENDBRANCH  70  74
ENDBRANCH  43  67
BRANCH  55  78
ATOM     78  C   UNL A   1      44.446  34.528  30.338  1.00  0.00     0.023 A 
ATOM     79  C   UNL A   1      44.337  35.664  29.516  1.00  0.00     0.031 A 
ATOM     80  C   UNL A   1      45.053  34.679  31.599  1.00  0.00     0.131 A 
ATOM     81  C   UNL A   1      44.852  36.895  29.953  1.00  0.00     0.055 A 
ATOM     82  C   UNL A   1      45.520  35.914  32.048  1.00  0.00     0.041 A 
ATOM     83  F   UNL A   1      45.182  33.627  32.423  1.00  0.00    -0.206 F 
ATOM     84  C   UNL A   1      45.427  37.030  31.221  1.00  0.00     0.022 A 
BRANCH  81  85
ATOM     85  S   UNL A   1      44.803  38.318  28.829  1.00  0.00     0.124 S 
ATOM     86  O   UNL A   1      45.891  38.011  27.905  1.00  0.00    -0.237 OA
ATOM     87  O   UNL A   1      43.455  38.234  28.275  1.00  0.00    -0.237 OA
ATOM     88  O   UNL A   1      45.040  39.460  29.709  1.00  0.00    -0.744 OA
ENDBRANCH  81  85
ENDBRANCH  55  78
ENDBRANCH  29  30
ENDBRANCH  22  24
ENDBRANCH  21  22
ENDBRANCH  20  21
ENDBRANCH   1  20
TORSDOF 17
ENDMDL
MODEL 3
REMARK VINA RESULT:      -9.7      5.685      9.783
REMARK SMILES O=C(CSc1nc(-c2cccc(Br)c2)c[nH]1)OCCOC(=O)c1ccc(-c2c3nc(c(-c4cc(S(=O)(=O)[O-])ccc4F)c4ccc([nH]4)c(-c4cc(S(=O)(=O)[O-])ccc4F)c4nc(c(-c5cc(S(=O)(=O)[O-])ccc5F)c5ccc2[nH]5)C=C4)C=C3)cc1
REMARK SMILES IDX 18 1 17 2 2 3 1 4 3 5 4 6 5 7 6 8 16 9 7 10 15 11 8 13 9 14
REMARK SMILES IDX 14 15 10 16 12 17 11 18 13 19 19 20 20 21 21 22 22 23 23 24
REMARK SMILES IDX 24 25 85 26 25 27 84 28 26 29 27 30 28 31 78 32 29 33 83 34
REMARK SMILES IDX 77 35 79 36 30 37 82 38 76 39 75 40 31 42 63 43 43 44 62 45
REMARK SMILES IDX 44 46 47 47 61 48 80 49 45 50 46 51 60 53 81 54 48 55 32 56
REMARK SMILES IDX 33 57 41 58 34 59 40 60 42 61 39 62 35 63 36 64 37 65 38 66
REMARK SMILES IDX 64 67 65 68 73 69 66 70 72 71 74 72 71 73 67 74 68 75 69 76
REMARK SMILES IDX 70 77 49 78 50 79 58 80 51 81 57 82 59 83 56 84 52 85 53 86
REMARK SMILES IDX 54 87 55 88
REMARK H PARENT 16 12 79 41 47 52
REMARK Flexibility Score: inf
ROOT
ATOM      1  C   UNL A   1      36.039  20.243  25.055  1.00  0.00     0.274 C 
ENDROOT
BRANCH   1   2
ATOM      2  O   UNL A   1      34.905  21.028  24.624  1.00  0.00    -0.461 OA
BRANCH   2   3
ATOM      3  C   UNL A   1      33.790  21.262  25.353  1.00  0.00     0.316 C 
ATOM      4  O   UNL A   1      33.885  21.589  26.536  1.00  0.00    -0.251 OA
BRANCH   3   5
ATOM      5  C   UNL A   1      32.429  21.114  24.712  1.00  0.00     0.200 C 
BRANCH   5   6
ATOM      6  S   UNL A   1      32.300  21.938  23.120  1.00  0.00    -0.076 SA
BRANCH   6   7
ATOM      7  C   UNL A   1      32.734  23.566  23.478  1.00  0.00     0.166 A 
ATOM      8  N   UNL A   1      32.439  24.173  24.598  1.00  0.00    -0.223 NA
ATOM      9  N   UNL A   1      33.458  24.366  22.638  1.00  0.00    -0.339 N 
ATOM     10  C   UNL A   1      32.935  25.445  24.454  1.00  0.00     0.089 A 
ATOM     11  C   UNL A   1      33.573  25.591  23.242  1.00  0.00     0.113 A 
ATOM     12  H   UNL A   1      33.829  24.110  21.763  1.00  0.00     0.168 HD
BRANCH  10  13
ATOM     13  C   UNL A   1      32.802  26.445  25.486  1.00  0.00     0.003 A 
ATOM     14  C   UNL A   1      31.533  26.689  26.026  1.00  0.00     0.010 A 
ATOM     15  C   UNL A   1      33.895  27.205  25.913  1.00  0.00     0.026 A 
ATOM     16  C   UNL A   1      31.352  27.678  26.993  1.00  0.00     0.002 A 
ATOM     17  C   UNL A   1      33.705  28.203  26.868  1.00  0.00     0.018 A 
ATOM     18  C   UNL A   1      32.441  28.440  27.412  1.00  0.00     0.016 A 
ATOM     19  Br  UNL A   1      35.170  29.266  27.419  1.00  0.00    -0.051 Br
ENDBRANCH  10  13
ENDBRANCH   6   7
ENDBRANCH   5   6
ENDBRANCH   3   5
ENDBRANCH   2   3
ENDBRANCH   1   2
BRANCH   1  20
ATOM     20  C   UNL A   1      37.356  20.922  24.671  1.00  0.00     0.275 C 
BRANCH  20  21
ATOM     21  O   UNL A   1      37.834  21.720  25.769  1.00  0.00    -0.458 OA
BRANCH  21  22
ATOM     22  C   UNL A   1      39.086  21.442  26.216  1.00  0.00     0.338 C 
ATOM     23  O   UNL A   1      39.700  20.404  26.048  1.00  0.00    -0.246 OA
BRANCH  22  24
ATOM     24  C   UNL A   1      39.688  22.696  26.735  1.00  0.00     0.060 A 
ATOM     25  C   UNL A   1      39.192  23.917  26.261  1.00  0.00     0.016 A 
ATOM     26  C   UNL A   1      40.670  22.679  27.732  1.00  0.00     0.016 A 
ATOM     27  C   UNL A   1      39.681  25.122  26.775  1.00  0.00     0.010 A 
ATOM     28  C   UNL A   1      41.160  23.883  28.242  1.00  0.00     0.010 A 
ATOM     29  C   UNL A   1      40.682  25.110  27.756  1.00  0.00    -0.014 A 
BRANCH  29  30
ATOM     30  C   UNL A   1      41.359  26.363  28.174  1.00  0.00     0.031 A 
ATOM     31  C   UNL A   1      40.531  27.438  28.819  1.00  0.00     0.074 A 
ATOM     32  C   UNL A   1      42.664  26.571  27.927  1.00  0.00     0.049 A 
ATOM     33  N   UNL A   1      40.865  28.656  29.156  1.00  0.00    -0.248 NA
ATOM     34  C   UNL A   1      39.131  27.091  29.099  1.00  0.00     0.031 C 
ATOM     35  C   UNL A   1      43.572  25.604  27.313  1.00  0.00     0.029 A 
ATOM     36  N   UNL A   1      43.442  27.683  28.134  1.00  0.00    -0.354 N 
ATOM     37  C   UNL A   1      39.714  29.227  29.686  1.00  0.00     0.074 A 
ATOM     38  C   UNL A   1      38.667  28.232  29.584  1.00  0.00     0.031 C 
ATOM     39  C   UNL A   1      44.778  26.180  27.158  1.00  0.00     0.029 A 
ATOM     40  C   UNL A   1      44.716  27.564  27.631  1.00  0.00     0.049 A 
ATOM     41  H   UNL A   1      43.119  28.489  28.598  1.00  0.00     0.167 HD
ATOM     42  C   UNL A   1      39.545  30.465  30.215  1.00  0.00     0.034 A 
ATOM     43  C   UNL A   1      45.704  28.477  27.527  1.00  0.00     0.034 A 
ATOM     44  C   UNL A   1      40.589  31.457  30.282  1.00  0.00     0.049 A 
ATOM     45  C   UNL A   1      45.480  29.877  28.049  1.00  0.00     0.074 A 
ATOM     46  C   UNL A   1      40.537  32.727  30.830  1.00  0.00     0.029 A 
ATOM     47  N   UNL A   1      41.866  31.302  29.760  1.00  0.00    -0.354 N 
ATOM     48  N   UNL A   1      44.401  30.392  28.591  1.00  0.00    -0.248 NA
ATOM     49  C   UNL A   1      46.608  30.814  27.949  1.00  0.00     0.031 C 
ATOM     50  C   UNL A   1      41.757  33.364  30.574  1.00  0.00     0.029 A 
ATOM     51  C   UNL A   1      42.598  32.466  29.935  1.00  0.00     0.049 A 
ATOM     52  H   UNL A   1      42.203  30.484  29.329  1.00  0.00     0.167 HD
ATOM     53  C   UNL A   1      44.731  31.706  28.922  1.00  0.00     0.074 A 
ATOM     54  C   UNL A   1      46.108  31.903  28.517  1.00  0.00     0.031 C 
ATOM     55  C   UNL A   1      43.968  32.656  29.517  1.00  0.00     0.034 A 
BRANCH  42  56
ATOM     56  C   UNL A   1      38.161  30.814  30.700  1.00  0.00     0.023 A 
ATOM     57  C   UNL A   1      37.258  31.531  29.896  1.00  0.00     0.031 A 
ATOM     58  C   UNL A   1      37.766  30.493  32.010  1.00  0.00     0.131 A 
ATOM     59  C   UNL A   1      36.049  31.988  30.440  1.00  0.00     0.055 A 
ATOM     60  C   UNL A   1      36.523  30.875  32.517  1.00  0.00     0.041 A 
ATOM     61  F   UNL A   1      38.595  29.829  32.832  1.00  0.00    -0.206 F 
ATOM     62  C   UNL A   1      35.665  31.646  31.738  1.00  0.00     0.022 A 
BRANCH  59  63
ATOM     63  S   UNL A   1      35.079  33.193  29.492  1.00  0.00     0.124 S 
ATOM     64  O   UNL A   1      34.200  33.741  30.522  1.00  0.00    -0.237 OA
ATOM     65  O   UNL A   1      36.108  34.094  28.985  1.00  0.00    -0.237 OA
ATOM     66  O   UNL A   1      34.410  32.376  28.483  1.00  0.00    -0.744 OA
ENDBRANCH  59  63
ENDBRANCH  42  56
BRANCH  43  67
ATOM     67  C   UNL A   1      46.979  28.118  26.845  1.00  0.00     0.023 A 
ATOM     68  C   UNL A   1      47.073  28.075  25.445  1.00  0.00     0.031 A 
ATOM     69  C   UNL A   1      48.120  27.784  27.596  1.00  0.00     0.131 A 
ATOM     70  C   UNL A   1      48.275  27.675  24.840  1.00  0.00     0.055 A 
ATOM     71  C   UNL A   1      49.324  27.427  26.989  1.00  0.00     0.041 A 
ATOM     72  F   UNL A   1      48.080  27.815  28.938  1.00  0.00    -0.206 F 
ATOM     73  C   UNL A   1      49.404  27.363  25.602  1.00  0.00     0.022 A 
BRANCH  70  74
ATOM     74  S   UNL A   1      48.331  27.521  23.033  1.00  0.00     0.124 S 
ATOM     75  O   UNL A   1      48.302  26.073  22.859  1.00  0.00    -0.237 OA
ATOM     76  O   UNL A   1      47.127  28.240  22.630  1.00  0.00    -0.237 OA
ATOM     77  O   UNL A   1      49.590  28.169  22.675  1.00  0.00    -0.744 OA
ENDBRANCH  70  74
ENDBRANCH  43  67
BRANCH  55  78
ATOM     78  C   UNL A   1      44.617  33.985  29.821  1.00  0.00     0.023 A 
ATOM     79  C   UNL A   1      44.565  35.063  28.921  1.00  0.00     0.031 A 
ATOM     80  C   UNL A   1      45.272  34.179  31.051  1.00  0.00     0.131 A 
ATOM     81  C   UNL A   1      45.181  36.281  29.254  1.00  0.00     0.055 A 
ATOM     82  C   UNL A   1      45.842  35.404  31.397  1.00  0.00     0.041 A 
ATOM     83  F   UNL A   1      45.351  33.181  31.946  1.00  0.00    -0.206 F 
ATOM     84  C   UNL A   1      45.805  36.462  30.493  1.00  0.00     0.022 A 
BRANCH  81  85
ATOM     85  S   UNL A   1      45.200  37.620  28.030  1.00  0.00     0.124 S 
ATOM     86  O   UNL A   1      43.786  37.966  27.938  1.00  0.00    -0.237 OA
ATOM     87  O   UNL A   1      46.059  38.614  28.666  1.00  0.00    -0.237 OA
ATOM     88  O   UNL A   1      45.763  36.988  26.839  1.00  0.00    -0.744 OA
ENDBRANCH  81  85
ENDBRANCH  55  78
ENDBRANCH  29  30
ENDBRANCH  22  24
ENDBRANCH  21  22
ENDBRANCH  20  21
ENDBRANCH   1  20
TORSDOF 17
ENDMDL
