MODEL 1
REMARK VINA RESULT:     -13.6      0.000      0.000
REMARK SMILES Cc1c(C(=O)OCCOC(=O)c2ccc(-c3c4nc(c(-c5cc(S(=O)(=O)[O-])ccc5F)c5ccc([nH]5)c(-c5cc(S(=O)(=O)[O-])ccc5F)c5nc(c(-c6cc(S(=O)(=O)[O-])ccc6F)c6ccc3[nH]6)C=C5)C=C4)cc2)oc2c1/C(=N/NC(=O)C(c1ccccc1)c1ccccc1)CCC2
REMARK SMILES IDX 7 1 6 2 4 3 5 4 3 5 1 6 2 7 77 8 75 9 76 10 78 11 98 12
REMARK SMILES IDX 79 13 96 14 97 15 80 16 81 17 82 19 83 20 84 21 85 22 89 23
REMARK SMILES IDX 86 24 88 25 87 26 90 27 91 28 95 29 92 30 94 31 93 32 8 33
REMARK SMILES IDX 9 34 10 35 11 36 12 37 13 38 74 39 14 40 73 41 15 42 16 43
REMARK SMILES IDX 17 44 67 45 18 46 72 47 66 48 68 49 19 50 71 51 65 52 64 53
REMARK SMILES IDX 20 55 52 56 32 57 51 58 33 59 36 60 50 61 69 62 34 63 35 64
REMARK SMILES IDX 49 66 70 67 37 68 21 69 22 70 30 71 23 72 29 73 31 74 28 75
REMARK SMILES IDX 24 76 25 77 26 78 27 79 53 80 54 81 62 82 55 83 61 84 63 85
REMARK SMILES IDX 60 86 56 87 57 88 58 89 59 90 38 91 39 92 47 93 40 94 46 95
REMARK SMILES IDX 48 96 45 97 41 98 42 99 43 100 44 101
REMARK H PARENT 80 18 68 54 36 65
REMARK Flexibility Score: inf
ROOT
ATOM      1  C   UNL A   1      37.473  21.775  25.080  1.00  0.00     0.275 C 
ENDROOT
BRANCH   1   2
ATOM      2  O   UNL A   1      36.324  21.528  25.881  1.00  0.00    -0.456 OA
BRANCH   2   3
ATOM      3  C   UNL A   1      35.215  21.049  25.257  1.00  0.00     0.374 C 
ATOM      4  O   UNL A   1      35.055  19.886  24.875  1.00  0.00    -0.242 OA
BRANCH   3   5
ATOM      5  C   UNL A   1      34.259  22.111  25.184  1.00  0.00     0.215 A 
ATOM      6  C   UNL A   1      35.105  23.701  23.334  1.00  0.00     0.049 C 
ATOM      7  C   UNL A   1      34.163  23.254  24.397  1.00  0.00     0.012 A 
ATOM      8  C   UNL A   1      32.988  23.906  24.868  1.00  0.00     0.043 A 
ATOM      9  O   UNL A   1      33.183  22.006  26.022  1.00  0.00    -0.453 OA
ATOM     10  C   UNL A   1      32.421  23.078  25.809  1.00  0.00     0.114 A 
ATOM     11  C   UNL A   1      32.442  25.233  24.646  1.00  0.00     0.072 C 
ATOM     12  C   UNL A   1      31.247  23.267  26.683  1.00  0.00     0.076 C 
ATOM     13  N   UNL A   1      32.967  25.797  23.589  1.00  0.00    -0.177 NA
ATOM     14  C   UNL A   1      31.552  25.616  25.867  1.00  0.00     0.059 C 
ATOM     15  C   UNL A   1      30.528  24.538  26.253  1.00  0.00     0.014 C 
BRANCH  13  16
ATOM     16  N   UNL A   1      33.014  27.027  22.963  1.00  0.00    -0.246 N 
ATOM     17  C   UNL A   1      32.487  28.277  23.217  1.00  0.00     0.252 C 
ATOM     18  H   UNL A   1      33.552  27.007  22.138  1.00  0.00     0.193 HD
ATOM     19  O   UNL A   1      32.736  29.225  22.466  1.00  0.00    -0.272 OA
BRANCH  17  20
ATOM     20  C   UNL A   1      31.613  28.451  24.434  1.00  0.00     0.140 C 
BRANCH  20  21
ATOM     21  C   UNL A   1      32.540  29.097  25.590  1.00  0.00    -0.031 A 
ATOM     22  C   UNL A   1      32.161  30.195  26.373  1.00  0.00     0.005 A 
ATOM     23  C   UNL A   1      33.828  28.572  25.931  1.00  0.00     0.005 A 
ATOM     24  C   UNL A   1      33.066  30.788  27.297  1.00  0.00     0.000 A 
ATOM     25  C   UNL A   1      34.762  29.210  26.757  1.00  0.00     0.000 A 
ATOM     26  C   UNL A   1      34.381  30.339  27.442  1.00  0.00     0.000 A 
ENDBRANCH  20  21
BRANCH  20  27
ATOM     27  C   UNL A   1      30.179  28.951  23.874  1.00  0.00    -0.031 A 
ATOM     28  C   UNL A   1      29.788  30.328  23.819  1.00  0.00     0.005 A 
ATOM     29  C   UNL A   1      29.254  28.098  23.260  1.00  0.00     0.005 A 
ATOM     30  C   UNL A   1      28.518  30.798  23.463  1.00  0.00     0.000 A 
ATOM     31  C   UNL A   1      28.006  28.584  22.775  1.00  0.00     0.000 A 
ATOM     32  C   UNL A   1      27.611  29.914  22.937  1.00  0.00     0.000 A 
ENDBRANCH  20  27
ENDBRANCH  17  20
ENDBRANCH  13  16
ENDBRANCH   3   5
ENDBRANCH   2   3
ENDBRANCH   1   2
BRANCH   1  33
ATOM     33  C   UNL A   1      38.732  21.699  25.927  1.00  0.00     0.275 C 
BRANCH  33  34
ATOM     34  O   UNL A   1      39.012  22.963  26.523  1.00  0.00    -0.458 OA
BRANCH  34  35
ATOM     35  C   UNL A   1      40.137  23.022  27.273  1.00  0.00     0.338 C 
ATOM     36  O   UNL A   1      40.702  22.104  27.837  1.00  0.00    -0.246 OA
BRANCH  35  37
ATOM     37  C   UNL A   1      40.473  24.429  27.480  1.00  0.00     0.060 A 
ATOM     38  C   UNL A   1      41.522  24.754  28.340  1.00  0.00     0.016 A 
ATOM     39  C   UNL A   1      39.566  25.392  27.013  1.00  0.00     0.016 A 
ATOM     40  C   UNL A   1      41.578  26.040  28.842  1.00  0.00     0.010 A 
ATOM     41  C   UNL A   1      39.618  26.663  27.518  1.00  0.00     0.010 A 
ATOM     42  C   UNL A   1      40.577  26.956  28.481  1.00  0.00    -0.014 A 
BRANCH  42  43
ATOM     43  C   UNL A   1      40.643  28.313  28.983  1.00  0.00     0.031 A 
ATOM     44  C   UNL A   1      41.775  29.062  28.391  1.00  0.00     0.074 A 
ATOM     45  C   UNL A   1      39.688  28.852  29.769  1.00  0.00     0.049 A 
ATOM     46  N   UNL A   1      42.835  29.464  29.003  1.00  0.00    -0.248 NA
ATOM     47  C   UNL A   1      41.856  29.179  26.924  1.00  0.00     0.031 C 
ATOM     48  C   UNL A   1      38.428  28.258  30.219  1.00  0.00     0.029 A 
ATOM     49  N   UNL A   1      39.611  30.115  30.268  1.00  0.00    -0.354 N 
ATOM     50  C   UNL A   1      43.596  30.119  28.044  1.00  0.00     0.074 A 
ATOM     51  C   UNL A   1      43.066  29.720  26.770  1.00  0.00     0.031 C 
ATOM     52  C   UNL A   1      37.620  29.231  30.709  1.00  0.00     0.029 A 
ATOM     53  C   UNL A   1      38.350  30.489  30.729  1.00  0.00     0.049 A 
ATOM     54  H   UNL A   1      40.388  30.719  30.300  1.00  0.00     0.167 HD
ATOM     55  C   UNL A   1      44.421  31.139  28.402  1.00  0.00     0.034 A 
ATOM     56  C   UNL A   1      37.937  31.750  31.054  1.00  0.00     0.034 A 
ATOM     57  C   UNL A   1      44.679  31.115  29.825  1.00  0.00     0.049 A 
ATOM     58  C   UNL A   1      39.171  32.532  31.338  1.00  0.00     0.074 A 
ATOM     59  C   UNL A   1      45.229  30.181  30.684  1.00  0.00     0.029 A 
ATOM     60  N   UNL A   1      43.965  31.980  30.627  1.00  0.00    -0.354 N 
ATOM     61  N   UNL A   1      39.945  32.278  32.358  1.00  0.00    -0.248 NA
ATOM     62  C   UNL A   1      39.825  33.203  30.222  1.00  0.00     0.031 C 
ATOM     63  C   UNL A   1      44.408  30.229  31.850  1.00  0.00     0.029 A 
ATOM     64  C   UNL A   1      43.476  31.256  31.690  1.00  0.00     0.049 A 
ATOM     65  H   UNL A   1      43.830  32.942  30.467  1.00  0.00     0.167 HD
ATOM     66  C   UNL A   1      41.235  32.329  31.852  1.00  0.00     0.074 A 
ATOM     67  C   UNL A   1      41.104  32.988  30.550  1.00  0.00     0.031 C 
ATOM     68  C   UNL A   1      42.238  31.566  32.382  1.00  0.00     0.034 A 
BRANCH  55  69
ATOM     69  C   UNL A   1      44.664  32.367  27.559  1.00  0.00     0.023 A 
ATOM     70  C   UNL A   1      44.049  33.559  27.979  1.00  0.00     0.031 A 
ATOM     71  C   UNL A   1      45.188  32.371  26.245  1.00  0.00     0.131 A 
ATOM     72  C   UNL A   1      43.877  34.631  27.089  1.00  0.00     0.055 A 
ATOM     73  C   UNL A   1      45.075  33.467  25.386  1.00  0.00     0.041 A 
ATOM     74  F   UNL A   1      45.748  31.296  25.679  1.00  0.00    -0.206 F 
ATOM     75  C   UNL A   1      44.385  34.594  25.793  1.00  0.00     0.022 A 
BRANCH  72  76
ATOM     76  S   UNL A   1      42.809  36.001  27.600  1.00  0.00     0.124 S 
ATOM     77  O   UNL A   1      43.352  37.104  26.814  1.00  0.00    -0.237 OA
ATOM     78  O   UNL A   1      41.491  35.515  27.206  1.00  0.00    -0.237 OA
ATOM     79  O   UNL A   1      43.038  36.088  29.040  1.00  0.00    -0.744 OA
ENDBRANCH  72  76
ENDBRANCH  55  69
BRANCH  56  80
ATOM     80  C   UNL A   1      36.607  32.384  30.791  1.00  0.00     0.023 A 
ATOM     81  C   UNL A   1      35.773  32.909  31.809  1.00  0.00     0.031 A 
ATOM     82  C   UNL A   1      36.248  32.709  29.463  1.00  0.00     0.131 A 
ATOM     83  C   UNL A   1      34.652  33.716  31.477  1.00  0.00     0.055 A 
ATOM     84  C   UNL A   1      35.148  33.508  29.143  1.00  0.00     0.041 A 
ATOM     85  F   UNL A   1      37.012  32.334  28.425  1.00  0.00    -0.206 F 
ATOM     86  C   UNL A   1      34.349  34.025  30.149  1.00  0.00     0.022 A 
BRANCH  83  87
ATOM     87  S   UNL A   1      33.599  34.457  32.775  1.00  0.00     0.124 S 
ATOM     88  O   UNL A   1      34.579  35.099  33.642  1.00  0.00    -0.237 OA
ATOM     89  O   UNL A   1      32.728  35.341  32.011  1.00  0.00    -0.237 OA
ATOM     90  O   UNL A   1      32.922  33.301  33.368  1.00  0.00    -0.744 OA
ENDBRANCH  83  87
ENDBRANCH  56  80
BRANCH  68  91
ATOM     91  C   UNL A   1      41.979  30.842  33.694  1.00  0.00     0.023 A 
ATOM     92  C   UNL A   1      41.890  29.436  33.850  1.00  0.00     0.031 A 
ATOM     93  C   UNL A   1      41.937  31.625  34.860  1.00  0.00     0.131 A 
ATOM     94  C   UNL A   1      41.746  28.875  35.137  1.00  0.00     0.055 A 
ATOM     95  C   UNL A   1      41.821  31.067  36.131  1.00  0.00     0.041 A 
ATOM     96  F   UNL A   1      42.040  32.963  34.785  1.00  0.00    -0.206 F 
ATOM     97  C   UNL A   1      41.717  29.689  36.275  1.00  0.00     0.022 A 
BRANCH  94  98
ATOM     98  S   UNL A   1      41.559  27.074  35.361  1.00  0.00     0.124 S 
ATOM     99  O   UNL A   1      40.919  26.955  36.665  1.00  0.00    -0.237 OA
ATOM    100  O   UNL A   1      40.742  26.695  34.210  1.00  0.00    -0.237 OA
ATOM    101  O   UNL A   1      42.937  26.581  35.313  1.00  0.00    -0.744 OA
ENDBRANCH  94  98
ENDBRANCH  68  91
ENDBRANCH  42  43
ENDBRANCH  35  37
ENDBRANCH  34  35
ENDBRANCH  33  34
ENDBRANCH   1  33
TORSDOF 18
ENDMDL
MODEL 2
REMARK VINA RESULT:     -13.6      3.345      9.546
REMARK SMILES Cc1c(C(=O)OCCOC(=O)c2ccc(-c3c4nc(c(-c5cc(S(=O)(=O)[O-])ccc5F)c5ccc([nH]5)c(-c5cc(S(=O)(=O)[O-])ccc5F)c5nc(c(-c6cc(S(=O)(=O)[O-])ccc6F)c6ccc3[nH]6)C=C5)C=C4)cc2)oc2c1/C(=N/NC(=O)C(c1ccccc1)c1ccccc1)CCC2
REMARK SMILES IDX 7 1 6 2 4 3 5 4 3 5 1 6 2 7 77 8 75 9 76 10 78 11 98 12
REMARK SMILES IDX 79 13 96 14 97 15 80 16 81 17 82 19 83 20 84 21 85 22 89 23
REMARK SMILES IDX 86 24 88 25 87 26 90 27 91 28 95 29 92 30 94 31 93 32 8 33
REMARK SMILES IDX 9 34 10 35 11 36 12 37 13 38 74 39 14 40 73 41 15 42 16 43
REMARK SMILES IDX 17 44 67 45 18 46 72 47 66 48 68 49 19 50 71 51 65 52 64 53
REMARK SMILES IDX 20 55 52 56 32 57 51 58 33 59 36 60 50 61 69 62 34 63 35 64
REMARK SMILES IDX 49 66 70 67 37 68 21 69 22 70 30 71 23 72 29 73 31 74 28 75
REMARK SMILES IDX 24 76 25 77 26 78 27 79 53 80 54 81 62 82 55 83 61 84 63 85
REMARK SMILES IDX 60 86 56 87 57 88 58 89 59 90 38 91 39 92 47 93 40 94 46 95
REMARK SMILES IDX 48 96 45 97 41 98 42 99 43 100 44 101
REMARK H PARENT 80 18 68 54 36 65
REMARK Flexibility Score: inf
ROOT
ATOM      1  C   UNL A   1      32.712  30.023  25.659  1.00  0.00     0.275 C 
ENDROOT
BRANCH   1   2
ATOM      2  O   UNL A   1      31.304  29.831  25.619  1.00  0.00    -0.456 OA
BRANCH   2   3
ATOM      3  C   UNL A   1      30.773  29.314  24.478  1.00  0.00     0.374 C 
ATOM      4  O   UNL A   1      29.962  29.885  23.744  1.00  0.00    -0.242 OA
BRANCH   3   5
ATOM      5  C   UNL A   1      31.367  28.031  24.259  1.00  0.00     0.215 A 
ATOM      6  C   UNL A   1      31.179  26.770  26.504  1.00  0.00     0.049 C 
ATOM      7  C   UNL A   1      31.569  26.923  25.075  1.00  0.00     0.012 A 
ATOM      8  C   UNL A   1      32.261  25.997  24.244  1.00  0.00     0.043 A 
ATOM      9  O   UNL A   1      31.816  27.789  22.991  1.00  0.00    -0.453 OA
ATOM     10  C   UNL A   1      32.333  26.560  22.991  1.00  0.00     0.114 A 
ATOM     11  C   UNL A   1      32.962  24.756  24.523  1.00  0.00     0.072 C 
ATOM     12  C   UNL A   1      33.001  26.099  21.759  1.00  0.00     0.076 C 
ATOM     13  N   UNL A   1      32.623  24.264  25.687  1.00  0.00    -0.177 NA
ATOM     14  C   UNL A   1      34.038  24.532  23.417  1.00  0.00     0.059 C 
ATOM     15  C   UNL A   1      33.498  24.678  21.986  1.00  0.00     0.014 C 
BRANCH  13  16
ATOM     16  N   UNL A   1      33.011  23.275  26.568  1.00  0.00    -0.246 N 
ATOM     17  C   UNL A   1      33.888  22.210  26.522  1.00  0.00     0.252 C 
ATOM     18  H   UNL A   1      32.555  23.347  27.438  1.00  0.00     0.193 HD
ATOM     19  O   UNL A   1      34.053  21.493  27.513  1.00  0.00    -0.272 OA
BRANCH  17  20
ATOM     20  C   UNL A   1      34.638  21.955  25.238  1.00  0.00     0.140 C 
BRANCH  20  21
ATOM     21  C   UNL A   1      36.184  22.339  25.513  1.00  0.00    -0.031 A 
ATOM     22  C   UNL A   1      37.250  21.444  25.355  1.00  0.00     0.005 A 
ATOM     23  C   UNL A   1      36.596  23.650  25.917  1.00  0.00     0.005 A 
ATOM     24  C   UNL A   1      38.576  21.807  25.722  1.00  0.00     0.000 A 
ATOM     25  C   UNL A   1      37.875  23.982  26.380  1.00  0.00     0.000 A 
ATOM     26  C   UNL A   1      38.877  23.046  26.292  1.00  0.00     0.000 A 
ENDBRANCH  20  21
BRANCH  20  27
ATOM     27  C   UNL A   1      34.014  20.592  24.630  1.00  0.00    -0.031 A 
ATOM     28  C   UNL A   1      34.590  19.297  24.840  1.00  0.00     0.005 A 
ATOM     29  C   UNL A   1      32.781  20.538  23.970  1.00  0.00     0.005 A 
ATOM     30  C   UNL A   1      34.161  18.110  24.235  1.00  0.00     0.000 A 
ATOM     31  C   UNL A   1      32.267  19.312  23.457  1.00  0.00     0.000 A 
ATOM     32  C   UNL A   1      32.985  18.117  23.529  1.00  0.00     0.000 A 
ENDBRANCH  20  27
ENDBRANCH  17  20
ENDBRANCH  13  16
ENDBRANCH   3   5
ENDBRANCH   2   3
ENDBRANCH   1   2
BRANCH   1  33
ATOM     33  C   UNL A   1      33.098  30.840  26.881  1.00  0.00     0.275 C 
BRANCH  33  34
ATOM     34  O   UNL A   1      34.369  30.428  27.378  1.00  0.00    -0.458 OA
BRANCH  34  35
ATOM     35  C   UNL A   1      35.166  31.418  27.843  1.00  0.00     0.338 C 
ATOM     36  O   UNL A   1      35.081  32.609  27.611  1.00  0.00    -0.246 OA
BRANCH  35  37
ATOM     37  C   UNL A   1      36.304  30.804  28.524  1.00  0.00     0.060 A 
ATOM     38  C   UNL A   1      37.346  31.619  28.969  1.00  0.00     0.016 A 
ATOM     39  C   UNL A   1      36.421  29.407  28.471  1.00  0.00     0.016 A 
ATOM     40  C   UNL A   1      38.565  31.028  29.235  1.00  0.00     0.010 A 
ATOM     41  C   UNL A   1      37.633  28.825  28.726  1.00  0.00     0.010 A 
ATOM     42  C   UNL A   1      38.711  29.646  29.036  1.00  0.00    -0.014 A 
BRANCH  42  43
ATOM     43  C   UNL A   1      39.980  29.016  29.336  1.00  0.00     0.031 A 
ATOM     44  C   UNL A   1      40.239  28.974  30.794  1.00  0.00     0.074 A 
ATOM     45  C   UNL A   1      40.739  28.410  28.401  1.00  0.00     0.049 A 
ATOM     46  N   UNL A   1      41.142  29.634  31.434  1.00  0.00    -0.248 NA
ATOM     47  C   UNL A   1      39.252  28.315  31.669  1.00  0.00     0.031 C 
ATOM     48  C   UNL A   1      40.454  28.209  26.978  1.00  0.00     0.029 A 
ATOM     49  N   UNL A   1      41.918  27.751  28.558  1.00  0.00    -0.354 N 
ATOM     50  C   UNL A   1      41.004  29.264  32.765  1.00  0.00     0.074 A 
ATOM     51  C   UNL A   1      39.711  28.647  32.877  1.00  0.00     0.031 C 
ATOM     52  C   UNL A   1      41.306  27.283  26.474  1.00  0.00     0.029 A 
ATOM     53  C   UNL A   1      42.275  26.921  27.497  1.00  0.00     0.049 A 
ATOM     54  H   UNL A   1      42.476  27.852  29.363  1.00  0.00     0.167 HD
ATOM     55  C   UNL A   1      42.082  29.264  33.593  1.00  0.00     0.034 A 
ATOM     56  C   UNL A   1      43.265  25.980  27.489  1.00  0.00     0.034 A 
ATOM     57  C   UNL A   1      43.157  30.054  33.034  1.00  0.00     0.049 A 
ATOM     58  C   UNL A   1      44.207  26.358  28.577  1.00  0.00     0.074 A 
ATOM     59  C   UNL A   1      43.275  31.377  32.651  1.00  0.00     0.029 A 
ATOM     60  N   UNL A   1      44.185  29.390  32.397  1.00  0.00    -0.354 N 
ATOM     61  N   UNL A   1      44.929  27.445  28.537  1.00  0.00    -0.248 NA
ATOM     62  C   UNL A   1      43.945  25.843  29.915  1.00  0.00     0.031 C 
ATOM     63  C   UNL A   1      44.016  31.338  31.432  1.00  0.00     0.029 A 
ATOM     64  C   UNL A   1      44.403  30.019  31.194  1.00  0.00     0.049 A 
ATOM     65  H   UNL A   1      44.673  28.608  32.742  1.00  0.00     0.167 HD
ATOM     66  C   UNL A   1      44.822  27.994  29.805  1.00  0.00     0.074 A 
ATOM     67  C   UNL A   1      44.274  26.920  30.637  1.00  0.00     0.031 C 
ATOM     68  C   UNL A   1      44.892  29.345  30.003  1.00  0.00     0.034 A 
BRANCH  55  69
ATOM     69  C   UNL A   1      42.310  28.247  34.685  1.00  0.00     0.023 A 
ATOM     70  C   UNL A   1      43.091  27.125  34.357  1.00  0.00     0.031 A 
ATOM     71  C   UNL A   1      41.578  28.160  35.893  1.00  0.00     0.131 A 
ATOM     72  C   UNL A   1      43.037  25.960  35.138  1.00  0.00     0.055 A 
ATOM     73  C   UNL A   1      41.584  27.022  36.702  1.00  0.00     0.041 A 
ATOM     74  F   UNL A   1      40.744  29.118  36.311  1.00  0.00    -0.206 F 
ATOM     75  C   UNL A   1      42.288  25.899  36.309  1.00  0.00     0.022 A 
BRANCH  72  76
ATOM     76  S   UNL A   1      43.819  24.462  34.489  1.00  0.00     0.124 S 
ATOM     77  O   UNL A   1      44.311  24.925  33.196  1.00  0.00    -0.237 OA
ATOM     78  O   UNL A   1      44.830  24.189  35.505  1.00  0.00    -0.237 OA
ATOM     79  O   UNL A   1      42.718  23.504  34.433  1.00  0.00    -0.744 OA
ENDBRANCH  72  76
ENDBRANCH  55  69
BRANCH  56  80
ATOM     80  C   UNL A   1      43.248  24.626  26.852  1.00  0.00     0.023 A 
ATOM     81  C   UNL A   1      44.191  24.203  25.883  1.00  0.00     0.031 A 
ATOM     82  C   UNL A   1      42.420  23.617  27.397  1.00  0.00     0.131 A 
ATOM     83  C   UNL A   1      44.273  22.835  25.507  1.00  0.00     0.055 A 
ATOM     84  C   UNL A   1      42.511  22.273  27.027  1.00  0.00     0.041 A 
ATOM     85  F   UNL A   1      41.548  23.890  28.380  1.00  0.00    -0.206 F 
ATOM     86  C   UNL A   1      43.445  21.873  26.088  1.00  0.00     0.022 A 
BRANCH  83  87
ATOM     87  S   UNL A   1      45.524  22.255  24.306  1.00  0.00     0.124 S 
ATOM     88  O   UNL A   1      46.325  21.339  25.108  1.00  0.00    -0.237 OA
ATOM     89  O   UNL A   1      44.705  21.657  23.259  1.00  0.00    -0.237 OA
ATOM     90  O   UNL A   1      46.215  23.484  23.910  1.00  0.00    -0.744 OA
ENDBRANCH  83  87
ENDBRANCH  56  80
BRANCH  68  91
ATOM     91  C   UNL A   1      45.335  30.224  28.844  1.00  0.00     0.023 A 
ATOM     92  C   UNL A   1      46.675  30.578  28.549  1.00  0.00     0.031 A 
ATOM     93  C   UNL A   1      44.345  30.625  27.930  1.00  0.00     0.131 A 
ATOM     94  C   UNL A   1      46.971  31.320  27.386  1.00  0.00     0.055 A 
ATOM     95  C   UNL A   1      44.644  31.334  26.769  1.00  0.00     0.041 A 
ATOM     96  F   UNL A   1      43.057  30.301  28.137  1.00  0.00    -0.206 F 
ATOM     97  C   UNL A   1      45.958  31.692  26.496  1.00  0.00     0.022 A 
BRANCH  94  98
ATOM     98  S   UNL A   1      48.678  31.848  27.018  1.00  0.00     0.124 S 
ATOM     99  O   UNL A   1      49.192  32.274  28.314  1.00  0.00    -0.237 OA
ATOM    100  O   UNL A   1      49.272  30.636  26.461  1.00  0.00    -0.237 OA
ATOM    101  O   UNL A   1      48.497  32.933  26.051  1.00  0.00    -0.744 OA
ENDBRANCH  94  98
ENDBRANCH  68  91
ENDBRANCH  42  43
ENDBRANCH  35  37
ENDBRANCH  34  35
ENDBRANCH  33  34
ENDBRANCH   1  33
TORSDOF 18
ENDMDL
MODEL 3
REMARK VINA RESULT:     -13.6      3.776      9.172
REMARK SMILES Cc1c(C(=O)OCCOC(=O)c2ccc(-c3c4nc(c(-c5cc(S(=O)(=O)[O-])ccc5F)c5ccc([nH]5)c(-c5cc(S(=O)(=O)[O-])ccc5F)c5nc(c(-c6cc(S(=O)(=O)[O-])ccc6F)c6ccc3[nH]6)C=C5)C=C4)cc2)oc2c1/C(=N/NC(=O)C(c1ccccc1)c1ccccc1)CCC2
REMARK SMILES IDX 7 1 6 2 4 3 5 4 3 5 1 6 2 7 77 8 75 9 76 10 78 11 98 12
REMARK SMILES IDX 79 13 96 14 97 15 80 16 81 17 82 19 83 20 84 21 85 22 89 23
REMARK SMILES IDX 86 24 88 25 87 26 90 27 91 28 95 29 92 30 94 31 93 32 8 33
REMARK SMILES IDX 9 34 10 35 11 36 12 37 13 38 74 39 14 40 73 41 15 42 16 43
REMARK SMILES IDX 17 44 67 45 18 46 72 47 66 48 68 49 19 50 71 51 65 52 64 53
REMARK SMILES IDX 20 55 52 56 32 57 51 58 33 59 36 60 50 61 69 62 34 63 35 64
REMARK SMILES IDX 49 66 70 67 37 68 21 69 22 70 30 71 23 72 29 73 31 74 28 75
REMARK SMILES IDX 24 76 25 77 26 78 27 79 53 80 54 81 62 82 55 83 61 84 63 85
REMARK SMILES IDX 60 86 56 87 57 88 58 89 59 90 38 91 39 92 47 93 40 94 46 95
REMARK SMILES IDX 48 96 45 97 41 98 42 99 43 100 44 101
REMARK H PARENT 80 18 68 54 36 65
REMARK Flexibility Score: inf
ROOT
ATOM      1  C   UNL A   1      33.589  30.370  27.256  1.00  0.00     0.275 C 
ENDROOT
BRANCH   1   2
ATOM      2  O   UNL A   1      32.255  29.883  27.189  1.00  0.00    -0.456 OA
BRANCH   2   3
ATOM      3  C   UNL A   1      31.746  29.615  25.957  1.00  0.00     0.374 C 
ATOM      4  O   UNL A   1      31.308  30.455  25.166  1.00  0.00    -0.242 OA
BRANCH   3   5
ATOM      5  C   UNL A   1      31.866  28.208  25.729  1.00  0.00     0.215 A 
ATOM      6  C   UNL A   1      34.159  27.868  24.591  1.00  0.00     0.049 C 
ATOM      7  C   UNL A   1      32.857  27.417  25.155  1.00  0.00     0.012 A 
ATOM      8  C   UNL A   1      32.323  26.098  25.200  1.00  0.00     0.043 A 
ATOM      9  O   UNL A   1      30.830  27.438  26.180  1.00  0.00    -0.453 OA
ATOM     10  C   UNL A   1      31.125  26.174  25.873  1.00  0.00     0.114 A 
ATOM     11  C   UNL A   1      32.727  24.850  24.578  1.00  0.00     0.072 C 
ATOM     12  C   UNL A   1      30.102  25.148  26.147  1.00  0.00     0.076 C 
ATOM     13  N   UNL A   1      33.967  24.900  24.164  1.00  0.00    -0.177 NA
ATOM     14  C   UNL A   1      31.473  23.935  24.436  1.00  0.00     0.059 C 
ATOM     15  C   UNL A   1      30.657  23.794  25.730  1.00  0.00     0.014 C 
BRANCH  13  16
ATOM     16  N   UNL A   1      34.852  24.172  23.394  1.00  0.00    -0.246 N 
ATOM     17  C   UNL A   1      35.604  23.030  23.580  1.00  0.00     0.252 C 
ATOM     18  H   UNL A   1      34.976  24.560  22.497  1.00  0.00     0.193 HD
ATOM     19  O   UNL A   1      36.303  22.585  22.665  1.00  0.00    -0.272 OA
BRANCH  17  20
ATOM     20  C   UNL A   1      35.538  22.340  24.920  1.00  0.00     0.140 C 
BRANCH  20  21
ATOM     21  C   UNL A   1      34.658  21.000  24.717  1.00  0.00    -0.031 A 
ATOM     22  C   UNL A   1      35.171  19.702  24.844  1.00  0.00     0.005 A 
ATOM     23  C   UNL A   1      33.258  21.032  24.417  1.00  0.00     0.005 A 
ATOM     24  C   UNL A   1      34.374  18.563  24.541  1.00  0.00     0.000 A 
ATOM     25  C   UNL A   1      32.498  19.927  24.015  1.00  0.00     0.000 A 
ATOM     26  C   UNL A   1      33.065  18.676  24.067  1.00  0.00     0.000 A 
ENDBRANCH  20  21
BRANCH  20  27
ATOM     27  C   UNL A   1      37.010  22.509  25.571  1.00  0.00    -0.031 A 
ATOM     28  C   UNL A   1      38.037  21.516  25.470  1.00  0.00     0.005 A 
ATOM     29  C   UNL A   1      37.458  23.696  26.163  1.00  0.00     0.005 A 
ATOM     30  C   UNL A   1      39.278  21.562  26.119  1.00  0.00     0.000 A 
ATOM     31  C   UNL A   1      38.765  23.802  26.717  1.00  0.00     0.000 A 
ATOM     32  C   UNL A   1      39.646  22.719  26.756  1.00  0.00     0.000 A 
ENDBRANCH  20  27
ENDBRANCH  17  20
ENDBRANCH  13  16
ENDBRANCH   3   5
ENDBRANCH   2   3
ENDBRANCH   1   2
BRANCH   1  33
ATOM     33  C   UNL A   1      34.533  29.264  27.700  1.00  0.00     0.275 C 
BRANCH  33  34
ATOM     34  O   UNL A   1      35.884  29.612  27.409  1.00  0.00    -0.458 OA
BRANCH  34  35
ATOM     35  C   UNL A   1      36.678  29.830  28.484  1.00  0.00     0.338 C 
ATOM     36  O   UNL A   1      36.501  30.625  29.387  1.00  0.00    -0.246 OA
BRANCH  35  37
ATOM     37  C   UNL A   1      37.922  29.089  28.288  1.00  0.00     0.060 A 
ATOM     38  C   UNL A   1      38.343  28.202  29.279  1.00  0.00     0.016 A 
ATOM     39  C   UNL A   1      38.764  29.492  27.241  1.00  0.00     0.016 A 
ATOM     40  C   UNL A   1      39.671  27.821  29.289  1.00  0.00     0.010 A 
ATOM     41  C   UNL A   1      40.081  29.121  27.258  1.00  0.00     0.010 A 
ATOM     42  C   UNL A   1      40.539  28.349  28.320  1.00  0.00    -0.014 A 
BRANCH  42  43
ATOM     43  C   UNL A   1      41.927  27.935  28.311  1.00  0.00     0.031 A 
ATOM     44  C   UNL A   1      42.115  26.665  27.572  1.00  0.00     0.074 A 
ATOM     45  C   UNL A   1      42.927  28.707  28.783  1.00  0.00     0.049 A 
ATOM     46  N   UNL A   1      42.443  25.525  28.075  1.00  0.00    -0.248 NA
ATOM     47  C   UNL A   1      41.669  26.589  26.169  1.00  0.00     0.031 C 
ATOM     48  C   UNL A   1      42.859  30.066  29.324  1.00  0.00     0.029 A 
ATOM     49  N   UNL A   1      44.263  28.455  28.793  1.00  0.00    -0.354 N 
ATOM     50  C   UNL A   1      42.502  24.645  27.003  1.00  0.00     0.074 A 
ATOM     51  C   UNL A   1      41.809  25.286  25.920  1.00  0.00     0.031 C 
ATOM     52  C   UNL A   1      44.106  30.594  29.377  1.00  0.00     0.029 A 
ATOM     53  C   UNL A   1      45.071  29.572  29.000  1.00  0.00     0.049 A 
ATOM     54  H   UNL A   1      44.632  27.552  28.663  1.00  0.00     0.167 HD
ATOM     55  C   UNL A   1      43.352  23.584  27.032  1.00  0.00     0.034 A 
ATOM     56  C   UNL A   1      46.423  29.650  28.824  1.00  0.00     0.034 A 
ATOM     57  C   UNL A   1      43.783  23.310  28.385  1.00  0.00     0.049 A 
ATOM     58  C   UNL A   1      46.933  28.254  28.899  1.00  0.00     0.074 A 
ATOM     59  C   UNL A   1      43.120  22.992  29.557  1.00  0.00     0.029 A 
ATOM     60  N   UNL A   1      45.025  23.766  28.774  1.00  0.00    -0.354 N 
ATOM     61  N   UNL A   1      46.888  27.546  29.995  1.00  0.00    -0.248 NA
ATOM     62  C   UNL A   1      46.976  27.477  27.666  1.00  0.00     0.031 C 
ATOM     63  C   UNL A   1      43.784  23.749  30.567  1.00  0.00     0.029 A 
ATOM     64  C   UNL A   1      44.875  24.398  29.986  1.00  0.00     0.049 A 
ATOM     65  H   UNL A   1      45.866  23.661  28.273  1.00  0.00     0.167 HD
ATOM     66  C   UNL A   1      46.440  26.296  29.597  1.00  0.00     0.074 A 
ATOM     67  C   UNL A   1      46.593  26.286  28.140  1.00  0.00     0.031 C 
ATOM     68  C   UNL A   1      45.704  25.504  30.434  1.00  0.00     0.034 A 
BRANCH  55  69
ATOM     69  C   UNL A   1      44.093  23.060  25.826  1.00  0.00     0.023 A 
ATOM     70  C   UNL A   1      43.996  21.682  25.568  1.00  0.00     0.031 A 
ATOM     71  C   UNL A   1      45.105  23.752  25.119  1.00  0.00     0.131 A 
ATOM     72  C   UNL A   1      44.933  21.037  24.745  1.00  0.00     0.055 A 
ATOM     73  C   UNL A   1      45.990  23.116  24.246  1.00  0.00     0.041 A 
ATOM     74  F   UNL A   1      45.362  25.052  25.300  1.00  0.00    -0.206 F 
ATOM     75  C   UNL A   1      45.932  21.744  24.082  1.00  0.00     0.022 A 
BRANCH  72  76
ATOM     76  S   UNL A   1      44.934  19.228  24.708  1.00  0.00     0.124 S 
ATOM     77  O   UNL A   1      43.725  18.918  25.464  1.00  0.00    -0.237 OA
ATOM     78  O   UNL A   1      44.885  18.958  23.275  1.00  0.00    -0.237 OA
ATOM     79  O   UNL A   1      46.190  18.877  25.366  1.00  0.00    -0.744 OA
ENDBRANCH  72  76
ENDBRANCH  55  69
BRANCH  56  80
ATOM     80  C   UNL A   1      47.219  30.784  28.260  1.00  0.00     0.023 A 
ATOM     81  C   UNL A   1      46.683  31.757  27.379  1.00  0.00     0.031 A 
ATOM     82  C   UNL A   1      48.494  31.069  28.800  1.00  0.00     0.131 A 
ATOM     83  C   UNL A   1      47.413  32.939  27.082  1.00  0.00     0.055 A 
ATOM     84  C   UNL A   1      49.204  32.237  28.509  1.00  0.00     0.041 A 
ATOM     85  F   UNL A   1      49.061  30.258  29.707  1.00  0.00    -0.206 F 
ATOM     86  C   UNL A   1      48.662  33.183  27.657  1.00  0.00     0.022 A 
BRANCH  83  87
ATOM     87  S   UNL A   1      46.715  34.237  26.000  1.00  0.00     0.124 S 
ATOM     88  O   UNL A   1      45.577  33.558  25.393  1.00  0.00    -0.237 OA
ATOM     89  O   UNL A   1      46.408  35.305  26.943  1.00  0.00    -0.237 OA
ATOM     90  O   UNL A   1      47.810  34.539  25.076  1.00  0.00    -0.744 OA
ENDBRANCH  83  87
ENDBRANCH  56  80
BRANCH  68  91
ATOM     91  C   UNL A   1      45.589  25.907  31.895  1.00  0.00     0.023 A 
ATOM     92  C   UNL A   1      44.423  26.423  32.514  1.00  0.00     0.031 A 
ATOM     93  C   UNL A   1      46.694  25.640  32.722  1.00  0.00     0.131 A 
ATOM     94  C   UNL A   1      44.409  26.668  33.903  1.00  0.00     0.055 A 
ATOM     95  C   UNL A   1      46.668  25.858  34.097  1.00  0.00     0.041 A 
ATOM     96  F   UNL A   1      47.823  25.127  32.203  1.00  0.00    -0.206 F 
ATOM     97  C   UNL A   1      45.527  26.381  34.694  1.00  0.00     0.022 A 
BRANCH  94  98
ATOM     98  S   UNL A   1      42.946  27.399  34.713  1.00  0.00     0.124 S 
ATOM     99  O   UNL A   1      43.514  28.185  35.802  1.00  0.00    -0.237 OA
ATOM    100  O   UNL A   1      42.329  28.158  33.629  1.00  0.00    -0.237 OA
ATOM    101  O   UNL A   1      42.179  26.229  35.146  1.00  0.00    -0.744 OA
ENDBRANCH  94  98
ENDBRANCH  68  91
ENDBRANCH  42  43
ENDBRANCH  35  37
ENDBRANCH  34  35
ENDBRANCH  33  34
ENDBRANCH   1  33
TORSDOF 18
ENDMDL
