MODEL 1
REMARK VINA RESULT:     -11.5      0.000      0.000
REMARK SMILES CC(C)[C@@H](C(=O)OCCOC(=O)c1ccc(-c2c3nc(c(-c4cc(S(=O)(=O)[O-])ccc4F)c4ccc([nH]4)c(-c4cc(S(=O)(=O)[O-])ccc4F)c4nc(c(-c5cc(S(=O)(=O)[O-])ccc5F)c5ccc2[nH]5)C=C4)C=C3)cc1)N1C(=O)/C(=C\c2ccc([N+](=O)[O-])cc2)SC1=S
REMARK SMILES IDX 8 1 7 2 5 3 6 4 4 5 2 6 1 7 3 8 76 9 77 10 91 11 78 12 79 13
REMARK SMILES IDX 90 14 92 15 80 16 81 17 82 18 89 19 83 20 88 21 84 22 85 23
REMARK SMILES IDX 86 24 87 25 9 26 10 27 11 28 12 29 13 30 14 31 75 32 15 33
REMARK SMILES IDX 74 34 16 35 17 36 18 37 68 38 19 39 73 40 67 41 69 42 20 43
REMARK SMILES IDX 72 44 66 45 65 46 21 48 53 49 33 50 52 51 34 52 37 53 51 54
REMARK SMILES IDX 70 55 35 56 36 57 50 59 71 60 38 61 22 62 23 63 31 64 24 65
REMARK SMILES IDX 30 66 32 67 29 68 25 69 26 70 27 71 28 72 54 73 55 74 63 75
REMARK SMILES IDX 56 76 62 77 64 78 61 79 57 80 58 81 59 82 60 83 39 84 40 85
REMARK SMILES IDX 48 86 41 87 47 88 49 89 46 90 42 91 43 92 44 93 45 94
REMARK H PARENT 69 47 37 58
REMARK Flexibility Score: inf
ROOT
ATOM      1  C   UNL A   1      31.960  29.367  25.219  1.00  0.00     0.274 C 
ENDROOT
BRANCH   1   2
ATOM      2  O   UNL A   1      30.836  29.235  24.322  1.00  0.00    -0.461 OA
BRANCH   2   3
ATOM      3  C   UNL A   1      30.812  28.137  23.523  1.00  0.00     0.329 C 
ATOM      4  O   UNL A   1      29.794  27.834  22.920  1.00  0.00    -0.250 OA
BRANCH   3   5
ATOM      5  C   UNL A   1      32.136  27.286  23.554  1.00  0.00     0.204 C 
BRANCH   5   6
ATOM      6  C   UNL A   1      32.977  27.660  22.232  1.00  0.00     0.017 C 
ATOM      7  C   UNL A   1      34.354  28.287  22.568  1.00  0.00     0.010 C 
ATOM      8  C   UNL A   1      33.278  26.557  21.210  1.00  0.00     0.010 C 
ENDBRANCH   5   6
BRANCH   5   9
ATOM      9  N   UNL A   1      31.836  25.804  23.672  1.00  0.00    -0.278 N 
ATOM     10  C   UNL A   1      32.874  24.898  23.803  1.00  0.00     0.267 C 
ATOM     11  C   UNL A   1      30.782  25.191  24.304  1.00  0.00     0.149 C 
ATOM     12  O   UNL A   1      34.004  25.176  24.179  1.00  0.00    -0.268 OA
ATOM     13  C   UNL A   1      32.368  23.490  23.625  1.00  0.00     0.081 C 
ATOM     14  S   UNL A   1      30.651  23.570  23.602  1.00  0.00    -0.054 SA
ATOM     15  S   UNL A   1      30.011  25.573  25.739  1.00  0.00    -0.052 S 
ATOM     16  C   UNL A   1      33.028  22.327  23.690  1.00  0.00     0.029 C 
BRANCH  16  17
ATOM     17  C   UNL A   1      34.408  22.250  24.154  1.00  0.00    -0.024 A 
ATOM     18  C   UNL A   1      35.487  22.558  23.325  1.00  0.00     0.015 A 
ATOM     19  C   UNL A   1      34.622  21.914  25.501  1.00  0.00     0.015 A 
ATOM     20  C   UNL A   1      36.779  22.594  23.860  1.00  0.00     0.086 A 
ATOM     21  C   UNL A   1      35.901  21.961  26.044  1.00  0.00     0.086 A 
ATOM     22  C   UNL A   1      36.974  22.321  25.224  1.00  0.00     0.269 A 
BRANCH  22  23
ATOM     23  N   UNL A   1      38.311  22.447  25.811  1.00  0.00     0.062 N 
ATOM     24  O   UNL A   1      38.628  23.538  26.304  1.00  0.00    -0.258 OA
ATOM     25  O   UNL A   1      39.049  21.449  25.789  1.00  0.00    -0.258 OA
ENDBRANCH  22  23
ENDBRANCH  16  17
ENDBRANCH   5   9
ENDBRANCH   3   5
ENDBRANCH   2   3
ENDBRANCH   1   2
BRANCH   1  26
ATOM     26  C   UNL A   1      31.766  30.529  26.191  1.00  0.00     0.275 C 
BRANCH  26  27
ATOM     27  O   UNL A   1      32.738  30.468  27.250  1.00  0.00    -0.458 OA
BRANCH  27  28
ATOM     28  C   UNL A   1      33.455  31.593  27.465  1.00  0.00     0.338 C 
ATOM     29  O   UNL A   1      33.063  32.749  27.346  1.00  0.00    -0.246 OA
BRANCH  28  30
ATOM     30  C   UNL A   1      34.819  31.251  27.903  1.00  0.00     0.060 A 
ATOM     31  C   UNL A   1      35.099  29.960  28.337  1.00  0.00     0.016 A 
ATOM     32  C   UNL A   1      35.792  32.243  28.011  1.00  0.00     0.016 A 
ATOM     33  C   UNL A   1      36.309  29.684  28.973  1.00  0.00     0.010 A 
ATOM     34  C   UNL A   1      37.044  31.931  28.563  1.00  0.00     0.010 A 
ATOM     35  C   UNL A   1      37.307  30.657  29.101  1.00  0.00    -0.014 A 
BRANCH  35  36
ATOM     36  C   UNL A   1      38.571  30.383  29.861  1.00  0.00     0.031 A 
ATOM     37  C   UNL A   1      39.648  29.531  29.227  1.00  0.00     0.074 A 
ATOM     38  C   UNL A   1      38.810  30.903  31.084  1.00  0.00     0.049 A 
ATOM     39  N   UNL A   1      40.636  28.883  29.788  1.00  0.00    -0.248 NA
ATOM     40  C   UNL A   1      39.585  29.378  27.765  1.00  0.00     0.031 C 
ATOM     41  C   UNL A   1      37.949  31.846  31.799  1.00  0.00     0.029 A 
ATOM     42  N   UNL A   1      39.869  30.716  31.946  1.00  0.00    -0.354 N 
ATOM     43  C   UNL A   1      41.252  28.165  28.765  1.00  0.00     0.074 A 
ATOM     44  C   UNL A   1      40.535  28.480  27.546  1.00  0.00     0.031 C 
ATOM     45  C   UNL A   1      38.536  32.200  32.951  1.00  0.00     0.029 A 
ATOM     46  C   UNL A   1      39.735  31.392  33.139  1.00  0.00     0.049 A 
ATOM     47  H   UNL A   1      40.647  30.153  31.731  1.00  0.00     0.167 HD
ATOM     48  C   UNL A   1      42.303  27.310  28.847  1.00  0.00     0.034 A 
ATOM     49  C   UNL A   1      40.435  31.314  34.291  1.00  0.00     0.034 A 
ATOM     50  C   UNL A   1      43.048  27.075  30.061  1.00  0.00     0.049 A 
ATOM     51  C   UNL A   1      41.555  30.313  34.392  1.00  0.00     0.074 A 
ATOM     52  C   UNL A   1      44.107  26.208  30.275  1.00  0.00     0.029 A 
ATOM     53  N   UNL A   1      42.832  27.736  31.263  1.00  0.00    -0.354 N 
ATOM     54  N   UNL A   1      42.016  29.496  33.473  1.00  0.00    -0.248 NA
ATOM     55  C   UNL A   1      42.225  30.193  35.694  1.00  0.00     0.031 C 
ATOM     56  C   UNL A   1      44.498  26.310  31.615  1.00  0.00     0.029 A 
ATOM     57  C   UNL A   1      43.727  27.287  32.222  1.00  0.00     0.049 A 
ATOM     58  H   UNL A   1      42.143  28.423  31.413  1.00  0.00     0.167 HD
ATOM     59  C   UNL A   1      43.030  28.768  34.087  1.00  0.00     0.074 A 
ATOM     60  C   UNL A   1      43.129  29.255  35.447  1.00  0.00     0.031 C 
ATOM     61  C   UNL A   1      43.807  27.781  33.575  1.00  0.00     0.034 A 
BRANCH  48  62
ATOM     62  C   UNL A   1      42.644  26.502  27.618  1.00  0.00     0.023 A 
ATOM     63  C   UNL A   1      42.354  25.132  27.505  1.00  0.00     0.031 A 
ATOM     64  C   UNL A   1      43.308  27.123  26.542  1.00  0.00     0.131 A 
ATOM     65  C   UNL A   1      42.786  24.416  26.376  1.00  0.00     0.055 A 
ATOM     66  C   UNL A   1      43.665  26.424  25.388  1.00  0.00     0.041 A 
ATOM     67  F   UNL A   1      43.632  28.424  26.600  1.00  0.00    -0.206 F 
ATOM     68  C   UNL A   1      43.417  25.058  25.307  1.00  0.00     0.022 A 
BRANCH  65  69
ATOM     69  S   UNL A   1      42.641  22.608  26.385  1.00  0.00     0.124 S 
ATOM     70  O   UNL A   1      43.990  22.204  26.776  1.00  0.00    -0.237 OA
ATOM     71  O   UNL A   1      41.596  22.381  27.376  1.00  0.00    -0.237 OA
ATOM     72  O   UNL A   1      42.277  22.285  25.007  1.00  0.00    -0.744 OA
ENDBRANCH  65  69
ENDBRANCH  48  62
BRANCH  49  73
ATOM     73  C   UNL A   1      40.013  32.110  35.483  1.00  0.00     0.023 A 
ATOM     74  C   UNL A   1      39.103  31.597  36.422  1.00  0.00     0.031 A 
ATOM     75  C   UNL A   1      40.498  33.416  35.687  1.00  0.00     0.131 A 
ATOM     76  C   UNL A   1      38.698  32.390  37.508  1.00  0.00     0.055 A 
ATOM     77  C   UNL A   1      40.142  34.176  36.800  1.00  0.00     0.041 A 
ATOM     78  F   UNL A   1      41.356  33.967  34.811  1.00  0.00    -0.206 F 
ATOM     79  C   UNL A   1      39.228  33.666  37.716  1.00  0.00     0.022 A 
BRANCH  76  80
ATOM     80  S   UNL A   1      37.401  31.764  38.611  1.00  0.00     0.124 S 
ATOM     81  O   UNL A   1      37.170  30.430  38.070  1.00  0.00    -0.237 OA
ATOM     82  O   UNL A   1      38.054  31.824  39.915  1.00  0.00    -0.237 OA
ATOM     83  O   UNL A   1      36.305  32.712  38.422  1.00  0.00    -0.744 OA
ENDBRANCH  76  80
ENDBRANCH  49  73
BRANCH  61  84
ATOM     84  C   UNL A   1      44.862  27.203  34.479  1.00  0.00     0.023 A 
ATOM     85  C   UNL A   1      44.644  26.020  35.206  1.00  0.00     0.031 A 
ATOM     86  C   UNL A   1      46.104  27.847  34.609  1.00  0.00     0.131 A 
ATOM     87  C   UNL A   1      45.645  25.536  36.062  1.00  0.00     0.055 A 
ATOM     88  C   UNL A   1      47.111  27.337  35.429  1.00  0.00     0.041 A 
ATOM     89  F   UNL A   1      46.360  28.980  33.935  1.00  0.00    -0.206 F 
ATOM     90  C   UNL A   1      46.882  26.180  36.167  1.00  0.00     0.022 A 
BRANCH  87  91
ATOM     91  S   UNL A   1      45.295  24.074  37.077  1.00  0.00     0.124 S 
ATOM     92  O   UNL A   1      44.517  24.644  38.172  1.00  0.00    -0.237 OA
ATOM     93  O   UNL A   1      44.562  23.216  36.152  1.00  0.00    -0.237 OA
ATOM     94  O   UNL A   1      46.624  23.588  37.449  1.00  0.00    -0.744 OA
ENDBRANCH  87  91
ENDBRANCH  61  84
ENDBRANCH  35  36
ENDBRANCH  28  30
ENDBRANCH  27  28
ENDBRANCH  26  27
ENDBRANCH   1  26
TORSDOF 18
ENDMDL
MODEL 2
REMARK VINA RESULT:     -11.2      1.850      2.116
REMARK SMILES CC(C)[C@@H](C(=O)OCCOC(=O)c1ccc(-c2c3nc(c(-c4cc(S(=O)(=O)[O-])ccc4F)c4ccc([nH]4)c(-c4cc(S(=O)(=O)[O-])ccc4F)c4nc(c(-c5cc(S(=O)(=O)[O-])ccc5F)c5ccc2[nH]5)C=C4)C=C3)cc1)N1C(=O)/C(=C\c2ccc([N+](=O)[O-])cc2)SC1=S
REMARK SMILES IDX 8 1 7 2 5 3 6 4 4 5 2 6 1 7 3 8 76 9 77 10 91 11 78 12 79 13
REMARK SMILES IDX 90 14 92 15 80 16 81 17 82 18 89 19 83 20 88 21 84 22 85 23
REMARK SMILES IDX 86 24 87 25 9 26 10 27 11 28 12 29 13 30 14 31 75 32 15 33
REMARK SMILES IDX 74 34 16 35 17 36 18 37 68 38 19 39 73 40 67 41 69 42 20 43
REMARK SMILES IDX 72 44 66 45 65 46 21 48 53 49 33 50 52 51 34 52 37 53 51 54
REMARK SMILES IDX 70 55 35 56 36 57 50 59 71 60 38 61 22 62 23 63 31 64 24 65
REMARK SMILES IDX 30 66 32 67 29 68 25 69 26 70 27 71 28 72 54 73 55 74 63 75
REMARK SMILES IDX 56 76 62 77 64 78 61 79 57 80 58 81 59 82 60 83 39 84 40 85
REMARK SMILES IDX 48 86 41 87 47 88 49 89 46 90 42 91 43 92 44 93 45 94
REMARK H PARENT 69 47 37 58
REMARK Flexibility Score: inf
ROOT
ATOM      1  C   UNL A   1      31.786  29.525  25.002  1.00  0.00     0.274 C 
ENDROOT
BRANCH   1   2
ATOM      2  O   UNL A   1      30.667  29.294  24.119  1.00  0.00    -0.461 OA
BRANCH   2   3
ATOM      3  C   UNL A   1      30.709  28.173  23.352  1.00  0.00     0.329 C 
ATOM      4  O   UNL A   1      29.726  27.821  22.718  1.00  0.00    -0.250 OA
BRANCH   3   5
ATOM      5  C   UNL A   1      32.057  27.367  23.460  1.00  0.00     0.204 C 
BRANCH   5   6
ATOM      6  C   UNL A   1      32.936  27.726  22.160  1.00  0.00     0.017 C 
ATOM      7  C   UNL A   1      34.309  28.344  22.529  1.00  0.00     0.010 C 
ATOM      8  C   UNL A   1      33.255  26.615  21.152  1.00  0.00     0.010 C 
ENDBRANCH   5   6
BRANCH   5   9
ATOM      9  N   UNL A   1      31.798  25.880  23.614  1.00  0.00    -0.278 N 
ATOM     10  C   UNL A   1      32.860  25.009  23.788  1.00  0.00     0.267 C 
ATOM     11  C   UNL A   1      30.752  25.254  24.246  1.00  0.00     0.149 C 
ATOM     12  O   UNL A   1      33.975  25.331  24.175  1.00  0.00    -0.268 OA
ATOM     13  C   UNL A   1      32.398  23.583  23.640  1.00  0.00     0.081 C 
ATOM     14  S   UNL A   1      30.681  23.611  23.587  1.00  0.00    -0.054 SA
ATOM     15  S   UNL A   1      29.945  25.652  25.656  1.00  0.00    -0.052 S 
ATOM     16  C   UNL A   1      33.091  22.442  23.749  1.00  0.00     0.029 C 
BRANCH  16  17
ATOM     17  C   UNL A   1      34.465  22.418  24.237  1.00  0.00    -0.024 A 
ATOM     18  C   UNL A   1      35.553  22.674  23.402  1.00  0.00     0.015 A 
ATOM     19  C   UNL A   1      34.661  22.192  25.609  1.00  0.00     0.015 A 
ATOM     20  C   UNL A   1      36.836  22.768  23.952  1.00  0.00     0.086 A 
ATOM     21  C   UNL A   1      35.931  22.297  26.166  1.00  0.00     0.086 A 
ATOM     22  C   UNL A   1      37.012  22.606  25.335  1.00  0.00     0.269 A 
BRANCH  22  23
ATOM     23  N   UNL A   1      38.339  22.793  25.931  1.00  0.00     0.062 N 
ATOM     24  O   UNL A   1      39.097  21.814  25.977  1.00  0.00    -0.258 OA
ATOM     25  O   UNL A   1      38.631  23.924  26.348  1.00  0.00    -0.258 OA
ENDBRANCH  22  23
ENDBRANCH  16  17
ENDBRANCH   5   9
ENDBRANCH   3   5
ENDBRANCH   2   3
ENDBRANCH   1   2
BRANCH   1  26
ATOM     26  C   UNL A   1      31.420  30.489  26.129  1.00  0.00     0.275 C 
BRANCH  26  27
ATOM     27  O   UNL A   1      32.427  30.468  27.157  1.00  0.00    -0.458 OA
BRANCH  27  28
ATOM     28  C   UNL A   1      33.111  31.618  27.343  1.00  0.00     0.338 C 
ATOM     29  O   UNL A   1      32.689  32.758  27.184  1.00  0.00    -0.246 OA
BRANCH  28  30
ATOM     30  C   UNL A   1      34.478  31.327  27.805  1.00  0.00     0.060 A 
ATOM     31  C   UNL A   1      34.811  30.036  28.205  1.00  0.00     0.016 A 
ATOM     32  C   UNL A   1      35.399  32.360  27.970  1.00  0.00     0.016 A 
ATOM     33  C   UNL A   1      36.016  29.797  28.862  1.00  0.00     0.010 A 
ATOM     34  C   UNL A   1      36.651  32.090  28.544  1.00  0.00     0.010 A 
ATOM     35  C   UNL A   1      36.963  30.813  29.048  1.00  0.00    -0.014 A 
BRANCH  35  36
ATOM     36  C   UNL A   1      38.220  30.574  29.831  1.00  0.00     0.031 A 
ATOM     37  C   UNL A   1      39.322  29.735  29.226  1.00  0.00     0.074 A 
ATOM     38  C   UNL A   1      38.429  31.115  31.050  1.00  0.00     0.049 A 
ATOM     39  N   UNL A   1      40.314  29.114  29.812  1.00  0.00    -0.248 NA
ATOM     40  C   UNL A   1      39.287  29.560  27.766  1.00  0.00     0.031 C 
ATOM     41  C   UNL A   1      37.538  32.051  31.738  1.00  0.00     0.029 A 
ATOM     42  N   UNL A   1      39.478  30.961  31.931  1.00  0.00    -0.354 N 
ATOM     43  C   UNL A   1      40.960  28.395  28.808  1.00  0.00     0.074 A 
ATOM     44  C   UNL A   1      40.257  28.678  27.574  1.00  0.00     0.031 C 
ATOM     45  C   UNL A   1      38.100  32.432  32.895  1.00  0.00     0.029 A 
ATOM     46  C   UNL A   1      39.311  31.651  33.112  1.00  0.00     0.049 A 
ATOM     47  H   UNL A   1      40.269  30.411  31.736  1.00  0.00     0.167 HD
ATOM     48  C   UNL A   1      42.026  27.562  28.919  1.00  0.00     0.034 A 
ATOM     49  C   UNL A   1      39.994  31.602  34.276  1.00  0.00     0.034 A 
ATOM     50  C   UNL A   1      42.757  27.358  30.148  1.00  0.00     0.049 A 
ATOM     51  C   UNL A   1      41.132  30.626  34.408  1.00  0.00     0.074 A 
ATOM     52  C   UNL A   1      43.829  26.516  30.390  1.00  0.00     0.029 A 
ATOM     53  N   UNL A   1      42.509  28.031  31.337  1.00  0.00    -0.354 N 
ATOM     54  N   UNL A   1      41.623  29.805  33.509  1.00  0.00    -0.248 NA
ATOM     55  C   UNL A   1      41.783  30.536  35.722  1.00  0.00     0.031 C 
ATOM     56  C   UNL A   1      44.196  26.644  31.734  1.00  0.00     0.029 A 
ATOM     57  C   UNL A   1      43.396  27.613  32.316  1.00  0.00     0.049 A 
ATOM     58  H   UNL A   1      41.804  28.707  31.466  1.00  0.00     0.167 HD
ATOM     59  C   UNL A   1      42.642  29.106  34.149  1.00  0.00     0.074 A 
ATOM     60  C   UNL A   1      42.709  29.614  35.503  1.00  0.00     0.031 C 
ATOM     61  C   UNL A   1      43.445  28.127  33.663  1.00  0.00     0.034 A 
BRANCH  48  62
ATOM     62  C   UNL A   1      42.402  26.743  27.707  1.00  0.00     0.023 A 
ATOM     63  C   UNL A   1      42.193  25.357  27.632  1.00  0.00     0.031 A 
ATOM     64  C   UNL A   1      43.019  27.375  26.608  1.00  0.00     0.131 A 
ATOM     65  C   UNL A   1      42.655  24.639  26.516  1.00  0.00     0.055 A 
ATOM     66  C   UNL A   1      43.405  26.668  25.468  1.00  0.00     0.041 A 
ATOM     67  F   UNL A   1      43.266  28.694  26.630  1.00  0.00    -0.206 F 
ATOM     68  C   UNL A   1      43.238  25.289  25.424  1.00  0.00     0.022 A 
BRANCH  65  69
ATOM     69  S   UNL A   1      42.617  22.826  26.572  1.00  0.00     0.124 S 
ATOM     70  O   UNL A   1      43.995  22.512  26.942  1.00  0.00    -0.237 OA
ATOM     71  O   UNL A   1      41.608  22.564  27.592  1.00  0.00    -0.237 OA
ATOM     72  O   UNL A   1      42.243  22.447  25.211  1.00  0.00    -0.744 OA
ENDBRANCH  65  69
ENDBRANCH  48  62
BRANCH  49  73
ATOM     73  C   UNL A   1      39.538  32.407  35.450  1.00  0.00     0.023 A 
ATOM     74  C   UNL A   1      39.943  33.739  35.627  1.00  0.00     0.031 A 
ATOM     75  C   UNL A   1      38.702  31.840  36.432  1.00  0.00     0.131 A 
ATOM     76  C   UNL A   1      39.527  34.451  36.764  1.00  0.00     0.055 A 
ATOM     77  C   UNL A   1      38.241  32.570  37.526  1.00  0.00     0.041 A 
ATOM     78  F   UNL A   1      38.298  30.563  36.327  1.00  0.00    -0.206 F 
ATOM     79  C   UNL A   1      38.661  33.884  37.702  1.00  0.00     0.022 A 
BRANCH  76  80
ATOM     80  S   UNL A   1      40.198  36.113  37.048  1.00  0.00     0.124 S 
ATOM     81  O   UNL A   1      39.365  36.584  38.149  1.00  0.00    -0.237 OA
ATOM     82  O   UNL A   1      41.591  35.829  37.372  1.00  0.00    -0.237 OA
ATOM     83  O   UNL A   1      39.982  36.790  35.770  1.00  0.00    -0.744 OA
ENDBRANCH  76  80
ENDBRANCH  49  73
BRANCH  61  84
ATOM     84  C   UNL A   1      44.497  27.583  34.592  1.00  0.00     0.023 A 
ATOM     85  C   UNL A   1      45.766  28.176  34.697  1.00  0.00     0.031 A 
ATOM     86  C   UNL A   1      44.219  26.456  35.384  1.00  0.00     0.131 A 
ATOM     87  C   UNL A   1      46.727  27.615  35.552  1.00  0.00     0.055 A 
ATOM     88  C   UNL A   1      45.163  25.928  36.264  1.00  0.00     0.041 A 
ATOM     89  F   UNL A   1      43.020  25.855  35.318  1.00  0.00    -0.206 F 
ATOM     90  C   UNL A   1      46.428  26.503  36.347  1.00  0.00     0.022 A 
BRANCH  87  91
ATOM     91  S   UNL A   1      48.395  28.328  35.583  1.00  0.00     0.124 S 
ATOM     92  O   UNL A   1      49.187  27.274  34.957  1.00  0.00    -0.237 OA
ATOM     93  O   UNL A   1      48.228  29.551  34.803  1.00  0.00    -0.237 OA
ATOM     94  O   UNL A   1      48.653  28.535  37.007  1.00  0.00    -0.744 OA
ENDBRANCH  87  91
ENDBRANCH  61  84
ENDBRANCH  35  36
ENDBRANCH  28  30
ENDBRANCH  27  28
ENDBRANCH  26  27
ENDBRANCH   1  26
TORSDOF 18
ENDMDL
MODEL 3
REMARK VINA RESULT:     -11.1      5.174      7.913
REMARK SMILES CC(C)[C@@H](C(=O)OCCOC(=O)c1ccc(-c2c3nc(c(-c4cc(S(=O)(=O)[O-])ccc4F)c4ccc([nH]4)c(-c4cc(S(=O)(=O)[O-])ccc4F)c4nc(c(-c5cc(S(=O)(=O)[O-])ccc5F)c5ccc2[nH]5)C=C4)C=C3)cc1)N1C(=O)/C(=C\c2ccc([N+](=O)[O-])cc2)SC1=S
REMARK SMILES IDX 8 1 7 2 5 3 6 4 4 5 2 6 1 7 3 8 76 9 77 10 91 11 78 12 79 13
REMARK SMILES IDX 90 14 92 15 80 16 81 17 82 18 89 19 83 20 88 21 84 22 85 23
REMARK SMILES IDX 86 24 87 25 9 26 10 27 11 28 12 29 13 30 14 31 75 32 15 33
REMARK SMILES IDX 74 34 16 35 17 36 18 37 68 38 19 39 73 40 67 41 69 42 20 43
REMARK SMILES IDX 72 44 66 45 65 46 21 48 53 49 33 50 52 51 34 52 37 53 51 54
REMARK SMILES IDX 70 55 35 56 36 57 50 59 71 60 38 61 22 62 23 63 31 64 24 65
REMARK SMILES IDX 30 66 32 67 29 68 25 69 26 70 27 71 28 72 54 73 55 74 63 75
REMARK SMILES IDX 56 76 62 77 64 78 61 79 57 80 58 81 59 82 60 83 39 84 40 85
REMARK SMILES IDX 48 86 41 87 47 88 49 89 46 90 42 91 43 92 44 93 45 94
REMARK H PARENT 69 47 37 58
REMARK Flexibility Score: inf
ROOT
ATOM      1  C   UNL A   1      37.531  20.410  24.577  1.00  0.00     0.274 C 
ENDROOT
BRANCH   1   2
ATOM      2  O   UNL A   1      37.501  21.843  24.756  1.00  0.00    -0.461 OA
BRANCH   2   3
ATOM      3  C   UNL A   1      36.637  22.543  23.977  1.00  0.00     0.329 C 
ATOM      4  O   UNL A   1      36.871  22.710  22.790  1.00  0.00    -0.250 OA
BRANCH   3   5
ATOM      5  C   UNL A   1      35.426  23.174  24.761  1.00  0.00     0.204 C 
BRANCH   5   6
ATOM      6  C   UNL A   1      35.635  22.835  26.320  1.00  0.00     0.017 C 
ATOM      7  C   UNL A   1      36.551  23.864  27.030  1.00  0.00     0.010 C 
ATOM      8  C   UNL A   1      34.401  22.708  27.222  1.00  0.00     0.010 C 
ENDBRANCH   5   6
BRANCH   5   9
ATOM      9  N   UNL A   1      34.099  22.682  24.215  1.00  0.00    -0.278 N 
ATOM     10  C   UNL A   1      33.881  21.325  24.052  1.00  0.00     0.267 C 
ATOM     11  C   UNL A   1      32.843  23.195  24.425  1.00  0.00     0.149 C 
ATOM     12  O   UNL A   1      34.509  20.441  24.618  1.00  0.00    -0.268 OA
ATOM     13  C   UNL A   1      32.628  21.088  23.251  1.00  0.00     0.081 C 
ATOM     14  S   UNL A   1      31.832  22.602  23.097  1.00  0.00    -0.054 SA
ATOM     15  S   UNL A   1      32.158  23.846  25.805  1.00  0.00    -0.052 S 
ATOM     16  C   UNL A   1      32.050  19.936  22.883  1.00  0.00     0.029 C 
BRANCH  16  17
ATOM     17  C   UNL A   1      32.499  18.649  23.403  1.00  0.00    -0.024 A 
ATOM     18  C   UNL A   1      33.291  17.782  22.651  1.00  0.00     0.015 A 
ATOM     19  C   UNL A   1      32.160  18.331  24.728  1.00  0.00     0.015 A 
ATOM     20  C   UNL A   1      33.801  16.623  23.246  1.00  0.00     0.086 A 
ATOM     21  C   UNL A   1      32.673  17.189  25.331  1.00  0.00     0.086 A 
ATOM     22  C   UNL A   1      33.510  16.348  24.592  1.00  0.00     0.269 A 
BRANCH  22  23
ATOM     23  N   UNL A   1      34.114  15.185  25.248  1.00  0.00     0.062 N 
ATOM     24  O   UNL A   1      35.344  15.174  25.391  1.00  0.00    -0.258 OA
ATOM     25  O   UNL A   1      33.358  14.279  25.630  1.00  0.00    -0.258 OA
ENDBRANCH  22  23
ENDBRANCH  16  17
ENDBRANCH   5   9
ENDBRANCH   3   5
ENDBRANCH   2   3
ENDBRANCH   1   2
BRANCH   1  26
ATOM     26  C   UNL A   1      38.856  19.814  25.050  1.00  0.00     0.275 C 
BRANCH  26  27
ATOM     27  O   UNL A   1      39.105  20.166  26.423  1.00  0.00    -0.458 OA
BRANCH  27  28
ATOM     28  C   UNL A   1      40.395  20.394  26.754  1.00  0.00     0.338 C 
ATOM     29  O   UNL A   1      41.314  19.584  26.731  1.00  0.00    -0.246 OA
BRANCH  28  30
ATOM     30  C   UNL A   1      40.578  21.803  27.142  1.00  0.00     0.060 A 
ATOM     31  C   UNL A   1      39.812  22.791  26.532  1.00  0.00     0.016 A 
ATOM     32  C   UNL A   1      41.602  22.164  28.015  1.00  0.00     0.016 A 
ATOM     33  C   UNL A   1      40.134  24.135  26.711  1.00  0.00     0.010 A 
ATOM     34  C   UNL A   1      41.856  23.521  28.266  1.00  0.00     0.010 A 
ATOM     35  C   UNL A   1      41.159  24.533  27.578  1.00  0.00    -0.014 A 
BRANCH  35  36
ATOM     36  C   UNL A   1      41.561  25.973  27.702  1.00  0.00     0.031 A 
ATOM     37  C   UNL A   1      42.842  26.443  27.051  1.00  0.00     0.074 A 
ATOM     38  C   UNL A   1      40.801  26.886  28.343  1.00  0.00     0.049 A 
ATOM     39  N   UNL A   1      43.561  27.508  27.299  1.00  0.00    -0.248 NA
ATOM     40  C   UNL A   1      43.393  25.584  25.991  1.00  0.00     0.031 C 
ATOM     41  C   UNL A   1      39.478  26.648  28.921  1.00  0.00     0.029 A 
ATOM     42  N   UNL A   1      41.033  28.219  28.608  1.00  0.00    -0.354 N 
ATOM     43  C   UNL A   1      44.697  27.397  26.500  1.00  0.00     0.074 A 
ATOM     44  C   UNL A   1      44.556  26.170  25.744  1.00  0.00     0.031 C 
ATOM     45  C   UNL A   1      38.993  27.798  29.413  1.00  0.00     0.029 A 
ATOM     46  C   UNL A   1      40.029  28.820  29.334  1.00  0.00     0.049 A 
ATOM     47  H   UNL A   1      41.840  28.695  28.307  1.00  0.00     0.167 HD
ATOM     48  C   UNL A   1      45.763  28.234  26.426  1.00  0.00     0.034 A 
ATOM     49  C   UNL A   1      39.970  30.020  29.949  1.00  0.00     0.034 A 
ATOM     50  C   UNL A   1      45.842  29.491  27.133  1.00  0.00     0.049 A 
ATOM     51  C   UNL A   1      41.184  30.911  29.917  1.00  0.00     0.074 A 
ATOM     52  C   UNL A   1      46.882  30.405  27.163  1.00  0.00     0.029 A 
ATOM     53  N   UNL A   1      44.824  30.027  27.911  1.00  0.00    -0.354 N 
ATOM     54  N   UNL A   1      42.333  30.717  29.313  1.00  0.00    -0.248 NA
ATOM     55  C   UNL A   1      41.110  32.164  30.681  1.00  0.00     0.031 C 
ATOM     56  C   UNL A   1      46.512  31.467  27.997  1.00  0.00     0.029 A 
ATOM     57  C   UNL A   1      45.217  31.249  28.434  1.00  0.00     0.049 A 
ATOM     58  H   UNL A   1      43.950  29.601  28.068  1.00  0.00     0.167 HD
ATOM     59  C   UNL A   1      43.116  31.825  29.623  1.00  0.00     0.074 A 
ATOM     60  C   UNL A   1      42.303  32.692  30.450  1.00  0.00     0.031 C 
ATOM     61  C   UNL A   1      44.395  32.098  29.262  1.00  0.00     0.034 A 
BRANCH  48  62
ATOM     62  C   UNL A   1      46.960  27.773  25.630  1.00  0.00     0.023 A 
ATOM     63  C   UNL A   1      47.146  28.103  24.277  1.00  0.00     0.031 A 
ATOM     64  C   UNL A   1      47.926  26.951  26.243  1.00  0.00     0.131 A 
ATOM     65  C   UNL A   1      48.230  27.561  23.567  1.00  0.00     0.055 A 
ATOM     66  C   UNL A   1      49.044  26.479  25.553  1.00  0.00     0.041 A 
ATOM     67  F   UNL A   1      47.792  26.582  27.527  1.00  0.00    -0.206 F 
ATOM     68  C   UNL A   1      49.193  26.772  24.203  1.00  0.00     0.022 A 
BRANCH  65  69
ATOM     69  S   UNL A   1      48.288  27.782  21.768  1.00  0.00     0.124 S 
ATOM     70  O   UNL A   1      46.953  28.305  21.490  1.00  0.00    -0.237 OA
ATOM     71  O   UNL A   1      49.389  28.724  21.601  1.00  0.00    -0.237 OA
ATOM     72  O   UNL A   1      48.538  26.433  21.263  1.00  0.00    -0.744 OA
ENDBRANCH  65  69
ENDBRANCH  48  62
BRANCH  49  73
ATOM     73  C   UNL A   1      38.771  30.392  30.759  1.00  0.00     0.023 A 
ATOM     74  C   UNL A   1      37.693  31.091  30.192  1.00  0.00     0.031 A 
ATOM     75  C   UNL A   1      38.698  30.074  32.129  1.00  0.00     0.131 A 
ATOM     76  C   UNL A   1      36.600  31.460  30.995  1.00  0.00     0.055 A 
ATOM     77  C   UNL A   1      37.584  30.386  32.906  1.00  0.00     0.041 A 
ATOM     78  F   UNL A   1      39.709  29.424  32.731  1.00  0.00    -0.206 F 
ATOM     79  C   UNL A   1      36.528  31.093  32.341  1.00  0.00     0.022 A 
BRANCH  76  80
ATOM     80  S   UNL A   1      35.300  32.501  30.275  1.00  0.00     0.124 S 
ATOM     81  O   UNL A   1      34.852  31.682  29.154  1.00  0.00    -0.237 OA
ATOM     82  O   UNL A   1      34.365  32.634  31.387  1.00  0.00    -0.237 OA
ATOM     83  O   UNL A   1      36.008  33.726  29.908  1.00  0.00    -0.744 OA
ENDBRANCH  76  80
ENDBRANCH  49  73
BRANCH  61  84
ATOM     84  C   UNL A   1      44.969  33.411  29.720  1.00  0.00     0.023 A 
ATOM     85  C   UNL A   1      44.921  34.560  28.912  1.00  0.00     0.031 A 
ATOM     86  C   UNL A   1      45.568  33.511  30.988  1.00  0.00     0.131 A 
ATOM     87  C   UNL A   1      45.497  35.755  29.368  1.00  0.00     0.055 A 
ATOM     88  C   UNL A   1      46.101  34.714  31.453  1.00  0.00     0.041 A 
ATOM     89  F   UNL A   1      45.637  32.442  31.796  1.00  0.00    -0.206 F 
ATOM     90  C   UNL A   1      46.074  35.842  30.639  1.00  0.00     0.022 A 
BRANCH  87  91
ATOM     91  S   UNL A   1      45.526  37.191  28.259  1.00  0.00     0.124 S 
ATOM     92  O   UNL A   1      44.723  38.161  28.998  1.00  0.00    -0.237 OA
ATOM     93  O   UNL A   1      46.952  37.484  28.161  1.00  0.00    -0.237 OA
ATOM     94  O   UNL A   1      44.913  36.687  27.030  1.00  0.00    -0.744 OA
ENDBRANCH  87  91
ENDBRANCH  61  84
ENDBRANCH  35  36
ENDBRANCH  28  30
ENDBRANCH  27  28
ENDBRANCH  26  27
ENDBRANCH   1  26
TORSDOF 18
ENDMDL
