MODEL 1
REMARK VINA RESULT:     -13.0      0.000      0.000
REMARK SMILES Cc1nc(-c2ccccc2Cl)nc2sc(C(=O)OCCOC(=O)c3ccc(-c4c5nc(c(-c6cc(S(=O)(=O)[O-])ccc6F)c6ccc([nH]6)c(-c6cc(S(=O)(=O)[O-])ccc6F)c6nc(c(-c7cc(S(=O)(=O)[O-])ccc7F)c7ccc4[nH]7)C=C6)C=C5)cc3)c(N)c12
REMARK SMILES IDX 20 1 19 2 18 3 16 4 17 5 15 6 1 7 2 8 3 9 89 10 4 11 13 12
REMARK SMILES IDX 87 13 12 14 14 15 5 16 6 17 10 18 7 19 9 20 11 21 8 22 88 23
REMARK SMILES IDX 21 26 22 27 23 28 24 29 25 30 86 31 26 32 85 33 27 34 28 35
REMARK SMILES IDX 29 36 79 37 30 38 84 39 78 40 80 41 31 42 83 43 77 44 76 45
REMARK SMILES IDX 32 47 64 48 44 49 63 50 45 51 48 52 62 53 81 54 46 55 47 56
REMARK SMILES IDX 61 58 82 59 49 60 33 61 34 62 42 63 35 64 41 65 43 66 40 67
REMARK SMILES IDX 36 68 37 69 38 70 39 71 65 72 66 73 74 74 67 75 73 76 75 77
REMARK SMILES IDX 72 78 68 79 69 80 70 81 71 82 50 83 51 84 59 85 52 86 58 87
REMARK SMILES IDX 60 88 57 89 53 90 54 91 55 92 56 93
REMARK H PARENT 88 24 88 25 80 46 48 57
REMARK Flexibility Score: inf
ROOT
ATOM      1  C   UNL A   1      33.732  31.932  27.710  1.00  0.00     0.275 C 
ENDROOT
BRANCH   1   2
ATOM      2  C   UNL A   1      32.864  30.752  27.298  1.00  0.00     0.275 C 
BRANCH   2   3
ATOM      3  O   UNL A   1      33.240  30.255  26.007  1.00  0.00    -0.458 OA
BRANCH   3   4
ATOM      4  C   UNL A   1      32.292  29.614  25.260  1.00  0.00     0.350 C 
ATOM      5  O   UNL A   1      31.173  30.075  25.029  1.00  0.00    -0.245 OA
BRANCH   4   6
ATOM      6  C   UNL A   1      32.796  28.344  24.766  1.00  0.00     0.138 A 
ATOM      7  C   UNL A   1      32.846  25.488  21.033  1.00  0.00     0.067 C 
ATOM      8  C   UNL A   1      33.391  25.447  22.428  1.00  0.00     0.052 A 
ATOM      9  N   UNL A   1      34.058  24.294  22.745  1.00  0.00    -0.233 NA
ATOM     10  C   UNL A   1      33.278  26.459  23.413  1.00  0.00     0.057 A 
ATOM     11  C   UNL A   1      34.615  24.159  23.959  1.00  0.00     0.162 A 
ATOM     12  C   UNL A   1      33.894  26.161  24.621  1.00  0.00     0.130 A 
ATOM     13  C   UNL A   1      32.649  27.763  23.512  1.00  0.00     0.069 A 
ATOM     14  N   UNL A   1      34.556  25.049  24.945  1.00  0.00    -0.217 NA
ATOM     15  S   UNL A   1      33.732  27.357  25.797  1.00  0.00    -0.106 S 
BRANCH  11  16
ATOM     16  C   UNL A   1      35.223  22.883  24.330  1.00  0.00     0.038 A 
ATOM     17  C   UNL A   1      36.628  22.753  24.221  1.00  0.00     0.013 A 
ATOM     18  C   UNL A   1      34.490  21.749  24.706  1.00  0.00     0.052 A 
ATOM     19  C   UNL A   1      37.274  21.542  24.468  1.00  0.00     0.001 A 
ATOM     20  C   UNL A   1      35.140  20.532  24.952  1.00  0.00     0.021 A 
ATOM     21  Cl  UNL A   1      32.764  21.756  24.819  1.00  0.00    -0.084 Cl
ATOM     22  C   UNL A   1      36.526  20.429  24.832  1.00  0.00     0.002 A 
ENDBRANCH  11  16
BRANCH  13  23
ATOM     23  N   UNL A   1      31.981  28.378  22.509  1.00  0.00    -0.397 N 
ATOM     24  H   UNL A   1      31.957  29.362  22.465  1.00  0.00     0.156 HD
ATOM     25  H   UNL A   1      31.518  27.844  21.825  1.00  0.00     0.156 HD
ENDBRANCH  13  23
ENDBRANCH   4   6
ENDBRANCH   3   4
ENDBRANCH   2   3
ENDBRANCH   1   2
BRANCH   1  26
ATOM     26  O   UNL A   1      35.119  31.626  27.582  1.00  0.00    -0.458 OA
BRANCH  26  27
ATOM     27  C   UNL A   1      35.884  31.967  28.645  1.00  0.00     0.338 C 
ATOM     28  O   UNL A   1      35.715  32.916  29.390  1.00  0.00    -0.246 OA
BRANCH  27  29
ATOM     29  C   UNL A   1      37.078  31.111  28.667  1.00  0.00     0.060 A 
ATOM     30  C   UNL A   1      36.915  29.761  28.354  1.00  0.00     0.016 A 
ATOM     31  C   UNL A   1      38.284  31.600  29.194  1.00  0.00     0.016 A 
ATOM     32  C   UNL A   1      37.924  28.880  28.694  1.00  0.00     0.010 A 
ATOM     33  C   UNL A   1      39.287  30.718  29.536  1.00  0.00     0.010 A 
ATOM     34  C   UNL A   1      39.079  29.358  29.336  1.00  0.00    -0.014 A 
BRANCH  34  35
ATOM     35  C   UNL A   1      40.167  28.425  29.579  1.00  0.00     0.031 A 
ATOM     36  C   UNL A   1      40.438  28.304  31.029  1.00  0.00     0.074 A 
ATOM     37  C   UNL A   1      40.791  27.694  28.631  1.00  0.00     0.049 A 
ATOM     38  N   UNL A   1      41.375  28.905  31.681  1.00  0.00    -0.248 NA
ATOM     39  C   UNL A   1      39.425  27.677  31.896  1.00  0.00     0.031 C 
ATOM     40  C   UNL A   1      40.438  27.579  27.214  1.00  0.00     0.029 A 
ATOM     41  N   UNL A   1      41.850  26.837  28.747  1.00  0.00    -0.354 N 
ATOM     42  C   UNL A   1      41.262  28.446  32.986  1.00  0.00     0.074 A 
ATOM     43  C   UNL A   1      39.927  27.933  33.108  1.00  0.00     0.031 C 
ATOM     44  C   UNL A   1      41.119  26.547  26.658  1.00  0.00     0.029 A 
ATOM     45  C   UNL A   1      42.064  26.022  27.631  1.00  0.00     0.049 A 
ATOM     46  H   UNL A   1      42.416  26.795  29.552  1.00  0.00     0.167 HD
ATOM     47  C   UNL A   1      42.394  28.190  33.698  1.00  0.00     0.034 A 
ATOM     48  C   UNL A   1      42.966  25.006  27.515  1.00  0.00     0.034 A 
ATOM     49  C   UNL A   1      43.536  28.792  33.047  1.00  0.00     0.049 A 
ATOM     50  C   UNL A   1      44.064  25.326  28.455  1.00  0.00     0.074 A 
ATOM     51  C   UNL A   1      44.058  30.054  32.876  1.00  0.00     0.029 A 
ATOM     52  N   UNL A   1      44.093  27.985  32.088  1.00  0.00    -0.354 N 
ATOM     53  N   UNL A   1      44.830  26.374  28.317  1.00  0.00    -0.248 NA
ATOM     54  C   UNL A   1      44.072  24.711  29.777  1.00  0.00     0.031 C 
ATOM     55  C   UNL A   1      44.830  30.004  31.675  1.00  0.00     0.029 A 
ATOM     56  C   UNL A   1      44.811  28.704  31.174  1.00  0.00     0.049 A 
ATOM     57  H   UNL A   1      43.988  27.007  32.061  1.00  0.00     0.167 HD
ATOM     58  C   UNL A   1      45.067  26.796  29.610  1.00  0.00     0.074 A 
ATOM     59  C   UNL A   1      44.726  25.657  30.457  1.00  0.00     0.031 C 
ATOM     60  C   UNL A   1      45.194  28.122  29.903  1.00  0.00     0.034 A 
BRANCH  47  61
ATOM     61  C   UNL A   1      42.590  26.976  34.594  1.00  0.00     0.023 A 
ATOM     62  C   UNL A   1      43.372  25.922  34.072  1.00  0.00     0.031 A 
ATOM     63  C   UNL A   1      41.817  26.656  35.732  1.00  0.00     0.131 A 
ATOM     64  C   UNL A   1      43.294  24.626  34.611  1.00  0.00     0.055 A 
ATOM     65  C   UNL A   1      41.774  25.375  36.287  1.00  0.00     0.041 A 
ATOM     66  F   UNL A   1      40.991  27.526  36.322  1.00  0.00    -0.206 F 
ATOM     67  C   UNL A   1      42.492  24.344  35.711  1.00  0.00     0.022 A 
BRANCH  64  68
ATOM     68  S   UNL A   1      44.170  23.280  33.773  1.00  0.00     0.124 S 
ATOM     69  O   UNL A   1      44.160  22.236  34.791  1.00  0.00    -0.237 OA
ATOM     70  O   UNL A   1      43.323  23.052  32.606  1.00  0.00    -0.237 OA
ATOM     71  O   UNL A   1      45.479  23.859  33.483  1.00  0.00    -0.744 OA
ENDBRANCH  64  68
ENDBRANCH  47  61
BRANCH  48  72
ATOM     72  C   UNL A   1      42.793  23.650  26.903  1.00  0.00     0.023 A 
ATOM     73  C   UNL A   1      43.801  23.033  26.119  1.00  0.00     0.031 A 
ATOM     74  C   UNL A   1      41.738  22.816  27.328  1.00  0.00     0.131 A 
ATOM     75  C   UNL A   1      43.741  21.648  25.823  1.00  0.00     0.055 A 
ATOM     76  C   UNL A   1      41.688  21.448  27.042  1.00  0.00     0.041 A 
ATOM     77  F   UNL A   1      40.758  23.281  28.118  1.00  0.00    -0.206 F 
ATOM     78  C   UNL A   1      42.698  20.853  26.302  1.00  0.00     0.022 A 
BRANCH  75  79
ATOM     79  S   UNL A   1      45.087  20.815  24.910  1.00  0.00     0.124 S 
ATOM     80  O   UNL A   1      44.749  21.118  23.523  1.00  0.00    -0.237 OA
ATOM     81  O   UNL A   1      46.281  21.459  25.441  1.00  0.00    -0.237 OA
ATOM     82  O   UNL A   1      44.932  19.409  25.286  1.00  0.00    -0.744 OA
ENDBRANCH  75  79
ENDBRANCH  48  72
BRANCH  60  83
ATOM     83  C   UNL A   1      45.699  29.047  28.831  1.00  0.00     0.023 A 
ATOM     84  C   UNL A   1      44.967  30.081  28.211  1.00  0.00     0.031 A 
ATOM     85  C   UNL A   1      47.061  28.913  28.512  1.00  0.00     0.131 A 
ATOM     86  C   UNL A   1      45.623  30.947  27.312  1.00  0.00     0.055 A 
ATOM     87  C   UNL A   1      47.708  29.783  27.642  1.00  0.00     0.041 A 
ATOM     88  F   UNL A   1      47.801  27.949  29.086  1.00  0.00    -0.206 F 
ATOM     89  C   UNL A   1      46.990  30.806  27.039  1.00  0.00     0.022 A 
BRANCH  86  90
ATOM     90  S   UNL A   1      44.717  32.303  26.497  1.00  0.00     0.124 S 
ATOM     91  O   UNL A   1      43.642  31.609  25.797  1.00  0.00    -0.237 OA
ATOM     92  O   UNL A   1      44.313  33.142  27.622  1.00  0.00    -0.237 OA
ATOM     93  O   UNL A   1      45.721  32.908  25.619  1.00  0.00    -0.744 OA
ENDBRANCH  86  90
ENDBRANCH  60  83
ENDBRANCH  34  35
ENDBRANCH  27  29
ENDBRANCH  26  27
ENDBRANCH   1  26
TORSDOF 16
ENDMDL
MODEL 2
REMARK VINA RESULT:     -12.7      2.648      7.439
REMARK SMILES Cc1nc(-c2ccccc2Cl)nc2sc(C(=O)OCCOC(=O)c3ccc(-c4c5nc(c(-c6cc(S(=O)(=O)[O-])ccc6F)c6ccc([nH]6)c(-c6cc(S(=O)(=O)[O-])ccc6F)c6nc(c(-c7cc(S(=O)(=O)[O-])ccc7F)c7ccc4[nH]7)C=C6)C=C5)cc3)c(N)c12
REMARK SMILES IDX 20 1 19 2 18 3 16 4 17 5 15 6 1 7 2 8 3 9 89 10 4 11 13 12
REMARK SMILES IDX 87 13 12 14 14 15 5 16 6 17 10 18 7 19 9 20 11 21 8 22 88 23
REMARK SMILES IDX 21 26 22 27 23 28 24 29 25 30 86 31 26 32 85 33 27 34 28 35
REMARK SMILES IDX 29 36 79 37 30 38 84 39 78 40 80 41 31 42 83 43 77 44 76 45
REMARK SMILES IDX 32 47 64 48 44 49 63 50 45 51 48 52 62 53 81 54 46 55 47 56
REMARK SMILES IDX 61 58 82 59 49 60 33 61 34 62 42 63 35 64 41 65 43 66 40 67
REMARK SMILES IDX 36 68 37 69 38 70 39 71 65 72 66 73 74 74 67 75 73 76 75 77
REMARK SMILES IDX 72 78 68 79 69 80 70 81 71 82 50 83 51 84 59 85 52 86 58 87
REMARK SMILES IDX 60 88 57 89 53 90 54 91 55 92 56 93
REMARK H PARENT 88 24 88 25 80 46 48 57
REMARK Flexibility Score: inf
ROOT
ATOM      1  C   UNL A   1      34.744  29.686  27.219  1.00  0.00     0.275 C 
ENDROOT
BRANCH   1   2
ATOM      2  C   UNL A   1      33.578  28.739  26.979  1.00  0.00     0.275 C 
BRANCH   2   3
ATOM      3  O   UNL A   1      34.032  27.462  26.514  1.00  0.00    -0.458 OA
BRANCH   3   4
ATOM      4  C   UNL A   1      33.719  27.091  25.236  1.00  0.00     0.350 C 
ATOM      5  O   UNL A   1      33.877  27.816  24.252  1.00  0.00    -0.245 OA
BRANCH   4   6
ATOM      6  C   UNL A   1      33.204  25.732  25.205  1.00  0.00     0.138 A 
ATOM      7  C   UNL A   1      29.899  22.897  26.975  1.00  0.00     0.067 C 
ATOM      8  C   UNL A   1      31.055  22.748  26.034  1.00  0.00     0.052 A 
ATOM      9  N   UNL A   1      31.248  21.475  25.566  1.00  0.00    -0.233 NA
ATOM     10  C   UNL A   1      31.936  23.770  25.602  1.00  0.00     0.057 A 
ATOM     11  C   UNL A   1      32.237  21.229  24.692  1.00  0.00     0.162 A 
ATOM     12  C   UNL A   1      32.914  23.352  24.711  1.00  0.00     0.130 A 
ATOM     13  C   UNL A   1      32.112  25.186  25.868  1.00  0.00     0.069 A 
ATOM     14  N   UNL A   1      33.113  22.120  24.238  1.00  0.00    -0.217 NA
ATOM     15  S   UNL A   1      33.976  24.567  24.224  1.00  0.00    -0.106 S 
BRANCH  11  16
ATOM     16  C   UNL A   1      32.509  19.851  24.289  1.00  0.00     0.038 A 
ATOM     17  C   UNL A   1      33.050  18.965  25.250  1.00  0.00     0.013 A 
ATOM     18  C   UNL A   1      32.348  19.376  22.980  1.00  0.00     0.052 A 
ATOM     19  C   UNL A   1      33.421  17.662  24.920  1.00  0.00     0.001 A 
ATOM     20  C   UNL A   1      32.724  18.067  22.648  1.00  0.00     0.021 A 
ATOM     21  Cl  UNL A   1      31.754  20.373  21.697  1.00  0.00    -0.084 Cl
ATOM     22  C   UNL A   1      33.260  17.214  23.614  1.00  0.00     0.002 A 
ENDBRANCH  11  16
BRANCH  13  23
ATOM     23  N   UNL A   1      31.316  25.927  26.674  1.00  0.00    -0.397 N 
ATOM     24  H   UNL A   1      31.717  26.506  27.363  1.00  0.00     0.156 HD
ATOM     25  H   UNL A   1      30.338  25.889  26.572  1.00  0.00     0.156 HD
ENDBRANCH  13  23
ENDBRANCH   4   6
ENDBRANCH   3   4
ENDBRANCH   2   3
ENDBRANCH   1   2
BRANCH   1  26
ATOM     26  O   UNL A   1      35.915  28.977  27.620  1.00  0.00    -0.458 OA
BRANCH  26  27
ATOM     27  C   UNL A   1      36.444  29.362  28.804  1.00  0.00     0.338 C 
ATOM     28  O   UNL A   1      35.862  29.927  29.713  1.00  0.00    -0.246 OA
BRANCH  27  29
ATOM     29  C   UNL A   1      37.897  29.152  28.768  1.00  0.00     0.060 A 
ATOM     30  C   UNL A   1      38.583  29.554  27.621  1.00  0.00     0.016 A 
ATOM     31  C   UNL A   1      38.522  28.383  29.763  1.00  0.00     0.016 A 
ATOM     32  C   UNL A   1      39.861  29.070  27.415  1.00  0.00     0.010 A 
ATOM     33  C   UNL A   1      39.796  27.898  29.553  1.00  0.00     0.010 A 
ATOM     34  C   UNL A   1      40.436  28.198  28.356  1.00  0.00    -0.014 A 
BRANCH  34  35
ATOM     35  C   UNL A   1      41.820  27.796  28.165  1.00  0.00     0.031 A 
ATOM     36  C   UNL A   1      41.895  26.509  27.439  1.00  0.00     0.074 A 
ATOM     37  C   UNL A   1      42.898  28.530  28.515  1.00  0.00     0.049 A 
ATOM     38  N   UNL A   1      42.077  25.346  27.967  1.00  0.00    -0.248 NA
ATOM     39  C   UNL A   1      41.465  26.456  26.031  1.00  0.00     0.031 C 
ATOM     40  C   UNL A   1      42.918  29.903  29.025  1.00  0.00     0.029 A 
ATOM     41  N   UNL A   1      44.227  28.222  28.429  1.00  0.00    -0.354 N 
ATOM     42  C   UNL A   1      42.123  24.463  26.897  1.00  0.00     0.074 A 
ATOM     43  C   UNL A   1      41.486  25.140  25.802  1.00  0.00     0.031 C 
ATOM     44  C   UNL A   1      44.186  30.382  28.992  1.00  0.00     0.029 A 
ATOM     45  C   UNL A   1      45.088  29.309  28.604  1.00  0.00     0.049 A 
ATOM     46  H   UNL A   1      44.553  27.309  28.258  1.00  0.00     0.167 HD
ATOM     47  C   UNL A   1      43.016  23.436  26.924  1.00  0.00     0.034 A 
ATOM     48  C   UNL A   1      46.444  29.318  28.457  1.00  0.00     0.034 A 
ATOM     49  C   UNL A   1      43.527  23.258  28.265  1.00  0.00     0.049 A 
ATOM     50  C   UNL A   1      46.892  27.932  28.725  1.00  0.00     0.074 A 
ATOM     51  C   UNL A   1      43.076  22.757  29.465  1.00  0.00     0.029 A 
ATOM     52  N   UNL A   1      44.609  24.056  28.537  1.00  0.00    -0.354 N 
ATOM     53  N   UNL A   1      46.757  27.359  29.891  1.00  0.00    -0.248 NA
ATOM     54  C   UNL A   1      47.129  27.030  27.605  1.00  0.00     0.031 C 
ATOM     55  C   UNL A   1      43.835  23.414  30.481  1.00  0.00     0.029 A 
ATOM     56  C   UNL A   1      44.770  24.254  29.879  1.00  0.00     0.049 A 
ATOM     57  H   UNL A   1      45.198  24.440  27.848  1.00  0.00     0.167 HD
ATOM     58  C   UNL A   1      46.463  26.044  29.592  1.00  0.00     0.074 A 
ATOM     59  C   UNL A   1      46.868  25.863  28.202  1.00  0.00     0.031 C 
ATOM     60  C   UNL A   1      45.618  25.318  30.379  1.00  0.00     0.034 A 
BRANCH  47  61
ATOM     61  C   UNL A   1      43.854  22.993  25.734  1.00  0.00     0.023 A 
ATOM     62  C   UNL A   1      43.871  21.610  25.450  1.00  0.00     0.031 A 
ATOM     63  C   UNL A   1      44.858  23.759  25.102  1.00  0.00     0.131 A 
ATOM     64  C   UNL A   1      44.890  21.045  24.662  1.00  0.00     0.055 A 
ATOM     65  C   UNL A   1      45.845  23.197  24.287  1.00  0.00     0.041 A 
ATOM     66  F   UNL A   1      45.007  25.073  25.297  1.00  0.00    -0.206 F 
ATOM     67  C   UNL A   1      45.882  21.829  24.086  1.00  0.00     0.022 A 
BRANCH  64  68
ATOM     68  S   UNL A   1      44.967  19.242  24.500  1.00  0.00     0.124 S 
ATOM     69  O   UNL A   1      43.990  18.810  25.492  1.00  0.00    -0.237 OA
ATOM     70  O   UNL A   1      44.594  19.052  23.101  1.00  0.00    -0.237 OA
ATOM     71  O   UNL A   1      46.359  18.935  24.816  1.00  0.00    -0.744 OA
ENDBRANCH  64  68
ENDBRANCH  47  61
BRANCH  48  72
ATOM     72  C   UNL A   1      47.321  30.339  27.799  1.00  0.00     0.023 A 
ATOM     73  C   UNL A   1      46.797  31.473  27.127  1.00  0.00     0.031 A 
ATOM     74  C   UNL A   1      48.704  30.363  28.076  1.00  0.00     0.131 A 
ATOM     75  C   UNL A   1      47.635  32.567  26.795  1.00  0.00     0.055 A 
ATOM     76  C   UNL A   1      49.524  31.450  27.755  1.00  0.00     0.041 A 
ATOM     77  F   UNL A   1      49.295  29.368  28.753  1.00  0.00    -0.206 F 
ATOM     78  C   UNL A   1      48.990  32.564  27.128  1.00  0.00     0.022 A 
BRANCH  75  79
ATOM     79  S   UNL A   1      46.955  34.082  26.030  1.00  0.00     0.124 S 
ATOM     80  O   UNL A   1      46.785  34.957  27.185  1.00  0.00    -0.237 OA
ATOM     81  O   UNL A   1      47.995  34.456  25.081  1.00  0.00    -0.237 OA
ATOM     82  O   UNL A   1      45.707  33.622  25.420  1.00  0.00    -0.744 OA
ENDBRANCH  75  79
ENDBRANCH  48  72
BRANCH  60  83
ATOM     83  C   UNL A   1      45.508  25.678  31.834  1.00  0.00     0.023 A 
ATOM     84  C   UNL A   1      46.434  25.350  32.845  1.00  0.00     0.031 A 
ATOM     85  C   UNL A   1      44.424  26.508  32.169  1.00  0.00     0.131 A 
ATOM     86  C   UNL A   1      46.253  25.872  34.143  1.00  0.00     0.055 A 
ATOM     87  C   UNL A   1      44.261  27.038  33.444  1.00  0.00     0.041 A 
ATOM     88  F   UNL A   1      43.523  26.857  31.235  1.00  0.00    -0.206 F 
ATOM     89  C   UNL A   1      45.178  26.722  34.437  1.00  0.00     0.022 A 
BRANCH  86  90
ATOM     90  S   UNL A   1      47.431  25.481  35.478  1.00  0.00     0.124 S 
ATOM     91  O   UNL A   1      46.614  24.746  36.437  1.00  0.00    -0.237 OA
ATOM     92  O   UNL A   1      48.457  24.707  34.784  1.00  0.00    -0.237 OA
ATOM     93  O   UNL A   1      47.875  26.797  35.941  1.00  0.00    -0.744 OA
ENDBRANCH  86  90
ENDBRANCH  60  83
ENDBRANCH  34  35
ENDBRANCH  27  29
ENDBRANCH  26  27
ENDBRANCH   1  26
TORSDOF 16
ENDMDL
MODEL 3
REMARK VINA RESULT:     -12.6      3.614      9.775
REMARK SMILES Cc1nc(-c2ccccc2Cl)nc2sc(C(=O)OCCOC(=O)c3ccc(-c4c5nc(c(-c6cc(S(=O)(=O)[O-])ccc6F)c6ccc([nH]6)c(-c6cc(S(=O)(=O)[O-])ccc6F)c6nc(c(-c7cc(S(=O)(=O)[O-])ccc7F)c7ccc4[nH]7)C=C6)C=C5)cc3)c(N)c12
REMARK SMILES IDX 20 1 19 2 18 3 16 4 17 5 15 6 1 7 2 8 3 9 89 10 4 11 13 12
REMARK SMILES IDX 87 13 12 14 14 15 5 16 6 17 10 18 7 19 9 20 11 21 8 22 88 23
REMARK SMILES IDX 21 26 22 27 23 28 24 29 25 30 86 31 26 32 85 33 27 34 28 35
REMARK SMILES IDX 29 36 79 37 30 38 84 39 78 40 80 41 31 42 83 43 77 44 76 45
REMARK SMILES IDX 32 47 64 48 44 49 63 50 45 51 48 52 62 53 81 54 46 55 47 56
REMARK SMILES IDX 61 58 82 59 49 60 33 61 34 62 42 63 35 64 41 65 43 66 40 67
REMARK SMILES IDX 36 68 37 69 38 70 39 71 65 72 66 73 74 74 67 75 73 76 75 77
REMARK SMILES IDX 72 78 68 79 69 80 70 81 71 82 50 83 51 84 59 85 52 86 58 87
REMARK SMILES IDX 60 88 57 89 53 90 54 91 55 92 56 93
REMARK H PARENT 88 24 88 25 80 46 48 57
REMARK Flexibility Score: inf
ROOT
ATOM      1  C   UNL A   1      39.640  21.213  26.324  1.00  0.00     0.275 C 
ENDROOT
BRANCH   1   2
ATOM      2  C   UNL A   1      38.468  21.130  25.358  1.00  0.00     0.275 C 
BRANCH   2   3
ATOM      3  O   UNL A   1      37.337  21.863  25.847  1.00  0.00    -0.458 OA
BRANCH   3   4
ATOM      4  C   UNL A   1      36.088  21.447  25.478  1.00  0.00     0.350 C 
ATOM      5  O   UNL A   1      35.844  20.329  25.021  1.00  0.00    -0.245 OA
BRANCH   4   6
ATOM      6  C   UNL A   1      35.105  22.488  25.722  1.00  0.00     0.138 A 
ATOM      7  C   UNL A   1      30.627  23.254  26.929  1.00  0.00     0.067 C 
ATOM      8  C   UNL A   1      31.799  24.104  26.542  1.00  0.00     0.052 A 
ATOM      9  N   UNL A   1      31.536  25.447  26.491  1.00  0.00    -0.233 NA
ATOM     10  C   UNL A   1      33.107  23.656  26.232  1.00  0.00     0.057 A 
ATOM     11  C   UNL A   1      32.520  26.308  26.184  1.00  0.00     0.162 A 
ATOM     12  C   UNL A   1      34.005  24.666  25.921  1.00  0.00     0.130 A 
ATOM     13  C   UNL A   1      33.780  22.375  26.128  1.00  0.00     0.069 A 
ATOM     14  N   UNL A   1      33.771  25.980  25.876  1.00  0.00    -0.217 NA
ATOM     15  S   UNL A   1      35.552  24.125  25.527  1.00  0.00    -0.106 S 
BRANCH  11  16
ATOM     16  C   UNL A   1      32.207  27.725  26.019  1.00  0.00     0.038 A 
ATOM     17  C   UNL A   1      32.534  28.612  27.071  1.00  0.00     0.013 A 
ATOM     18  C   UNL A   1      31.520  28.247  24.914  1.00  0.00     0.052 A 
ATOM     19  C   UNL A   1      32.187  29.962  27.028  1.00  0.00     0.001 A 
ATOM     20  C   UNL A   1      31.169  29.604  24.873  1.00  0.00     0.021 A 
ATOM     21  Cl  UNL A   1      31.009  27.262  23.588  1.00  0.00    -0.084 Cl
ATOM     22  C   UNL A   1      31.499  30.457  25.926  1.00  0.00     0.002 A 
ENDBRANCH  11  16
BRANCH  13  23
ATOM     23  N   UNL A   1      33.209  21.176  26.388  1.00  0.00    -0.397 N 
ATOM     24  H   UNL A   1      33.199  20.825  27.308  1.00  0.00     0.156 HD
ATOM     25  H   UNL A   1      32.805  20.654  25.658  1.00  0.00     0.156 HD
ENDBRANCH  13  23
ENDBRANCH   4   6
ENDBRANCH   3   4
ENDBRANCH   2   3
ENDBRANCH   1   2
BRANCH   1  26
ATOM     26  O   UNL A   1      39.689  22.482  26.974  1.00  0.00    -0.458 OA
BRANCH  26  27
ATOM     27  C   UNL A   1      40.932  22.938  27.253  1.00  0.00     0.338 C 
ATOM     28  O   UNL A   1      41.978  22.324  27.134  1.00  0.00    -0.246 OA
BRANCH  27  29
ATOM     29  C   UNL A   1      40.824  24.251  27.902  1.00  0.00     0.060 A 
ATOM     30  C   UNL A   1      39.692  25.020  27.628  1.00  0.00     0.016 A 
ATOM     31  C   UNL A   1      41.922  24.786  28.594  1.00  0.00     0.016 A 
ATOM     32  C   UNL A   1      39.720  26.366  27.937  1.00  0.00     0.010 A 
ATOM     33  C   UNL A   1      41.949  26.131  28.898  1.00  0.00     0.010 A 
ATOM     34  C   UNL A   1      40.873  26.924  28.517  1.00  0.00    -0.014 A 
BRANCH  34  35
ATOM     35  C   UNL A   1      40.829  28.317  28.931  1.00  0.00     0.031 A 
ATOM     36  C   UNL A   1      41.933  29.082  28.308  1.00  0.00     0.074 A 
ATOM     37  C   UNL A   1      39.869  28.869  29.702  1.00  0.00     0.049 A 
ATOM     38  N   UNL A   1      43.053  29.394  28.867  1.00  0.00    -0.248 NA
ATOM     39  C   UNL A   1      41.921  29.295  26.851  1.00  0.00     0.031 C 
ATOM     40  C   UNL A   1      38.628  28.246  30.169  1.00  0.00     0.029 A 
ATOM     41  N   UNL A   1      39.766  30.144  30.187  1.00  0.00    -0.354 N 
ATOM     42  C   UNL A   1      43.736  30.144  27.919  1.00  0.00     0.074 A 
ATOM     43  C   UNL A   1      43.134  29.823  26.656  1.00  0.00     0.031 C 
ATOM     44  C   UNL A   1      37.804  29.196  30.674  1.00  0.00     0.029 A 
ATOM     45  C   UNL A   1      38.509  30.468  30.707  1.00  0.00     0.049 A 
ATOM     46  H   UNL A   1      40.516  30.782  30.173  1.00  0.00     0.167 HD
ATOM     47  C   UNL A   1      44.456  31.226  28.325  1.00  0.00     0.034 A 
ATOM     48  C   UNL A   1      38.091  31.689  31.148  1.00  0.00     0.034 A 
ATOM     49  C   UNL A   1      44.654  31.182  29.757  1.00  0.00     0.049 A 
ATOM     50  C   UNL A   1      39.312  32.405  31.584  1.00  0.00     0.074 A 
ATOM     51  C   UNL A   1      45.418  30.471  30.654  1.00  0.00     0.029 A 
ATOM     52  N   UNL A   1      43.621  31.749  30.458  1.00  0.00    -0.354 N 
ATOM     53  N   UNL A   1      40.047  32.002  32.585  1.00  0.00    -0.248 NA
ATOM     54  C   UNL A   1      39.951  33.345  30.672  1.00  0.00     0.031 C 
ATOM     55  C   UNL A   1      44.709  30.507  31.894  1.00  0.00     0.029 A 
ATOM     56  C   UNL A   1      43.564  31.285  31.742  1.00  0.00     0.049 A 
ATOM     57  H   UNL A   1      42.996  32.410  30.082  1.00  0.00     0.167 HD
ATOM     58  C   UNL A   1      41.340  32.287  32.194  1.00  0.00     0.074 A 
ATOM     59  C   UNL A   1      41.211  33.251  31.105  1.00  0.00     0.031 C 
ATOM     60  C   UNL A   1      42.376  31.475  32.551  1.00  0.00     0.034 A 
BRANCH  47  61
ATOM     61  C   UNL A   1      44.478  32.564  27.602  1.00  0.00     0.023 A 
ATOM     62  C   UNL A   1      43.763  33.622  28.204  1.00  0.00     0.031 A 
ATOM     63  C   UNL A   1      44.852  32.769  26.255  1.00  0.00     0.131 A 
ATOM     64  C   UNL A   1      43.378  34.753  27.462  1.00  0.00     0.055 A 
ATOM     65  C   UNL A   1      44.500  33.912  25.533  1.00  0.00     0.041 A 
ATOM     66  F   UNL A   1      45.494  31.850  25.527  1.00  0.00    -0.206 F 
ATOM     67  C   UNL A   1      43.736  34.900  26.126  1.00  0.00     0.022 A 
BRANCH  64  68
ATOM     68  S   UNL A   1      42.295  35.979  28.239  1.00  0.00     0.124 S 
ATOM     69  O   UNL A   1      42.848  36.056  29.586  1.00  0.00    -0.237 OA
ATOM     70  O   UNL A   1      42.504  37.146  27.387  1.00  0.00    -0.237 OA
ATOM     71  O   UNL A   1      40.971  35.370  28.140  1.00  0.00    -0.744 OA
ENDBRANCH  64  68
ENDBRANCH  47  61
BRANCH  48  72
ATOM     72  C   UNL A   1      36.783  32.383  30.920  1.00  0.00     0.023 A 
ATOM     73  C   UNL A   1      36.103  33.085  31.947  1.00  0.00     0.031 A 
ATOM     74  C   UNL A   1      36.328  32.610  29.604  1.00  0.00     0.131 A 
ATOM     75  C   UNL A   1      35.051  33.982  31.636  1.00  0.00     0.055 A 
ATOM     76  C   UNL A   1      35.295  33.504  29.302  1.00  0.00     0.041 A 
ATOM     77  F   UNL A   1      36.931  32.039  28.551  1.00  0.00    -0.206 F 
ATOM     78  C   UNL A   1      34.663  34.207  30.315  1.00  0.00     0.022 A 
BRANCH  75  79
ATOM     79  S   UNL A   1      34.240  34.978  32.937  1.00  0.00     0.124 S 
ATOM     80  O   UNL A   1      34.923  36.261  32.809  1.00  0.00    -0.237 OA
ATOM     81  O   UNL A   1      32.839  34.947  32.537  1.00  0.00    -0.237 OA
ATOM     82  O   UNL A   1      34.542  34.241  34.165  1.00  0.00    -0.744 OA
ENDBRANCH  75  79
ENDBRANCH  48  72
BRANCH  60  83
ATOM     83  C   UNL A   1      42.258  30.681  33.821  1.00  0.00     0.023 A 
ATOM     84  C   UNL A   1      42.000  29.298  33.918  1.00  0.00     0.031 A 
ATOM     85  C   UNL A   1      42.539  31.388  35.004  1.00  0.00     0.131 A 
ATOM     86  C   UNL A   1      42.046  28.673  35.182  1.00  0.00     0.055 A 
ATOM     87  C   UNL A   1      42.605  30.765  36.244  1.00  0.00     0.041 A 
ATOM     88  F   UNL A   1      42.801  32.706  34.958  1.00  0.00    -0.206 F 
ATOM     89  C   UNL A   1      42.360  29.402  36.337  1.00  0.00     0.022 A 
BRANCH  86  90
ATOM     90  S   UNL A   1      41.729  26.886  35.351  1.00  0.00     0.124 S 
ATOM     91  O   UNL A   1      40.761  26.621  34.293  1.00  0.00    -0.237 OA
ATOM     92  O   UNL A   1      43.056  26.306  35.165  1.00  0.00    -0.237 OA
ATOM     93  O   UNL A   1      41.196  26.758  36.708  1.00  0.00    -0.744 OA
ENDBRANCH  86  90
ENDBRANCH  60  83
ENDBRANCH  34  35
ENDBRANCH  27  29
ENDBRANCH  26  27
ENDBRANCH   1  26
TORSDOF 16
ENDMDL
