MODEL 1
REMARK VINA RESULT:     -12.3      0.000      0.000
REMARK SMILES O=C(OCCOC(=O)[C@H](Oc1cccc([N+](=O)[O-])c1)c1ccccc1)c1ccc(-c2c3nc(c(-c4cc(S(=O)(=O)[O-])ccc4F)c4ccc([nH]4)c(-c4cc(S(=O)(=O)[O-])ccc4F)c4nc(c(-c5cc(S(=O)(=O)[O-])ccc5F)c5ccc2[nH]5)C=C4)C=C3)cc1
REMARK SMILES IDX 4 1 3 2 2 3 1 4 26 5 27 6 88 7 28 8 87 9 29 10 30 11 31 12
REMARK SMILES IDX 81 13 32 14 86 15 80 16 82 17 33 18 85 19 79 20 78 21 34 23
REMARK SMILES IDX 66 24 46 25 65 26 47 27 50 28 64 29 83 30 48 31 49 32 63 34
REMARK SMILES IDX 84 35 51 36 35 37 36 38 44 39 37 40 43 41 45 42 42 43 38 44
REMARK SMILES IDX 39 45 40 46 41 47 67 48 68 49 76 50 69 51 75 52 77 53 74 54
REMARK SMILES IDX 70 55 71 56 72 57 73 58 52 59 53 60 61 61 54 62 60 63 62 64
REMARK SMILES IDX 59 65 55 66 56 67 57 68 58 69 5 70 6 71 7 72 8 73 9 74 20 75
REMARK SMILES IDX 21 76 25 77 22 78 24 79 23 80 10 81 11 82 12 83 19 84 13 85
REMARK SMILES IDX 15 86 14 87 16 88 17 89 18 90
REMARK H PARENT 82 22 50 33
REMARK Flexibility Score: inf
ROOT
ATOM      1  C   UNL A   1      31.342  29.762  24.759  1.00  0.00     0.275 C 
ENDROOT
BRANCH   1   2
ATOM      2  O   UNL A   1      31.588  29.808  26.180  1.00  0.00    -0.458 OA
BRANCH   2   3
ATOM      3  C   UNL A   1      32.001  30.939  26.807  1.00  0.00     0.338 C 
ATOM      4  O   UNL A   1      31.456  32.021  26.635  1.00  0.00    -0.246 OA
BRANCH   3   5
ATOM      5  C   UNL A   1      33.363  30.869  27.370  1.00  0.00     0.060 A 
ATOM      6  C   UNL A   1      34.240  29.289  27.705  1.00  0.00     0.016 A 
ATOM      7  C   UNL A   1      34.239  32.434  27.755  1.00  0.00     0.016 A 
ATOM      8  C   UNL A   1      35.936  29.275  28.308  1.00  0.00     0.010 A 
ATOM      9  C   UNL A   1      35.978  32.373  28.349  1.00  0.00     0.010 A 
ATOM     10  C   UNL A   1      36.801  30.799  28.680  1.00  0.00    -0.014 A 
BRANCH  10  11
ATOM     11  C   UNL A   1      38.112  30.611  29.442  1.00  0.00     0.031 A 
ATOM     12  C   UNL A   1      38.381  31.008  30.903  1.00  0.00     0.074 A 
ATOM     13  C   UNL A   1      39.026  29.786  28.895  1.00  0.00     0.049 A 
ATOM     14  N   UNL A   1      39.496  30.956  31.609  1.00  0.00    -0.248 NA
ATOM     15  C   UNL A   1      37.254  31.508  31.681  1.00  0.00     0.031 C 
ATOM     16  C   UNL A   1      38.868  29.132  27.604  1.00  0.00     0.029 A 
ATOM     17  N   UNL A   1      40.229  29.312  29.364  1.00  0.00    -0.354 N 
ATOM     18  C   UNL A   1      39.210  31.504  32.870  1.00  0.00     0.074 A 
ATOM     19  C   UNL A   1      37.819  31.903  32.815  1.00  0.00     0.031 C 
ATOM     20  C   UNL A   1      39.913  28.323  27.388  1.00  0.00     0.029 A 
ATOM     21  C   UNL A   1      40.855  28.449  28.493  1.00  0.00     0.049 A 
ATOM     22  H   UNL A   1      40.607  29.566  30.237  1.00  0.00     0.167 HD
ATOM     23  C   UNL A   1      39.994  31.627  33.983  1.00  0.00     0.034 A 
ATOM     24  C   UNL A   1      42.057  27.841  28.541  1.00  0.00     0.034 A 
ATOM     25  C   UNL A   1      41.329  31.078  34.111  1.00  0.00     0.049 A 
ATOM     26  C   UNL A   1      42.946  28.038  29.740  1.00  0.00     0.074 A 
ATOM     27  C   UNL A   1      42.209  31.156  35.183  1.00  0.00     0.029 A 
ATOM     28  N   UNL A   1      41.957  30.297  33.153  1.00  0.00    -0.354 N 
ATOM     29  N   UNL A   1      42.710  28.705  30.844  1.00  0.00    -0.248 NA
ATOM     30  C   UNL A   1      44.265  27.393  29.696  1.00  0.00     0.031 C 
ATOM     31  C   UNL A   1      43.380  30.460  34.854  1.00  0.00     0.029 A 
ATOM     32  C   UNL A   1      43.209  29.898  33.600  1.00  0.00     0.049 A 
ATOM     33  H   UNL A   1      41.572  30.060  32.279  1.00  0.00     0.167 HD
ATOM     34  C   UNL A   1      43.845  28.540  31.634  1.00  0.00     0.074 A 
ATOM     35  C   UNL A   1      44.753  27.693  30.890  1.00  0.00     0.031 C 
ATOM     36  C   UNL A   1      44.114  29.050  32.862  1.00  0.00     0.034 A 
BRANCH  23  37
ATOM     37  C   UNL A   1      39.451  32.431  35.157  1.00  0.00     0.023 A 
ATOM     38  C   UNL A   1      39.770  33.785  35.362  1.00  0.00     0.031 A 
ATOM     39  C   UNL A   1      38.619  31.810  36.111  1.00  0.00     0.131 A 
ATOM     40  C   UNL A   1      39.363  34.433  36.543  1.00  0.00     0.055 A 
ATOM     41  C   UNL A   1      38.141  32.488  37.237  1.00  0.00     0.041 A 
ATOM     42  F   UNL A   1      38.264  30.523  35.971  1.00  0.00    -0.206 F 
ATOM     43  C   UNL A   1      38.535  33.800  37.473  1.00  0.00     0.022 A 
BRANCH  40  44
ATOM     44  S   UNL A   1      40.090  36.050  36.934  1.00  0.00     0.124 S 
ATOM     45  O   UNL A   1      41.476  35.690  37.230  1.00  0.00    -0.237 OA
ATOM     46  O   UNL A   1      39.877  36.798  35.700  1.00  0.00    -0.237 OA
ATOM     47  O   UNL A   1      39.314  36.510  38.084  1.00  0.00    -0.744 OA
ENDBRANCH  40  44
ENDBRANCH  23  37
BRANCH  24  48
ATOM     48  C   UNL A   1      42.527  27.036  27.373  1.00  0.00     0.023 A 
ATOM     49  C   UNL A   1      42.504  25.634  27.390  1.00  0.00     0.031 A 
ATOM     50  C   UNL A   1      43.064  27.674  26.237  1.00  0.00     0.131 A 
ATOM     51  C   UNL A   1      43.055  24.915  26.319  1.00  0.00     0.055 A 
ATOM     52  C   UNL A   1      43.553  26.955  25.148  1.00  0.00     0.041 A 
ATOM     53  F   UNL A   1      43.110  29.014  26.168  1.00  0.00    -0.206 F 
ATOM     54  C   UNL A   1      43.566  25.565  25.192  1.00  0.00     0.022 A 
BRANCH  51  55
ATOM     55  S   UNL A   1      43.188  23.111  26.457  1.00  0.00     0.124 S 
ATOM     56  O   UNL A   1      42.561  22.670  25.217  1.00  0.00    -0.237 OA
ATOM     57  O   UNL A   1      44.632  22.921  26.549  1.00  0.00    -0.237 OA
ATOM     58  O   UNL A   1      42.443  22.808  27.677  1.00  0.00    -0.744 OA
ENDBRANCH  51  55
ENDBRANCH  24  48
BRANCH  36  59
ATOM     59  C   UNL A   1      45.427  28.666  33.497  1.00  0.00     0.023 A 
ATOM     60  C   UNL A   1      45.561  27.494  34.265  1.00  0.00     0.031 A 
ATOM     61  C   UNL A   1      46.559  29.486  33.341  1.00  0.00     0.131 A 
ATOM     62  C   UNL A   1      46.785  27.200  34.885  1.00  0.00     0.055 A 
ATOM     63  C   UNL A   1      47.788  29.160  33.918  1.00  0.00     0.041 A 
ATOM     64  F   UNL A   1      46.488  30.617  32.622  1.00  0.00    -0.206 F 
ATOM     65  C   UNL A   1      47.903  28.018  34.703  1.00  0.00     0.022 A 
BRANCH  62  66
ATOM     66  S   UNL A   1      46.877  25.770  35.997  1.00  0.00     0.124 S 
ATOM     67  O   UNL A   1      47.577  26.325  37.150  1.00  0.00    -0.237 OA
ATOM     68  O   UNL A   1      45.469  25.442  36.203  1.00  0.00    -0.237 OA
ATOM     69  O   UNL A   1      47.634  24.784  35.227  1.00  0.00    -0.744 OA
ENDBRANCH  62  66
ENDBRANCH  36  59
ENDBRANCH  10  11
ENDBRANCH   3   5
ENDBRANCH   2   3
ENDBRANCH   1   2
BRANCH   1  70
ATOM     70  C   UNL A   1      32.240  28.726  24.048  1.00  0.00     0.274 C 
BRANCH  70  71
ATOM     71  O   UNL A   1      32.831  27.790  24.982  1.00  0.00    -0.459 OA
BRANCH  71  72
ATOM     72  C   UNL A   1      33.315  26.640  24.438  1.00  0.00     0.352 C 
ATOM     73  O   UNL A   1      33.249  26.498  23.217  1.00  0.00    -0.247 OA
BRANCH  72  74
ATOM     74  C   UNL A   1      34.085  25.431  25.570  1.00  0.00     0.313 C 
BRANCH  74  75
ATOM     75  C   UNL A   1      32.678  24.370  25.587  1.00  0.00     0.004 A 
ATOM     76  C   UNL A   1      31.569  24.642  26.400  1.00  0.00     0.008 A 
ATOM     77  C   UNL A   1      32.690  23.130  24.871  1.00  0.00     0.008 A 
ATOM     78  C   UNL A   1      30.612  23.639  26.628  1.00  0.00     0.000 A 
ATOM     79  C   UNL A   1      31.720  22.150  25.090  1.00  0.00     0.000 A 
ATOM     80  C   UNL A   1      30.702  22.392  26.000  1.00  0.00     0.000 A 
ENDBRANCH  74  75
BRANCH  74  81
ATOM     81  O   UNL A   1      35.967  24.769  25.695  1.00  0.00    -0.474 OA
BRANCH  81  82
ATOM     82  C   UNL A   1      37.052  23.802  25.946  1.00  0.00     0.128 A 
ATOM     83  C   UNL A   1      38.324  24.083  26.477  1.00  0.00     0.047 A 
ATOM     84  C   UNL A   1      36.769  22.481  25.566  1.00  0.00     0.132 A 
ATOM     85  C   UNL A   1      39.316  23.107  26.507  1.00  0.00     0.011 A 
ATOM     86  C   UNL A   1      37.761  21.507  25.612  1.00  0.00     0.273 A 
ATOM     87  C   UNL A   1      39.045  21.821  26.056  1.00  0.00     0.086 A 
BRANCH  86  88
ATOM     88  N   UNL A   1      37.454  20.167  25.115  1.00  0.00     0.062 N 
ATOM     89  O   UNL A   1      38.410  19.407  24.910  1.00  0.00    -0.258 OA
ATOM     90  O   UNL A   1      36.270  19.900  24.867  1.00  0.00    -0.258 OA
ENDBRANCH  86  88
ENDBRANCH  81  82
ENDBRANCH  74  81
ENDBRANCH  72  74
ENDBRANCH  71  72
ENDBRANCH  70  71
ENDBRANCH   1  70
TORSDOF 18
ENDMDL
MODEL 2
REMARK VINA RESULT:     -12.2      3.042      5.238
REMARK SMILES O=C(OCCOC(=O)[C@H](Oc1cccc([N+](=O)[O-])c1)c1ccccc1)c1ccc(-c2c3nc(c(-c4cc(S(=O)(=O)[O-])ccc4F)c4ccc([nH]4)c(-c4cc(S(=O)(=O)[O-])ccc4F)c4nc(c(-c5cc(S(=O)(=O)[O-])ccc5F)c5ccc2[nH]5)C=C4)C=C3)cc1
REMARK SMILES IDX 4 1 3 2 2 3 1 4 26 5 27 6 88 7 28 8 87 9 29 10 30 11 31 12
REMARK SMILES IDX 81 13 32 14 86 15 80 16 82 17 33 18 85 19 79 20 78 21 34 23
REMARK SMILES IDX 66 24 46 25 65 26 47 27 50 28 64 29 83 30 48 31 49 32 63 34
REMARK SMILES IDX 84 35 51 36 35 37 36 38 44 39 37 40 43 41 45 42 42 43 38 44
REMARK SMILES IDX 39 45 40 46 41 47 67 48 68 49 76 50 69 51 75 52 77 53 74 54
REMARK SMILES IDX 70 55 71 56 72 57 73 58 52 59 53 60 61 61 54 62 60 63 62 64
REMARK SMILES IDX 59 65 55 66 56 67 57 68 58 69 5 70 6 71 7 72 8 73 9 74 20 75
REMARK SMILES IDX 21 76 25 77 22 78 24 79 23 80 10 81 11 82 12 83 19 84 13 85
REMARK SMILES IDX 15 86 14 87 16 88 17 89 18 90
REMARK H PARENT 82 22 50 33
REMARK Flexibility Score: inf
ROOT
ATOM      1  C   UNL A   1      32.300  28.879  25.099  1.00  0.00     0.275 C 
ENDROOT
BRANCH   1   2
ATOM      2  O   UNL A   1      32.567  30.285  25.281  1.00  0.00    -0.458 OA
BRANCH   2   3
ATOM      3  C   UNL A   1      32.576  30.866  26.508  1.00  0.00     0.338 C 
ATOM      4  O   UNL A   1      31.756  31.712  26.841  1.00  0.00    -0.246 OA
BRANCH   3   5
ATOM      5  C   UNL A   1      33.844  30.724  27.248  1.00  0.00     0.060 A 
ATOM      6  C   UNL A   1      34.641  29.104  27.590  1.00  0.00     0.016 A 
ATOM      7  C   UNL A   1      34.683  32.237  27.858  1.00  0.00     0.016 A 
ATOM      8  C   UNL A   1      36.236  29.006  28.419  1.00  0.00     0.010 A 
ATOM      9  C   UNL A   1      36.321  32.092  28.682  1.00  0.00     0.010 A 
ATOM     10  C   UNL A   1      37.065  30.480  29.012  1.00  0.00    -0.014 A 
BRANCH  10  11
ATOM     11  C   UNL A   1      38.253  30.208  29.933  1.00  0.00     0.031 A 
ATOM     12  C   UNL A   1      38.337  30.536  31.433  1.00  0.00     0.074 A 
ATOM     13  C   UNL A   1      39.202  29.368  29.477  1.00  0.00     0.049 A 
ATOM     14  N   UNL A   1      39.344  30.411  32.278  1.00  0.00    -0.248 NA
ATOM     15  C   UNL A   1      37.134  31.053  32.076  1.00  0.00     0.031 C 
ATOM     16  C   UNL A   1      39.197  28.771  28.149  1.00  0.00     0.029 A 
ATOM     17  N   UNL A   1      40.314  28.826  30.081  1.00  0.00    -0.354 N 
ATOM     18  C   UNL A   1      38.911  30.921  33.513  1.00  0.00     0.074 A 
ATOM     19  C   UNL A   1      37.555  31.380  33.291  1.00  0.00     0.031 C 
ATOM     20  C   UNL A   1      40.232  27.929  28.039  1.00  0.00     0.029 A 
ATOM     21  C   UNL A   1      41.019  27.972  29.264  1.00  0.00     0.049 A 
ATOM     22  H   UNL A   1      40.579  29.030  31.007  1.00  0.00     0.167 HD
ATOM     23  C   UNL A   1      39.542  30.968  34.725  1.00  0.00     0.034 A 
ATOM     24  C   UNL A   1      42.181  27.313  29.444  1.00  0.00     0.034 A 
ATOM     25  C   UNL A   1      40.826  30.359  35.005  1.00  0.00     0.049 A 
ATOM     26  C   UNL A   1      42.907  27.426  30.759  1.00  0.00     0.074 A 
ATOM     27  C   UNL A   1      41.556  30.359  36.188  1.00  0.00     0.029 A 
ATOM     28  N   UNL A   1      41.549  29.590  34.106  1.00  0.00    -0.354 N 
ATOM     29  N   UNL A   1      42.549  28.060  31.850  1.00  0.00    -0.248 NA
ATOM     30  C   UNL A   1      44.196  26.729  30.863  1.00  0.00     0.031 C 
ATOM     31  C   UNL A   1      42.735  29.629  35.987  1.00  0.00     0.029 A 
ATOM     32  C   UNL A   1      42.715  29.123  34.698  1.00  0.00     0.049 A 
ATOM     33  H   UNL A   1      41.277  29.404  33.179  1.00  0.00     0.167 HD
ATOM     34  C   UNL A   1      43.561  27.817  32.776  1.00  0.00     0.074 A 
ATOM     35  C   UNL A   1      44.529  26.962  32.123  1.00  0.00     0.031 C 
ATOM     36  C   UNL A   1      43.679  28.267  34.050  1.00  0.00     0.034 A 
BRANCH  23  37
ATOM     37  C   UNL A   1      38.874  31.748  35.850  1.00  0.00     0.023 A 
ATOM     38  C   UNL A   1      38.316  31.123  36.979  1.00  0.00     0.031 A 
ATOM     39  C   UNL A   1      38.768  33.151  35.769  1.00  0.00     0.131 A 
ATOM     40  C   UNL A   1      37.579  31.878  37.910  1.00  0.00     0.055 A 
ATOM     41  C   UNL A   1      38.114  33.908  36.746  1.00  0.00     0.041 A 
ATOM     42  F   UNL A   1      39.291  33.815  34.725  1.00  0.00    -0.206 F 
ATOM     43  C   UNL A   1      37.491  33.269  37.812  1.00  0.00     0.022 A 
BRANCH  40  44
ATOM     44  S   UNL A   1      36.581  30.994  39.143  1.00  0.00     0.124 S 
ATOM     45  O   UNL A   1      36.425  29.683  38.514  1.00  0.00    -0.237 OA
ATOM     46  O   UNL A   1      37.434  31.035  40.326  1.00  0.00    -0.237 OA
ATOM     47  O   UNL A   1      35.356  31.785  39.229  1.00  0.00    -0.744 OA
ENDBRANCH  40  44
ENDBRANCH  23  37
BRANCH  24  48
ATOM     48  C   UNL A   1      42.776  26.535  28.315  1.00  0.00     0.023 A 
ATOM     49  C   UNL A   1      42.470  25.181  28.116  1.00  0.00     0.031 A 
ATOM     50  C   UNL A   1      43.712  27.136  27.451  1.00  0.00     0.131 A 
ATOM     51  C   UNL A   1      43.131  24.459  27.111  1.00  0.00     0.055 A 
ATOM     52  C   UNL A   1      44.320  26.429  26.415  1.00  0.00     0.041 A 
ATOM     53  F   UNL A   1      44.040  28.430  27.597  1.00  0.00    -0.206 F 
ATOM     54  C   UNL A   1      44.043  25.077  26.250  1.00  0.00     0.022 A 
BRANCH  51  55
ATOM     55  S   UNL A   1      42.861  22.669  27.004  1.00  0.00     0.124 S 
ATOM     56  O   UNL A   1      41.749  22.591  26.063  1.00  0.00    -0.237 OA
ATOM     57  O   UNL A   1      44.152  22.197  26.512  1.00  0.00    -0.237 OA
ATOM     58  O   UNL A   1      42.544  22.290  28.379  1.00  0.00    -0.744 OA
ENDBRANCH  51  55
ENDBRANCH  24  48
BRANCH  36  59
ATOM     59  C   UNL A   1      44.881  27.805  34.837  1.00  0.00     0.023 A 
ATOM     60  C   UNL A   1      44.873  26.591  35.549  1.00  0.00     0.031 A 
ATOM     61  C   UNL A   1      46.045  28.591  34.884  1.00  0.00     0.131 A 
ATOM     62  C   UNL A   1      45.990  26.222  36.314  1.00  0.00     0.055 A 
ATOM     63  C   UNL A   1      47.173  28.193  35.605  1.00  0.00     0.041 A 
ATOM     64  F   UNL A   1      46.107  29.760  34.227  1.00  0.00    -0.206 F 
ATOM     65  C   UNL A   1      47.146  27.008  36.333  1.00  0.00     0.022 A 
BRANCH  62  66
ATOM     66  S   UNL A   1      45.887  24.733  37.346  1.00  0.00     0.124 S 
ATOM     67  O   UNL A   1      47.252  24.225  37.284  1.00  0.00    -0.237 OA
ATOM     68  O   UNL A   1      45.465  25.275  38.635  1.00  0.00    -0.237 OA
ATOM     69  O   UNL A   1      44.887  23.912  36.664  1.00  0.00    -0.744 OA
ENDBRANCH  62  66
ENDBRANCH  36  59
ENDBRANCH  10  11
ENDBRANCH   3   5
ENDBRANCH   2   3
ENDBRANCH   1   2
BRANCH   1  70
ATOM     70  C   UNL A   1      33.520  28.128  24.521  1.00  0.00     0.274 C 
BRANCH  70  71
ATOM     71  O   UNL A   1      33.592  28.241  23.079  1.00  0.00    -0.459 OA
BRANCH  71  72
ATOM     72  C   UNL A   1      33.022  27.221  22.379  1.00  0.00     0.352 C 
ATOM     73  O   UNL A   1      33.753  26.334  21.938  1.00  0.00    -0.247 OA
BRANCH  72  74
ATOM     74  C   UNL A   1      31.203  27.229  22.211  1.00  0.00     0.313 C 
BRANCH  74  75
ATOM     75  C   UNL A   1      30.990  25.755  23.153  1.00  0.00     0.004 A 
ATOM     76  C   UNL A   1      30.464  25.788  24.452  1.00  0.00     0.008 A 
ATOM     77  C   UNL A   1      31.475  24.499  22.664  1.00  0.00     0.008 A 
ATOM     78  C   UNL A   1      30.593  24.663  25.283  1.00  0.00     0.000 A 
ATOM     79  C   UNL A   1      31.576  23.382  23.494  1.00  0.00     0.000 A 
ATOM     80  C   UNL A   1      31.171  23.477  24.817  1.00  0.00     0.000 A 
ENDBRANCH  74  75
BRANCH  74  81
ATOM     81  O   UNL A   1      29.895  28.740  22.217  1.00  0.00    -0.474 OA
BRANCH  81  82
ATOM     82  C   UNL A   1      29.392  30.099  22.494  1.00  0.00     0.128 A 
ATOM     83  C   UNL A   1      29.350  30.741  23.745  1.00  0.00     0.047 A 
ATOM     84  C   UNL A   1      28.867  30.776  21.383  1.00  0.00     0.132 A 
ATOM     85  C   UNL A   1      28.695  31.959  23.899  1.00  0.00     0.011 A 
ATOM     86  C   UNL A   1      28.227  32.000  21.542  1.00  0.00     0.273 A 
ATOM     87  C   UNL A   1      28.113  32.584  22.803  1.00  0.00     0.086 A 
BRANCH  86  88
ATOM     88  N   UNL A   1      27.608  32.627  20.375  1.00  0.00     0.062 N 
ATOM     89  O   UNL A   1      27.496  31.935  19.354  1.00  0.00    -0.258 OA
ATOM     90  O   UNL A   1      27.297  33.823  20.459  1.00  0.00    -0.258 OA
ENDBRANCH  86  88
ENDBRANCH  81  82
ENDBRANCH  74  81
ENDBRANCH  72  74
ENDBRANCH  71  72
ENDBRANCH  70  71
ENDBRANCH   1  70
TORSDOF 18
ENDMDL
MODEL 3
REMARK VINA RESULT:     -12.1      2.509      4.922
REMARK SMILES O=C(OCCOC(=O)[C@H](Oc1cccc([N+](=O)[O-])c1)c1ccccc1)c1ccc(-c2c3nc(c(-c4cc(S(=O)(=O)[O-])ccc4F)c4ccc([nH]4)c(-c4cc(S(=O)(=O)[O-])ccc4F)c4nc(c(-c5cc(S(=O)(=O)[O-])ccc5F)c5ccc2[nH]5)C=C4)C=C3)cc1
REMARK SMILES IDX 4 1 3 2 2 3 1 4 26 5 27 6 88 7 28 8 87 9 29 10 30 11 31 12
REMARK SMILES IDX 81 13 32 14 86 15 80 16 82 17 33 18 85 19 79 20 78 21 34 23
REMARK SMILES IDX 66 24 46 25 65 26 47 27 50 28 64 29 83 30 48 31 49 32 63 34
REMARK SMILES IDX 84 35 51 36 35 37 36 38 44 39 37 40 43 41 45 42 42 43 38 44
REMARK SMILES IDX 39 45 40 46 41 47 67 48 68 49 76 50 69 51 75 52 77 53 74 54
REMARK SMILES IDX 70 55 71 56 72 57 73 58 52 59 53 60 61 61 54 62 60 63 62 64
REMARK SMILES IDX 59 65 55 66 56 67 57 68 58 69 5 70 6 71 7 72 8 73 9 74 20 75
REMARK SMILES IDX 21 76 25 77 22 78 24 79 23 80 10 81 11 82 12 83 19 84 13 85
REMARK SMILES IDX 15 86 14 87 16 88 17 89 18 90
REMARK H PARENT 82 22 50 33
REMARK Flexibility Score: inf
ROOT
ATOM      1  C   UNL A   1      32.535  28.857  24.959  1.00  0.00     0.275 C 
ENDROOT
BRANCH   1   2
ATOM      2  O   UNL A   1      32.662  30.250  25.311  1.00  0.00    -0.458 OA
BRANCH   2   3
ATOM      3  C   UNL A   1      32.684  30.671  26.602  1.00  0.00     0.338 C 
ATOM      4  O   UNL A   1      31.773  31.322  27.096  1.00  0.00    -0.246 OA
BRANCH   3   5
ATOM      5  C   UNL A   1      34.017  30.651  27.234  1.00  0.00     0.060 A 
ATOM      6  C   UNL A   1      34.934  29.105  27.614  1.00  0.00     0.016 A 
ATOM      7  C   UNL A   1      34.813  32.247  27.660  1.00  0.00     0.016 A 
ATOM      8  C   UNL A   1      36.597  29.153  28.302  1.00  0.00     0.010 A 
ATOM      9  C   UNL A   1      36.521  32.251  28.342  1.00  0.00     0.010 A 
ATOM     10  C   UNL A   1      37.384  30.708  28.716  1.00  0.00    -0.014 A 
BRANCH  10  11
ATOM     11  C   UNL A   1      38.661  30.569  29.544  1.00  0.00     0.031 A 
ATOM     12  C   UNL A   1      38.836  30.960  31.020  1.00  0.00     0.074 A 
ATOM     13  C   UNL A   1      39.638  29.791  29.038  1.00  0.00     0.049 A 
ATOM     14  N   UNL A   1      39.914  30.949  31.783  1.00  0.00    -0.248 NA
ATOM     15  C   UNL A   1      37.650  31.402  31.744  1.00  0.00     0.031 C 
ATOM     16  C   UNL A   1      39.577  29.146  27.734  1.00  0.00     0.029 A 
ATOM     17  N   UNL A   1      40.835  29.365  29.565  1.00  0.00    -0.354 N 
ATOM     18  C   UNL A   1      39.540  31.470  33.033  1.00  0.00     0.074 A 
ATOM     19  C   UNL A   1      38.137  31.808  32.909  1.00  0.00     0.031 C 
ATOM     20  C   UNL A   1      40.666  28.386  27.566  1.00  0.00     0.029 A 
ATOM     21  C   UNL A   1      41.542  28.540  28.719  1.00  0.00     0.049 A 
ATOM     22  H   UNL A   1      41.156  29.624  30.458  1.00  0.00     0.167 HD
ATOM     23  C   UNL A   1      40.260  31.614  34.186  1.00  0.00     0.034 A 
ATOM     24  C   UNL A   1      42.766  27.984  28.824  1.00  0.00     0.034 A 
ATOM     25  C   UNL A   1      41.608  31.122  34.379  1.00  0.00     0.049 A 
ATOM     26  C   UNL A   1      43.582  28.206  30.070  1.00  0.00     0.074 A 
ATOM     27  C   UNL A   1      42.427  31.226  35.496  1.00  0.00     0.029 A 
ATOM     28  N   UNL A   1      42.319  30.380  33.447  1.00  0.00    -0.354 N 
ATOM     29  N   UNL A   1      43.260  28.849  31.166  1.00  0.00    -0.248 NA
ATOM     30  C   UNL A   1      44.929  27.620  30.089  1.00  0.00     0.031 C 
ATOM     31  C   UNL A   1      43.643  30.586  35.222  1.00  0.00     0.029 A 
ATOM     32  C   UNL A   1      43.563  30.030  33.956  1.00  0.00     0.049 A 
ATOM     33  H   UNL A   1      41.990  30.137  32.552  1.00  0.00     0.167 HD
ATOM     34  C   UNL A   1      44.359  28.725  32.013  1.00  0.00     0.074 A 
ATOM     35  C   UNL A   1      45.341  27.927  31.310  1.00  0.00     0.031 C 
ATOM     36  C   UNL A   1      44.541  29.232  33.258  1.00  0.00     0.034 A 
BRANCH  23  37
ATOM     37  C   UNL A   1      39.621  32.380  35.338  1.00  0.00     0.023 A 
ATOM     38  C   UNL A   1      39.879  33.740  35.580  1.00  0.00     0.031 A 
ATOM     39  C   UNL A   1      38.758  31.715  36.233  1.00  0.00     0.131 A 
ATOM     40  C   UNL A   1      39.383  34.355  36.744  1.00  0.00     0.055 A 
ATOM     41  C   UNL A   1      38.192  32.358  37.339  1.00  0.00     0.041 A 
ATOM     42  F   UNL A   1      38.457  30.419  36.054  1.00  0.00    -0.206 F 
ATOM     43  C   UNL A   1      38.525  33.679  37.615  1.00  0.00     0.022 A 
BRANCH  40  44
ATOM     44  S   UNL A   1      40.028  35.990  37.199  1.00  0.00     0.124 S 
ATOM     45  O   UNL A   1      39.756  36.765  35.990  1.00  0.00    -0.237 OA
ATOM     46  O   UNL A   1      39.225  36.331  38.368  1.00  0.00    -0.237 OA
ATOM     47  O   UNL A   1      41.443  35.742  37.466  1.00  0.00    -0.744 OA
ENDBRANCH  40  44
ENDBRANCH  23  37
BRANCH  24  48
ATOM     48  C   UNL A   1      43.332  27.214  27.675  1.00  0.00     0.023 A 
ATOM     49  C   UNL A   1      43.176  25.824  27.575  1.00  0.00     0.031 A 
ATOM     50  C   UNL A   1      44.092  27.866  26.685  1.00  0.00     0.131 A 
ATOM     51  C   UNL A   1      43.813  25.124  26.539  1.00  0.00     0.055 A 
ATOM     52  C   UNL A   1      44.672  27.175  25.623  1.00  0.00     0.041 A 
ATOM     53  F   UNL A   1      44.272  29.196  26.732  1.00  0.00    -0.206 F 
ATOM     54  C   UNL A   1      44.548  25.792  25.555  1.00  0.00     0.022 A 
BRANCH  51  55
ATOM     55  S   UNL A   1      43.756  23.312  26.549  1.00  0.00     0.124 S 
ATOM     56  O   UNL A   1      45.086  22.974  27.044  1.00  0.00    -0.237 OA
ATOM     57  O   UNL A   1      42.646  23.049  27.459  1.00  0.00    -0.237 OA
ATOM     58  O   UNL A   1      43.505  22.972  25.150  1.00  0.00    -0.744 OA
ENDBRANCH  51  55
ENDBRANCH  24  48
BRANCH  36  59
ATOM     59  C   UNL A   1      45.836  28.898  33.957  1.00  0.00     0.023 A 
ATOM     60  C   UNL A   1      45.966  27.749  34.759  1.00  0.00     0.031 A 
ATOM     61  C   UNL A   1      46.951  29.744  33.828  1.00  0.00     0.131 A 
ATOM     62  C   UNL A   1      47.169  27.503  35.438  1.00  0.00     0.055 A 
ATOM     63  C   UNL A   1      48.163  29.465  34.464  1.00  0.00     0.041 A 
ATOM     64  F   UNL A   1      46.883  30.855  33.079  1.00  0.00    -0.206 F 
ATOM     65  C   UNL A   1      48.274  28.345  35.283  1.00  0.00     0.022 A 
BRANCH  62  66
ATOM     66  S   UNL A   1      47.250  26.102  36.588  1.00  0.00     0.124 S 
ATOM     67  O   UNL A   1      48.209  25.222  35.930  1.00  0.00    -0.237 OA
ATOM     68  O   UNL A   1      47.708  26.736  37.821  1.00  0.00    -0.237 OA
ATOM     69  O   UNL A   1      45.875  25.606  36.622  1.00  0.00    -0.744 OA
ENDBRANCH  62  66
ENDBRANCH  36  59
ENDBRANCH  10  11
ENDBRANCH   3   5
ENDBRANCH   2   3
ENDBRANCH   1   2
BRANCH   1  70
ATOM     70  C   UNL A   1      33.833  28.295  24.336  1.00  0.00     0.274 C 
BRANCH  70  71
ATOM     71  O   UNL A   1      33.805  28.348  22.889  1.00  0.00    -0.459 OA
BRANCH  71  72
ATOM     72  C   UNL A   1      33.240  27.275  22.271  1.00  0.00     0.352 C 
ATOM     73  O   UNL A   1      33.982  26.409  21.807  1.00  0.00    -0.247 OA
BRANCH  72  74
ATOM     74  C   UNL A   1      31.415  27.184  22.243  1.00  0.00     0.313 C 
BRANCH  74  75
ATOM     75  C   UNL A   1      31.352  25.746  23.261  1.00  0.00     0.004 A 
ATOM     76  C   UNL A   1      31.438  24.459  22.712  1.00  0.00     0.008 A 
ATOM     77  C   UNL A   1      31.075  25.855  24.661  1.00  0.00     0.008 A 
ATOM     78  C   UNL A   1      31.078  23.347  23.490  1.00  0.00     0.000 A 
ATOM     79  C   UNL A   1      30.741  24.739  25.429  1.00  0.00     0.000 A 
ATOM     80  C   UNL A   1      30.704  23.487  24.831  1.00  0.00     0.000 A 
ENDBRANCH  74  75
BRANCH  74  81
ATOM     81  O   UNL A   1      30.033  28.627  22.285  1.00  0.00    -0.474 OA
BRANCH  81  82
ATOM     82  C   UNL A   1      29.472  29.961  22.569  1.00  0.00     0.128 A 
ATOM     83  C   UNL A   1      29.377  30.584  23.826  1.00  0.00     0.047 A 
ATOM     84  C   UNL A   1      28.948  30.634  21.454  1.00  0.00     0.132 A 
ATOM     85  C   UNL A   1      28.673  31.774  23.981  1.00  0.00     0.011 A 
ATOM     86  C   UNL A   1      28.257  31.831  21.614  1.00  0.00     0.273 A 
ATOM     87  C   UNL A   1      28.093  32.392  22.880  1.00  0.00     0.086 A 
BRANCH  86  88
ATOM     88  N   UNL A   1      27.642  32.450  20.442  1.00  0.00     0.062 N 
ATOM     89  O   UNL A   1      27.373  33.657  20.515  1.00  0.00    -0.258 OA
ATOM     90  O   UNL A   1      27.367  31.719  19.480  1.00  0.00    -0.258 OA
ENDBRANCH  86  88
ENDBRANCH  81  82
ENDBRANCH  74  81
ENDBRANCH  72  74
ENDBRANCH  71  72
ENDBRANCH  70  71
ENDBRANCH   1  70
TORSDOF 18
ENDMDL
