MODEL 1
REMARK VINA RESULT:     -10.8      0.000      0.000
REMARK SMILES CCC(CC)Nc1cc(C)c(N)c(C(=O)OCCOC(=O)c2ccc(-c3c4nc(c(-c5cc(S(=O)(=O)[O-])ccc5F)c5ccc([nH]5)c(-c5cc(S(=O)(=O)[O-])ccc5F)c5nc(c(-c6cc(S(=O)(=O)[O-])ccc6F)c6ccc3[nH]6)C=C5)C=C4)cc2)c1
REMARK SMILES IDX 17 1 16 2 14 3 15 4 13 5 7 6 8 7 85 8 9 9 10 10 11 11 6 12
REMARK SMILES IDX 3 14 2 15 1 16 4 17 5 18 12 19 18 22 19 23 20 24 21 25 22 26
REMARK SMILES IDX 23 27 84 28 24 29 83 30 25 31 26 32 27 33 77 34 28 35 82 36
REMARK SMILES IDX 76 37 78 38 29 39 81 40 75 41 74 42 30 44 62 45 42 46 61 47
REMARK SMILES IDX 43 48 46 49 60 50 79 51 44 52 45 53 59 55 80 56 47 57 31 58
REMARK SMILES IDX 32 59 40 60 33 61 39 62 41 63 38 64 34 65 35 66 36 67 37 68
REMARK SMILES IDX 63 69 64 70 72 71 65 72 71 73 73 74 70 75 66 76 67 77 68 78
REMARK SMILES IDX 69 79 48 80 49 81 57 82 50 83 56 84 58 85 55 86 51 87 52 88
REMARK SMILES IDX 53 89 54 90
REMARK H PARENT 6 13 12 20 12 21 78 43 46 54
REMARK Flexibility Score: inf
ROOT
ATOM      1  C   UNL A   1      31.532  28.803  24.802  1.00  0.00     0.275 C 
ENDROOT
BRANCH   1   2
ATOM      2  O   UNL A   1      31.844  27.516  25.378  1.00  0.00    -0.458 OA
BRANCH   2   3
ATOM      3  C   UNL A   1      31.837  26.452  24.527  1.00  0.00     0.340 C 
ATOM      4  O   UNL A   1      31.842  26.504  23.311  1.00  0.00    -0.246 OA
BRANCH   3   5
ATOM      5  C   UNL A   1      31.901  25.183  25.308  1.00  0.00     0.085 A 
ATOM      6  C   UNL A   1      33.183  23.204  25.950  1.00  0.00     0.035 A 
ATOM      7  C   UNL A   1      32.024  22.707  26.548  1.00  0.00     0.031 A 
ATOM      8  C   UNL A   1      33.090  24.433  25.295  1.00  0.00     0.043 A 
ATOM      9  C   UNL A   1      30.827  23.448  26.598  1.00  0.00    -0.025 A 
ATOM     10  C   UNL A   1      29.608  22.806  27.210  1.00  0.00     0.047 C 
ATOM     11  C   UNL A   1      30.785  24.742  26.050  1.00  0.00     0.049 A 
BRANCH   6  12
ATOM     12  N   UNL A   1      34.378  22.515  25.898  1.00  0.00    -0.382 N 
ATOM     13  H   UNL A   1      34.917  22.481  26.719  1.00  0.00     0.160 HD
BRANCH  12  14
ATOM     14  C   UNL A   1      34.903  21.832  24.721  1.00  0.00     0.078 C 
BRANCH  14  15
ATOM     15  C   UNL A   1      36.190  22.567  24.299  1.00  0.00     0.021 C 
ATOM     16  C   UNL A   1      36.860  23.312  25.442  1.00  0.00     0.006 C 
ENDBRANCH  14  15
BRANCH  14  17
ATOM     17  C   UNL A   1      35.088  20.329  25.000  1.00  0.00     0.021 C 
ATOM     18  C   UNL A   1      33.895  19.447  24.650  1.00  0.00     0.006 C 
ENDBRANCH  14  17
ENDBRANCH  12  14
ENDBRANCH   6  12
BRANCH  11  19
ATOM     19  N   UNL A   1      29.613  25.492  26.126  1.00  0.00    -0.398 N 
ATOM     20  H   UNL A   1      28.845  25.267  25.551  1.00  0.00     0.156 HD
ATOM     21  H   UNL A   1      29.552  26.249  26.754  1.00  0.00     0.156 HD
ENDBRANCH  11  19
ENDBRANCH   3   5
ENDBRANCH   2   3
ENDBRANCH   1   2
BRANCH   1  22
ATOM     22  C   UNL A   1      31.560  29.883  25.882  1.00  0.00     0.275 C 
BRANCH  22  23
ATOM     23  O   UNL A   1      32.878  30.449  25.931  1.00  0.00    -0.458 OA
BRANCH  23  24
ATOM     24  C   UNL A   1      33.103  31.353  26.915  1.00  0.00     0.338 C 
ATOM     25  O   UNL A   1      32.366  32.266  27.247  1.00  0.00    -0.246 OA
BRANCH  24  26
ATOM     26  C   UNL A   1      34.419  31.072  27.537  1.00  0.00     0.060 A 
ATOM     27  C   UNL A   1      34.796  29.760  27.818  1.00  0.00     0.016 A 
ATOM     28  C   UNL A   1      35.261  32.119  27.910  1.00  0.00     0.016 A 
ATOM     29  C   UNL A   1      35.974  29.491  28.514  1.00  0.00     0.010 A 
ATOM     30  C   UNL A   1      36.487  31.841  28.533  1.00  0.00     0.010 A 
ATOM     31  C   UNL A   1      36.850  30.523  28.873  1.00  0.00    -0.014 A 
BRANCH  31  32
ATOM     32  C   UNL A   1      38.087  30.237  29.669  1.00  0.00     0.031 A 
ATOM     33  C   UNL A   1      39.167  29.360  29.082  1.00  0.00     0.074 A 
ATOM     34  C   UNL A   1      38.277  30.760  30.899  1.00  0.00     0.049 A 
ATOM     35  N   UNL A   1      40.186  28.785  29.670  1.00  0.00    -0.248 NA
ATOM     36  C   UNL A   1      39.063  29.071  27.646  1.00  0.00     0.031 C 
ATOM     37  C   UNL A   1      37.361  31.671  31.587  1.00  0.00     0.029 A 
ATOM     38  N   UNL A   1      39.313  30.604  31.792  1.00  0.00    -0.354 N 
ATOM     39  C   UNL A   1      40.787  27.990  28.697  1.00  0.00     0.074 A 
ATOM     40  C   UNL A   1      40.018  28.167  27.483  1.00  0.00     0.031 C 
ATOM     41  C   UNL A   1      37.892  32.026  32.767  1.00  0.00     0.029 A 
ATOM     42  C   UNL A   1      39.132  31.285  32.975  1.00  0.00     0.049 A 
ATOM     43  H   UNL A   1      40.109  30.057  31.602  1.00  0.00     0.167 HD
ATOM     44  C   UNL A   1      41.873  27.183  28.812  1.00  0.00     0.034 A 
ATOM     45  C   UNL A   1      39.841  31.274  34.124  1.00  0.00     0.034 A 
ATOM     46  C   UNL A   1      42.681  27.085  30.006  1.00  0.00     0.049 A 
ATOM     47  C   UNL A   1      41.047  30.378  34.233  1.00  0.00     0.074 A 
ATOM     48  C   UNL A   1      43.822  26.328  30.216  1.00  0.00     0.029 A 
ATOM     49  N   UNL A   1      42.445  27.775  31.189  1.00  0.00    -0.354 N 
ATOM     50  N   UNL A   1      41.551  29.559  33.340  1.00  0.00    -0.248 NA
ATOM     51  C   UNL A   1      41.765  30.388  35.514  1.00  0.00     0.031 C 
ATOM     52  C   UNL A   1      44.241  26.518  31.538  1.00  0.00     0.029 A 
ATOM     53  C   UNL A   1      43.404  27.446  32.136  1.00  0.00     0.049 A 
ATOM     54  H   UNL A   1      41.703  28.406  31.334  1.00  0.00     0.167 HD
ATOM     55  C   UNL A   1      42.640  28.950  33.955  1.00  0.00     0.074 A 
ATOM     56  C   UNL A   1      42.741  29.522  35.283  1.00  0.00     0.031 C 
ATOM     57  C   UNL A   1      43.478  28.000  33.468  1.00  0.00     0.034 A 
BRANCH  44  58
ATOM     58  C   UNL A   1      42.199  26.285  27.639  1.00  0.00     0.023 A 
ATOM     59  C   UNL A   1      41.713  24.971  27.531  1.00  0.00     0.031 A 
ATOM     60  C   UNL A   1      43.063  26.749  26.628  1.00  0.00     0.131 A 
ATOM     61  C   UNL A   1      42.162  24.141  26.491  1.00  0.00     0.055 A 
ATOM     62  C   UNL A   1      43.437  25.947  25.549  1.00  0.00     0.041 A 
ATOM     63  F   UNL A   1      43.575  27.989  26.683  1.00  0.00    -0.206 F 
ATOM     64  C   UNL A   1      43.002  24.628  25.486  1.00  0.00     0.022 A 
BRANCH  61  65
ATOM     65  S   UNL A   1      41.769  22.372  26.561  1.00  0.00     0.124 S 
ATOM     66  O   UNL A   1      40.309  22.390  26.507  1.00  0.00    -0.237 OA
ATOM     67  O   UNL A   1      42.446  21.851  25.379  1.00  0.00    -0.237 OA
ATOM     68  O   UNL A   1      42.330  21.945  27.841  1.00  0.00    -0.744 OA
ENDBRANCH  61  65
ENDBRANCH  44  58
BRANCH  45  69
ATOM     69  C   UNL A   1      39.368  32.064  35.298  1.00  0.00     0.023 A 
ATOM     70  C   UNL A   1      39.805  33.379  35.525  1.00  0.00     0.031 A 
ATOM     71  C   UNL A   1      38.469  31.500  36.222  1.00  0.00     0.131 A 
ATOM     72  C   UNL A   1      39.354  34.080  36.656  1.00  0.00     0.055 A 
ATOM     73  C   UNL A   1      37.982  32.219  37.314  1.00  0.00     0.041 A 
ATOM     74  F   UNL A   1      38.024  30.244  36.057  1.00  0.00    -0.206 F 
ATOM     75  C   UNL A   1      38.430  33.515  37.540  1.00  0.00     0.022 A 
BRANCH  72  76
ATOM     76  S   UNL A   1      40.027  35.731  36.989  1.00  0.00     0.124 S 
ATOM     77  O   UNL A   1      39.654  36.455  35.779  1.00  0.00    -0.237 OA
ATOM     78  O   UNL A   1      39.320  36.110  38.208  1.00  0.00    -0.237 OA
ATOM     79  O   UNL A   1      41.459  35.488  37.155  1.00  0.00    -0.744 OA
ENDBRANCH  72  76
ENDBRANCH  45  69
BRANCH  57  80
ATOM     80  C   UNL A   1      44.590  27.540  34.378  1.00  0.00     0.023 A 
ATOM     81  C   UNL A   1      44.432  26.439  35.237  1.00  0.00     0.031 A 
ATOM     82  C   UNL A   1      45.815  28.229  34.402  1.00  0.00     0.131 A 
ATOM     83  C   UNL A   1      45.463  26.089  36.122  1.00  0.00     0.055 A 
ATOM     84  C   UNL A   1      46.858  27.844  35.247  1.00  0.00     0.041 A 
ATOM     85  F   UNL A   1      46.019  29.290  33.606  1.00  0.00    -0.206 F 
ATOM     86  C   UNL A   1      46.681  26.776  36.123  1.00  0.00     0.022 A 
BRANCH  83  87
ATOM     87  S   UNL A   1      45.164  24.776  37.338  1.00  0.00     0.124 S 
ATOM     88  O   UNL A   1      43.867  25.159  37.886  1.00  0.00    -0.237 OA
ATOM     89  O   UNL A   1      45.178  23.574  36.511  1.00  0.00    -0.237 OA
ATOM     90  O   UNL A   1      46.289  24.903  38.265  1.00  0.00    -0.744 OA
ENDBRANCH  83  87
ENDBRANCH  57  80
ENDBRANCH  31  32
ENDBRANCH  24  26
ENDBRANCH  23  24
ENDBRANCH  22  23
ENDBRANCH   1  22
TORSDOF 19
ENDMDL
MODEL 2
REMARK VINA RESULT:     -10.5      5.191     10.053
REMARK SMILES CCC(CC)Nc1cc(C)c(N)c(C(=O)OCCOC(=O)c2ccc(-c3c4nc(c(-c5cc(S(=O)(=O)[O-])ccc5F)c5ccc([nH]5)c(-c5cc(S(=O)(=O)[O-])ccc5F)c5nc(c(-c6cc(S(=O)(=O)[O-])ccc6F)c6ccc3[nH]6)C=C5)C=C4)cc2)c1
REMARK SMILES IDX 17 1 16 2 14 3 15 4 13 5 7 6 8 7 85 8 9 9 10 10 11 11 6 12
REMARK SMILES IDX 3 14 2 15 1 16 4 17 5 18 12 19 18 22 19 23 20 24 21 25 22 26
REMARK SMILES IDX 23 27 84 28 24 29 83 30 25 31 26 32 27 33 77 34 28 35 82 36
REMARK SMILES IDX 76 37 78 38 29 39 81 40 75 41 74 42 30 44 62 45 42 46 61 47
REMARK SMILES IDX 43 48 46 49 60 50 79 51 44 52 45 53 59 55 80 56 47 57 31 58
REMARK SMILES IDX 32 59 40 60 33 61 39 62 41 63 38 64 34 65 35 66 36 67 37 68
REMARK SMILES IDX 63 69 64 70 72 71 65 72 71 73 73 74 70 75 66 76 67 77 68 78
REMARK SMILES IDX 69 79 48 80 49 81 57 82 50 83 56 84 58 85 55 86 51 87 52 88
REMARK SMILES IDX 53 89 54 90
REMARK H PARENT 6 13 12 20 12 21 78 43 46 54
REMARK Flexibility Score: inf
ROOT
ATOM      1  C   UNL A   1      35.436  22.272  26.072  1.00  0.00     0.275 C 
ENDROOT
BRANCH   1   2
ATOM      2  O   UNL A   1      35.094  23.304  25.121  1.00  0.00    -0.458 OA
BRANCH   2   3
ATOM      3  C   UNL A   1      33.765  23.535  24.926  1.00  0.00     0.340 C 
ATOM      4  O   UNL A   1      32.848  22.873  25.375  1.00  0.00    -0.246 OA
BRANCH   3   5
ATOM      5  C   UNL A   1      33.583  24.783  24.130  1.00  0.00     0.085 A 
ATOM      6  C   UNL A   1      33.779  27.216  24.012  1.00  0.00     0.035 A 
ATOM      7  C   UNL A   1      33.073  27.166  22.809  1.00  0.00     0.031 A 
ATOM      8  C   UNL A   1      33.990  26.010  24.682  1.00  0.00     0.043 A 
ATOM      9  C   UNL A   1      32.676  25.949  22.221  1.00  0.00    -0.025 A 
ATOM     10  C   UNL A   1      31.863  25.995  20.952  1.00  0.00     0.047 C 
ATOM     11  C   UNL A   1      33.012  24.732  22.841  1.00  0.00     0.049 A 
BRANCH   6  12
ATOM     12  N   UNL A   1      34.200  28.387  24.609  1.00  0.00    -0.382 N 
ATOM     13  H   UNL A   1      34.980  28.841  24.216  1.00  0.00     0.160 HD
BRANCH  12  14
ATOM     14  C   UNL A   1      33.580  29.006  25.775  1.00  0.00     0.078 C 
BRANCH  14  15
ATOM     15  C   UNL A   1      32.072  28.694  25.714  1.00  0.00     0.021 C 
ATOM     16  C   UNL A   1      31.530  28.092  27.000  1.00  0.00     0.006 C 
ENDBRANCH  14  15
BRANCH  14  17
ATOM     17  C   UNL A   1      34.276  28.548  27.070  1.00  0.00     0.021 C 
ATOM     18  C   UNL A   1      35.509  29.350  27.469  1.00  0.00     0.006 C 
ENDBRANCH  14  17
ENDBRANCH  12  14
ENDBRANCH   6  12
BRANCH  11  19
ATOM     19  N   UNL A   1      32.650  23.525  22.246  1.00  0.00    -0.398 N 
ATOM     20  H   UNL A   1      32.841  22.674  22.703  1.00  0.00     0.156 HD
ATOM     21  H   UNL A   1      32.206  23.523  21.367  1.00  0.00     0.156 HD
ENDBRANCH  11  19
ENDBRANCH   3   5
ENDBRANCH   2   3
ENDBRANCH   1   2
BRANCH   1  22
ATOM     22  C   UNL A   1      36.291  21.200  25.400  1.00  0.00     0.275 C 
BRANCH  22  23
ATOM     23  O   UNL A   1      37.554  21.780  25.040  1.00  0.00    -0.458 OA
BRANCH  23  24
ATOM     24  C   UNL A   1      38.621  21.391  25.778  1.00  0.00     0.338 C 
ATOM     25  O   UNL A   1      39.015  20.249  25.942  1.00  0.00    -0.246 OA
BRANCH  24  26
ATOM     26  C   UNL A   1      39.248  22.588  26.388  1.00  0.00     0.060 A 
ATOM     27  C   UNL A   1      38.765  23.861  26.090  1.00  0.00     0.016 A 
ATOM     28  C   UNL A   1      40.367  22.457  27.208  1.00  0.00     0.016 A 
ATOM     29  C   UNL A   1      39.422  24.999  26.557  1.00  0.00     0.010 A 
ATOM     30  C   UNL A   1      40.975  23.601  27.748  1.00  0.00     0.010 A 
ATOM     31  C   UNL A   1      40.531  24.894  27.406  1.00  0.00    -0.014 A 
BRANCH  31  32
ATOM     32  C   UNL A   1      41.268  26.116  27.862  1.00  0.00     0.031 A 
ATOM     33  C   UNL A   1      40.554  27.149  28.700  1.00  0.00     0.074 A 
ATOM     34  C   UNL A   1      42.568  26.315  27.560  1.00  0.00     0.049 A 
ATOM     35  N   UNL A   1      40.908  28.376  28.991  1.00  0.00    -0.248 NA
ATOM     36  C   UNL A   1      39.256  26.752  29.258  1.00  0.00     0.031 C 
ATOM     37  C   UNL A   1      43.419  25.390  26.809  1.00  0.00     0.029 A 
ATOM     38  N   UNL A   1      43.409  27.365  27.854  1.00  0.00    -0.354 N 
ATOM     39  C   UNL A   1      39.833  28.927  29.684  1.00  0.00     0.074 A 
ATOM     40  C   UNL A   1      38.821  27.894  29.771  1.00  0.00     0.031 C 
ATOM     41  C   UNL A   1      44.662  25.889  26.739  1.00  0.00     0.029 A 
ATOM     42  C   UNL A   1      44.679  27.219  27.341  1.00  0.00     0.049 A 
ATOM     43  H   UNL A   1      43.128  28.147  28.381  1.00  0.00     0.167 HD
ATOM     44  C   UNL A   1      39.700  30.180  30.189  1.00  0.00     0.034 A 
ATOM     45  C   UNL A   1      45.723  28.072  27.298  1.00  0.00     0.034 A 
ATOM     46  C   UNL A   1      40.752  31.172  30.170  1.00  0.00     0.049 A 
ATOM     47  C   UNL A   1      45.563  29.456  27.869  1.00  0.00     0.074 A 
ATOM     48  C   UNL A   1      40.736  32.457  30.688  1.00  0.00     0.029 A 
ATOM     49  N   UNL A   1      42.013  30.986  29.618  1.00  0.00    -0.354 N 
ATOM     50  N   UNL A   1      44.511  30.000  28.436  1.00  0.00    -0.248 NA
ATOM     51  C   UNL A   1      46.724  30.351  27.773  1.00  0.00     0.031 C 
ATOM     52  C   UNL A   1      41.964  33.064  30.400  1.00  0.00     0.029 A 
ATOM     53  C   UNL A   1      42.774  32.138  29.763  1.00  0.00     0.049 A 
ATOM     54  H   UNL A   1      42.323  30.157  29.185  1.00  0.00     0.167 HD
ATOM     55  C   UNL A   1      44.882  31.302  28.756  1.00  0.00     0.074 A 
ATOM     56  C   UNL A   1      46.265  31.452  28.351  1.00  0.00     0.031 C 
ATOM     57  C   UNL A   1      44.144  32.287  29.328  1.00  0.00     0.034 A 
BRANCH  44  58
ATOM     58  C   UNL A   1      38.345  30.571  30.733  1.00  0.00     0.023 A 
ATOM     59  C   UNL A   1      37.422  31.334  29.997  1.00  0.00     0.031 A 
ATOM     60  C   UNL A   1      37.993  30.208  32.048  1.00  0.00     0.131 A 
ATOM     61  C   UNL A   1      36.239  31.782  30.607  1.00  0.00     0.055 A 
ATOM     62  C   UNL A   1      36.775  30.584  32.619  1.00  0.00     0.041 A 
ATOM     63  F   UNL A   1      38.838  29.496  32.810  1.00  0.00    -0.206 F 
ATOM     64  C   UNL A   1      35.898  31.392  31.904  1.00  0.00     0.022 A 
BRANCH  61  65
ATOM     65  S   UNL A   1      35.231  33.018  29.741  1.00  0.00     0.124 S 
ATOM     66  O   UNL A   1      34.743  32.253  28.596  1.00  0.00    -0.237 OA
ATOM     67  O   UNL A   1      34.235  33.371  30.746  1.00  0.00    -0.237 OA
ATOM     68  O   UNL A   1      36.188  34.072  29.412  1.00  0.00    -0.744 OA
ENDBRANCH  61  65
ENDBRANCH  44  58
BRANCH  45  69
ATOM     69  C   UNL A   1      46.981  27.675  26.600  1.00  0.00     0.023 A 
ATOM     70  C   UNL A   1      47.135  27.833  25.214  1.00  0.00     0.031 A 
ATOM     71  C   UNL A   1      48.053  27.118  27.323  1.00  0.00     0.131 A 
ATOM     72  C   UNL A   1      48.327  27.424  24.592  1.00  0.00     0.055 A 
ATOM     73  C   UNL A   1      49.255  26.764  26.709  1.00  0.00     0.041 A 
ATOM     74  F   UNL A   1      47.956  26.939  28.650  1.00  0.00    -0.206 F 
ATOM     75  C   UNL A   1      49.394  26.911  25.334  1.00  0.00     0.022 A 
BRANCH  72  76
ATOM     76  S   UNL A   1      48.452  27.527  22.785  1.00  0.00     0.124 S 
ATOM     77  O   UNL A   1      47.237  28.257  22.443  1.00  0.00    -0.237 OA
ATOM     78  O   UNL A   1      49.706  28.251  22.606  1.00  0.00    -0.237 OA
ATOM     79  O   UNL A   1      48.479  26.127  22.365  1.00  0.00    -0.744 OA
ENDBRANCH  72  76
ENDBRANCH  45  69
BRANCH  57  80
ATOM     80  C   UNL A   1      44.835  33.606  29.566  1.00  0.00     0.023 A 
ATOM     81  C   UNL A   1      44.879  34.604  28.578  1.00  0.00     0.031 A 
ATOM     82  C   UNL A   1      45.479  33.858  30.791  1.00  0.00     0.131 A 
ATOM     83  C   UNL A   1      45.596  35.788  28.810  1.00  0.00     0.055 A 
ATOM     84  C   UNL A   1      46.146  35.059  31.037  1.00  0.00     0.041 A 
ATOM     85  F   UNL A   1      45.472  32.938  31.769  1.00  0.00    -0.206 F 
ATOM     86  C   UNL A   1      46.218  36.027  30.039  1.00  0.00     0.022 A 
BRANCH  83  87
ATOM     87  S   UNL A   1      45.782  36.979  27.454  1.00  0.00     0.124 S 
ATOM     88  O   UNL A   1      46.904  37.790  27.914  1.00  0.00    -0.237 OA
ATOM     89  O   UNL A   1      46.047  36.113  26.311  1.00  0.00    -0.237 OA
ATOM     90  O   UNL A   1      44.492  37.668  27.424  1.00  0.00    -0.744 OA
ENDBRANCH  83  87
ENDBRANCH  57  80
ENDBRANCH  31  32
ENDBRANCH  24  26
ENDBRANCH  23  24
ENDBRANCH  22  23
ENDBRANCH   1  22
TORSDOF 19
ENDMDL
MODEL 3
REMARK VINA RESULT:     -10.5      2.350      3.925
REMARK SMILES CCC(CC)Nc1cc(C)c(N)c(C(=O)OCCOC(=O)c2ccc(-c3c4nc(c(-c5cc(S(=O)(=O)[O-])ccc5F)c5ccc([nH]5)c(-c5cc(S(=O)(=O)[O-])ccc5F)c5nc(c(-c6cc(S(=O)(=O)[O-])ccc6F)c6ccc3[nH]6)C=C5)C=C4)cc2)c1
REMARK SMILES IDX 17 1 16 2 14 3 15 4 13 5 7 6 8 7 85 8 9 9 10 10 11 11 6 12
REMARK SMILES IDX 3 14 2 15 1 16 4 17 5 18 12 19 18 22 19 23 20 24 21 25 22 26
REMARK SMILES IDX 23 27 84 28 24 29 83 30 25 31 26 32 27 33 77 34 28 35 82 36
REMARK SMILES IDX 76 37 78 38 29 39 81 40 75 41 74 42 30 44 62 45 42 46 61 47
REMARK SMILES IDX 43 48 46 49 60 50 79 51 44 52 45 53 59 55 80 56 47 57 31 58
REMARK SMILES IDX 32 59 40 60 33 61 39 62 41 63 38 64 34 65 35 66 36 67 37 68
REMARK SMILES IDX 63 69 64 70 72 71 65 72 71 73 73 74 70 75 66 76 67 77 68 78
REMARK SMILES IDX 69 79 48 80 49 81 57 82 50 83 56 84 58 85 55 86 51 87 52 88
REMARK SMILES IDX 53 89 54 90
REMARK H PARENT 6 13 12 20 12 21 78 43 46 54
REMARK Flexibility Score: inf
ROOT
ATOM      1  C   UNL A   1      32.264  28.154  26.892  1.00  0.00     0.275 C 
ENDROOT
BRANCH   1   2
ATOM      2  O   UNL A   1      31.020  27.433  27.027  1.00  0.00    -0.458 OA
BRANCH   2   3
ATOM      3  C   UNL A   1      30.798  26.432  26.131  1.00  0.00     0.340 C 
ATOM      4  O   UNL A   1      30.448  25.296  26.395  1.00  0.00    -0.246 OA
BRANCH   3   5
ATOM      5  C   UNL A   1      30.971  26.950  24.743  1.00  0.00     0.085 A 
ATOM      6  C   UNL A   1      30.472  28.689  23.100  1.00  0.00     0.035 A 
ATOM      7  C   UNL A   1      31.056  27.873  22.130  1.00  0.00     0.031 A 
ATOM      8  C   UNL A   1      30.401  28.189  24.402  1.00  0.00     0.043 A 
ATOM      9  C   UNL A   1      31.657  26.639  22.449  1.00  0.00    -0.025 A 
ATOM     10  C   UNL A   1      32.208  25.795  21.328  1.00  0.00     0.047 C 
ATOM     11  C   UNL A   1      31.696  26.208  23.788  1.00  0.00     0.049 A 
BRANCH   6  12
ATOM     12  N   UNL A   1      29.891  29.911  22.828  1.00  0.00    -0.382 N 
ATOM     13  H   UNL A   1      30.491  30.678  22.693  1.00  0.00     0.160 HD
BRANCH  12  14
ATOM     14  C   UNL A   1      28.456  30.155  22.725  1.00  0.00     0.078 C 
BRANCH  14  15
ATOM     15  C   UNL A   1      28.136  31.388  23.592  1.00  0.00     0.021 C 
ATOM     16  C   UNL A   1      29.363  31.996  24.251  1.00  0.00     0.006 C 
ENDBRANCH  14  15
BRANCH  14  17
ATOM     17  C   UNL A   1      28.030  30.282  21.250  1.00  0.00     0.021 C 
ATOM     18  C   UNL A   1      28.028  31.699  20.690  1.00  0.00     0.006 C 
ENDBRANCH  14  17
ENDBRANCH  12  14
ENDBRANCH   6  12
BRANCH  11  19
ATOM     19  N   UNL A   1      32.318  25.004  24.112  1.00  0.00    -0.398 N 
ATOM     20  H   UNL A   1      32.489  24.333  23.412  1.00  0.00     0.156 HD
ATOM     21  H   UNL A   1      32.586  24.823  25.043  1.00  0.00     0.156 HD
ENDBRANCH  11  19
ENDBRANCH   3   5
ENDBRANCH   2   3
ENDBRANCH   1   2
BRANCH   1  22
ATOM     22  C   UNL A   1      32.030  29.650  27.090  1.00  0.00     0.275 C 
BRANCH  22  23
ATOM     23  O   UNL A   1      33.134  30.367  26.519  1.00  0.00    -0.458 OA
BRANCH  23  24
ATOM     24  C   UNL A   1      33.603  31.414  27.241  1.00  0.00     0.338 C 
ATOM     25  O   UNL A   1      33.046  32.484  27.417  1.00  0.00    -0.246 OA
BRANCH  24  26
ATOM     26  C   UNL A   1      34.936  31.064  27.789  1.00  0.00     0.060 A 
ATOM     27  C   UNL A   1      35.220  29.749  28.154  1.00  0.00     0.016 A 
ATOM     28  C   UNL A   1      35.890  32.056  28.008  1.00  0.00     0.016 A 
ATOM     29  C   UNL A   1      36.423  29.430  28.784  1.00  0.00     0.010 A 
ATOM     30  C   UNL A   1      37.134  31.717  28.563  1.00  0.00     0.010 A 
ATOM     31  C   UNL A   1      37.409  30.403  28.989  1.00  0.00    -0.014 A 
BRANCH  31  32
ATOM     32  C   UNL A   1      38.677  30.070  29.715  1.00  0.00     0.031 A 
ATOM     33  C   UNL A   1      39.677  29.133  29.081  1.00  0.00     0.074 A 
ATOM     34  C   UNL A   1      38.965  30.601  30.922  1.00  0.00     0.049 A 
ATOM     35  N   UNL A   1      40.701  28.518  29.618  1.00  0.00    -0.248 NA
ATOM     36  C   UNL A   1      39.474  28.828  27.659  1.00  0.00     0.031 C 
ATOM     37  C   UNL A   1      38.135  31.565  31.647  1.00  0.00     0.029 A 
ATOM     38  N   UNL A   1      40.044  30.408  31.755  1.00  0.00    -0.354 N 
ATOM     39  C   UNL A   1      41.205  27.682  28.626  1.00  0.00     0.074 A 
ATOM     40  C   UNL A   1      40.374  27.877  27.455  1.00  0.00     0.031 C 
ATOM     41  C   UNL A   1      38.752  31.911  32.787  1.00  0.00     0.029 A 
ATOM     42  C   UNL A   1      39.966  31.115  32.935  1.00  0.00     0.049 A 
ATOM     43  H   UNL A   1      40.800  29.821  31.528  1.00  0.00     0.167 HD
ATOM     44  C   UNL A   1      42.256  26.824  28.690  1.00  0.00     0.034 A 
ATOM     45  C   UNL A   1      40.740  31.087  34.040  1.00  0.00     0.034 A 
ATOM     46  C   UNL A   1      43.128  26.705  29.836  1.00  0.00     0.049 A 
ATOM     47  C   UNL A   1      41.907  30.136  34.093  1.00  0.00     0.074 A 
ATOM     48  C   UNL A   1      44.243  25.897  29.992  1.00  0.00     0.029 A 
ATOM     49  N   UNL A   1      42.996  27.423  31.018  1.00  0.00    -0.354 N 
ATOM     50  N   UNL A   1      42.318  29.280  33.187  1.00  0.00    -0.248 NA
ATOM     51  C   UNL A   1      42.701  30.129  35.330  1.00  0.00     0.031 C 
ATOM     52  C   UNL A   1      44.749  26.086  31.283  1.00  0.00     0.029 A 
ATOM     53  C   UNL A   1      43.994  27.062  31.913  1.00  0.00     0.049 A 
ATOM     54  H   UNL A   1      42.295  28.092  31.196  1.00  0.00     0.167 HD
ATOM     55  C   UNL A   1      43.412  28.628  33.747  1.00  0.00     0.074 A 
ATOM     56  C   UNL A   1      43.619  29.214  35.056  1.00  0.00     0.031 C 
ATOM     57  C   UNL A   1      44.173  27.631  33.228  1.00  0.00     0.034 A 
BRANCH  44  58
ATOM     58  C   UNL A   1      42.468  25.895  27.516  1.00  0.00     0.023 A 
ATOM     59  C   UNL A   1      41.903  24.610  27.453  1.00  0.00     0.031 A 
ATOM     60  C   UNL A   1      43.305  26.295  26.456  1.00  0.00     0.131 A 
ATOM     61  C   UNL A   1      42.249  23.743  26.404  1.00  0.00     0.055 A 
ATOM     62  C   UNL A   1      43.576  25.459  25.371  1.00  0.00     0.041 A 
ATOM     63  F   UNL A   1      43.890  27.503  26.465  1.00  0.00    -0.206 F 
ATOM     64  C   UNL A   1      43.062  24.167  25.351  1.00  0.00     0.022 A 
BRANCH  61  65
ATOM     65  S   UNL A   1      41.758  22.000  26.521  1.00  0.00     0.124 S 
ATOM     66  O   UNL A   1      40.303  22.095  26.426  1.00  0.00    -0.237 OA
ATOM     67  O   UNL A   1      42.436  21.404  25.376  1.00  0.00    -0.237 OA
ATOM     68  O   UNL A   1      42.262  21.588  27.830  1.00  0.00    -0.744 OA
ENDBRANCH  61  65
ENDBRANCH  44  58
BRANCH  45  69
ATOM     69  C   UNL A   1      40.377  31.916  35.226  1.00  0.00     0.023 A 
ATOM     70  C   UNL A   1      39.375  31.515  36.124  1.00  0.00     0.031 A 
ATOM     71  C   UNL A   1      41.031  33.138  35.470  1.00  0.00     0.131 A 
ATOM     72  C   UNL A   1      39.046  32.338  37.216  1.00  0.00     0.055 A 
ATOM     73  C   UNL A   1      40.739  33.923  36.585  1.00  0.00     0.041 A 
ATOM     74  F   UNL A   1      41.992  33.571  34.639  1.00  0.00    -0.206 F 
ATOM     75  C   UNL A   1      39.736  33.527  37.462  1.00  0.00     0.022 A 
BRANCH  72  76
ATOM     76  S   UNL A   1      37.666  31.855  38.290  1.00  0.00     0.124 S 
ATOM     77  O   UNL A   1      36.662  32.858  37.955  1.00  0.00    -0.237 OA
ATOM     78  O   UNL A   1      37.389  30.495  37.841  1.00  0.00    -0.237 OA
ATOM     79  O   UNL A   1      38.229  31.961  39.635  1.00  0.00    -0.744 OA
ENDBRANCH  72  76
ENDBRANCH  45  69
BRANCH  57  80
ATOM     80  C   UNL A   1      45.314  27.133  34.079  1.00  0.00     0.023 A 
ATOM     81  C   UNL A   1      45.172  26.019  34.925  1.00  0.00     0.031 A 
ATOM     82  C   UNL A   1      46.555  27.794  34.059  1.00  0.00     0.131 A 
ATOM     83  C   UNL A   1      46.234  25.632  35.757  1.00  0.00     0.055 A 
ATOM     84  C   UNL A   1      47.625  27.373  34.850  1.00  0.00     0.041 A 
ATOM     85  F   UNL A   1      46.746  28.866  33.273  1.00  0.00    -0.206 F 
ATOM     86  C   UNL A   1      47.465  26.293  35.714  1.00  0.00     0.022 A 
BRANCH  83  87
ATOM     87  S   UNL A   1      45.961  24.304  36.963  1.00  0.00     0.124 S 
ATOM     88  O   UNL A   1      47.218  23.566  36.892  1.00  0.00    -0.237 OA
ATOM     89  O   UNL A   1      45.724  25.046  38.197  1.00  0.00    -0.237 OA
ATOM     90  O   UNL A   1      44.796  23.594  36.434  1.00  0.00    -0.744 OA
ENDBRANCH  83  87
ENDBRANCH  57  80
ENDBRANCH  31  32
ENDBRANCH  24  26
ENDBRANCH  23  24
ENDBRANCH  22  23
ENDBRANCH   1  22
TORSDOF 19
ENDMDL
