MODEL 1
REMARK VINA RESULT:     -11.0      0.000      0.000
REMARK SMILES CCc1ccc(C(=O)[C@@H](Br)CC(=O)OCCOC(=O)c2ccc(-c3c4nc(c(-c5cc(S(=O)(=O)[O-])ccc5F)c5ccc([nH]5)c(-c5cc(S(=O)(=O)[O-])ccc5F)c5nc(c(-c6cc(S(=O)(=O)[O-])ccc6F)c6ccc3[nH]6)C=C5)C=C4)cc2)cc1
REMARK SMILES IDX 15 1 14 2 12 3 13 4 11 5 9 6 10 7 7 8 8 9 6 10 3 11 4 12
REMARK SMILES IDX 84 13 5 14 83 15 2 16 1 17 16 18 17 19 18 20 19 21 20 22
REMARK SMILES IDX 21 23 82 24 22 25 81 26 23 27 24 28 25 29 75 30 26 31 80 32
REMARK SMILES IDX 74 33 76 34 27 35 79 36 73 37 72 38 28 40 60 41 40 42 59 43
REMARK SMILES IDX 41 44 44 45 58 46 77 47 42 48 43 49 57 51 78 52 45 53 29 54
REMARK SMILES IDX 30 55 38 56 31 57 37 58 39 59 36 60 32 61 33 62 34 63 35 64
REMARK SMILES IDX 61 65 62 66 70 67 63 68 69 69 71 70 68 71 64 72 65 73 66 74
REMARK SMILES IDX 67 75 46 76 47 77 55 78 48 79 54 80 56 81 53 82 49 83 50 84
REMARK SMILES IDX 51 85 52 86
REMARK H PARENT 76 39 44 50
REMARK Flexibility Score: inf
ROOT
ATOM      1  C   UNL A   1      31.594  29.661  25.855  1.00  0.00     0.274 C 
ENDROOT
BRANCH   1   2
ATOM      2  O   UNL A   1      32.399  28.526  26.229  1.00  0.00    -0.462 OA
BRANCH   2   3
ATOM      3  C   UNL A   1      31.749  27.525  26.872  1.00  0.00     0.307 C 
ATOM      4  O   UNL A   1      31.037  27.674  27.857  1.00  0.00    -0.252 OA
BRANCH   3   5
ATOM      5  C   UNL A   1      32.060  26.162  26.306  1.00  0.00     0.146 C 
BRANCH   5   6
ATOM      6  C   UNL A   1      30.831  25.399  25.833  1.00  0.00     0.140 C 
ATOM      7  Br  UNL A   1      31.003  23.488  26.252  1.00  0.00    -0.080 Br
BRANCH   6   8
ATOM      8  C   UNL A   1      30.499  25.482  24.349  1.00  0.00     0.177 C 
ATOM      9  O   UNL A   1      30.746  24.544  23.586  1.00  0.00    -0.293 OA
BRANCH   8  10
ATOM     10  C   UNL A   1      29.827  26.679  23.764  1.00  0.00     0.019 A 
ATOM     11  C   UNL A   1      28.449  28.944  22.796  1.00  0.00    -0.048 A 
ATOM     12  C   UNL A   1      27.761  27.909  23.446  1.00  0.00     0.004 A 
ATOM     13  C   UNL A   1      29.832  28.818  22.622  1.00  0.00     0.004 A 
ATOM     14  C   UNL A   1      28.441  26.786  23.922  1.00  0.00     0.012 A 
ATOM     15  C   UNL A   1      30.512  27.687  23.082  1.00  0.00     0.012 A 
BRANCH  11  16
ATOM     16  C   UNL A   1      27.669  30.158  22.348  1.00  0.00     0.032 C 
ATOM     17  C   UNL A   1      28.155  30.843  21.077  1.00  0.00     0.009 C 
ENDBRANCH  11  16
ENDBRANCH   8  10
ENDBRANCH   6   8
ENDBRANCH   5   6
ENDBRANCH   3   5
ENDBRANCH   2   3
ENDBRANCH   1   2
BRANCH   1  18
ATOM     18  C   UNL A   1      32.192  30.982  26.349  1.00  0.00     0.275 C 
BRANCH  18  19
ATOM     19  O   UNL A   1      33.033  30.796  27.504  1.00  0.00    -0.458 OA
BRANCH  19  20
ATOM     20  C   UNL A   1      33.883  31.821  27.749  1.00  0.00     0.338 C 
ATOM     21  O   UNL A   1      33.588  32.997  27.874  1.00  0.00    -0.246 OA
BRANCH  20  22
ATOM     22  C   UNL A   1      35.240  31.323  28.010  1.00  0.00     0.060 A 
ATOM     23  C   UNL A   1      35.388  29.954  28.243  1.00  0.00     0.016 A 
ATOM     24  C   UNL A   1      36.317  32.191  28.180  1.00  0.00     0.016 A 
ATOM     25  C   UNL A   1      36.606  29.444  28.676  1.00  0.00     0.010 A 
ATOM     26  C   UNL A   1      37.547  31.677  28.614  1.00  0.00     0.010 A 
ATOM     27  C   UNL A   1      37.688  30.305  28.891  1.00  0.00    -0.014 A 
BRANCH  27  28
ATOM     28  C   UNL A   1      38.911  29.764  29.536  1.00  0.00     0.031 A 
ATOM     29  C   UNL A   1      39.284  30.235  30.915  1.00  0.00     0.074 A 
ATOM     30  C   UNL A   1      39.626  28.798  28.931  1.00  0.00     0.049 A 
ATOM     31  N   UNL A   1      40.322  29.924  31.647  1.00  0.00    -0.248 NA
ATOM     32  C   UNL A   1      38.362  31.189  31.548  1.00  0.00     0.031 C 
ATOM     33  C   UNL A   1      39.315  28.211  27.627  1.00  0.00     0.029 A 
ATOM     34  N   UNL A   1      40.749  28.128  29.343  1.00  0.00    -0.354 N 
ATOM     35  C   UNL A   1      40.190  30.656  32.823  1.00  0.00     0.074 A 
ATOM     36  C   UNL A   1      38.986  31.448  32.688  1.00  0.00     0.031 C 
ATOM     37  C   UNL A   1      40.219  27.255  27.353  1.00  0.00     0.029 A 
ATOM     38  C   UNL A   1      41.196  27.195  28.437  1.00  0.00     0.049 A 
ATOM     39  H   UNL A   1      41.193  28.298  30.204  1.00  0.00     0.167 HD
ATOM     40  C   UNL A   1      40.997  30.664  33.914  1.00  0.00     0.034 A 
ATOM     41  C   UNL A   1      42.281  26.396  28.471  1.00  0.00     0.034 A 
ATOM     42  C   UNL A   1      42.193  29.863  34.031  1.00  0.00     0.049 A 
ATOM     43  C   UNL A   1      43.195  26.462  29.668  1.00  0.00     0.074 A 
ATOM     44  C   UNL A   1      43.106  29.817  35.071  1.00  0.00     0.029 A 
ATOM     45  N   UNL A   1      42.638  28.958  33.074  1.00  0.00    -0.354 N 
ATOM     46  N   UNL A   1      43.096  27.206  30.745  1.00  0.00    -0.248 NA
ATOM     47  C   UNL A   1      44.366  25.576  29.652  1.00  0.00     0.031 C 
ATOM     48  C   UNL A   1      44.127  28.923  34.721  1.00  0.00     0.029 A 
ATOM     49  C   UNL A   1      43.818  28.362  33.493  1.00  0.00     0.049 A 
ATOM     50  H   UNL A   1      42.182  28.769  32.223  1.00  0.00     0.167 HD
ATOM     51  C   UNL A   1      44.178  26.859  31.547  1.00  0.00     0.074 A 
ATOM     52  C   UNL A   1      44.909  25.830  30.834  1.00  0.00     0.031 C 
ATOM     53  C   UNL A   1      44.537  27.343  32.763  1.00  0.00     0.034 A 
BRANCH  40  54
ATOM     54  C   UNL A   1      40.637  31.620  35.025  1.00  0.00     0.023 A 
ATOM     55  C   UNL A   1      39.640  31.318  35.971  1.00  0.00     0.031 A 
ATOM     56  C   UNL A   1      41.254  32.881  35.100  1.00  0.00     0.131 A 
ATOM     57  C   UNL A   1      39.236  32.293  36.896  1.00  0.00     0.055 A 
ATOM     58  C   UNL A   1      40.902  33.818  36.074  1.00  0.00     0.041 A 
ATOM     59  F   UNL A   1      42.195  33.236  34.210  1.00  0.00    -0.206 F 
ATOM     60  C   UNL A   1      39.875  33.533  36.968  1.00  0.00     0.022 A 
BRANCH  57  61
ATOM     61  S   UNL A   1      37.757  31.978  37.898  1.00  0.00     0.124 S 
ATOM     62  O   UNL A   1      38.284  32.118  39.253  1.00  0.00    -0.237 OA
ATOM     63  O   UNL A   1      36.846  33.026  37.454  1.00  0.00    -0.237 OA
ATOM     64  O   UNL A   1      37.373  30.617  37.525  1.00  0.00    -0.744 OA
ENDBRANCH  57  61
ENDBRANCH  40  54
BRANCH  41  65
ATOM     65  C   UNL A   1      42.590  25.496  27.324  1.00  0.00     0.023 A 
ATOM     66  C   UNL A   1      42.144  24.165  27.304  1.00  0.00     0.031 A 
ATOM     67  C   UNL A   1      43.373  25.948  26.247  1.00  0.00     0.131 A 
ATOM     68  C   UNL A   1      42.515  23.322  26.245  1.00  0.00     0.055 A 
ATOM     69  C   UNL A   1      43.700  25.119  25.174  1.00  0.00     0.041 A 
ATOM     70  F   UNL A   1      43.823  27.212  26.219  1.00  0.00    -0.206 F 
ATOM     71  C   UNL A   1      43.280  23.793  25.175  1.00  0.00     0.022 A 
BRANCH  68  72
ATOM     72  S   UNL A   1      42.038  21.572  26.317  1.00  0.00     0.124 S 
ATOM     73  O   UNL A   1      42.928  20.979  25.326  1.00  0.00    -0.237 OA
ATOM     74  O   UNL A   1      42.317  21.240  27.711  1.00  0.00    -0.237 OA
ATOM     75  O   UNL A   1      40.622  21.590  25.955  1.00  0.00    -0.744 OA
ENDBRANCH  68  72
ENDBRANCH  41  65
BRANCH  53  76
ATOM     76  C   UNL A   1      45.748  26.720  33.411  1.00  0.00     0.023 A 
ATOM     77  C   UNL A   1      45.646  25.581  34.227  1.00  0.00     0.031 A 
ATOM     78  C   UNL A   1      47.018  27.296  33.230  1.00  0.00     0.131 A 
ATOM     79  C   UNL A   1      46.785  25.086  34.881  1.00  0.00     0.055 A 
ATOM     80  C   UNL A   1      48.156  26.769  33.841  1.00  0.00     0.041 A 
ATOM     81  F   UNL A   1      47.169  28.386  32.460  1.00  0.00    -0.206 F 
ATOM     82  C   UNL A   1      48.042  25.666  34.683  1.00  0.00     0.022 A 
BRANCH  79  83
ATOM     83  S   UNL A   1      46.590  23.731  36.070  1.00  0.00     0.124 S 
ATOM     84  O   UNL A   1      47.230  22.619  35.374  1.00  0.00    -0.237 OA
ATOM     85  O   UNL A   1      47.296  24.240  37.241  1.00  0.00    -0.237 OA
ATOM     86  O   UNL A   1      45.141  23.613  36.223  1.00  0.00    -0.744 OA
ENDBRANCH  79  83
ENDBRANCH  53  76
ENDBRANCH  27  28
ENDBRANCH  20  22
ENDBRANCH  19  20
ENDBRANCH  18  19
ENDBRANCH   1  18
TORSDOF 18
ENDMDL
MODEL 2
REMARK VINA RESULT:     -10.9      5.611     10.683
REMARK SMILES CCc1ccc(C(=O)[C@@H](Br)CC(=O)OCCOC(=O)c2ccc(-c3c4nc(c(-c5cc(S(=O)(=O)[O-])ccc5F)c5ccc([nH]5)c(-c5cc(S(=O)(=O)[O-])ccc5F)c5nc(c(-c6cc(S(=O)(=O)[O-])ccc6F)c6ccc3[nH]6)C=C5)C=C4)cc2)cc1
REMARK SMILES IDX 15 1 14 2 12 3 13 4 11 5 9 6 10 7 7 8 8 9 6 10 3 11 4 12
REMARK SMILES IDX 84 13 5 14 83 15 2 16 1 17 16 18 17 19 18 20 19 21 20 22
REMARK SMILES IDX 21 23 82 24 22 25 81 26 23 27 24 28 25 29 75 30 26 31 80 32
REMARK SMILES IDX 74 33 76 34 27 35 79 36 73 37 72 38 28 40 60 41 40 42 59 43
REMARK SMILES IDX 41 44 44 45 58 46 77 47 42 48 43 49 57 51 78 52 45 53 29 54
REMARK SMILES IDX 30 55 38 56 31 57 37 58 39 59 36 60 32 61 33 62 34 63 35 64
REMARK SMILES IDX 61 65 62 66 70 67 63 68 69 69 71 70 68 71 64 72 65 73 66 74
REMARK SMILES IDX 67 75 46 76 47 77 55 78 48 79 54 80 56 81 53 82 49 83 50 84
REMARK SMILES IDX 51 85 52 86
REMARK H PARENT 76 39 44 50
REMARK Flexibility Score: inf
ROOT
ATOM      1  C   UNL A   1      36.027  20.762  24.914  1.00  0.00     0.274 C 
ENDROOT
BRANCH   1   2
ATOM      2  O   UNL A   1      35.815  21.922  25.740  1.00  0.00    -0.462 OA
BRANCH   2   3
ATOM      3  C   UNL A   1      35.016  22.885  25.217  1.00  0.00     0.307 C 
ATOM      4  O   UNL A   1      34.458  23.759  25.868  1.00  0.00    -0.252 OA
BRANCH   3   5
ATOM      5  C   UNL A   1      34.796  22.725  23.734  1.00  0.00     0.146 C 
BRANCH   5   6
ATOM      6  C   UNL A   1      33.334  22.562  23.345  1.00  0.00     0.140 C 
ATOM      7  Br  UNL A   1      32.472  24.316  23.157  1.00  0.00    -0.080 Br
BRANCH   6   8
ATOM      8  C   UNL A   1      32.455  21.754  24.292  1.00  0.00     0.177 C 
ATOM      9  O   UNL A   1      31.592  22.301  24.983  1.00  0.00    -0.293 OA
BRANCH   8  10
ATOM     10  C   UNL A   1      32.574  20.270  24.394  1.00  0.00     0.019 A 
ATOM     11  C   UNL A   1      32.884  17.465  24.434  1.00  0.00    -0.048 A 
ATOM     12  C   UNL A   1      32.637  18.143  23.231  1.00  0.00     0.004 A 
ATOM     13  C   UNL A   1      32.956  18.211  25.616  1.00  0.00     0.004 A 
ATOM     14  C   UNL A   1      32.479  19.531  23.210  1.00  0.00     0.012 A 
ATOM     15  C   UNL A   1      32.781  19.598  25.600  1.00  0.00     0.012 A 
BRANCH  11  16
ATOM     16  C   UNL A   1      33.098  15.970  24.389  1.00  0.00     0.032 C 
ATOM     17  C   UNL A   1      32.624  15.183  25.604  1.00  0.00     0.009 C 
ENDBRANCH  11  16
ENDBRANCH   8  10
ENDBRANCH   6   8
ENDBRANCH   5   6
ENDBRANCH   3   5
ENDBRANCH   2   3
ENDBRANCH   1   2
BRANCH   1  18
ATOM     18  C   UNL A   1      37.434  20.180  25.082  1.00  0.00     0.275 C 
BRANCH  18  19
ATOM     19  O   UNL A   1      38.440  21.209  25.146  1.00  0.00    -0.458 OA
BRANCH  19  20
ATOM     20  C   UNL A   1      39.399  20.998  26.079  1.00  0.00     0.338 C 
ATOM     21  O   UNL A   1      39.994  19.956  26.289  1.00  0.00    -0.246 OA
BRANCH  20  22
ATOM     22  C   UNL A   1      39.768  22.258  26.739  1.00  0.00     0.060 A 
ATOM     23  C   UNL A   1      39.184  23.431  26.260  1.00  0.00     0.016 A 
ATOM     24  C   UNL A   1      40.779  22.310  27.698  1.00  0.00     0.016 A 
ATOM     25  C   UNL A   1      39.623  24.669  26.711  1.00  0.00     0.010 A 
ATOM     26  C   UNL A   1      41.221  23.559  28.157  1.00  0.00     0.010 A 
ATOM     27  C   UNL A   1      40.664  24.745  27.643  1.00  0.00    -0.014 A 
BRANCH  27  28
ATOM     28  C   UNL A   1      41.243  26.075  27.959  1.00  0.00     0.031 A 
ATOM     29  C   UNL A   1      42.627  26.409  27.475  1.00  0.00     0.074 A 
ATOM     30  C   UNL A   1      40.502  27.003  28.594  1.00  0.00     0.049 A 
ATOM     31  N   UNL A   1      43.336  27.491  27.666  1.00  0.00    -0.248 NA
ATOM     32  C   UNL A   1      43.301  25.379  26.671  1.00  0.00     0.031 C 
ATOM     33  C   UNL A   1      39.122  26.816  29.043  1.00  0.00     0.029 A 
ATOM     34  N   UNL A   1      40.801  28.292  28.952  1.00  0.00    -0.354 N 
ATOM     35  C   UNL A   1      44.549  27.269  27.021  1.00  0.00     0.074 A 
ATOM     36  C   UNL A   1      44.485  25.935  26.461  1.00  0.00     0.031 C 
ATOM     37  C   UNL A   1      38.689  27.958  29.603  1.00  0.00     0.029 A 
ATOM     38  C   UNL A   1      39.772  28.937  29.595  1.00  0.00     0.049 A 
ATOM     39  H   UNL A   1      41.671  28.715  28.766  1.00  0.00     0.167 HD
ATOM     40  C   UNL A   1      45.614  28.101  26.904  1.00  0.00     0.034 A 
ATOM     41  C   UNL A   1      39.717  30.172  30.132  1.00  0.00     0.034 A 
ATOM     42  C   UNL A   1      45.657  29.430  27.467  1.00  0.00     0.049 A 
ATOM     43  C   UNL A   1      40.932  31.060  30.041  1.00  0.00     0.074 A 
ATOM     44  C   UNL A   1      46.695  30.347  27.445  1.00  0.00     0.029 A 
ATOM     45  N   UNL A   1      44.609  30.037  28.149  1.00  0.00    -0.354 N 
ATOM     46  N   UNL A   1      42.096  30.815  29.485  1.00  0.00    -0.248 NA
ATOM     47  C   UNL A   1      40.822  32.392  30.647  1.00  0.00     0.031 C 
ATOM     48  C   UNL A   1      46.291  31.485  28.155  1.00  0.00     0.029 A 
ATOM     49  C   UNL A   1      44.980  31.307  28.564  1.00  0.00     0.049 A 
ATOM     50  H   UNL A   1      43.731  29.623  28.314  1.00  0.00     0.167 HD
ATOM     51  C   UNL A   1      42.848  31.973  29.653  1.00  0.00     0.074 A 
ATOM     52  C   UNL A   1      42.001  32.920  30.351  1.00  0.00     0.031 C 
ATOM     53  C   UNL A   1      44.123  32.233  29.267  1.00  0.00     0.034 A 
BRANCH  40  54
ATOM     54  C   UNL A   1      46.833  27.558  26.199  1.00  0.00     0.023 A 
ATOM     55  C   UNL A   1      47.136  27.902  24.868  1.00  0.00     0.031 A 
ATOM     56  C   UNL A   1      47.669  26.630  26.845  1.00  0.00     0.131 A 
ATOM     57  C   UNL A   1      48.194  27.262  24.205  1.00  0.00     0.055 A 
ATOM     58  C   UNL A   1      48.769  26.056  26.203  1.00  0.00     0.041 A 
ATOM     59  F   UNL A   1      47.416  26.245  28.105  1.00  0.00    -0.206 F 
ATOM     60  C   UNL A   1      49.026  26.358  24.870  1.00  0.00     0.022 A 
BRANCH  57  61
ATOM     61  S   UNL A   1      48.371  27.507  22.415  1.00  0.00     0.124 S 
ATOM     62  O   UNL A   1      47.102  28.146  22.078  1.00  0.00    -0.237 OA
ATOM     63  O   UNL A   1      49.556  28.352  22.329  1.00  0.00    -0.237 OA
ATOM     64  O   UNL A   1      48.533  26.149  21.898  1.00  0.00    -0.744 OA
ENDBRANCH  57  61
ENDBRANCH  40  54
BRANCH  41  65
ATOM     65  C   UNL A   1      38.488  30.632  30.839  1.00  0.00     0.023 A 
ATOM     66  C   UNL A   1      37.476  31.328  30.161  1.00  0.00     0.031 A 
ATOM     67  C   UNL A   1      38.329  30.413  32.219  1.00  0.00     0.131 A 
ATOM     68  C   UNL A   1      36.367  31.813  30.870  1.00  0.00     0.055 A 
ATOM     69  C   UNL A   1      37.202  30.855  32.911  1.00  0.00     0.041 A 
ATOM     70  F   UNL A   1      39.268  29.750  32.913  1.00  0.00    -0.206 F 
ATOM     71  C   UNL A   1      36.218  31.571  32.238  1.00  0.00     0.022 A 
BRANCH  68  72
ATOM     72  S   UNL A   1      35.146  32.828  29.992  1.00  0.00     0.124 S 
ATOM     73  O   UNL A   1      34.315  33.311  31.088  1.00  0.00    -0.237 OA
ATOM     74  O   UNL A   1      35.992  33.823  29.340  1.00  0.00    -0.237 OA
ATOM     75  O   UNL A   1      34.499  31.877  29.089  1.00  0.00    -0.744 OA
ENDBRANCH  68  72
ENDBRANCH  41  65
BRANCH  53  76
ATOM     76  C   UNL A   1      44.648  33.618  29.549  1.00  0.00     0.023 A 
ATOM     77  C   UNL A   1      44.623  34.632  28.576  1.00  0.00     0.031 A 
ATOM     78  C   UNL A   1      45.207  33.917  30.804  1.00  0.00     0.131 A 
ATOM     79  C   UNL A   1      45.202  35.880  28.854  1.00  0.00     0.055 A 
ATOM     80  C   UNL A   1      45.734  35.176  31.093  1.00  0.00     0.041 A 
ATOM     81  F   UNL A   1      45.256  32.983  31.769  1.00  0.00    -0.206 F 
ATOM     82  C   UNL A   1      45.746  36.162  30.109  1.00  0.00     0.022 A 
BRANCH  79  83
ATOM     83  S   UNL A   1      45.320  37.103  27.519  1.00  0.00     0.124 S 
ATOM     84  O   UNL A   1      45.808  36.295  26.406  1.00  0.00    -0.237 OA
ATOM     85  O   UNL A   1      43.944  37.576  27.408  1.00  0.00    -0.237 OA
ATOM     86  O   UNL A   1      46.272  38.085  28.035  1.00  0.00    -0.744 OA
ENDBRANCH  79  83
ENDBRANCH  53  76
ENDBRANCH  27  28
ENDBRANCH  20  22
ENDBRANCH  19  20
ENDBRANCH  18  19
ENDBRANCH   1  18
TORSDOF 18
ENDMDL
MODEL 3
REMARK VINA RESULT:     -10.9      5.662      8.266
REMARK SMILES CCc1ccc(C(=O)[C@@H](Br)CC(=O)OCCOC(=O)c2ccc(-c3c4nc(c(-c5cc(S(=O)(=O)[O-])ccc5F)c5ccc([nH]5)c(-c5cc(S(=O)(=O)[O-])ccc5F)c5nc(c(-c6cc(S(=O)(=O)[O-])ccc6F)c6ccc3[nH]6)C=C5)C=C4)cc2)cc1
REMARK SMILES IDX 15 1 14 2 12 3 13 4 11 5 9 6 10 7 7 8 8 9 6 10 3 11 4 12
REMARK SMILES IDX 84 13 5 14 83 15 2 16 1 17 16 18 17 19 18 20 19 21 20 22
REMARK SMILES IDX 21 23 82 24 22 25 81 26 23 27 24 28 25 29 75 30 26 31 80 32
REMARK SMILES IDX 74 33 76 34 27 35 79 36 73 37 72 38 28 40 60 41 40 42 59 43
REMARK SMILES IDX 41 44 44 45 58 46 77 47 42 48 43 49 57 51 78 52 45 53 29 54
REMARK SMILES IDX 30 55 38 56 31 57 37 58 39 59 36 60 32 61 33 62 34 63 35 64
REMARK SMILES IDX 61 65 62 66 70 67 63 68 69 69 71 70 68 71 64 72 65 73 66 74
REMARK SMILES IDX 67 75 46 76 47 77 55 78 48 79 54 80 56 81 53 82 49 83 50 84
REMARK SMILES IDX 51 85 52 86
REMARK H PARENT 76 39 44 50
REMARK Flexibility Score: inf
ROOT
ATOM      1  C   UNL A   1      35.718  21.185  24.701  1.00  0.00     0.274 C 
ENDROOT
BRANCH   1   2
ATOM      2  O   UNL A   1      35.941  22.586  24.452  1.00  0.00    -0.462 OA
BRANCH   2   3
ATOM      3  C   UNL A   1      35.017  23.204  23.674  1.00  0.00     0.307 C 
ATOM      4  O   UNL A   1      35.091  23.315  22.456  1.00  0.00    -0.252 OA
BRANCH   3   5
ATOM      5  C   UNL A   1      33.906  23.838  24.471  1.00  0.00     0.146 C 
BRANCH   5   6
ATOM      6  C   UNL A   1      32.513  23.409  24.031  1.00  0.00     0.140 C 
ATOM      7  Br  UNL A   1      31.292  24.947  24.014  1.00  0.00    -0.080 Br
BRANCH   6   8
ATOM      8  C   UNL A   1      31.830  22.331  24.862  1.00  0.00     0.177 C 
ATOM      9  O   UNL A   1      30.961  22.618  25.689  1.00  0.00    -0.293 OA
BRANCH   8  10
ATOM     10  C   UNL A   1      32.154  20.885  24.685  1.00  0.00     0.019 A 
ATOM     11  C   UNL A   1      32.852  18.193  24.203  1.00  0.00    -0.048 A 
ATOM     12  C   UNL A   1      32.515  19.048  23.143  1.00  0.00     0.004 A 
ATOM     13  C   UNL A   1      32.816  18.702  25.506  1.00  0.00     0.004 A 
ATOM     14  C   UNL A   1      32.165  20.379  23.381  1.00  0.00     0.012 A 
ATOM     15  C   UNL A   1      32.450  20.029  25.748  1.00  0.00     0.012 A 
BRANCH  11  16
ATOM     16  C   UNL A   1      33.272  16.777  23.882  1.00  0.00     0.032 C 
ATOM     17  C   UNL A   1      34.382  16.618  22.852  1.00  0.00     0.009 C 
ENDBRANCH  11  16
ENDBRANCH   8  10
ENDBRANCH   6   8
ENDBRANCH   5   6
ENDBRANCH   3   5
ENDBRANCH   2   3
ENDBRANCH   1   2
BRANCH   1  18
ATOM     18  C   UNL A   1      37.011  20.449  25.065  1.00  0.00     0.275 C 
BRANCH  18  19
ATOM     19  O   UNL A   1      38.158  21.319  25.021  1.00  0.00    -0.458 OA
BRANCH  19  20
ATOM     20  C   UNL A   1      39.102  21.049  25.954  1.00  0.00     0.338 C 
ATOM     21  O   UNL A   1      39.593  19.960  26.199  1.00  0.00    -0.246 OA
BRANCH  20  22
ATOM     22  C   UNL A   1      39.602  22.288  26.564  1.00  0.00     0.060 A 
ATOM     23  C   UNL A   1      39.054  23.492  26.116  1.00  0.00     0.016 A 
ATOM     24  C   UNL A   1      40.690  22.286  27.437  1.00  0.00     0.016 A 
ATOM     25  C   UNL A   1      39.605  24.704  26.512  1.00  0.00     0.010 A 
ATOM     26  C   UNL A   1      41.245  23.509  27.839  1.00  0.00     0.010 A 
ATOM     27  C   UNL A   1      40.722  24.722  27.355  1.00  0.00    -0.014 A 
BRANCH  27  28
ATOM     28  C   UNL A   1      41.406  26.016  27.604  1.00  0.00     0.031 A 
ATOM     29  C   UNL A   1      40.725  27.059  28.447  1.00  0.00     0.074 A 
ATOM     30  C   UNL A   1      42.659  26.218  27.155  1.00  0.00     0.049 A 
ATOM     31  N   UNL A   1      41.121  28.264  28.761  1.00  0.00    -0.248 NA
ATOM     32  C   UNL A   1      39.417  26.689  29.007  1.00  0.00     0.031 C 
ATOM     33  C   UNL A   1      43.446  25.250  26.392  1.00  0.00     0.029 A 
ATOM     34  N   UNL A   1      43.494  27.297  27.294  1.00  0.00    -0.354 N 
ATOM     35  C   UNL A   1      40.105  28.807  29.541  1.00  0.00     0.074 A 
ATOM     36  C   UNL A   1      39.063  27.806  29.624  1.00  0.00     0.031 C 
ATOM     37  C   UNL A   1      44.659  25.773  26.143  1.00  0.00     0.029 A 
ATOM     38  C   UNL A   1      44.716  27.127  26.687  1.00  0.00     0.049 A 
ATOM     39  H   UNL A   1      43.243  28.114  27.781  1.00  0.00     0.167 HD
ATOM     40  C   UNL A   1      40.049  30.027  30.134  1.00  0.00     0.034 A 
ATOM     41  C   UNL A   1      45.756  27.976  26.569  1.00  0.00     0.034 A 
ATOM     42  C   UNL A   1      41.101  31.011  30.043  1.00  0.00     0.049 A 
ATOM     43  C   UNL A   1      45.650  29.347  27.188  1.00  0.00     0.074 A 
ATOM     44  C   UNL A   1      41.139  32.291  30.570  1.00  0.00     0.029 A 
ATOM     45  N   UNL A   1      42.311  30.820  29.384  1.00  0.00    -0.354 N 
ATOM     46  N   UNL A   1      44.658  29.873  27.868  1.00  0.00    -0.248 NA
ATOM     47  C   UNL A   1      46.808  30.235  27.025  1.00  0.00     0.031 C 
ATOM     48  C   UNL A   1      42.347  32.889  30.188  1.00  0.00     0.029 A 
ATOM     49  C   UNL A   1      43.092  31.962  29.478  1.00  0.00     0.049 A 
ATOM     50  H   UNL A   1      42.573  29.994  28.917  1.00  0.00     0.167 HD
ATOM     51  C   UNL A   1      45.083  31.146  28.235  1.00  0.00     0.074 A 
ATOM     52  C   UNL A   1      46.426  31.302  27.712  1.00  0.00     0.031 C 
ATOM     53  C   UNL A   1      44.426  32.101  28.942  1.00  0.00     0.034 A 
BRANCH  40  54
ATOM     54  C   UNL A   1      38.777  30.372  30.871  1.00  0.00     0.023 A 
ATOM     55  C   UNL A   1      37.691  30.991  30.226  1.00  0.00     0.031 A 
ATOM     56  C   UNL A   1      38.675  30.137  32.253  1.00  0.00     0.131 A 
ATOM     57  C   UNL A   1      36.588  31.426  30.977  1.00  0.00     0.055 A 
ATOM     58  C   UNL A   1      37.540  30.502  32.982  1.00  0.00     0.041 A 
ATOM     59  F   UNL A   1      39.689  29.572  32.928  1.00  0.00    -0.206 F 
ATOM     60  C   UNL A   1      36.496  31.166  32.347  1.00  0.00     0.022 A 
BRANCH  57  61
ATOM     61  S   UNL A   1      35.349  32.477  30.171  1.00  0.00     0.124 S 
ATOM     62  O   UNL A   1      36.133  33.667  29.853  1.00  0.00    -0.237 OA
ATOM     63  O   UNL A   1      34.934  31.662  29.036  1.00  0.00    -0.237 OA
ATOM     64  O   UNL A   1      34.334  32.668  31.207  1.00  0.00    -0.744 OA
ENDBRANCH  57  61
ENDBRANCH  40  54
BRANCH  41  65
ATOM     65  C   UNL A   1      46.971  27.578  25.803  1.00  0.00     0.023 A 
ATOM     66  C   UNL A   1      47.102  27.879  24.439  1.00  0.00     0.031 A 
ATOM     67  C   UNL A   1      48.004  26.850  26.422  1.00  0.00     0.131 A 
ATOM     68  C   UNL A   1      48.224  27.424  23.728  1.00  0.00     0.055 A 
ATOM     69  C   UNL A   1      49.139  26.441  25.723  1.00  0.00     0.041 A 
ATOM     70  F   UNL A   1      47.926  26.538  27.725  1.00  0.00    -0.206 F 
ATOM     71  C   UNL A   1      49.248  26.717  24.363  1.00  0.00     0.022 A 
BRANCH  68  72
ATOM     72  S   UNL A   1      48.296  27.711  21.938  1.00  0.00     0.124 S 
ATOM     73  O   UNL A   1      46.992  28.309  21.679  1.00  0.00    -0.237 OA
ATOM     74  O   UNL A   1      49.447  28.603  21.821  1.00  0.00    -0.237 OA
ATOM     75  O   UNL A   1      48.491  26.372  21.386  1.00  0.00    -0.744 OA
ENDBRANCH  68  72
ENDBRANCH  41  65
BRANCH  53  76
ATOM     76  C   UNL A   1      45.182  33.374  29.228  1.00  0.00     0.023 A 
ATOM     77  C   UNL A   1      45.147  34.469  28.348  1.00  0.00     0.031 A 
ATOM     78  C   UNL A   1      45.973  33.478  30.385  1.00  0.00     0.131 A 
ATOM     79  C   UNL A   1      45.934  35.600  28.610  1.00  0.00     0.055 A 
ATOM     80  C   UNL A   1      46.714  34.626  30.668  1.00  0.00     0.041 A 
ATOM     81  F   UNL A   1      46.042  32.460  31.258  1.00  0.00    -0.206 F 
ATOM     82  C   UNL A   1      46.708  35.690  29.770  1.00  0.00     0.022 A 
BRANCH  79  83
ATOM     83  S   UNL A   1      46.010  36.918  27.366  1.00  0.00     0.124 S 
ATOM     84  O   UNL A   1      46.252  36.166  26.139  1.00  0.00    -0.237 OA
ATOM     85  O   UNL A   1      44.693  37.535  27.485  1.00  0.00    -0.237 OA
ATOM     86  O   UNL A   1      47.125  37.750  27.812  1.00  0.00    -0.744 OA
ENDBRANCH  79  83
ENDBRANCH  53  76
ENDBRANCH  27  28
ENDBRANCH  20  22
ENDBRANCH  19  20
ENDBRANCH  18  19
ENDBRANCH   1  18
TORSDOF 18
ENDMDL
