MODEL 1
REMARK VINA RESULT:     -11.2      0.000      0.000
REMARK SMILES Cc1ccc(C(=O)N[C@@H](CC(=O)OCCOC(=O)c2ccc(-c3c4nc(c(-c5cc(S(=O)(=O)[O-])ccc5F)c5ccc([nH]5)c(-c5cc(S(=O)(=O)[O-])ccc5F)c5nc(c(-c6cc(S(=O)(=O)[O-])ccc6F)c6ccc3[nH]6)C=C5)C=C4)cc2)c2cccs2)o1
REMARK SMILES IDX 14 1 13 2 11 3 12 4 10 5 9 6 8 7 6 8 7 9 5 11 1 12 2 13 3 14
REMARK SMILES IDX 87 15 4 16 82 17 83 18 86 19 84 20 85 21 15 22 16 23 17 24
REMARK SMILES IDX 18 25 19 26 20 27 81 28 21 29 80 30 22 31 23 32 24 33 74 34
REMARK SMILES IDX 25 35 79 36 73 37 75 38 26 39 78 40 72 41 71 42 27 44 59 45
REMARK SMILES IDX 39 46 58 47 40 48 43 49 57 50 76 51 41 52 42 53 56 55 77 56
REMARK SMILES IDX 44 57 28 58 29 59 37 60 30 61 36 62 38 63 35 64 31 65 32 66
REMARK SMILES IDX 33 67 34 68 60 69 61 70 69 71 62 72 68 73 70 74 67 75 63 76
REMARK SMILES IDX 64 77 65 78 66 79 45 80 46 81 54 82 47 83 53 84 55 85 52 86
REMARK SMILES IDX 48 87 49 88 50 89 51 90
REMARK H PARENT 8 10 75 43 43 54
REMARK Flexibility Score: inf
ROOT
ATOM      1  C   UNL A   1      31.553  29.287  24.058  1.00  0.00     0.274 C 
ENDROOT
BRANCH   1   2
ATOM      2  O   UNL A   1      30.221  28.825  23.751  1.00  0.00    -0.462 OA
BRANCH   2   3
ATOM      3  C   UNL A   1      30.169  27.546  23.306  1.00  0.00     0.308 C 
ATOM      4  O   UNL A   1      30.496  27.188  22.177  1.00  0.00    -0.252 OA
BRANCH   3   5
ATOM      5  C   UNL A   1      29.597  26.557  24.280  1.00  0.00     0.153 C 
BRANCH   5   6
ATOM      6  C   UNL A   1      30.430  25.400  24.814  1.00  0.00     0.134 C 
BRANCH   6   7
ATOM      7  N   UNL A   1      29.865  24.792  26.003  1.00  0.00    -0.341 N 
ATOM      8  C   UNL A   1      30.165  23.615  26.648  1.00  0.00     0.287 C 
ATOM      9  O   UNL A   1      29.439  23.334  27.607  1.00  0.00    -0.266 OA
ATOM     10  H   UNL A   1      29.141  25.311  26.420  1.00  0.00     0.164 HD
BRANCH   8  11
ATOM     11  C   UNL A   1      31.249  22.753  26.205  1.00  0.00     0.191 A 
ATOM     12  C   UNL A   1      34.719  22.081  26.830  1.00  0.00     0.087 C 
ATOM     13  C   UNL A   1      33.344  22.036  26.299  1.00  0.00     0.101 A 
ATOM     14  C   UNL A   1      32.735  21.299  25.314  1.00  0.00     0.046 A 
ATOM     15  O   UNL A   1      32.458  22.910  26.846  1.00  0.00    -0.456 OA
ATOM     16  C   UNL A   1      31.409  21.791  25.219  1.00  0.00     0.056 A 
ENDBRANCH   8  11
ENDBRANCH   6   7
BRANCH   6  17
ATOM     17  C   UNL A   1      31.913  25.645  24.977  1.00  0.00     0.028 A 
ATOM     18  C   UNL A   1      32.531  26.400  25.961  1.00  0.00     0.017 A 
ATOM     19  S   UNL A   1      33.073  25.081  23.835  1.00  0.00    -0.147 S 
ATOM     20  C   UNL A   1      33.933  26.549  25.749  1.00  0.00     0.012 A 
ATOM     21  C   UNL A   1      34.353  25.900  24.613  1.00  0.00     0.065 A 
ENDBRANCH   6  17
ENDBRANCH   5   6
ENDBRANCH   3   5
ENDBRANCH   2   3
ENDBRANCH   1   2
BRANCH   1  22
ATOM     22  C   UNL A   1      31.590  30.047  25.384  1.00  0.00     0.275 C 
BRANCH  22  23
ATOM     23  O   UNL A   1      32.937  30.120  25.877  1.00  0.00    -0.458 OA
BRANCH  23  24
ATOM     24  C   UNL A   1      33.136  30.991  26.894  1.00  0.00     0.338 C 
ATOM     25  O   UNL A   1      32.419  31.929  27.201  1.00  0.00    -0.246 OA
BRANCH  24  26
ATOM     26  C   UNL A   1      34.417  30.699  27.573  1.00  0.00     0.060 A 
ATOM     27  C   UNL A   1      34.761  29.411  27.989  1.00  0.00     0.016 A 
ATOM     28  C   UNL A   1      35.263  31.773  27.855  1.00  0.00     0.016 A 
ATOM     29  C   UNL A   1      35.924  29.204  28.737  1.00  0.00     0.010 A 
ATOM     30  C   UNL A   1      36.460  31.552  28.535  1.00  0.00     0.010 A 
ATOM     31  C   UNL A   1      36.794  30.271  29.004  1.00  0.00    -0.014 A 
BRANCH  31  32
ATOM     32  C   UNL A   1      38.060  30.077  29.761  1.00  0.00     0.031 A 
ATOM     33  C   UNL A   1      39.126  29.157  29.225  1.00  0.00     0.074 A 
ATOM     34  C   UNL A   1      38.228  30.673  30.957  1.00  0.00     0.049 A 
ATOM     35  N   UNL A   1      40.194  28.689  29.817  1.00  0.00    -0.248 NA
ATOM     36  C   UNL A   1      38.953  28.692  27.840  1.00  0.00     0.031 C 
ATOM     37  C   UNL A   1      37.285  31.607  31.576  1.00  0.00     0.029 A 
ATOM     38  N   UNL A   1      39.239  30.564  31.879  1.00  0.00    -0.354 N 
ATOM     39  C   UNL A   1      40.806  27.848  28.893  1.00  0.00     0.074 A 
ATOM     40  C   UNL A   1      39.975  27.860  27.706  1.00  0.00     0.031 C 
ATOM     41  C   UNL A   1      37.761  31.985  32.771  1.00  0.00     0.029 A 
ATOM     42  C   UNL A   1      39.001  31.264  33.040  1.00  0.00     0.049 A 
ATOM     43  H   UNL A   1      40.056  30.037  31.725  1.00  0.00     0.167 HD
ATOM     44  C   UNL A   1      41.952  27.134  29.025  1.00  0.00     0.034 A 
ATOM     45  C   UNL A   1      39.671  31.285  34.208  1.00  0.00     0.034 A 
ATOM     46  C   UNL A   1      42.772  27.141  30.214  1.00  0.00     0.049 A 
ATOM     47  C   UNL A   1      40.904  30.432  34.357  1.00  0.00     0.074 A 
ATOM     48  C   UNL A   1      43.964  26.476  30.446  1.00  0.00     0.029 A 
ATOM     49  N   UNL A   1      42.483  27.845  31.376  1.00  0.00    -0.354 N 
ATOM     50  N   UNL A   1      41.458  29.622  33.485  1.00  0.00    -0.248 NA
ATOM     51  C   UNL A   1      41.594  30.491  35.650  1.00  0.00     0.031 C 
ATOM     52  C   UNL A   1      44.362  26.728  31.765  1.00  0.00     0.029 A 
ATOM     53  C   UNL A   1      43.455  27.607  32.335  1.00  0.00     0.049 A 
ATOM     54  H   UNL A   1      41.700  28.429  31.501  1.00  0.00     0.167 HD
ATOM     55  C   UNL A   1      42.573  29.088  34.121  1.00  0.00     0.074 A 
ATOM     56  C   UNL A   1      42.622  29.681  35.443  1.00  0.00     0.031 C 
ATOM     57  C   UNL A   1      43.478  28.189  33.656  1.00  0.00     0.034 A 
BRANCH  44  58
ATOM     58  C   UNL A   1      42.356  26.245  27.874  1.00  0.00     0.023 A 
ATOM     59  C   UNL A   1      41.864  24.935  27.739  1.00  0.00     0.031 A 
ATOM     60  C   UNL A   1      43.265  26.709  26.906  1.00  0.00     0.131 A 
ATOM     61  C   UNL A   1      42.330  24.114  26.701  1.00  0.00     0.055 A 
ATOM     62  C   UNL A   1      43.670  25.913  25.833  1.00  0.00     0.041 A 
ATOM     63  F   UNL A   1      43.783  27.944  26.993  1.00  0.00    -0.206 F 
ATOM     64  C   UNL A   1      43.213  24.602  25.733  1.00  0.00     0.022 A 
BRANCH  61  65
ATOM     65  S   UNL A   1      41.870  22.360  26.707  1.00  0.00     0.124 S 
ATOM     66  O   UNL A   1      40.430  22.434  26.945  1.00  0.00    -0.237 OA
ATOM     67  O   UNL A   1      42.275  21.923  25.377  1.00  0.00    -0.237 OA
ATOM     68  O   UNL A   1      42.649  21.804  27.812  1.00  0.00    -0.744 OA
ENDBRANCH  61  65
ENDBRANCH  44  58
BRANCH  45  69
ATOM     69  C   UNL A   1      39.158  32.088  35.353  1.00  0.00     0.023 A 
ATOM     70  C   UNL A   1      38.533  31.471  36.446  1.00  0.00     0.031 A 
ATOM     71  C   UNL A   1      39.265  33.491  35.355  1.00  0.00     0.131 A 
ATOM     72  C   UNL A   1      38.007  32.258  37.482  1.00  0.00     0.055 A 
ATOM     73  C   UNL A   1      38.784  34.265  36.412  1.00  0.00     0.041 A 
ATOM     74  F   UNL A   1      39.857  34.130  34.332  1.00  0.00    -0.206 F 
ATOM     75  C   UNL A   1      38.141  33.649  37.480  1.00  0.00     0.022 A 
BRANCH  72  76
ATOM     76  S   UNL A   1      37.079  31.437  38.807  1.00  0.00     0.124 S 
ATOM     77  O   UNL A   1      36.951  30.081  38.284  1.00  0.00    -0.237 OA
ATOM     78  O   UNL A   1      37.971  31.603  39.949  1.00  0.00    -0.237 OA
ATOM     79  O   UNL A   1      35.834  32.200  38.873  1.00  0.00    -0.744 OA
ENDBRANCH  72  76
ENDBRANCH  45  69
BRANCH  57  80
ATOM     80  C   UNL A   1      44.612  27.829  34.583  1.00  0.00     0.023 A 
ATOM     81  C   UNL A   1      44.515  26.751  35.479  1.00  0.00     0.031 A 
ATOM     82  C   UNL A   1      45.789  28.595  34.589  1.00  0.00     0.131 A 
ATOM     83  C   UNL A   1      45.557  26.502  36.385  1.00  0.00     0.055 A 
ATOM     84  C   UNL A   1      46.845  28.310  35.455  1.00  0.00     0.041 A 
ATOM     85  F   UNL A   1      45.930  29.638  33.754  1.00  0.00    -0.206 F 
ATOM     86  C   UNL A   1      46.728  27.266  36.368  1.00  0.00     0.022 A 
BRANCH  83  87
ATOM     87  S   UNL A   1      45.330  25.217  37.645  1.00  0.00     0.124 S 
ATOM     88  O   UNL A   1      46.548  25.352  38.437  1.00  0.00    -0.237 OA
ATOM     89  O   UNL A   1      44.095  25.636  38.300  1.00  0.00    -0.237 OA
ATOM     90  O   UNL A   1      45.230  23.985  36.866  1.00  0.00    -0.744 OA
ENDBRANCH  83  87
ENDBRANCH  57  80
ENDBRANCH  31  32
ENDBRANCH  24  26
ENDBRANCH  23  24
ENDBRANCH  22  23
ENDBRANCH   1  22
TORSDOF 18
ENDMDL
MODEL 2
REMARK VINA RESULT:     -11.1      1.779      3.498
REMARK SMILES Cc1ccc(C(=O)N[C@@H](CC(=O)OCCOC(=O)c2ccc(-c3c4nc(c(-c5cc(S(=O)(=O)[O-])ccc5F)c5ccc([nH]5)c(-c5cc(S(=O)(=O)[O-])ccc5F)c5nc(c(-c6cc(S(=O)(=O)[O-])ccc6F)c6ccc3[nH]6)C=C5)C=C4)cc2)c2cccs2)o1
REMARK SMILES IDX 14 1 13 2 11 3 12 4 10 5 9 6 8 7 6 8 7 9 5 11 1 12 2 13 3 14
REMARK SMILES IDX 87 15 4 16 82 17 83 18 86 19 84 20 85 21 15 22 16 23 17 24
REMARK SMILES IDX 18 25 19 26 20 27 81 28 21 29 80 30 22 31 23 32 24 33 74 34
REMARK SMILES IDX 25 35 79 36 73 37 75 38 26 39 78 40 72 41 71 42 27 44 59 45
REMARK SMILES IDX 39 46 58 47 40 48 43 49 57 50 76 51 41 52 42 53 56 55 77 56
REMARK SMILES IDX 44 57 28 58 29 59 37 60 30 61 36 62 38 63 35 64 31 65 32 66
REMARK SMILES IDX 33 67 34 68 60 69 61 70 69 71 62 72 68 73 70 74 67 75 63 76
REMARK SMILES IDX 64 77 65 78 66 79 45 80 46 81 54 82 47 83 53 84 55 85 52 86
REMARK SMILES IDX 48 87 49 88 50 89 51 90
REMARK H PARENT 8 10 75 43 43 54
REMARK Flexibility Score: inf
ROOT
ATOM      1  C   UNL A   1      31.568  29.066  26.057  1.00  0.00     0.274 C 
ENDROOT
BRANCH   1   2
ATOM      2  O   UNL A   1      32.585  28.700  25.100  1.00  0.00    -0.462 OA
BRANCH   2   3
ATOM      3  C   UNL A   1      32.246  28.950  23.812  1.00  0.00     0.308 C 
ATOM      4  O   UNL A   1      33.052  29.177  22.913  1.00  0.00    -0.252 OA
BRANCH   3   5
ATOM      5  C   UNL A   1      30.771  29.014  23.544  1.00  0.00     0.153 C 
BRANCH   5   6
ATOM      6  C   UNL A   1      30.017  27.818  22.981  1.00  0.00     0.134 C 
BRANCH   6   7
ATOM      7  N   UNL A   1      28.596  27.850  23.272  1.00  0.00    -0.341 N 
ATOM      8  C   UNL A   1      27.651  28.826  23.064  1.00  0.00     0.287 C 
ATOM      9  O   UNL A   1      26.523  28.576  23.501  1.00  0.00    -0.266 OA
ATOM     10  H   UNL A   1      28.249  27.031  23.692  1.00  0.00     0.164 HD
BRANCH   8  11
ATOM     11  C   UNL A   1      27.976  30.078  22.398  1.00  0.00     0.191 A 
ATOM     12  C   UNL A   1      28.835  33.487  23.123  1.00  0.00     0.087 C 
ATOM     13  C   UNL A   1      28.537  32.222  22.426  1.00  0.00     0.101 A 
ATOM     14  C   UNL A   1      28.435  31.873  21.102  1.00  0.00     0.046 A 
ATOM     15  O   UNL A   1      28.269  31.148  23.214  1.00  0.00    -0.456 OA
ATOM     16  C   UNL A   1      28.028  30.515  21.084  1.00  0.00     0.056 A 
ENDBRANCH   8  11
ENDBRANCH   6   7
BRANCH   6  17
ATOM     17  C   UNL A   1      30.601  26.450  23.257  1.00  0.00     0.028 A 
ATOM     18  C   UNL A   1      31.376  25.686  22.400  1.00  0.00     0.017 A 
ATOM     19  S   UNL A   1      30.264  25.578  24.703  1.00  0.00    -0.147 S 
ATOM     20  C   UNL A   1      31.648  24.383  22.911  1.00  0.00     0.012 A 
ATOM     21  C   UNL A   1      31.080  24.185  24.146  1.00  0.00     0.065 A 
ENDBRANCH   6  17
ENDBRANCH   5   6
ENDBRANCH   3   5
ENDBRANCH   2   3
ENDBRANCH   1   2
BRANCH   1  22
ATOM     22  C   UNL A   1      31.807  30.467  26.619  1.00  0.00     0.275 C 
BRANCH  22  23
ATOM     23  O   UNL A   1      33.185  30.838  26.458  1.00  0.00    -0.458 OA
BRANCH  23  24
ATOM     24  C   UNL A   1      33.635  31.787  27.314  1.00  0.00     0.338 C 
ATOM     25  O   UNL A   1      33.132  32.878  27.520  1.00  0.00    -0.246 OA
BRANCH  24  26
ATOM     26  C   UNL A   1      34.899  31.349  27.942  1.00  0.00     0.060 A 
ATOM     27  C   UNL A   1      35.092  30.041  28.393  1.00  0.00     0.016 A 
ATOM     28  C   UNL A   1      35.893  32.308  28.141  1.00  0.00     0.016 A 
ATOM     29  C   UNL A   1      36.255  29.705  29.092  1.00  0.00     0.010 A 
ATOM     30  C   UNL A   1      37.085  31.952  28.773  1.00  0.00     0.010 A 
ATOM     31  C   UNL A   1      37.271  30.654  29.276  1.00  0.00    -0.014 A 
BRANCH  31  32
ATOM     32  C   UNL A   1      38.538  30.317  29.979  1.00  0.00     0.031 A 
ATOM     33  C   UNL A   1      39.497  29.328  29.373  1.00  0.00     0.074 A 
ATOM     34  C   UNL A   1      38.797  30.849  31.189  1.00  0.00     0.049 A 
ATOM     35  N   UNL A   1      40.537  28.743  29.908  1.00  0.00    -0.248 NA
ATOM     36  C   UNL A   1      39.238  28.935  27.978  1.00  0.00     0.031 C 
ATOM     37  C   UNL A   1      37.964  31.839  31.875  1.00  0.00     0.029 A 
ATOM     38  N   UNL A   1      39.824  30.614  32.070  1.00  0.00    -0.354 N 
ATOM     39  C   UNL A   1      41.040  27.888  28.933  1.00  0.00     0.074 A 
ATOM     40  C   UNL A   1      40.175  28.020  27.778  1.00  0.00     0.031 C 
ATOM     41  C   UNL A   1      38.511  32.125  33.065  1.00  0.00     0.029 A 
ATOM     42  C   UNL A   1      39.688  31.286  33.263  1.00  0.00     0.049 A 
ATOM     43  H   UNL A   1      40.584  30.022  31.868  1.00  0.00     0.167 HD
ATOM     44  C   UNL A   1      42.119  27.068  28.998  1.00  0.00     0.034 A 
ATOM     45  C   UNL A   1      40.395  31.200  34.406  1.00  0.00     0.034 A 
ATOM     46  C   UNL A   1      42.975  26.955  30.157  1.00  0.00     0.049 A 
ATOM     47  C   UNL A   1      41.549  30.236  34.480  1.00  0.00     0.074 A 
ATOM     48  C   UNL A   1      44.108  26.177  30.321  1.00  0.00     0.029 A 
ATOM     49  N   UNL A   1      42.789  27.636  31.353  1.00  0.00    -0.354 N 
ATOM     50  N   UNL A   1      41.999  29.414  33.559  1.00  0.00    -0.248 NA
ATOM     51  C   UNL A   1      42.284  30.181  35.749  1.00  0.00     0.031 C 
ATOM     52  C   UNL A   1      44.570  26.341  31.633  1.00  0.00     0.029 A 
ATOM     53  C   UNL A   1      43.766  27.274  32.267  1.00  0.00     0.049 A 
ATOM     54  H   UNL A   1      42.067  28.283  31.526  1.00  0.00     0.167 HD
ATOM     55  C   UNL A   1      43.080  28.757  34.136  1.00  0.00     0.074 A 
ATOM     56  C   UNL A   1      43.226  29.291  35.475  1.00  0.00     0.031 C 
ATOM     57  C   UNL A   1      43.884  27.800  33.607  1.00  0.00     0.034 A 
BRANCH  44  58
ATOM     58  C   UNL A   1      42.403  26.193  27.802  1.00  0.00     0.023 A 
ATOM     59  C   UNL A   1      41.851  24.906  27.676  1.00  0.00     0.031 A 
ATOM     60  C   UNL A   1      43.256  26.645  26.779  1.00  0.00     0.131 A 
ATOM     61  C   UNL A   1      42.209  24.093  26.589  1.00  0.00     0.055 A 
ATOM     62  C   UNL A   1      43.550  25.860  25.663  1.00  0.00     0.041 A 
ATOM     63  F   UNL A   1      43.828  27.857  26.854  1.00  0.00    -0.206 F 
ATOM     64  C   UNL A   1      43.036  24.571  25.569  1.00  0.00     0.022 A 
BRANCH  61  65
ATOM     65  S   UNL A   1      41.681  22.358  26.592  1.00  0.00     0.124 S 
ATOM     66  O   UNL A   1      42.273  21.872  27.837  1.00  0.00    -0.237 OA
ATOM     67  O   UNL A   1      40.228  22.470  26.578  1.00  0.00    -0.237 OA
ATOM     68  O   UNL A   1      42.278  21.815  25.373  1.00  0.00    -0.744 OA
ENDBRANCH  61  65
ENDBRANCH  44  58
BRANCH  45  69
ATOM     69  C   UNL A   1      39.995  32.001  35.597  1.00  0.00     0.023 A 
ATOM     70  C   UNL A   1      39.046  31.516  36.509  1.00  0.00     0.031 A 
ATOM     71  C   UNL A   1      40.541  33.278  35.824  1.00  0.00     0.131 A 
ATOM     72  C   UNL A   1      38.645  32.317  37.589  1.00  0.00     0.055 A 
ATOM     73  C   UNL A   1      40.175  34.050  36.928  1.00  0.00     0.041 A 
ATOM     74  F   UNL A   1      41.454  33.787  34.982  1.00  0.00    -0.206 F 
ATOM     75  C   UNL A   1      39.212  33.574  37.813  1.00  0.00     0.022 A 
BRANCH  72  76
ATOM     76  S   UNL A   1      37.312  31.718  38.663  1.00  0.00     0.124 S 
ATOM     77  O   UNL A   1      37.949  31.752  39.974  1.00  0.00    -0.237 OA
ATOM     78  O   UNL A   1      36.268  32.710  38.431  1.00  0.00    -0.237 OA
ATOM     79  O   UNL A   1      37.029  30.383  38.142  1.00  0.00    -0.744 OA
ENDBRANCH  72  76
ENDBRANCH  45  69
BRANCH  57  80
ATOM     80  C   UNL A   1      45.010  27.303  34.478  1.00  0.00     0.023 A 
ATOM     81  C   UNL A   1      44.833  26.230  35.369  1.00  0.00     0.031 A 
ATOM     82  C   UNL A   1      46.265  27.934  34.438  1.00  0.00     0.131 A 
ATOM     83  C   UNL A   1      45.880  25.855  36.224  1.00  0.00     0.055 A 
ATOM     84  C   UNL A   1      47.319  27.521  35.253  1.00  0.00     0.041 A 
ATOM     85  F   UNL A   1      46.485  28.966  33.607  1.00  0.00    -0.206 F 
ATOM     86  C   UNL A   1      47.127  26.485  36.162  1.00  0.00     0.022 A 
BRANCH  83  87
ATOM     87  S   UNL A   1      45.566  24.587  37.482  1.00  0.00     0.124 S 
ATOM     88  O   UNL A   1      44.152  24.794  37.776  1.00  0.00    -0.237 OA
ATOM     89  O   UNL A   1      45.895  23.354  36.773  1.00  0.00    -0.237 OA
ATOM     90  O   UNL A   1      46.482  24.941  38.564  1.00  0.00    -0.744 OA
ENDBRANCH  83  87
ENDBRANCH  57  80
ENDBRANCH  31  32
ENDBRANCH  24  26
ENDBRANCH  23  24
ENDBRANCH  22  23
ENDBRANCH   1  22
TORSDOF 18
ENDMDL
MODEL 3
REMARK VINA RESULT:     -11.0      1.804      2.392
REMARK SMILES Cc1ccc(C(=O)N[C@@H](CC(=O)OCCOC(=O)c2ccc(-c3c4nc(c(-c5cc(S(=O)(=O)[O-])ccc5F)c5ccc([nH]5)c(-c5cc(S(=O)(=O)[O-])ccc5F)c5nc(c(-c6cc(S(=O)(=O)[O-])ccc6F)c6ccc3[nH]6)C=C5)C=C4)cc2)c2cccs2)o1
REMARK SMILES IDX 14 1 13 2 11 3 12 4 10 5 9 6 8 7 6 8 7 9 5 11 1 12 2 13 3 14
REMARK SMILES IDX 87 15 4 16 82 17 83 18 86 19 84 20 85 21 15 22 16 23 17 24
REMARK SMILES IDX 18 25 19 26 20 27 81 28 21 29 80 30 22 31 23 32 24 33 74 34
REMARK SMILES IDX 25 35 79 36 73 37 75 38 26 39 78 40 72 41 71 42 27 44 59 45
REMARK SMILES IDX 39 46 58 47 40 48 43 49 57 50 76 51 41 52 42 53 56 55 77 56
REMARK SMILES IDX 44 57 28 58 29 59 37 60 30 61 36 62 38 63 35 64 31 65 32 66
REMARK SMILES IDX 33 67 34 68 60 69 61 70 69 71 62 72 68 73 70 74 67 75 63 76
REMARK SMILES IDX 64 77 65 78 66 79 45 80 46 81 54 82 47 83 53 84 55 85 52 86
REMARK SMILES IDX 48 87 49 88 50 89 51 90
REMARK H PARENT 8 10 75 43 43 54
REMARK Flexibility Score: inf
ROOT
ATOM      1  C   UNL A   1      31.269  29.254  24.597  1.00  0.00     0.274 C 
ENDROOT
BRANCH   1   2
ATOM      2  O   UNL A   1      31.357  27.826  24.408  1.00  0.00    -0.462 OA
BRANCH   2   3
ATOM      3  C   UNL A   1      32.476  27.424  23.757  1.00  0.00     0.308 C 
ATOM      4  O   UNL A   1      32.664  27.557  22.550  1.00  0.00    -0.252 OA
BRANCH   3   5
ATOM      5  C   UNL A   1      33.484  26.709  24.608  1.00  0.00     0.153 C 
BRANCH   5   6
ATOM      6  C   UNL A   1      33.620  25.193  24.569  1.00  0.00     0.134 C 
BRANCH   6   7
ATOM      7  N   UNL A   1      33.564  24.650  23.225  1.00  0.00    -0.341 N 
ATOM      8  C   UNL A   1      33.853  23.394  22.744  1.00  0.00     0.287 C 
ATOM      9  O   UNL A   1      33.781  23.267  21.517  1.00  0.00    -0.266 OA
ATOM     10  H   UNL A   1      33.269  25.290  22.540  1.00  0.00     0.164 HD
BRANCH   8  11
ATOM     11  C   UNL A   1      34.244  22.307  23.626  1.00  0.00     0.191 A 
ATOM     12  C   UNL A   1      32.881  19.440  25.301  1.00  0.00     0.087 C 
ATOM     13  C   UNL A   1      33.800  20.475  24.792  1.00  0.00     0.101 A 
ATOM     14  C   UNL A   1      35.131  20.741  24.996  1.00  0.00     0.046 A 
ATOM     15  O   UNL A   1      33.258  21.408  23.964  1.00  0.00    -0.456 OA
ATOM     16  C   UNL A   1      35.405  21.939  24.290  1.00  0.00     0.056 A 
ENDBRANCH   8  11
ENDBRANCH   6   7
BRANCH   6  17
ATOM     17  C   UNL A   1      32.741  24.405  25.515  1.00  0.00     0.028 A 
ATOM     18  C   UNL A   1      33.142  23.722  26.652  1.00  0.00     0.017 A 
ATOM     19  S   UNL A   1      31.064  24.147  25.219  1.00  0.00    -0.147 S 
ATOM     20  C   UNL A   1      32.091  22.961  27.243  1.00  0.00     0.012 A 
ATOM     21  C   UNL A   1      30.913  23.086  26.547  1.00  0.00     0.065 A 
ENDBRANCH   6  17
ENDBRANCH   5   6
ENDBRANCH   3   5
ENDBRANCH   2   3
ENDBRANCH   1   2
BRANCH   1  22
ATOM     22  C   UNL A   1      31.778  29.669  25.977  1.00  0.00     0.275 C 
BRANCH  22  23
ATOM     23  O   UNL A   1      32.904  30.552  25.846  1.00  0.00    -0.458 OA
BRANCH  23  24
ATOM     24  C   UNL A   1      33.122  31.373  26.901  1.00  0.00     0.338 C 
ATOM     25  O   UNL A   1      32.425  32.310  27.251  1.00  0.00    -0.246 OA
BRANCH  24  26
ATOM     26  C   UNL A   1      34.398  31.026  27.561  1.00  0.00     0.060 A 
ATOM     27  C   UNL A   1      34.734  29.709  27.886  1.00  0.00     0.016 A 
ATOM     28  C   UNL A   1      35.249  32.071  27.923  1.00  0.00     0.016 A 
ATOM     29  C   UNL A   1      35.893  29.442  28.621  1.00  0.00     0.010 A 
ATOM     30  C   UNL A   1      36.442  31.796  28.591  1.00  0.00     0.010 A 
ATOM     31  C   UNL A   1      36.767  30.482  28.968  1.00  0.00    -0.014 A 
BRANCH  31  32
ATOM     32  C   UNL A   1      38.029  30.226  29.713  1.00  0.00     0.031 A 
ATOM     33  C   UNL A   1      39.059  29.282  29.152  1.00  0.00     0.074 A 
ATOM     34  C   UNL A   1      38.222  30.789  30.922  1.00  0.00     0.049 A 
ATOM     35  N   UNL A   1      40.113  28.764  29.728  1.00  0.00    -0.248 NA
ATOM     36  C   UNL A   1      38.864  28.855  27.757  1.00  0.00     0.031 C 
ATOM     37  C   UNL A   1      37.315  31.742  31.566  1.00  0.00     0.029 A 
ATOM     38  N   UNL A   1      39.233  30.625  31.836  1.00  0.00    -0.354 N 
ATOM     39  C   UNL A   1      40.691  27.923  28.782  1.00  0.00     0.074 A 
ATOM     40  C   UNL A   1      39.856  27.990  27.600  1.00  0.00     0.031 C 
ATOM     41  C   UNL A   1      37.810  32.076  32.767  1.00  0.00     0.029 A 
ATOM     42  C   UNL A   1      39.024  31.307  33.013  1.00  0.00     0.049 A 
ATOM     43  H   UNL A   1      40.030  30.073  31.666  1.00  0.00     0.167 HD
ATOM     44  C   UNL A   1      41.812  27.166  28.893  1.00  0.00     0.034 A 
ATOM     45  C   UNL A   1      39.700  31.277  34.178  1.00  0.00     0.034 A 
ATOM     46  C   UNL A   1      42.636  27.118  30.077  1.00  0.00     0.049 A 
ATOM     47  C   UNL A   1      40.903  30.379  34.302  1.00  0.00     0.074 A 
ATOM     48  C   UNL A   1      43.805  26.406  30.288  1.00  0.00     0.029 A 
ATOM     49  N   UNL A   1      42.377  27.806  31.256  1.00  0.00    -0.354 N 
ATOM     50  N   UNL A   1      41.424  29.570  33.409  1.00  0.00    -0.248 NA
ATOM     51  C   UNL A   1      41.601  30.384  35.593  1.00  0.00     0.031 C 
ATOM     52  C   UNL A   1      44.218  26.615  31.610  1.00  0.00     0.029 A 
ATOM     53  C   UNL A   1      43.345  27.512  32.205  1.00  0.00     0.049 A 
ATOM     54  H   UNL A   1      41.616  28.414  31.398  1.00  0.00     0.167 HD
ATOM     55  C   UNL A   1      42.522  28.982  34.027  1.00  0.00     0.074 A 
ATOM     56  C   UNL A   1      42.598  29.543  35.362  1.00  0.00     0.031 C 
ATOM     57  C   UNL A   1      43.393  28.063  33.538  1.00  0.00     0.034 A 
BRANCH  44  58
ATOM     58  C   UNL A   1      42.179  26.290  27.720  1.00  0.00     0.023 A 
ATOM     59  C   UNL A   1      41.704  24.972  27.599  1.00  0.00     0.031 A 
ATOM     60  C   UNL A   1      43.036  26.774  26.715  1.00  0.00     0.131 A 
ATOM     61  C   UNL A   1      42.138  24.165  26.537  1.00  0.00     0.055 A 
ATOM     62  C   UNL A   1      43.406  25.990  25.621  1.00  0.00     0.041 A 
ATOM     63  F   UNL A   1      43.537  28.017  26.786  1.00  0.00    -0.206 F 
ATOM     64  C   UNL A   1      42.968  24.672  25.534  1.00  0.00     0.022 A 
BRANCH  61  65
ATOM     65  S   UNL A   1      41.708  22.403  26.554  1.00  0.00     0.124 S 
ATOM     66  O   UNL A   1      40.249  22.455  26.497  1.00  0.00    -0.237 OA
ATOM     67  O   UNL A   1      42.376  21.904  25.359  1.00  0.00    -0.237 OA
ATOM     68  O   UNL A   1      42.258  21.927  27.822  1.00  0.00    -0.744 OA
ENDBRANCH  61  65
ENDBRANCH  44  58
BRANCH  45  69
ATOM     69  C   UNL A   1      39.221  32.072  35.343  1.00  0.00     0.023 A 
ATOM     70  C   UNL A   1      39.686  33.376  35.568  1.00  0.00     0.031 A 
ATOM     71  C   UNL A   1      38.308  31.526  36.264  1.00  0.00     0.131 A 
ATOM     72  C   UNL A   1      39.263  34.080  36.706  1.00  0.00     0.055 A 
ATOM     73  C   UNL A   1      37.852  32.249  37.367  1.00  0.00     0.041 A 
ATOM     74  F   UNL A   1      37.831  30.282  36.092  1.00  0.00    -0.206 F 
ATOM     75  C   UNL A   1      38.339  33.532  37.599  1.00  0.00     0.022 A 
BRANCH  72  76
ATOM     76  S   UNL A   1      39.996  35.705  37.041  1.00  0.00     0.124 S 
ATOM     77  O   UNL A   1      39.659  36.439  35.827  1.00  0.00    -0.237 OA
ATOM     78  O   UNL A   1      39.290  36.111  38.252  1.00  0.00    -0.237 OA
ATOM     79  O   UNL A   1      41.415  35.408  37.218  1.00  0.00    -0.744 OA
ENDBRANCH  72  76
ENDBRANCH  45  69
BRANCH  57  80
ATOM     80  C   UNL A   1      44.518  27.643  34.451  1.00  0.00     0.023 A 
ATOM     81  C   UNL A   1      44.410  26.512  35.278  1.00  0.00     0.031 A 
ATOM     82  C   UNL A   1      45.697  28.404  34.514  1.00  0.00     0.131 A 
ATOM     83  C   UNL A   1      45.444  26.204  36.175  1.00  0.00     0.055 A 
ATOM     84  C   UNL A   1      46.744  28.062  35.371  1.00  0.00     0.041 A 
ATOM     85  F   UNL A   1      45.849  29.496  33.747  1.00  0.00    -0.206 F 
ATOM     86  C   UNL A   1      46.617  26.964  36.217  1.00  0.00     0.022 A 
BRANCH  83  87
ATOM     87  S   UNL A   1      45.202  24.845  37.352  1.00  0.00     0.124 S 
ATOM     88  O   UNL A   1      44.295  23.968  36.619  1.00  0.00    -0.237 OA
ATOM     89  O   UNL A   1      46.561  24.345  37.536  1.00  0.00    -0.237 OA
ATOM     90  O   UNL A   1      44.622  25.501  38.521  1.00  0.00    -0.744 OA
ENDBRANCH  83  87
ENDBRANCH  57  80
ENDBRANCH  31  32
ENDBRANCH  24  26
ENDBRANCH  23  24
ENDBRANCH  22  23
ENDBRANCH   1  22
TORSDOF 18
ENDMDL
