MODEL 1
REMARK VINA RESULT:     -11.5      0.000      0.000
REMARK SMILES O=C(OCCOC(=O)C1([C@H]2CCC[C@H]2O)CCCCC1)c1ccc(-c2c3nc(c(-c4cc(S(=O)(=O)[O-])ccc4F)c4ccc([nH]4)c(-c4cc(S(=O)(=O)[O-])ccc4F)c4nc(c(-c5cc(S(=O)(=O)[O-])ccc5F)c5ccc2[nH]5)C=C4)C=C3)cc1
REMARK SMILES IDX 4 1 3 2 2 3 1 4 21 5 22 6 83 7 23 8 82 9 24 10 25 11 26 12
REMARK SMILES IDX 76 13 27 14 81 15 75 16 77 17 28 18 80 19 74 20 73 21 29 23
REMARK SMILES IDX 61 24 41 25 60 26 42 27 45 28 59 29 78 30 43 31 44 32 58 34
REMARK SMILES IDX 79 35 46 36 30 37 31 38 39 39 32 40 38 41 40 42 37 43 33 44
REMARK SMILES IDX 34 45 35 46 36 47 62 48 63 49 71 50 64 51 70 52 72 53 69 54
REMARK SMILES IDX 65 55 66 56 67 57 68 58 47 59 48 60 56 61 49 62 55 63 57 64
REMARK SMILES IDX 54 65 50 66 51 67 52 68 53 69 5 70 6 71 7 72 8 73 9 74 16 75
REMARK SMILES IDX 20 76 17 77 19 78 18 79 10 80 11 81 14 82 12 83 13 84 15 85
REMARK H PARENT 77 22 45 33 15 86
REMARK Flexibility Score: inf
ROOT
ATOM      1  C   UNL A   1      33.281  29.788  26.420  1.00  0.00     0.275 C 
ENDROOT
BRANCH   1   2
ATOM      2  O   UNL A   1      33.525  30.946  27.229  1.00  0.00    -0.458 OA
BRANCH   2   3
ATOM      3  C   UNL A   1      34.688  31.406  27.743  1.00  0.00     0.338 C 
ATOM      4  O   UNL A   1      34.821  32.622  27.880  1.00  0.00    -0.246 OA
BRANCH   3   5
ATOM      5  C   UNL A   1      35.880  30.533  28.006  1.00  0.00     0.060 A 
ATOM      6  C   UNL A   1      37.038  30.434  27.229  1.00  0.00     0.016 A 
ATOM      7  C   UNL A   1      35.846  29.816  29.209  1.00  0.00     0.016 A 
ATOM      8  C   UNL A   1      38.189  29.792  27.709  1.00  0.00     0.010 A 
ATOM      9  C   UNL A   1      37.004  29.210  29.707  1.00  0.00     0.010 A 
ATOM     10  C   UNL A   1      38.207  29.226  28.981  1.00  0.00    -0.014 A 
BRANCH  10  11
ATOM     11  C   UNL A   1      39.431  28.571  29.519  1.00  0.00     0.031 A 
ATOM     12  C   UNL A   1      40.107  29.219  30.693  1.00  0.00     0.074 A 
ATOM     13  C   UNL A   1      39.956  27.452  28.968  1.00  0.00     0.049 A 
ATOM     14  N   UNL A   1      41.205  28.873  31.311  1.00  0.00    -0.248 NA
ATOM     15  C   UNL A   1      39.467  30.430  31.237  1.00  0.00     0.031 C 
ATOM     16  C   UNL A   1      39.403  26.714  27.828  1.00  0.00     0.029 A 
ATOM     17  N   UNL A   1      41.107  26.755  29.260  1.00  0.00    -0.354 N 
ATOM     18  C   UNL A   1      41.328  29.783  32.351  1.00  0.00     0.074 A 
ATOM     19  C   UNL A   1      40.348  30.819  32.138  1.00  0.00     0.031 C 
ATOM     20  C   UNL A   1      40.254  25.738  27.462  1.00  0.00     0.029 A 
ATOM     21  C   UNL A   1      41.396  25.742  28.366  1.00  0.00     0.049 A 
ATOM     22  H   UNL A   1      41.674  26.961  30.037  1.00  0.00     0.167 HD
ATOM     23  C   UNL A   1      42.079  29.687  33.472  1.00  0.00     0.034 A 
ATOM     24  C   UNL A   1      42.457  24.910  28.297  1.00  0.00     0.034 A 
ATOM     25  C   UNL A   1      43.051  28.654  33.676  1.00  0.00     0.049 A 
ATOM     26  C   UNL A   1      43.439  24.936  29.445  1.00  0.00     0.074 A 
ATOM     27  C   UNL A   1      43.884  28.447  34.757  1.00  0.00     0.029 A 
ATOM     28  N   UNL A   1      43.327  27.652  32.753  1.00  0.00    -0.354 N 
ATOM     29  N   UNL A   1      43.463  25.735  30.489  1.00  0.00    -0.248 NA
ATOM     30  C   UNL A   1      44.480  23.903  29.453  1.00  0.00     0.031 C 
ATOM     31  C   UNL A   1      44.705  27.352  34.463  1.00  0.00     0.029 A 
ATOM     32  C   UNL A   1      44.336  26.835  33.229  1.00  0.00     0.049 A 
ATOM     33  H   UNL A   1      42.871  27.540  31.888  1.00  0.00     0.167 HD
ATOM     34  C   UNL A   1      44.465  25.242  31.319  1.00  0.00     0.074 A 
ATOM     35  C   UNL A   1      45.028  24.089  30.644  1.00  0.00     0.031 C 
ATOM     36  C   UNL A   1      44.865  25.682  32.540  1.00  0.00     0.034 A 
BRANCH  23  37
ATOM     37  C   UNL A   1      41.795  30.711  34.539  1.00  0.00     0.023 A 
ATOM     38  C   UNL A   1      40.620  30.615  35.315  1.00  0.00     0.031 A 
ATOM     39  C   UNL A   1      42.598  31.848  34.693  1.00  0.00     0.131 A 
ATOM     40  C   UNL A   1      40.219  31.693  36.113  1.00  0.00     0.055 A 
ATOM     41  C   UNL A   1      42.240  32.879  35.566  1.00  0.00     0.041 A 
ATOM     42  F   UNL A   1      43.711  32.003  33.959  1.00  0.00    -0.206 F 
ATOM     43  C   UNL A   1      41.034  32.816  36.264  1.00  0.00     0.022 A 
BRANCH  40  44
ATOM     44  S   UNL A   1      38.534  31.684  36.789  1.00  0.00     0.124 S 
ATOM     45  O   UNL A   1      37.862  32.644  35.914  1.00  0.00    -0.237 OA
ATOM     46  O   UNL A   1      38.136  30.294  36.638  1.00  0.00    -0.237 OA
ATOM     47  O   UNL A   1      38.720  32.137  38.169  1.00  0.00    -0.744 OA
ENDBRANCH  40  44
ENDBRANCH  23  37
BRANCH  24  48
ATOM     48  C   UNL A   1      42.651  23.961  27.155  1.00  0.00     0.023 A 
ATOM     49  C   UNL A   1      42.079  22.677  27.154  1.00  0.00     0.031 A 
ATOM     50  C   UNL A   1      43.515  24.288  26.093  1.00  0.00     0.131 A 
ATOM     51  C   UNL A   1      42.436  21.744  26.162  1.00  0.00     0.055 A 
ATOM     52  C   UNL A   1      43.833  23.372  25.085  1.00  0.00     0.041 A 
ATOM     53  F   UNL A   1      44.086  25.502  26.032  1.00  0.00    -0.206 F 
ATOM     54  C   UNL A   1      43.307  22.084  25.126  1.00  0.00     0.022 A 
BRANCH  51  55
ATOM     55  S   UNL A   1      41.832  20.037  26.312  1.00  0.00     0.124 S 
ATOM     56  O   UNL A   1      40.394  20.214  26.153  1.00  0.00    -0.237 OA
ATOM     57  O   UNL A   1      42.525  19.377  25.210  1.00  0.00    -0.237 OA
ATOM     58  O   UNL A   1      42.269  19.637  27.649  1.00  0.00    -0.744 OA
ENDBRANCH  51  55
ENDBRANCH  24  48
BRANCH  36  59
ATOM     59  C   UNL A   1      45.907  24.860  33.252  1.00  0.00     0.023 A 
ATOM     60  C   UNL A   1      45.561  23.746  34.033  1.00  0.00     0.031 A 
ATOM     61  C   UNL A   1      47.266  25.207  33.151  1.00  0.00     0.131 A 
ATOM     62  C   UNL A   1      46.556  23.059  34.739  1.00  0.00     0.055 A 
ATOM     63  C   UNL A   1      48.260  24.470  33.792  1.00  0.00     0.041 A 
ATOM     64  F   UNL A   1      47.650  26.267  32.419  1.00  0.00    -0.206 F 
ATOM     65  C   UNL A   1      47.905  23.398  34.606  1.00  0.00     0.022 A 
BRANCH  62  66
ATOM     66  S   UNL A   1      46.046  21.787  35.925  1.00  0.00     0.124 S 
ATOM     67  O   UNL A   1      45.191  20.936  35.104  1.00  0.00    -0.237 OA
ATOM     68  O   UNL A   1      47.323  21.207  36.327  1.00  0.00    -0.237 OA
ATOM     69  O   UNL A   1      45.355  22.547  36.964  1.00  0.00    -0.744 OA
ENDBRANCH  62  66
ENDBRANCH  36  59
ENDBRANCH  10  11
ENDBRANCH   3   5
ENDBRANCH   2   3
ENDBRANCH   1   2
BRANCH   1  70
ATOM     70  C   UNL A   1      32.895  28.512  27.180  1.00  0.00     0.274 C 
BRANCH  70  71
ATOM     71  O   UNL A   1      33.251  27.261  26.558  1.00  0.00    -0.462 OA
BRANCH  71  72
ATOM     72  C   UNL A   1      32.212  26.396  26.355  1.00  0.00     0.312 C 
ATOM     73  O   UNL A   1      31.261  26.323  27.127  1.00  0.00    -0.252 OA
BRANCH  72  74
ATOM     74  C   UNL A   1      32.343  25.540  25.048  1.00  0.00     0.073 C 
ATOM     75  C   UNL A   1      30.926  25.351  24.485  1.00  0.00     0.019 C 
ATOM     76  C   UNL A   1      33.120  26.335  23.973  1.00  0.00     0.019 C 
ATOM     77  C   UNL A   1      30.794  24.710  23.106  1.00  0.00     0.001 C 
ATOM     78  C   UNL A   1      33.132  25.697  22.584  1.00  0.00     0.001 C 
ATOM     79  C   UNL A   1      31.754  25.276  22.068  1.00  0.00     0.000 C 
BRANCH  74  80
ATOM     80  C   UNL A   1      32.936  24.156  25.489  1.00  0.00     0.035 C 
ATOM     81  C   UNL A   1      34.204  24.105  26.367  1.00  0.00     0.007 C 
ATOM     82  C   UNL A   1      31.977  23.141  26.140  1.00  0.00     0.118 C 
ATOM     83  C   UNL A   1      34.050  22.918  27.307  1.00  0.00     0.003 C 
ATOM     84  C   UNL A   1      32.920  22.094  26.719  1.00  0.00     0.032 C 
BRANCH  82  85
ATOM     85  O   UNL A   1      31.182  23.690  27.176  1.00  0.00    -0.393 OA
ATOM     86  H   UNL A   1      31.586  24.514  27.491  1.00  0.00     0.210 HD
ENDBRANCH  82  85
ENDBRANCH  74  80
ENDBRANCH  72  74
ENDBRANCH  71  72
ENDBRANCH  70  71
ENDBRANCH   1  70
TORSDOF 16
ENDMDL
MODEL 2
REMARK VINA RESULT:     -11.4      0.794      1.611
REMARK SMILES O=C(OCCOC(=O)C1([C@H]2CCC[C@H]2O)CCCCC1)c1ccc(-c2c3nc(c(-c4cc(S(=O)(=O)[O-])ccc4F)c4ccc([nH]4)c(-c4cc(S(=O)(=O)[O-])ccc4F)c4nc(c(-c5cc(S(=O)(=O)[O-])ccc5F)c5ccc2[nH]5)C=C4)C=C3)cc1
REMARK SMILES IDX 4 1 3 2 2 3 1 4 21 5 22 6 83 7 23 8 82 9 24 10 25 11 26 12
REMARK SMILES IDX 76 13 27 14 81 15 75 16 77 17 28 18 80 19 74 20 73 21 29 23
REMARK SMILES IDX 61 24 41 25 60 26 42 27 45 28 59 29 78 30 43 31 44 32 58 34
REMARK SMILES IDX 79 35 46 36 30 37 31 38 39 39 32 40 38 41 40 42 37 43 33 44
REMARK SMILES IDX 34 45 35 46 36 47 62 48 63 49 71 50 64 51 70 52 72 53 69 54
REMARK SMILES IDX 65 55 66 56 67 57 68 58 47 59 48 60 56 61 49 62 55 63 57 64
REMARK SMILES IDX 54 65 50 66 51 67 52 68 53 69 5 70 6 71 7 72 8 73 9 74 16 75
REMARK SMILES IDX 20 76 17 77 19 78 18 79 10 80 11 81 14 82 12 83 13 84 15 85
REMARK H PARENT 77 22 45 33 15 86
REMARK Flexibility Score: inf
ROOT
ATOM      1  C   UNL A   1      33.042  29.652  26.823  1.00  0.00     0.275 C 
ENDROOT
BRANCH   1   2
ATOM      2  O   UNL A   1      33.381  30.970  27.273  1.00  0.00    -0.458 OA
BRANCH   2   3
ATOM      3  C   UNL A   1      34.538  31.425  27.807  1.00  0.00     0.338 C 
ATOM      4  O   UNL A   1      34.668  32.640  27.960  1.00  0.00    -0.246 OA
BRANCH   3   5
ATOM      5  C   UNL A   1      35.727  30.550  28.074  1.00  0.00     0.060 A 
ATOM      6  C   UNL A   1      36.864  30.409  27.273  1.00  0.00     0.016 A 
ATOM      7  C   UNL A   1      35.716  29.881  29.305  1.00  0.00     0.016 A 
ATOM      8  C   UNL A   1      38.020  29.773  27.749  1.00  0.00     0.010 A 
ATOM      9  C   UNL A   1      36.880  29.282  29.797  1.00  0.00     0.010 A 
ATOM     10  C   UNL A   1      38.065  29.257  29.041  1.00  0.00    -0.014 A 
BRANCH  10  11
ATOM     11  C   UNL A   1      39.296  28.610  29.574  1.00  0.00     0.031 A 
ATOM     12  C   UNL A   1      39.962  29.253  30.756  1.00  0.00     0.074 A 
ATOM     13  C   UNL A   1      39.834  27.503  29.011  1.00  0.00     0.049 A 
ATOM     14  N   UNL A   1      41.064  28.913  31.372  1.00  0.00    -0.248 NA
ATOM     15  C   UNL A   1      39.308  30.450  31.313  1.00  0.00     0.031 C 
ATOM     16  C   UNL A   1      39.292  26.772  27.862  1.00  0.00     0.029 A 
ATOM     17  N   UNL A   1      40.993  26.816  29.297  1.00  0.00    -0.354 N 
ATOM     18  C   UNL A   1      41.175  29.813  32.422  1.00  0.00     0.074 A 
ATOM     19  C   UNL A   1      40.183  30.839  32.220  1.00  0.00     0.031 C 
ATOM     20  C   UNL A   1      40.155  25.809  27.487  1.00  0.00     0.029 A 
ATOM     21  C   UNL A   1      41.295  25.817  28.393  1.00  0.00     0.049 A 
ATOM     22  H   UNL A   1      41.556  27.020  30.078  1.00  0.00     0.167 HD
ATOM     23  C   UNL A   1      41.925  29.713  33.543  1.00  0.00     0.034 A 
ATOM     24  C   UNL A   1      42.365  24.998  28.316  1.00  0.00     0.034 A 
ATOM     25  C   UNL A   1      42.909  28.688  33.737  1.00  0.00     0.049 A 
ATOM     26  C   UNL A   1      43.345  25.023  29.466  1.00  0.00     0.074 A 
ATOM     27  C   UNL A   1      43.743  28.479  34.817  1.00  0.00     0.029 A 
ATOM     28  N   UNL A   1      43.198  27.700  32.803  1.00  0.00    -0.354 N 
ATOM     29  N   UNL A   1      43.358  25.810  30.518  1.00  0.00    -0.248 NA
ATOM     30  C   UNL A   1      44.398  24.001  29.464  1.00  0.00     0.031 C 
ATOM     31  C   UNL A   1      44.576  27.397  34.512  1.00  0.00     0.029 A 
ATOM     32  C   UNL A   1      44.215  26.890  33.272  1.00  0.00     0.049 A 
ATOM     33  H   UNL A   1      42.744  27.592  31.937  1.00  0.00     0.167 HD
ATOM     34  C   UNL A   1      44.365  25.319  31.345  1.00  0.00     0.074 A 
ATOM     35  C   UNL A   1      44.942  24.180  30.658  1.00  0.00     0.031 C 
ATOM     36  C   UNL A   1      44.759  25.750  32.571  1.00  0.00     0.034 A 
BRANCH  23  37
ATOM     37  C   UNL A   1      41.628  30.721  34.621  1.00  0.00     0.023 A 
ATOM     38  C   UNL A   1      40.459  30.597  35.402  1.00  0.00     0.031 A 
ATOM     39  C   UNL A   1      42.411  31.871  34.782  1.00  0.00     0.131 A 
ATOM     40  C   UNL A   1      40.042  31.661  36.211  1.00  0.00     0.055 A 
ATOM     41  C   UNL A   1      42.038  32.887  35.666  1.00  0.00     0.041 A 
ATOM     42  F   UNL A   1      43.518  32.053  34.045  1.00  0.00    -0.206 F 
ATOM     43  C   UNL A   1      40.837  32.796  36.369  1.00  0.00     0.022 A 
BRANCH  40  44
ATOM     44  S   UNL A   1      38.361  31.615  36.895  1.00  0.00     0.124 S 
ATOM     45  O   UNL A   1      38.558  32.249  38.199  1.00  0.00    -0.237 OA
ATOM     46  O   UNL A   1      37.598  32.381  35.922  1.00  0.00    -0.237 OA
ATOM     47  O   UNL A   1      38.054  30.184  36.947  1.00  0.00    -0.744 OA
ENDBRANCH  40  44
ENDBRANCH  23  37
BRANCH  24  48
ATOM     48  C   UNL A   1      42.572  24.064  27.164  1.00  0.00     0.023 A 
ATOM     49  C   UNL A   1      42.006  22.778  27.143  1.00  0.00     0.031 A 
ATOM     50  C   UNL A   1      43.442  24.408  26.113  1.00  0.00     0.131 A 
ATOM     51  C   UNL A   1      42.374  21.859  26.142  1.00  0.00     0.055 A 
ATOM     52  C   UNL A   1      43.771  23.506  25.095  1.00  0.00     0.041 A 
ATOM     53  F   UNL A   1      44.008  25.625  26.071  1.00  0.00    -0.206 F 
ATOM     54  C   UNL A   1      43.251  22.215  25.117  1.00  0.00     0.022 A 
BRANCH  51  55
ATOM     55  S   UNL A   1      41.777  20.147  26.267  1.00  0.00     0.124 S 
ATOM     56  O   UNL A   1      42.494  19.501  25.175  1.00  0.00    -0.237 OA
ATOM     57  O   UNL A   1      42.196  19.781  27.616  1.00  0.00    -0.237 OA
ATOM     58  O   UNL A   1      40.333  20.275  26.078  1.00  0.00    -0.744 OA
ENDBRANCH  51  55
ENDBRANCH  24  48
BRANCH  36  59
ATOM     59  C   UNL A   1      45.809  24.933  33.276  1.00  0.00     0.023 A 
ATOM     60  C   UNL A   1      45.484  23.762  33.979  1.00  0.00     0.031 A 
ATOM     61  C   UNL A   1      47.154  25.340  33.246  1.00  0.00     0.131 A 
ATOM     62  C   UNL A   1      46.482  23.077  34.683  1.00  0.00     0.055 A 
ATOM     63  C   UNL A   1      48.155  24.610  33.883  1.00  0.00     0.041 A 
ATOM     64  F   UNL A   1      47.517  26.456  32.591  1.00  0.00    -0.206 F 
ATOM     65  C   UNL A   1      47.819  23.479  34.621  1.00  0.00     0.022 A 
BRANCH  62  66
ATOM     66  S   UNL A   1      45.985  21.719  35.775  1.00  0.00     0.124 S 
ATOM     67  O   UNL A   1      45.449  22.439  36.926  1.00  0.00    -0.237 OA
ATOM     68  O   UNL A   1      45.009  21.004  34.960  1.00  0.00    -0.237 OA
ATOM     69  O   UNL A   1      47.235  21.002  36.018  1.00  0.00    -0.744 OA
ENDBRANCH  62  66
ENDBRANCH  36  59
ENDBRANCH  10  11
ENDBRANCH   3   5
ENDBRANCH   2   3
ENDBRANCH   1   2
BRANCH   1  70
ATOM     70  C   UNL A   1      32.600  29.541  25.358  1.00  0.00     0.274 C 
BRANCH  70  71
ATOM     71  O   UNL A   1      33.347  28.627  24.530  1.00  0.00    -0.462 OA
BRANCH  71  72
ATOM     72  C   UNL A   1      32.595  27.696  23.867  1.00  0.00     0.312 C 
ATOM     73  O   UNL A   1      31.742  28.011  23.043  1.00  0.00    -0.252 OA
BRANCH  72  74
ATOM     74  C   UNL A   1      32.945  26.214  24.239  1.00  0.00     0.073 C 
ATOM     75  C   UNL A   1      33.495  25.545  22.970  1.00  0.00     0.019 C 
ATOM     76  C   UNL A   1      34.103  26.186  25.264  1.00  0.00     0.019 C 
ATOM     77  C   UNL A   1      34.090  24.146  23.111  1.00  0.00     0.001 C 
ATOM     78  C   UNL A   1      34.678  24.799  25.548  1.00  0.00     0.001 C 
ATOM     79  C   UNL A   1      35.033  23.993  24.297  1.00  0.00     0.000 C 
BRANCH  74  80
ATOM     80  C   UNL A   1      31.593  25.538  24.661  1.00  0.00     0.035 C 
ATOM     81  C   UNL A   1      31.558  24.035  25.008  1.00  0.00     0.007 C 
ATOM     82  C   UNL A   1      30.777  26.210  25.782  1.00  0.00     0.118 C 
ATOM     83  C   UNL A   1      30.542  23.856  26.126  1.00  0.00     0.003 C 
ATOM     84  C   UNL A   1      29.746  25.148  26.144  1.00  0.00     0.032 C 
BRANCH  82  85
ATOM     85  O   UNL A   1      31.543  26.539  26.928  1.00  0.00    -0.393 OA
ATOM     86  H   UNL A   1      32.419  26.852  26.651  1.00  0.00     0.210 HD
ENDBRANCH  82  85
ENDBRANCH  74  80
ENDBRANCH  72  74
ENDBRANCH  71  72
ENDBRANCH  70  71
ENDBRANCH   1  70
TORSDOF 16
ENDMDL
MODEL 3
REMARK VINA RESULT:     -11.4      5.141     10.519
REMARK SMILES O=C(OCCOC(=O)C1([C@H]2CCC[C@H]2O)CCCCC1)c1ccc(-c2c3nc(c(-c4cc(S(=O)(=O)[O-])ccc4F)c4ccc([nH]4)c(-c4cc(S(=O)(=O)[O-])ccc4F)c4nc(c(-c5cc(S(=O)(=O)[O-])ccc5F)c5ccc2[nH]5)C=C4)C=C3)cc1
REMARK SMILES IDX 4 1 3 2 2 3 1 4 21 5 22 6 83 7 23 8 82 9 24 10 25 11 26 12
REMARK SMILES IDX 76 13 27 14 81 15 75 16 77 17 28 18 80 19 74 20 73 21 29 23
REMARK SMILES IDX 61 24 41 25 60 26 42 27 45 28 59 29 78 30 43 31 44 32 58 34
REMARK SMILES IDX 79 35 46 36 30 37 31 38 39 39 32 40 38 41 40 42 37 43 33 44
REMARK SMILES IDX 34 45 35 46 36 47 62 48 63 49 71 50 64 51 70 52 72 53 69 54
REMARK SMILES IDX 65 55 66 56 67 57 68 58 47 59 48 60 56 61 49 62 55 63 57 64
REMARK SMILES IDX 54 65 50 66 51 67 52 68 53 69 5 70 6 71 7 72 8 73 9 74 16 75
REMARK SMILES IDX 20 76 17 77 19 78 18 79 10 80 11 81 14 82 12 83 13 84 15 85
REMARK H PARENT 77 22 45 33 15 86
REMARK Flexibility Score: inf
ROOT
ATOM      1  C   UNL A   1      37.834  21.068  25.389  1.00  0.00     0.275 C 
ENDROOT
BRANCH   1   2
ATOM      2  O   UNL A   1      38.904  22.014  25.512  1.00  0.00    -0.458 OA
BRANCH   2   3
ATOM      3  C   UNL A   1      39.555  22.437  26.620  1.00  0.00     0.338 C 
ATOM      4  O   UNL A   1      40.044  21.589  27.366  1.00  0.00    -0.246 OA
BRANCH   3   5
ATOM      5  C   UNL A   1      39.574  23.868  27.072  1.00  0.00     0.060 A 
ATOM      6  C   UNL A   1      39.289  24.350  28.353  1.00  0.00     0.016 A 
ATOM      7  C   UNL A   1      40.015  24.793  26.116  1.00  0.00     0.016 A 
ATOM      8  C   UNL A   1      39.597  25.667  28.724  1.00  0.00     0.010 A 
ATOM      9  C   UNL A   1      40.360  26.094  26.495  1.00  0.00     0.010 A 
ATOM     10  C   UNL A   1      40.195  26.538  27.819  1.00  0.00    -0.014 A 
BRANCH  10  11
ATOM     11  C   UNL A   1      40.560  27.928  28.208  1.00  0.00     0.031 A 
ATOM     12  C   UNL A   1      42.020  28.274  28.263  1.00  0.00     0.074 A 
ATOM     13  C   UNL A   1      39.631  28.856  28.537  1.00  0.00     0.049 A 
ATOM     14  N   UNL A   1      42.594  29.393  28.617  1.00  0.00    -0.248 NA
ATOM     15  C   UNL A   1      42.966  27.209  27.883  1.00  0.00     0.031 C 
ATOM     16  C   UNL A   1      38.178  28.660  28.524  1.00  0.00     0.029 A 
ATOM     17  N   UNL A   1      39.766  30.146  28.998  1.00  0.00    -0.354 N 
ATOM     18  C   UNL A   1      43.950  29.174  28.423  1.00  0.00     0.074 A 
ATOM     19  C   UNL A   1      44.128  27.768  28.160  1.00  0.00     0.031 C 
ATOM     20  C   UNL A   1      37.569  29.744  29.041  1.00  0.00     0.029 A 
ATOM     21  C   UNL A   1      38.578  30.737  29.382  1.00  0.00     0.049 A 
ATOM     22  H   UNL A   1      40.634  30.607  29.049  1.00  0.00     0.167 HD
ATOM     23  C   UNL A   1      44.945  30.084  28.315  1.00  0.00     0.034 A 
ATOM     24  C   UNL A   1      38.338  31.944  29.936  1.00  0.00     0.034 A 
ATOM     25  C   UNL A   1      44.760  31.480  28.578  1.00  0.00     0.049 A 
ATOM     26  C   UNL A   1      39.495  32.912  30.026  1.00  0.00     0.074 A 
ATOM     27  C   UNL A   1      45.683  32.505  28.516  1.00  0.00     0.029 A 
ATOM     28  N   UNL A   1      43.552  32.045  28.973  1.00  0.00    -0.354 N 
ATOM     29  N   UNL A   1      40.757  32.716  29.718  1.00  0.00    -0.248 NA
ATOM     30  C   UNL A   1      39.184  34.281  30.452  1.00  0.00     0.031 C 
ATOM     31  C   UNL A   1      45.046  33.682  28.928  1.00  0.00     0.029 A 
ATOM     32  C   UNL A   1      43.710  33.402  29.181  1.00  0.00     0.049 A 
ATOM     33  H   UNL A   1      42.709  31.551  29.086  1.00  0.00     0.167 HD
ATOM     34  C   UNL A   1      41.371  33.960  29.829  1.00  0.00     0.074 A 
ATOM     35  C   UNL A   1      40.341  34.891  30.246  1.00  0.00     0.031 C 
ATOM     36  C   UNL A   1      42.660  34.309  29.581  1.00  0.00     0.034 A 
BRANCH  23  37
ATOM     37  C   UNL A   1      46.270  29.549  27.839  1.00  0.00     0.023 A 
ATOM     38  C   UNL A   1      46.419  29.117  26.504  1.00  0.00     0.031 A 
ATOM     39  C   UNL A   1      47.332  29.334  28.726  1.00  0.00     0.131 A 
ATOM     40  C   UNL A   1      47.550  28.380  26.129  1.00  0.00     0.055 A 
ATOM     41  C   UNL A   1      48.500  28.683  28.319  1.00  0.00     0.041 A 
ATOM     42  F   UNL A   1      47.232  29.701  30.013  1.00  0.00    -0.206 F 
ATOM     43  C   UNL A   1      48.604  28.182  27.021  1.00  0.00     0.022 A 
BRANCH  40  44
ATOM     44  S   UNL A   1      47.529  27.526  24.528  1.00  0.00     0.124 S 
ATOM     45  O   UNL A   1      47.674  26.130  24.939  1.00  0.00    -0.237 OA
ATOM     46  O   UNL A   1      46.233  27.899  23.982  1.00  0.00    -0.237 OA
ATOM     47  O   UNL A   1      48.688  28.085  23.830  1.00  0.00    -0.744 OA
ENDBRANCH  40  44
ENDBRANCH  23  37
BRANCH  24  48
ATOM     48  C   UNL A   1      36.976  32.344  30.412  1.00  0.00     0.023 A 
ATOM     49  C   UNL A   1      36.028  32.917  29.547  1.00  0.00     0.031 A 
ATOM     50  C   UNL A   1      36.644  32.264  31.777  1.00  0.00     0.131 A 
ATOM     51  C   UNL A   1      34.834  33.456  30.062  1.00  0.00     0.055 A 
ATOM     52  C   UNL A   1      35.437  32.762  32.279  1.00  0.00     0.041 A 
ATOM     53  F   UNL A   1      37.504  31.720  32.653  1.00  0.00    -0.206 F 
ATOM     54  C   UNL A   1      34.531  33.380  31.422  1.00  0.00     0.022 A 
BRANCH  51  55
ATOM     55  S   UNL A   1      33.731  34.366  28.940  1.00  0.00     0.124 S 
ATOM     56  O   UNL A   1      32.729  34.884  29.862  1.00  0.00    -0.237 OA
ATOM     57  O   UNL A   1      34.639  35.349  28.359  1.00  0.00    -0.237 OA
ATOM     58  O   UNL A   1      33.258  33.334  28.017  1.00  0.00    -0.744 OA
ENDBRANCH  51  55
ENDBRANCH  24  48
BRANCH  36  59
ATOM     59  C   UNL A   1      43.001  35.772  29.678  1.00  0.00     0.023 A 
ATOM     60  C   UNL A   1      42.709  36.668  28.638  1.00  0.00     0.031 A 
ATOM     61  C   UNL A   1      43.633  36.272  30.830  1.00  0.00     0.131 A 
ATOM     62  C   UNL A   1      43.114  38.005  28.741  1.00  0.00     0.055 A 
ATOM     63  C   UNL A   1      43.961  37.620  30.960  1.00  0.00     0.041 A 
ATOM     64  F   UNL A   1      43.938  35.455  31.853  1.00  0.00    -0.206 F 
ATOM     65  C   UNL A   1      43.716  38.493  29.903  1.00  0.00     0.022 A 
BRANCH  62  66
ATOM     66  S   UNL A   1      42.943  39.069  27.284  1.00  0.00     0.124 S 
ATOM     67  O   UNL A   1      41.954  38.342  26.495  1.00  0.00    -0.237 OA
ATOM     68  O   UNL A   1      42.491  40.327  27.868  1.00  0.00    -0.237 OA
ATOM     69  O   UNL A   1      44.291  39.095  26.720  1.00  0.00    -0.744 OA
ENDBRANCH  62  66
ENDBRANCH  36  59
ENDBRANCH  10  11
ENDBRANCH   3   5
ENDBRANCH   2   3
ENDBRANCH   1   2
BRANCH   1  70
ATOM     70  C   UNL A   1      36.662  21.497  24.497  1.00  0.00     0.274 C 
BRANCH  70  71
ATOM     71  O   UNL A   1      36.145  22.826  24.712  1.00  0.00    -0.462 OA
BRANCH  71  72
ATOM     72  C   UNL A   1      35.461  23.361  23.656  1.00  0.00     0.312 C 
ATOM     73  O   UNL A   1      35.782  23.146  22.491  1.00  0.00    -0.252 OA
BRANCH  72  74
ATOM     74  C   UNL A   1      34.233  24.242  24.074  1.00  0.00     0.073 C 
ATOM     75  C   UNL A   1      34.592  24.919  25.406  1.00  0.00     0.019 C 
ATOM     76  C   UNL A   1      34.039  25.392  23.058  1.00  0.00     0.019 C 
ATOM     77  C   UNL A   1      33.637  25.984  25.937  1.00  0.00     0.001 C 
ATOM     78  C   UNL A   1      33.008  26.444  23.466  1.00  0.00     0.001 C 
ATOM     79  C   UNL A   1      33.187  26.989  24.885  1.00  0.00     0.000 C 
BRANCH  74  80
ATOM     80  C   UNL A   1      33.034  23.252  24.279  1.00  0.00     0.035 C 
ATOM     81  C   UNL A   1      32.896  22.010  23.374  1.00  0.00     0.007 C 
ATOM     82  C   UNL A   1      32.781  22.720  25.703  1.00  0.00     0.118 C 
ATOM     83  C   UNL A   1      32.329  20.890  24.234  1.00  0.00     0.003 C 
ATOM     84  C   UNL A   1      31.797  21.578  25.477  1.00  0.00     0.032 C 
BRANCH  82  85
ATOM     85  O   UNL A   1      33.945  22.225  26.343  1.00  0.00    -0.393 OA
ATOM     86  H   UNL A   1      33.756  22.071  27.282  1.00  0.00     0.210 HD
ENDBRANCH  82  85
ENDBRANCH  74  80
ENDBRANCH  72  74
ENDBRANCH  71  72
ENDBRANCH  70  71
ENDBRANCH   1  70
TORSDOF 16
ENDMDL
