MODEL 1
REMARK VINA RESULT:     -12.4      0.000      0.000
REMARK SMILES CCC[N@@H+]1CC2(CC[NH+](C(=O)Cn3nnnc3C)CC2)C[C@H]1C(=O)OCCOC(=O)c1ccc(-c2c3nc(c(-c4cc(S(=O)(=O)[O-])ccc4F)c4ccc([nH]4)c(-c4cc(S(=O)(=O)[O-])ccc4F)c4nc(c(-c5cc(S(=O)(=O)[O-])ccc5F)c5ccc2[nH]5)C=C4)C=C3)cc1
REMARK SMILES IDX 26 1 25 2 23 3 24 4 22 5 4 6 5 7 6 9 21 10 7 11 20 12 8 13
REMARK SMILES IDX 19 14 9 15 3 17 2 18 1 19 10 20 11 21 12 22 13 23 14 24
REMARK SMILES IDX 17 25 15 26 16 27 18 28 27 29 28 30 29 31 30 32 31 33 32 34
REMARK SMILES IDX 93 35 33 36 92 37 34 38 35 39 36 40 86 41 37 42 91 43 85 44
REMARK SMILES IDX 87 45 38 46 90 47 84 48 83 49 39 51 71 52 51 53 70 54 52 55
REMARK SMILES IDX 55 56 69 57 88 58 53 59 54 60 68 62 89 63 56 64 40 65 41 66
REMARK SMILES IDX 49 67 42 68 48 69 50 70 47 71 43 72 44 73 45 74 46 75 72 76
REMARK SMILES IDX 73 77 81 78 74 79 80 80 82 81 79 82 75 83 76 84 77 85 78 86
REMARK SMILES IDX 57 87 58 88 66 89 59 90 65 91 67 92 64 93 60 94 61 95 62 96
REMARK SMILES IDX 63 97
REMARK H PARENT 4 8 9 16 87 50 55 61
REMARK Flexibility Score: inf
ROOT
ATOM      1  C   UNL A   1      32.415  30.675  26.464  1.00  0.00     0.274 C 
ENDROOT
BRANCH   1   2
ATOM      2  O   UNL A   1      32.859  29.419  25.917  1.00  0.00    -0.458 OA
BRANCH   2   3
ATOM      3  C   UNL A   1      32.514  29.129  24.632  1.00  0.00     0.365 C 
ATOM      4  O   UNL A   1      33.238  29.361  23.665  1.00  0.00    -0.245 OA
BRANCH   3   5
ATOM      5  C   UNL A   1      31.074  28.603  24.463  1.00  0.00     0.295 C 
ATOM      6  N   UNL A   1      30.634  28.310  23.071  1.00  0.00    -0.323 N 
ATOM      7  C   UNL A   1      31.209  26.999  22.753  1.00  0.00     0.270 C 
ATOM      8  H   UNL A   1      30.954  29.037  22.431  1.00  0.00     0.348 HD
ATOM      9  C   UNL A   1      31.263  26.214  24.085  1.00  0.00     0.036 C 
ATOM     10  C   UNL A   1      30.965  27.265  25.176  1.00  0.00     0.091 C 
ATOM     11  C   UNL A   1      32.651  25.576  24.303  1.00  0.00     0.075 C 
ATOM     12  C   UNL A   1      30.202  25.097  24.145  1.00  0.00     0.075 C 
ATOM     13  C   UNL A   1      32.925  24.479  23.285  1.00  0.00     0.271 C 
ATOM     14  C   UNL A   1      30.502  23.969  23.166  1.00  0.00     0.271 C 
ATOM     15  N   UNL A   1      31.867  23.467  23.328  1.00  0.00    -0.270 N 
ATOM     16  H   UNL A   1      32.070  23.405  22.367  1.00  0.00     0.356 HD
BRANCH   6  17
ATOM     17  C   UNL A   1      29.166  28.305  22.925  1.00  0.00     0.262 C 
BRANCH  17  18
ATOM     18  C   UNL A   1      28.602  29.669  22.515  1.00  0.00     0.058 C 
ATOM     19  C   UNL A   1      29.502  30.462  21.577  1.00  0.00     0.010 C 
ENDBRANCH  17  18
ENDBRANCH   6  17
BRANCH  15  20
ATOM     20  C   UNL A   1      32.068  22.097  23.395  1.00  0.00     0.333 C 
ATOM     21  O   UNL A   1      32.088  21.389  22.384  1.00  0.00    -0.229 OA
BRANCH  20  22
ATOM     22  C   UNL A   1      32.268  21.453  24.738  1.00  0.00     0.293 C 
BRANCH  22  23
ATOM     23  N   UNL A   1      31.879  22.255  25.876  1.00  0.00    -0.216 N 
ATOM     24  N   UNL A   1      30.559  22.353  26.139  1.00  0.00    -0.044 NA
ATOM     25  C   UNL A   1      32.580  22.988  26.803  1.00  0.00     0.149 A 
ATOM     26  N   UNL A   1      30.465  23.139  27.197  1.00  0.00    -0.024 NA
ATOM     27  N   UNL A   1      31.702  23.541  27.617  1.00  0.00    -0.114 NA
ATOM     28  C   UNL A   1      34.044  23.181  26.884  1.00  0.00     0.091 C 
ENDBRANCH  22  23
ENDBRANCH  20  22
ENDBRANCH  15  20
ENDBRANCH   3   5
ENDBRANCH   2   3
ENDBRANCH   1   2
BRANCH   1  29
ATOM     29  C   UNL A   1      33.337  31.142  27.581  1.00  0.00     0.275 C 
BRANCH  29  30
ATOM     30  O   UNL A   1      34.692  30.975  27.184  1.00  0.00    -0.458 OA
BRANCH  30  31
ATOM     31  C   UNL A   1      35.545  31.824  27.805  1.00  0.00     0.338 C 
ATOM     32  O   UNL A   1      35.737  32.993  27.532  1.00  0.00    -0.246 OA
BRANCH  31  33
ATOM     33  C   UNL A   1      36.364  31.085  28.763  1.00  0.00     0.060 A 
ATOM     34  C   UNL A   1      37.350  31.827  29.416  1.00  0.00     0.016 A 
ATOM     35  C   UNL A   1      36.406  29.690  28.669  1.00  0.00     0.016 A 
ATOM     36  C   UNL A   1      38.523  31.196  29.740  1.00  0.00     0.010 A 
ATOM     37  C   UNL A   1      37.588  29.066  28.964  1.00  0.00     0.010 A 
ATOM     38  C   UNL A   1      38.654  29.850  29.401  1.00  0.00    -0.014 A 
BRANCH  38  39
ATOM     39  C   UNL A   1      39.957  29.252  29.549  1.00  0.00     0.031 A 
ATOM     40  C   UNL A   1      40.352  29.067  30.956  1.00  0.00     0.074 A 
ATOM     41  C   UNL A   1      40.652  28.797  28.493  1.00  0.00     0.049 A 
ATOM     42  N   UNL A   1      41.322  29.631  31.588  1.00  0.00    -0.248 NA
ATOM     43  C   UNL A   1      39.441  28.291  31.812  1.00  0.00     0.031 C 
ATOM     44  C   UNL A   1      40.201  28.666  27.105  1.00  0.00     0.029 A 
ATOM     45  N   UNL A   1      41.874  28.211  28.481  1.00  0.00    -0.354 N 
ATOM     46  C   UNL A   1      41.283  29.097  32.869  1.00  0.00     0.074 A 
ATOM     47  C   UNL A   1      39.995  28.475  33.008  1.00  0.00     0.031 C 
ATOM     48  C   UNL A   1      41.028  27.811  26.460  1.00  0.00     0.029 A 
ATOM     49  C   UNL A   1      42.113  27.437  27.355  1.00  0.00     0.049 A 
ATOM     50  H   UNL A   1      42.532  28.326  29.205  1.00  0.00     0.167 HD
ATOM     51  C   UNL A   1      42.410  28.977  33.617  1.00  0.00     0.034 A 
ATOM     52  C   UNL A   1      43.054  26.464  27.240  1.00  0.00     0.034 A 
ATOM     53  C   UNL A   1      43.460  29.839  33.126  1.00  0.00     0.049 A 
ATOM     54  C   UNL A   1      44.083  26.732  28.284  1.00  0.00     0.074 A 
ATOM     55  C   UNL A   1      43.551  31.200  32.894  1.00  0.00     0.029 A 
ATOM     56  N   UNL A   1      44.497  29.277  32.412  1.00  0.00    -0.354 N 
ATOM     57  N   UNL A   1      44.838  27.798  28.295  1.00  0.00    -0.248 NA
ATOM     58  C   UNL A   1      43.935  26.077  29.578  1.00  0.00     0.031 C 
ATOM     59  C   UNL A   1      44.282  31.317  31.676  1.00  0.00     0.029 A 
ATOM     60  C   UNL A   1      44.659  30.033  31.275  1.00  0.00     0.049 A 
ATOM     61  H   UNL A   1      45.021  28.484  32.667  1.00  0.00     0.167 HD
ATOM     62  C   UNL A   1      44.900  28.190  29.626  1.00  0.00     0.074 A 
ATOM     63  C   UNL A   1      44.411  27.036  30.378  1.00  0.00     0.031 C 
ATOM     64  C   UNL A   1      45.060  29.499  29.985  1.00  0.00     0.034 A 
BRANCH  51  65
ATOM     65  C   UNL A   1      42.664  27.827  34.560  1.00  0.00     0.023 A 
ATOM     66  C   UNL A   1      43.417  26.748  34.065  1.00  0.00     0.031 A 
ATOM     67  C   UNL A   1      41.998  27.600  35.790  1.00  0.00     0.131 A 
ATOM     68  C   UNL A   1      43.408  25.506  34.720  1.00  0.00     0.055 A 
ATOM     69  C   UNL A   1      42.060  26.387  36.477  1.00  0.00     0.041 A 
ATOM     70  F   UNL A   1      41.169  28.490  36.346  1.00  0.00    -0.206 F 
ATOM     71  C   UNL A   1      42.742  25.319  35.927  1.00  0.00     0.022 A 
BRANCH  68  72
ATOM     72  S   UNL A   1      44.127  24.087  33.859  1.00  0.00     0.124 S 
ATOM     73  O   UNL A   1      44.211  24.585  32.490  1.00  0.00    -0.237 OA
ATOM     74  O   UNL A   1      45.394  23.922  34.563  1.00  0.00    -0.237 OA
ATOM     75  O   UNL A   1      43.147  23.027  34.080  1.00  0.00    -0.744 OA
ENDBRANCH  68  72
ENDBRANCH  51  65
BRANCH  52  76
ATOM     76  C   UNL A   1      42.865  25.155  26.550  1.00  0.00     0.023 A 
ATOM     77  C   UNL A   1      43.791  24.641  25.622  1.00  0.00     0.031 A 
ATOM     78  C   UNL A   1      41.833  24.277  26.961  1.00  0.00     0.131 A 
ATOM     79  C   UNL A   1      43.648  23.319  25.131  1.00  0.00     0.055 A 
ATOM     80  C   UNL A   1      41.684  22.984  26.457  1.00  0.00     0.041 A 
ATOM     81  F   UNL A   1      40.971  24.616  27.932  1.00  0.00    -0.206 F 
ATOM     82  C   UNL A   1      42.597  22.496  25.541  1.00  0.00     0.022 A 
BRANCH  79  83
ATOM     83  S   UNL A   1      44.897  22.614  24.008  1.00  0.00     0.124 S 
ATOM     84  O   UNL A   1      45.350  21.440  24.745  1.00  0.00    -0.237 OA
ATOM     85  O   UNL A   1      44.122  22.363  22.798  1.00  0.00    -0.237 OA
ATOM     86  O   UNL A   1      45.889  23.684  23.885  1.00  0.00    -0.744 OA
ENDBRANCH  79  83
ENDBRANCH  52  76
BRANCH  64  87
ATOM     87  C   UNL A   1      45.445  30.513  28.922  1.00  0.00     0.023 A 
ATOM     88  C   UNL A   1      46.773  30.846  28.572  1.00  0.00     0.031 A 
ATOM     89  C   UNL A   1      44.412  31.044  28.127  1.00  0.00     0.131 A 
ATOM     90  C   UNL A   1      47.024  31.686  27.468  1.00  0.00     0.055 A 
ATOM     91  C   UNL A   1      44.665  31.858  27.023  1.00  0.00     0.041 A 
ATOM     92  F   UNL A   1      43.129  30.740  28.386  1.00  0.00    -0.206 F 
ATOM     93  C   UNL A   1      45.974  32.186  26.691  1.00  0.00     0.022 A 
BRANCH  90  94
ATOM     94  S   UNL A   1      48.729  32.150  27.019  1.00  0.00     0.124 S 
ATOM     95  O   UNL A   1      49.356  30.874  26.699  1.00  0.00    -0.237 OA
ATOM     96  O   UNL A   1      48.521  33.064  25.898  1.00  0.00    -0.237 OA
ATOM     97  O   UNL A   1      49.237  32.790  28.235  1.00  0.00    -0.744 OA
ENDBRANCH  90  94
ENDBRANCH  64  87
ENDBRANCH  38  39
ENDBRANCH  31  33
ENDBRANCH  30  31
ENDBRANCH  29  30
ENDBRANCH   1  29
TORSDOF 19
ENDMDL
MODEL 2
REMARK VINA RESULT:     -12.0      1.652      2.186
REMARK SMILES CCC[N@@H+]1CC2(CC[NH+](C(=O)Cn3nnnc3C)CC2)C[C@H]1C(=O)OCCOC(=O)c1ccc(-c2c3nc(c(-c4cc(S(=O)(=O)[O-])ccc4F)c4ccc([nH]4)c(-c4cc(S(=O)(=O)[O-])ccc4F)c4nc(c(-c5cc(S(=O)(=O)[O-])ccc5F)c5ccc2[nH]5)C=C4)C=C3)cc1
REMARK SMILES IDX 26 1 25 2 23 3 24 4 22 5 4 6 5 7 6 9 21 10 7 11 20 12 8 13
REMARK SMILES IDX 19 14 9 15 3 17 2 18 1 19 10 20 11 21 12 22 13 23 14 24
REMARK SMILES IDX 17 25 15 26 16 27 18 28 27 29 28 30 29 31 30 32 31 33 32 34
REMARK SMILES IDX 93 35 33 36 92 37 34 38 35 39 36 40 86 41 37 42 91 43 85 44
REMARK SMILES IDX 87 45 38 46 90 47 84 48 83 49 39 51 71 52 51 53 70 54 52 55
REMARK SMILES IDX 55 56 69 57 88 58 53 59 54 60 68 62 89 63 56 64 40 65 41 66
REMARK SMILES IDX 49 67 42 68 48 69 50 70 47 71 43 72 44 73 45 74 46 75 72 76
REMARK SMILES IDX 73 77 81 78 74 79 80 80 82 81 79 82 75 83 76 84 77 85 78 86
REMARK SMILES IDX 57 87 58 88 66 89 59 90 65 91 67 92 64 93 60 94 61 95 62 96
REMARK SMILES IDX 63 97
REMARK H PARENT 4 8 9 16 87 50 55 61
REMARK Flexibility Score: inf
ROOT
ATOM      1  C   UNL A   1      33.594  29.443  27.255  1.00  0.00     0.274 C 
ENDROOT
BRANCH   1   2
ATOM      2  O   UNL A   1      32.195  29.453  26.909  1.00  0.00    -0.458 OA
BRANCH   2   3
ATOM      3  C   UNL A   1      31.538  28.260  26.889  1.00  0.00     0.365 C 
ATOM      4  O   UNL A   1      31.440  27.521  27.868  1.00  0.00    -0.245 OA
BRANCH   3   5
ATOM      5  C   UNL A   1      31.034  27.835  25.494  1.00  0.00     0.295 C 
ATOM      6  N   UNL A   1      31.838  28.298  24.330  1.00  0.00    -0.323 N 
ATOM      7  C   UNL A   1      32.977  27.377  24.258  1.00  0.00     0.270 C 
ATOM      8  H   UNL A   1      32.132  29.266  24.455  1.00  0.00     0.348 HD
ATOM      9  C   UNL A   1      32.466  26.013  24.779  1.00  0.00     0.036 C 
ATOM     10  C   UNL A   1      31.088  26.320  25.405  1.00  0.00     0.091 C 
ATOM     11  C   UNL A   1      33.427  25.420  25.831  1.00  0.00     0.075 C 
ATOM     12  C   UNL A   1      32.296  24.984  23.645  1.00  0.00     0.075 C 
ATOM     13  C   UNL A   1      34.762  25.034  25.212  1.00  0.00     0.271 C 
ATOM     14  C   UNL A   1      33.635  24.553  23.057  1.00  0.00     0.271 C 
ATOM     15  N   UNL A   1      34.558  24.104  24.099  1.00  0.00    -0.270 N 
ATOM     16  H   UNL A   1      35.351  24.565  23.742  1.00  0.00     0.356 HD
BRANCH   6  17
ATOM     17  C   UNL A   1      31.069  28.303  23.070  1.00  0.00     0.262 C 
BRANCH  17  18
ATOM     18  C   UNL A   1      29.973  29.373  23.045  1.00  0.00     0.058 C 
ATOM     19  C   UNL A   1      29.757  30.016  21.682  1.00  0.00     0.010 C 
ENDBRANCH  17  18
ENDBRANCH   6  17
BRANCH  15  20
ATOM     20  C   UNL A   1      35.244  22.914  23.912  1.00  0.00     0.333 C 
ATOM     21  O   UNL A   1      35.947  22.714  22.917  1.00  0.00    -0.229 OA
BRANCH  20  22
ATOM     22  C   UNL A   1      35.130  21.834  24.951  1.00  0.00     0.293 C 
BRANCH  22  23
ATOM     23  N   UNL A   1      33.859  21.146  24.996  1.00  0.00    -0.216 N 
ATOM     24  N   UNL A   1      32.773  21.877  25.324  1.00  0.00    -0.044 NA
ATOM     25  C   UNL A   1      33.478  19.845  24.774  1.00  0.00     0.149 A 
ATOM     26  N   UNL A   1      31.758  21.031  25.312  1.00  0.00    -0.024 NA
ATOM     27  N   UNL A   1      32.176  19.773  24.977  1.00  0.00    -0.114 NA
ATOM     28  C   UNL A   1      34.339  18.699  24.414  1.00  0.00     0.091 C 
ENDBRANCH  22  23
ENDBRANCH  20  22
ENDBRANCH  15  20
ENDBRANCH   3   5
ENDBRANCH   2   3
ENDBRANCH   1   2
BRANCH   1  29
ATOM     29  C   UNL A   1      34.134  30.858  27.390  1.00  0.00     0.275 C 
BRANCH  29  30
ATOM     30  O   UNL A   1      35.555  30.837  27.327  1.00  0.00    -0.458 OA
BRANCH  30  31
ATOM     31  C   UNL A   1      36.145  31.755  28.128  1.00  0.00     0.338 C 
ATOM     32  O   UNL A   1      36.137  32.961  27.983  1.00  0.00    -0.246 OA
BRANCH  31  33
ATOM     33  C   UNL A   1      36.973  31.078  29.124  1.00  0.00     0.060 A 
ATOM     34  C   UNL A   1      38.061  31.808  29.605  1.00  0.00     0.016 A 
ATOM     35  C   UNL A   1      36.896  29.684  29.220  1.00  0.00     0.016 A 
ATOM     36  C   UNL A   1      39.201  31.124  29.937  1.00  0.00     0.010 A 
ATOM     37  C   UNL A   1      38.044  29.002  29.521  1.00  0.00     0.010 A 
ATOM     38  C   UNL A   1      39.199  29.738  29.778  1.00  0.00    -0.014 A 
BRANCH  38  39
ATOM     39  C   UNL A   1      40.457  29.051  29.922  1.00  0.00     0.031 A 
ATOM     40  C   UNL A   1      40.813  28.785  31.327  1.00  0.00     0.074 A 
ATOM     41  C   UNL A   1      41.142  28.595  28.860  1.00  0.00     0.049 A 
ATOM     42  N   UNL A   1      41.805  29.260  31.998  1.00  0.00    -0.248 NA
ATOM     43  C   UNL A   1      39.838  28.036  32.135  1.00  0.00     0.031 C 
ATOM     44  C   UNL A   1      40.710  28.548  27.461  1.00  0.00     0.029 A 
ATOM     45  N   UNL A   1      42.324  27.931  28.845  1.00  0.00    -0.354 N 
ATOM     46  C   UNL A   1      41.707  28.678  33.255  1.00  0.00     0.074 A 
ATOM     47  C   UNL A   1      40.380  28.137  33.347  1.00  0.00     0.031 C 
ATOM     48  C   UNL A   1      41.492  27.668  26.795  1.00  0.00     0.029 A 
ATOM     49  C   UNL A   1      42.534  27.189  27.692  1.00  0.00     0.049 A 
ATOM     50  H   UNL A   1      42.974  27.974  29.583  1.00  0.00     0.167 HD
ATOM     51  C   UNL A   1      42.809  28.456  34.016  1.00  0.00     0.034 A 
ATOM     52  C   UNL A   1      43.413  26.162  27.553  1.00  0.00     0.034 A 
ATOM     53  C   UNL A   1      43.922  29.267  33.578  1.00  0.00     0.049 A 
ATOM     54  C   UNL A   1      44.436  26.321  28.623  1.00  0.00     0.074 A 
ATOM     55  C   UNL A   1      44.105  30.627  33.403  1.00  0.00     0.029 A 
ATOM     56  N   UNL A   1      44.934  28.668  32.859  1.00  0.00    -0.354 N 
ATOM     57  N   UNL A   1      45.258  27.335  28.691  1.00  0.00    -0.248 NA
ATOM     58  C   UNL A   1      44.222  25.626  29.887  1.00  0.00     0.031 C 
ATOM     59  C   UNL A   1      44.865  30.745  32.204  1.00  0.00     0.029 A 
ATOM     60  C   UNL A   1      45.167  29.456  31.757  1.00  0.00     0.049 A 
ATOM     61  H   UNL A   1      45.401  27.832  33.090  1.00  0.00     0.167 HD
ATOM     62  C   UNL A   1      45.319  27.668  30.037  1.00  0.00     0.074 A 
ATOM     63  C   UNL A   1      44.744  26.519  30.734  1.00  0.00     0.031 C 
ATOM     64  C   UNL A   1      45.557  28.949  30.453  1.00  0.00     0.034 A 
BRANCH  51  65
ATOM     65  C   UNL A   1      42.971  27.255  34.915  1.00  0.00     0.023 A 
ATOM     66  C   UNL A   1      43.760  26.197  34.433  1.00  0.00     0.031 A 
ATOM     67  C   UNL A   1      42.195  26.970  36.066  1.00  0.00     0.131 A 
ATOM     68  C   UNL A   1      43.686  24.922  35.017  1.00  0.00     0.055 A 
ATOM     69  C   UNL A   1      42.189  25.722  36.690  1.00  0.00     0.041 A 
ATOM     70  F   UNL A   1      41.324  27.838  36.592  1.00  0.00    -0.206 F 
ATOM     71  C   UNL A   1      42.911  24.678  36.147  1.00  0.00     0.022 A 
BRANCH  68  72
ATOM     72  S   UNL A   1      44.472  23.543  34.149  1.00  0.00     0.124 S 
ATOM     73  O   UNL A   1      44.047  22.406  34.958  1.00  0.00    -0.237 OA
ATOM     74  O   UNL A   1      43.877  23.649  32.821  1.00  0.00    -0.237 OA
ATOM     75  O   UNL A   1      45.895  23.866  34.224  1.00  0.00    -0.744 OA
ENDBRANCH  68  72
ENDBRANCH  51  65
BRANCH  52  76
ATOM     76  C   UNL A   1      43.154  24.897  26.807  1.00  0.00     0.023 A 
ATOM     77  C   UNL A   1      44.119  24.283  25.986  1.00  0.00     0.031 A 
ATOM     78  C   UNL A   1      41.977  24.150  27.061  1.00  0.00     0.131 A 
ATOM     79  C   UNL A   1      43.878  22.996  25.443  1.00  0.00     0.055 A 
ATOM     80  C   UNL A   1      41.735  22.892  26.505  1.00  0.00     0.041 A 
ATOM     81  F   UNL A   1      41.047  24.581  27.927  1.00  0.00    -0.206 F 
ATOM     82  C   UNL A   1      42.690  22.307  25.695  1.00  0.00     0.022 A 
BRANCH  79  83
ATOM     83  S   UNL A   1      45.163  22.155  24.463  1.00  0.00     0.124 S 
ATOM     84  O   UNL A   1      45.648  23.228  23.601  1.00  0.00    -0.237 OA
ATOM     85  O   UNL A   1      46.081  21.683  25.493  1.00  0.00    -0.237 OA
ATOM     86  O   UNL A   1      44.426  21.096  23.771  1.00  0.00    -0.744 OA
ENDBRANCH  79  83
ENDBRANCH  52  76
BRANCH  64  87
ATOM     87  C   UNL A   1      46.026  29.977  29.438  1.00  0.00     0.023 A 
ATOM     88  C   UNL A   1      45.184  30.635  28.512  1.00  0.00     0.031 A 
ATOM     89  C   UNL A   1      47.360  30.417  29.527  1.00  0.00     0.131 A 
ATOM     90  C   UNL A   1      45.690  31.683  27.717  1.00  0.00     0.055 A 
ATOM     91  C   UNL A   1      47.851  31.468  28.754  1.00  0.00     0.041 A 
ATOM     92  F   UNL A   1      48.203  29.856  30.410  1.00  0.00    -0.206 F 
ATOM     93  C   UNL A   1      47.018  32.103  27.841  1.00  0.00     0.022 A 
BRANCH  90  94
ATOM     94  S   UNL A   1      44.627  32.523  26.497  1.00  0.00     0.124 S 
ATOM     95  O   UNL A   1      43.989  33.579  27.272  1.00  0.00    -0.237 OA
ATOM     96  O   UNL A   1      45.589  32.956  25.487  1.00  0.00    -0.237 OA
ATOM     97  O   UNL A   1      43.719  31.463  26.052  1.00  0.00    -0.744 OA
ENDBRANCH  90  94
ENDBRANCH  64  87
ENDBRANCH  38  39
ENDBRANCH  31  33
ENDBRANCH  30  31
ENDBRANCH  29  30
ENDBRANCH   1  29
TORSDOF 19
ENDMDL
MODEL 3
REMARK VINA RESULT:     -11.9      1.385      1.918
REMARK SMILES CCC[N@@H+]1CC2(CC[NH+](C(=O)Cn3nnnc3C)CC2)C[C@H]1C(=O)OCCOC(=O)c1ccc(-c2c3nc(c(-c4cc(S(=O)(=O)[O-])ccc4F)c4ccc([nH]4)c(-c4cc(S(=O)(=O)[O-])ccc4F)c4nc(c(-c5cc(S(=O)(=O)[O-])ccc5F)c5ccc2[nH]5)C=C4)C=C3)cc1
REMARK SMILES IDX 26 1 25 2 23 3 24 4 22 5 4 6 5 7 6 9 21 10 7 11 20 12 8 13
REMARK SMILES IDX 19 14 9 15 3 17 2 18 1 19 10 20 11 21 12 22 13 23 14 24
REMARK SMILES IDX 17 25 15 26 16 27 18 28 27 29 28 30 29 31 30 32 31 33 32 34
REMARK SMILES IDX 93 35 33 36 92 37 34 38 35 39 36 40 86 41 37 42 91 43 85 44
REMARK SMILES IDX 87 45 38 46 90 47 84 48 83 49 39 51 71 52 51 53 70 54 52 55
REMARK SMILES IDX 55 56 69 57 88 58 53 59 54 60 68 62 89 63 56 64 40 65 41 66
REMARK SMILES IDX 49 67 42 68 48 69 50 70 47 71 43 72 44 73 45 74 46 75 72 76
REMARK SMILES IDX 73 77 81 78 74 79 80 80 82 81 79 82 75 83 76 84 77 85 78 86
REMARK SMILES IDX 57 87 58 88 66 89 59 90 65 91 67 92 64 93 60 94 61 95 62 96
REMARK SMILES IDX 63 97
REMARK H PARENT 4 8 9 16 87 50 55 61
REMARK Flexibility Score: inf
ROOT
ATOM      1  C   UNL A   1      32.300  30.467  26.541  1.00  0.00     0.274 C 
ENDROOT
BRANCH   1   2
ATOM      2  O   UNL A   1      32.614  29.065  26.444  1.00  0.00    -0.458 OA
BRANCH   2   3
ATOM      3  C   UNL A   1      31.647  28.172  26.794  1.00  0.00     0.365 C 
ATOM      4  O   UNL A   1      31.391  27.870  27.959  1.00  0.00    -0.245 OA
BRANCH   3   5
ATOM      5  C   UNL A   1      30.978  27.459  25.601  1.00  0.00     0.295 C 
ATOM      6  N   UNL A   1      31.757  27.413  24.334  1.00  0.00    -0.323 N 
ATOM      7  C   UNL A   1      32.722  26.323  24.514  1.00  0.00     0.270 C 
ATOM      8  H   UNL A   1      32.215  28.307  24.159  1.00  0.00     0.348 HD
ATOM      9  C   UNL A   1      32.035  25.283  25.431  1.00  0.00     0.036 C 
ATOM     10  C   UNL A   1      30.777  25.998  25.967  1.00  0.00     0.091 C 
ATOM     11  C   UNL A   1      32.963  24.859  26.590  1.00  0.00     0.075 C 
ATOM     12  C   UNL A   1      31.616  24.016  24.659  1.00  0.00     0.075 C 
ATOM     13  C   UNL A   1      34.167  24.079  26.083  1.00  0.00     0.271 C 
ATOM     14  C   UNL A   1      32.819  23.202  24.197  1.00  0.00     0.271 C 
ATOM     15  N   UNL A   1      33.732  22.917  25.303  1.00  0.00    -0.270 N 
ATOM     16  H   UNL A   1      34.560  23.107  24.808  1.00  0.00     0.356 HD
BRANCH   6  17
ATOM     17  C   UNL A   1      30.908  27.189  23.148  1.00  0.00     0.262 C 
BRANCH  17  18
ATOM     18  C   UNL A   1      29.666  28.087  23.127  1.00  0.00     0.058 C 
ATOM     19  C   UNL A   1      29.972  29.578  23.122  1.00  0.00     0.010 C 
ENDBRANCH  17  18
ENDBRANCH   6  17
BRANCH  15  20
ATOM     20  C   UNL A   1      34.198  21.622  25.464  1.00  0.00     0.333 C 
ATOM     21  O   UNL A   1      34.709  21.238  26.520  1.00  0.00    -0.229 OA
BRANCH  20  22
ATOM     22  C   UNL A   1      34.079  20.656  24.320  1.00  0.00     0.293 C 
BRANCH  22  23
ATOM     23  N   UNL A   1      33.525  19.362  24.654  1.00  0.00    -0.216 N 
ATOM     24  N   UNL A   1      32.222  19.321  25.002  1.00  0.00    -0.044 NA
ATOM     25  C   UNL A   1      34.048  18.093  24.708  1.00  0.00     0.149 A 
ATOM     26  N   UNL A   1      31.966  18.053  25.272  1.00  0.00    -0.024 NA
ATOM     27  N   UNL A   1      33.083  17.283  25.098  1.00  0.00    -0.114 NA
ATOM     28  C   UNL A   1      35.439  17.675  24.429  1.00  0.00     0.091 C 
ENDBRANCH  22  23
ENDBRANCH  20  22
ENDBRANCH  15  20
ENDBRANCH   3   5
ENDBRANCH   2   3
ENDBRANCH   1   2
BRANCH   1  29
ATOM     29  C   UNL A   1      33.214  31.165  27.536  1.00  0.00     0.275 C 
BRANCH  29  30
ATOM     30  O   UNL A   1      34.570  30.853  27.242  1.00  0.00    -0.458 OA
BRANCH  30  31
ATOM     31  C   UNL A   1      35.456  31.710  27.802  1.00  0.00     0.338 C 
ATOM     32  O   UNL A   1      35.661  32.863  27.477  1.00  0.00    -0.246 OA
BRANCH  31  33
ATOM     33  C   UNL A   1      36.291  30.993  28.764  1.00  0.00     0.060 A 
ATOM     34  C   UNL A   1      37.272  31.756  29.401  1.00  0.00     0.016 A 
ATOM     35  C   UNL A   1      36.350  29.598  28.688  1.00  0.00     0.016 A 
ATOM     36  C   UNL A   1      38.455  31.145  29.726  1.00  0.00     0.010 A 
ATOM     37  C   UNL A   1      37.542  28.993  28.982  1.00  0.00     0.010 A 
ATOM     38  C   UNL A   1      38.601  29.796  29.403  1.00  0.00    -0.014 A 
BRANCH  38  39
ATOM     39  C   UNL A   1      39.912  29.216  29.550  1.00  0.00     0.031 A 
ATOM     40  C   UNL A   1      40.312  29.038  30.956  1.00  0.00     0.074 A 
ATOM     41  C   UNL A   1      40.612  28.771  28.493  1.00  0.00     0.049 A 
ATOM     42  N   UNL A   1      41.274  29.617  31.587  1.00  0.00    -0.248 NA
ATOM     43  C   UNL A   1      39.413  28.250  31.814  1.00  0.00     0.031 C 
ATOM     44  C   UNL A   1      40.162  28.632  27.106  1.00  0.00     0.029 A 
ATOM     45  N   UNL A   1      41.843  28.202  28.480  1.00  0.00    -0.354 N 
ATOM     46  C   UNL A   1      41.244  29.084  32.868  1.00  0.00     0.074 A 
ATOM     47  C   UNL A   1      39.966  28.444  33.009  1.00  0.00     0.031 C 
ATOM     48  C   UNL A   1      41.000  27.789  26.460  1.00  0.00     0.029 A 
ATOM     49  C   UNL A   1      42.091  27.430  27.355  1.00  0.00     0.049 A 
ATOM     50  H   UNL A   1      42.500  28.327  29.203  1.00  0.00     0.167 HD
ATOM     51  C   UNL A   1      42.373  28.981  33.615  1.00  0.00     0.034 A 
ATOM     52  C   UNL A   1      43.046  26.471  27.240  1.00  0.00     0.034 A 
ATOM     53  C   UNL A   1      43.411  29.857  33.122  1.00  0.00     0.049 A 
ATOM     54  C   UNL A   1      44.072  26.754  28.282  1.00  0.00     0.074 A 
ATOM     55  C   UNL A   1      43.482  31.219  32.888  1.00  0.00     0.029 A 
ATOM     56  N   UNL A   1      44.454  29.310  32.407  1.00  0.00    -0.354 N 
ATOM     57  N   UNL A   1      44.812  27.832  28.291  1.00  0.00    -0.248 NA
ATOM     58  C   UNL A   1      43.935  26.099  29.577  1.00  0.00     0.031 C 
ATOM     59  C   UNL A   1      44.210  31.345  31.670  1.00  0.00     0.029 A 
ATOM     60  C   UNL A   1      44.605  30.067  31.270  1.00  0.00     0.049 A 
ATOM     61  H   UNL A   1      44.990  28.524  32.663  1.00  0.00     0.167 HD
ATOM     62  C   UNL A   1      44.870  28.225  29.622  1.00  0.00     0.074 A 
ATOM     63  C   UNL A   1      44.399  27.065  30.376  1.00  0.00     0.031 C 
ATOM     64  C   UNL A   1      45.012  29.537  29.979  1.00  0.00     0.034 A 
BRANCH  51  65
ATOM     65  C   UNL A   1      42.646  27.835  34.559  1.00  0.00     0.023 A 
ATOM     66  C   UNL A   1      43.403  26.762  34.061  1.00  0.00     0.031 A 
ATOM     67  C   UNL A   1      41.991  27.606  35.795  1.00  0.00     0.131 A 
ATOM     68  C   UNL A   1      43.410  25.521  34.719  1.00  0.00     0.055 A 
ATOM     69  C   UNL A   1      42.070  26.396  36.485  1.00  0.00     0.041 A 
ATOM     70  F   UNL A   1      41.160  28.491  36.356  1.00  0.00    -0.206 F 
ATOM     71  C   UNL A   1      42.755  25.332  35.931  1.00  0.00     0.022 A 
BRANCH  68  72
ATOM     72  S   UNL A   1      44.134  24.106  33.855  1.00  0.00     0.124 S 
ATOM     73  O   UNL A   1      44.382  24.665  32.530  1.00  0.00    -0.237 OA
ATOM     74  O   UNL A   1      45.312  23.831  34.670  1.00  0.00    -0.237 OA
ATOM     75  O   UNL A   1      43.079  23.097  33.920  1.00  0.00    -0.744 OA
ENDBRANCH  68  72
ENDBRANCH  51  65
BRANCH  52  76
ATOM     76  C   UNL A   1      42.875  25.159  26.552  1.00  0.00     0.023 A 
ATOM     77  C   UNL A   1      43.803  24.660  25.616  1.00  0.00     0.031 A 
ATOM     78  C   UNL A   1      41.861  24.263  26.970  1.00  0.00     0.131 A 
ATOM     79  C   UNL A   1      43.680  23.336  25.127  1.00  0.00     0.055 A 
ATOM     80  C   UNL A   1      41.731  22.967  26.467  1.00  0.00     0.041 A 
ATOM     81  F   UNL A   1      41.000  24.587  27.948  1.00  0.00    -0.206 F 
ATOM     82  C   UNL A   1      42.646  22.495  25.544  1.00  0.00     0.022 A 
BRANCH  79  83
ATOM     83  S   UNL A   1      44.932  22.653  23.995  1.00  0.00     0.124 S 
ATOM     84  O   UNL A   1      44.139  22.324  22.815  1.00  0.00    -0.237 OA
ATOM     85  O   UNL A   1      45.869  23.762  23.859  1.00  0.00    -0.237 OA
ATOM     86  O   UNL A   1      45.457  21.497  24.724  1.00  0.00    -0.744 OA
ENDBRANCH  79  83
ENDBRANCH  52  76
BRANCH  64  87
ATOM     87  C   UNL A   1      45.380  30.555  28.915  1.00  0.00     0.023 A 
ATOM     88  C   UNL A   1      46.704  30.909  28.564  1.00  0.00     0.031 A 
ATOM     89  C   UNL A   1      44.340  31.069  28.118  1.00  0.00     0.131 A 
ATOM     90  C   UNL A   1      46.941  31.751  27.459  1.00  0.00     0.055 A 
ATOM     91  C   UNL A   1      44.580  31.884  27.013  1.00  0.00     0.041 A 
ATOM     92  F   UNL A   1      43.062  30.744  28.377  1.00  0.00    -0.206 F 
ATOM     93  C   UNL A   1      45.884  32.233  26.682  1.00  0.00     0.022 A 
BRANCH  90  94
ATOM     94  S   UNL A   1      48.639  32.242  27.010  1.00  0.00     0.124 S 
ATOM     95  O   UNL A   1      48.441  33.216  25.944  1.00  0.00    -0.237 OA
ATOM     96  O   UNL A   1      49.159  32.764  28.272  1.00  0.00    -0.237 OA
ATOM     97  O   UNL A   1      49.252  30.984  26.578  1.00  0.00    -0.744 OA
ENDBRANCH  90  94
ENDBRANCH  64  87
ENDBRANCH  38  39
ENDBRANCH  31  33
ENDBRANCH  30  31
ENDBRANCH  29  30
ENDBRANCH   1  29
TORSDOF 19
ENDMDL
