MODEL 1
REMARK VINA RESULT:     -11.6      0.000      0.000
REMARK SMILES C[C@@H](C(=O)OCCOC(=O)c1ccc(-c2c3nc(c(-c4cc(S(=O)(=O)[O-])ccc4F)c4ccc([nH]4)c(-c4cc(S(=O)(=O)[O-])ccc4F)c4nc(c(-c5cc(S(=O)(=O)[O-])ccc5F)c5ccc2[nH]5)C=C4)C=C3)cc1)c1cc(/C=C/S(C)(=O)=O)cc(C(=O)c2ccccc2)c1
REMARK SMILES IDX 6 1 5 2 3 3 4 4 2 5 1 6 74 7 75 8 93 9 76 10 84 11 83 12
REMARK SMILES IDX 77 13 78 14 79 15 80 16 81 17 82 18 85 19 86 20 87 21 88 22
REMARK SMILES IDX 92 23 89 24 91 25 90 26 7 27 8 28 9 29 10 30 11 31 12 32
REMARK SMILES IDX 73 33 13 34 72 35 14 36 15 37 16 38 66 39 17 40 71 41 65 42
REMARK SMILES IDX 67 43 18 44 70 45 64 46 63 47 19 49 51 50 31 51 50 52 32 53
REMARK SMILES IDX 35 54 49 55 68 56 33 57 34 58 48 60 69 61 36 62 20 63 21 64
REMARK SMILES IDX 29 65 22 66 28 67 30 68 27 69 23 70 24 71 25 72 26 73 52 74
REMARK SMILES IDX 53 75 61 76 54 77 60 78 62 79 59 80 55 81 56 82 57 83 58 84
REMARK SMILES IDX 37 85 38 86 46 87 39 88 45 89 47 90 44 91 40 92 41 93 42 94
REMARK SMILES IDX 43 95
REMARK H PARENT 67 48 35 59
REMARK Flexibility Score: inf
ROOT
ATOM      1  C   UNL A   1      35.291  21.391  24.621  1.00  0.00     0.274 C 
ENDROOT
BRANCH   1   2
ATOM      2  O   UNL A   1      34.459  22.198  25.480  1.00  0.00    -0.462 OA
BRANCH   2   3
ATOM      3  C   UNL A   1      34.154  23.445  25.029  1.00  0.00     0.313 C 
ATOM      4  O   UNL A   1      34.815  24.056  24.195  1.00  0.00    -0.252 OA
BRANCH   3   5
ATOM      5  C   UNL A   1      32.917  24.040  25.704  1.00  0.00     0.126 C 
ATOM      6  C   UNL A   1      31.632  23.223  25.550  1.00  0.00     0.025 C 
BRANCH   5   7
ATOM      7  C   UNL A   1      32.689  25.484  25.288  1.00  0.00    -0.033 A 
ATOM      8  C   UNL A   1      33.359  26.524  25.948  1.00  0.00     0.012 A 
ATOM      9  C   UNL A   1      31.830  25.797  24.228  1.00  0.00     0.016 A 
ATOM     10  C   UNL A   1      33.137  27.871  25.619  1.00  0.00    -0.024 A 
ATOM     11  C   UNL A   1      31.636  27.119  23.829  1.00  0.00     0.023 A 
ATOM     12  C   UNL A   1      32.282  28.154  24.538  1.00  0.00     0.020 A 
BRANCH  10  13
ATOM     13  C   UNL A   1      33.772  28.975  26.374  1.00  0.00     0.020 C 
ATOM     14  C   UNL A   1      34.935  28.833  27.033  1.00  0.00     0.106 C 
BRANCH  14  15
ATOM     15  S   UNL A   1      35.589  30.093  28.028  1.00  0.00     0.168 S 
ATOM     16  C   UNL A   1      37.263  30.139  27.431  1.00  0.00     0.163 C 
ATOM     17  O   UNL A   1      34.980  31.349  27.628  1.00  0.00    -0.225 OA
ATOM     18  O   UNL A   1      35.645  29.691  29.418  1.00  0.00    -0.225 OA
ENDBRANCH  14  15
ENDBRANCH  10  13
BRANCH  11  19
ATOM     19  C   UNL A   1      30.832  27.446  22.616  1.00  0.00     0.193 C 
ATOM     20  O   UNL A   1      31.058  26.847  21.570  1.00  0.00    -0.289 OA
BRANCH  19  21
ATOM     21  C   UNL A   1      29.697  28.406  22.642  1.00  0.00     0.022 A 
ATOM     22  C   UNL A   1      29.911  29.718  22.215  1.00  0.00     0.012 A 
ATOM     23  C   UNL A   1      28.441  28.055  23.126  1.00  0.00     0.012 A 
ATOM     24  C   UNL A   1      28.911  30.686  22.268  1.00  0.00     0.001 A 
ATOM     25  C   UNL A   1      27.420  29.016  23.156  1.00  0.00     0.001 A 
ATOM     26  C   UNL A   1      27.657  30.329  22.736  1.00  0.00     0.000 A 
ENDBRANCH  19  21
ENDBRANCH  11  19
ENDBRANCH   5   7
ENDBRANCH   3   5
ENDBRANCH   2   3
ENDBRANCH   1   2
BRANCH   1  27
ATOM     27  C   UNL A   1      36.589  20.943  25.301  1.00  0.00     0.275 C 
BRANCH  27  28
ATOM     28  O   UNL A   1      37.666  21.885  25.111  1.00  0.00    -0.458 OA
BRANCH  28  29
ATOM     29  C   UNL A   1      38.770  21.589  25.834  1.00  0.00     0.338 C 
ATOM     30  O   UNL A   1      39.400  20.544  25.762  1.00  0.00    -0.246 OA
BRANCH  29  31
ATOM     31  C   UNL A   1      39.229  22.704  26.686  1.00  0.00     0.060 A 
ATOM     32  C   UNL A   1      38.793  23.976  26.331  1.00  0.00     0.016 A 
ATOM     33  C   UNL A   1      40.314  22.562  27.559  1.00  0.00     0.016 A 
ATOM     34  C   UNL A   1      39.528  25.098  26.714  1.00  0.00     0.010 A 
ATOM     35  C   UNL A   1      41.013  23.706  28.003  1.00  0.00     0.010 A 
ATOM     36  C   UNL A   1      40.664  24.984  27.532  1.00  0.00    -0.014 A 
BRANCH  36  37
ATOM     37  C   UNL A   1      41.386  26.227  27.945  1.00  0.00     0.031 A 
ATOM     38  C   UNL A   1      40.750  27.343  28.747  1.00  0.00     0.074 A 
ATOM     39  C   UNL A   1      42.696  26.304  27.650  1.00  0.00     0.049 A 
ATOM     40  N   UNL A   1      41.234  28.508  29.114  1.00  0.00    -0.248 NA
ATOM     41  C   UNL A   1      39.392  27.119  29.224  1.00  0.00     0.031 C 
ATOM     42  C   UNL A   1      43.468  25.260  26.968  1.00  0.00     0.029 A 
ATOM     43  N   UNL A   1      43.608  27.297  27.883  1.00  0.00    -0.354 N 
ATOM     44  C   UNL A   1      40.239  29.120  29.883  1.00  0.00     0.074 A 
ATOM     45  C   UNL A   1      39.114  28.221  29.899  1.00  0.00     0.031 C 
ATOM     46  C   UNL A   1      44.733  25.672  26.833  1.00  0.00     0.029 A 
ATOM     47  C   UNL A   1      44.834  27.041  27.322  1.00  0.00     0.049 A 
ATOM     48  H   UNL A   1      43.406  28.110  28.400  1.00  0.00     0.167 HD
ATOM     49  C   UNL A   1      40.254  30.316  30.525  1.00  0.00     0.034 A 
ATOM     50  C   UNL A   1      45.897  27.844  27.142  1.00  0.00     0.034 A 
ATOM     51  C   UNL A   1      41.373  31.224  30.465  1.00  0.00     0.049 A 
ATOM     52  C   UNL A   1      45.841  29.245  27.678  1.00  0.00     0.074 A 
ATOM     53  C   UNL A   1      41.500  32.487  31.016  1.00  0.00     0.029 A 
ATOM     54  N   UNL A   1      42.558  30.963  29.790  1.00  0.00    -0.354 N 
ATOM     55  N   UNL A   1      44.875  29.836  28.344  1.00  0.00    -0.248 NA
ATOM     56  C   UNL A   1      47.017  30.085  27.437  1.00  0.00     0.031 C 
ATOM     57  C   UNL A   1      42.728  33.020  30.604  1.00  0.00     0.029 A 
ATOM     58  C   UNL A   1      43.401  32.060  29.865  1.00  0.00     0.049 A 
ATOM     59  H   UNL A   1      42.768  30.122  29.324  1.00  0.00     0.167 HD
ATOM     60  C   UNL A   1      45.335  31.119  28.615  1.00  0.00     0.074 A 
ATOM     61  C   UNL A   1      46.670  31.205  28.054  1.00  0.00     0.031 C 
ATOM     62  C   UNL A   1      44.715  32.134  29.271  1.00  0.00     0.034 A 
BRANCH  49  63
ATOM     63  C   UNL A   1      38.999  30.747  31.259  1.00  0.00     0.023 A 
ATOM     64  C   UNL A   1      38.054  31.632  30.701  1.00  0.00     0.031 A 
ATOM     65  C   UNL A   1      38.752  30.264  32.559  1.00  0.00     0.131 A 
ATOM     66  C   UNL A   1      36.934  32.033  31.455  1.00  0.00     0.055 A 
ATOM     67  C   UNL A   1      37.610  30.621  33.279  1.00  0.00     0.041 A 
ATOM     68  F   UNL A   1      39.625  29.438  33.157  1.00  0.00    -0.206 F 
ATOM     69  C   UNL A   1      36.698  31.516  32.732  1.00  0.00     0.022 A 
BRANCH  66  70
ATOM     70  S   UNL A   1      35.816  33.307  30.794  1.00  0.00     0.124 S 
ATOM     71  O   UNL A   1      36.412  33.588  29.492  1.00  0.00    -0.237 OA
ATOM     72  O   UNL A   1      34.528  32.623  30.778  1.00  0.00    -0.237 OA
ATOM     73  O   UNL A   1      35.925  34.396  31.763  1.00  0.00    -0.744 OA
ENDBRANCH  66  70
ENDBRANCH  49  63
BRANCH  50  74
ATOM     74  C   UNL A   1      47.035  27.354  26.321  1.00  0.00     0.023 A 
ATOM     75  C   UNL A   1      48.139  26.716  26.900  1.00  0.00     0.031 A 
ATOM     76  C   UNL A   1      47.007  27.492  24.918  1.00  0.00     0.131 A 
ATOM     77  C   UNL A   1      49.177  26.247  26.079  1.00  0.00     0.055 A 
ATOM     78  C   UNL A   1      48.013  26.975  24.104  1.00  0.00     0.041 A 
ATOM     79  F   UNL A   1      45.970  28.096  24.315  1.00  0.00    -0.206 F 
ATOM     80  C   UNL A   1      49.111  26.353  24.687  1.00  0.00     0.022 A 
BRANCH  77  81
ATOM     81  S   UNL A   1      50.653  25.544  26.861  1.00  0.00     0.124 S 
ATOM     82  O   UNL A   1      51.098  26.648  27.704  1.00  0.00    -0.237 OA
ATOM     83  O   UNL A   1      50.106  24.384  27.556  1.00  0.00    -0.237 OA
ATOM     84  O   UNL A   1      51.522  25.237  25.727  1.00  0.00    -0.744 OA
ENDBRANCH  77  81
ENDBRANCH  50  74
BRANCH  62  85
ATOM     85  C   UNL A   1      45.496  33.409  29.426  1.00  0.00     0.023 A 
ATOM     86  C   UNL A   1      45.389  34.449  28.487  1.00  0.00     0.031 A 
ATOM     87  C   UNL A   1      46.382  33.575  30.505  1.00  0.00     0.131 A 
ATOM     88  C   UNL A   1      46.205  35.581  28.607  1.00  0.00     0.055 A 
ATOM     89  C   UNL A   1      47.145  34.731  30.654  1.00  0.00     0.041 A 
ATOM     90  F   UNL A   1      46.521  32.610  31.429  1.00  0.00    -0.206 F 
ATOM     91  C   UNL A   1      47.071  35.737  29.693  1.00  0.00     0.022 A 
BRANCH  88  92
ATOM     92  S   UNL A   1      46.198  36.801  27.266  1.00  0.00     0.124 S 
ATOM     93  O   UNL A   1      46.826  37.954  27.902  1.00  0.00    -0.237 OA
ATOM     94  O   UNL A   1      46.986  36.135  26.233  1.00  0.00    -0.237 OA
ATOM     95  O   UNL A   1      44.779  36.960  26.955  1.00  0.00    -0.744 OA
ENDBRANCH  88  92
ENDBRANCH  62  85
ENDBRANCH  36  37
ENDBRANCH  29  31
ENDBRANCH  28  29
ENDBRANCH  27  28
ENDBRANCH   1  27
TORSDOF 19
ENDMDL
MODEL 2
REMARK VINA RESULT:     -11.3      2.138      8.559
REMARK SMILES C[C@@H](C(=O)OCCOC(=O)c1ccc(-c2c3nc(c(-c4cc(S(=O)(=O)[O-])ccc4F)c4ccc([nH]4)c(-c4cc(S(=O)(=O)[O-])ccc4F)c4nc(c(-c5cc(S(=O)(=O)[O-])ccc5F)c5ccc2[nH]5)C=C4)C=C3)cc1)c1cc(/C=C/S(C)(=O)=O)cc(C(=O)c2ccccc2)c1
REMARK SMILES IDX 6 1 5 2 3 3 4 4 2 5 1 6 74 7 75 8 93 9 76 10 84 11 83 12
REMARK SMILES IDX 77 13 78 14 79 15 80 16 81 17 82 18 85 19 86 20 87 21 88 22
REMARK SMILES IDX 92 23 89 24 91 25 90 26 7 27 8 28 9 29 10 30 11 31 12 32
REMARK SMILES IDX 73 33 13 34 72 35 14 36 15 37 16 38 66 39 17 40 71 41 65 42
REMARK SMILES IDX 67 43 18 44 70 45 64 46 63 47 19 49 51 50 31 51 50 52 32 53
REMARK SMILES IDX 35 54 49 55 68 56 33 57 34 58 48 60 69 61 36 62 20 63 21 64
REMARK SMILES IDX 29 65 22 66 28 67 30 68 27 69 23 70 24 71 25 72 26 73 52 74
REMARK SMILES IDX 53 75 61 76 54 77 60 78 62 79 59 80 55 81 56 82 57 83 58 84
REMARK SMILES IDX 37 85 38 86 46 87 39 88 45 89 47 90 44 91 40 92 41 93 42 94
REMARK SMILES IDX 43 95
REMARK H PARENT 67 48 35 59
REMARK Flexibility Score: inf
ROOT
ATOM      1  C   UNL A   1      37.351  20.558  24.571  1.00  0.00     0.274 C 
ENDROOT
BRANCH   1   2
ATOM      2  O   UNL A   1      37.670  21.964  24.593  1.00  0.00    -0.462 OA
BRANCH   2   3
ATOM      3  C   UNL A   1      36.812  22.790  23.935  1.00  0.00     0.313 C 
ATOM      4  O   UNL A   1      36.665  22.801  22.717  1.00  0.00    -0.252 OA
BRANCH   3   5
ATOM      5  C   UNL A   1      36.072  23.750  24.868  1.00  0.00     0.126 C 
ATOM      6  C   UNL A   1      36.806  24.096  26.166  1.00  0.00     0.025 C 
BRANCH   5   7
ATOM      7  C   UNL A   1      34.660  23.271  25.162  1.00  0.00    -0.033 A 
ATOM      8  C   UNL A   1      34.356  21.902  25.129  1.00  0.00     0.012 A 
ATOM      9  C   UNL A   1      33.648  24.181  25.492  1.00  0.00     0.016 A 
ATOM     10  C   UNL A   1      33.052  21.430  25.349  1.00  0.00    -0.024 A 
ATOM     11  C   UNL A   1      32.356  23.743  25.783  1.00  0.00     0.023 A 
ATOM     12  C   UNL A   1      32.061  22.366  25.696  1.00  0.00     0.020 A 
BRANCH  10  13
ATOM     13  C   UNL A   1      32.710  19.995  25.225  1.00  0.00     0.020 C 
ATOM     14  C   UNL A   1      33.636  19.036  25.060  1.00  0.00     0.106 C 
BRANCH  14  15
ATOM     15  S   UNL A   1      33.207  17.381  24.772  1.00  0.00     0.168 S 
ATOM     16  C   UNL A   1      33.376  17.307  23.004  1.00  0.00     0.163 C 
ATOM     17  O   UNL A   1      34.257  16.539  25.316  1.00  0.00    -0.225 OA
ATOM     18  O   UNL A   1      31.813  17.138  25.076  1.00  0.00    -0.225 OA
ENDBRANCH  14  15
ENDBRANCH  10  13
BRANCH  11  19
ATOM     19  C   UNL A   1      31.314  24.693  26.268  1.00  0.00     0.193 C 
ATOM     20  O   UNL A   1      30.509  24.316  27.113  1.00  0.00    -0.289 OA
BRANCH  19  21
ATOM     21  C   UNL A   1      31.265  26.116  25.839  1.00  0.00     0.022 A 
ATOM     22  C   UNL A   1      30.527  26.454  24.702  1.00  0.00     0.012 A 
ATOM     23  C   UNL A   1      31.971  27.114  26.501  1.00  0.00     0.012 A 
ATOM     24  C   UNL A   1      30.486  27.754  24.208  1.00  0.00     0.001 A 
ATOM     25  C   UNL A   1      31.910  28.432  26.027  1.00  0.00     0.001 A 
ATOM     26  C   UNL A   1      31.177  28.750  24.879  1.00  0.00     0.000 A 
ENDBRANCH  19  21
ENDBRANCH  11  19
ENDBRANCH   5   7
ENDBRANCH   3   5
ENDBRANCH   2   3
ENDBRANCH   1   2
BRANCH   1  27
ATOM     27  C   UNL A   1      38.544  19.671  24.943  1.00  0.00     0.275 C 
BRANCH  27  28
ATOM     28  O   UNL A   1      38.944  19.833  26.321  1.00  0.00    -0.458 OA
BRANCH  28  29
ATOM     29  C   UNL A   1      40.250  20.154  26.464  1.00  0.00     0.338 C 
ATOM     30  O   UNL A   1      41.190  19.472  26.084  1.00  0.00    -0.246 OA
BRANCH  29  31
ATOM     31  C   UNL A   1      40.463  21.490  27.055  1.00  0.00     0.060 A 
ATOM     32  C   UNL A   1      39.990  22.575  26.325  1.00  0.00     0.016 A 
ATOM     33  C   UNL A   1      41.391  21.699  28.083  1.00  0.00     0.016 A 
ATOM     34  C   UNL A   1      40.553  23.838  26.507  1.00  0.00     0.010 A 
ATOM     35  C   UNL A   1      41.906  22.994  28.311  1.00  0.00     0.010 A 
ATOM     36  C   UNL A   1      41.538  24.067  27.481  1.00  0.00    -0.014 A 
BRANCH  36  37
ATOM     37  C   UNL A   1      42.074  25.452  27.658  1.00  0.00     0.031 A 
ATOM     38  C   UNL A   1      43.462  25.879  27.229  1.00  0.00     0.074 A 
ATOM     39  C   UNL A   1      41.233  26.378  28.151  1.00  0.00     0.049 A 
ATOM     40  N   UNL A   1      44.084  27.025  27.384  1.00  0.00    -0.248 NA
ATOM     41  C   UNL A   1      44.259  24.895  26.507  1.00  0.00     0.031 C 
ATOM     42  C   UNL A   1      39.833  26.135  28.515  1.00  0.00     0.029 A 
ATOM     43  N   UNL A   1      41.427  27.703  28.430  1.00  0.00    -0.354 N 
ATOM     44  C   UNL A   1      45.324  26.886  26.750  1.00  0.00     0.074 A 
ATOM     45  C   UNL A   1      45.383  25.540  26.244  1.00  0.00     0.031 C 
ATOM     46  C   UNL A   1      39.300  27.272  28.976  1.00  0.00     0.029 A 
ATOM     47  C   UNL A   1      40.343  28.287  29.036  1.00  0.00     0.049 A 
ATOM     48  H   UNL A   1      42.258  28.188  28.219  1.00  0.00     0.167 HD
ATOM     49  C   UNL A   1      46.322  27.793  26.594  1.00  0.00     0.034 A 
ATOM     50  C   UNL A   1      40.221  29.478  29.649  1.00  0.00     0.034 A 
ATOM     51  C   UNL A   1      46.265  29.125  27.143  1.00  0.00     0.049 A 
ATOM     52  C   UNL A   1      41.397  30.409  29.654  1.00  0.00     0.074 A 
ATOM     53  C   UNL A   1      47.224  30.122  27.112  1.00  0.00     0.029 A 
ATOM     54  N   UNL A   1      45.182  29.637  27.845  1.00  0.00    -0.354 N 
ATOM     55  N   UNL A   1      42.583  30.245  29.112  1.00  0.00    -0.248 NA
ATOM     56  C   UNL A   1      41.219  31.684  30.354  1.00  0.00     0.031 C 
ATOM     57  C   UNL A   1      46.752  31.204  27.865  1.00  0.00     0.029 A 
ATOM     58  C   UNL A   1      45.467  30.914  28.298  1.00  0.00     0.049 A 
ATOM     59  H   UNL A   1      44.335  29.160  28.001  1.00  0.00     0.167 HD
ATOM     60  C   UNL A   1      43.290  31.408  29.394  1.00  0.00     0.074 A 
ATOM     61  C   UNL A   1      42.390  32.267  30.139  1.00  0.00     0.031 C 
ATOM     62  C   UNL A   1      44.566  31.739  29.066  1.00  0.00     0.034 A 
BRANCH  49  63
ATOM     63  C   UNL A   1      47.587  27.344  25.888  1.00  0.00     0.023 A 
ATOM     64  C   UNL A   1      48.624  26.650  26.546  1.00  0.00     0.031 A 
ATOM     65  C   UNL A   1      47.762  27.633  24.521  1.00  0.00     0.131 A 
ATOM     66  C   UNL A   1      49.796  26.306  25.845  1.00  0.00     0.055 A 
ATOM     67  C   UNL A   1      48.903  27.239  23.818  1.00  0.00     0.041 A 
ATOM     68  F   UNL A   1      46.823  28.313  23.842  1.00  0.00    -0.206 F 
ATOM     69  C   UNL A   1      49.931  26.580  24.482  1.00  0.00     0.022 A 
BRANCH  66  70
ATOM     70  S   UNL A   1      51.194  25.568  26.744  1.00  0.00     0.124 S 
ATOM     71  O   UNL A   1      52.041  25.094  25.655  1.00  0.00    -0.237 OA
ATOM     72  O   UNL A   1      51.708  26.695  27.515  1.00  0.00    -0.237 OA
ATOM     73  O   UNL A   1      50.573  24.510  27.539  1.00  0.00    -0.744 OA
ENDBRANCH  66  70
ENDBRANCH  49  63
BRANCH  50  74
ATOM     74  C   UNL A   1      38.970  29.775  30.396  1.00  0.00     0.023 A 
ATOM     75  C   UNL A   1      37.980  30.613  29.869  1.00  0.00     0.031 A 
ATOM     76  C   UNL A   1      38.739  29.180  31.653  1.00  0.00     0.131 A 
ATOM     77  C   UNL A   1      36.805  30.841  30.602  1.00  0.00     0.055 A 
ATOM     78  C   UNL A   1      37.546  29.365  32.350  1.00  0.00     0.041 A 
ATOM     79  F   UNL A   1      39.658  28.368  32.201  1.00  0.00    -0.206 F 
ATOM     80  C   UNL A   1      36.573  30.207  31.826  1.00  0.00     0.022 A 
BRANCH  77  81
ATOM     81  S   UNL A   1      35.598  32.031  29.960  1.00  0.00     0.124 S 
ATOM     82  O   UNL A   1      34.744  32.246  31.122  1.00  0.00    -0.237 OA
ATOM     83  O   UNL A   1      36.450  33.150  29.572  1.00  0.00    -0.237 OA
ATOM     84  O   UNL A   1      34.973  31.314  28.851  1.00  0.00    -0.744 OA
ENDBRANCH  77  81
ENDBRANCH  50  74
BRANCH  62  85
ATOM     85  C   UNL A   1      45.039  33.099  29.500  1.00  0.00     0.023 A 
ATOM     86  C   UNL A   1      44.874  34.226  28.677  1.00  0.00     0.031 A 
ATOM     87  C   UNL A   1      45.690  33.265  30.735  1.00  0.00     0.131 A 
ATOM     88  C   UNL A   1      45.415  35.457  29.068  1.00  0.00     0.055 A 
ATOM     89  C   UNL A   1      46.171  34.508  31.147  1.00  0.00     0.041 A 
ATOM     90  F   UNL A   1      45.873  32.220  31.558  1.00  0.00    -0.206 F 
ATOM     91  C   UNL A   1      46.048  35.610  30.305  1.00  0.00     0.022 A 
BRANCH  88  92
ATOM     92  S   UNL A   1      45.375  36.835  27.890  1.00  0.00     0.124 S 
ATOM     93  O   UNL A   1      45.939  37.925  28.679  1.00  0.00    -0.237 OA
ATOM     94  O   UNL A   1      46.210  36.339  26.800  1.00  0.00    -0.237 OA
ATOM     95  O   UNL A   1      43.956  36.971  27.570  1.00  0.00    -0.744 OA
ENDBRANCH  88  92
ENDBRANCH  62  85
ENDBRANCH  36  37
ENDBRANCH  29  31
ENDBRANCH  28  29
ENDBRANCH  27  28
ENDBRANCH   1  27
TORSDOF 19
ENDMDL
MODEL 3
REMARK VINA RESULT:     -11.3      2.031      3.429
REMARK SMILES C[C@@H](C(=O)OCCOC(=O)c1ccc(-c2c3nc(c(-c4cc(S(=O)(=O)[O-])ccc4F)c4ccc([nH]4)c(-c4cc(S(=O)(=O)[O-])ccc4F)c4nc(c(-c5cc(S(=O)(=O)[O-])ccc5F)c5ccc2[nH]5)C=C4)C=C3)cc1)c1cc(/C=C/S(C)(=O)=O)cc(C(=O)c2ccccc2)c1
REMARK SMILES IDX 6 1 5 2 3 3 4 4 2 5 1 6 74 7 75 8 93 9 76 10 84 11 83 12
REMARK SMILES IDX 77 13 78 14 79 15 80 16 81 17 82 18 85 19 86 20 87 21 88 22
REMARK SMILES IDX 92 23 89 24 91 25 90 26 7 27 8 28 9 29 10 30 11 31 12 32
REMARK SMILES IDX 73 33 13 34 72 35 14 36 15 37 16 38 66 39 17 40 71 41 65 42
REMARK SMILES IDX 67 43 18 44 70 45 64 46 63 47 19 49 51 50 31 51 50 52 32 53
REMARK SMILES IDX 35 54 49 55 68 56 33 57 34 58 48 60 69 61 36 62 20 63 21 64
REMARK SMILES IDX 29 65 22 66 28 67 30 68 27 69 23 70 24 71 25 72 26 73 52 74
REMARK SMILES IDX 53 75 61 76 54 77 60 78 62 79 59 80 55 81 56 82 57 83 58 84
REMARK SMILES IDX 37 85 38 86 46 87 39 88 45 89 47 90 44 91 40 92 41 93 42 94
REMARK SMILES IDX 43 95
REMARK H PARENT 67 48 35 59
REMARK Flexibility Score: inf
ROOT
ATOM      1  C   UNL A   1      35.455  22.380  25.921  1.00  0.00     0.274 C 
ENDROOT
BRANCH   1   2
ATOM      2  O   UNL A   1      35.394  23.551  25.081  1.00  0.00    -0.462 OA
BRANCH   2   3
ATOM      3  C   UNL A   1      34.171  23.878  24.584  1.00  0.00     0.313 C 
ATOM      4  O   UNL A   1      33.893  23.882  23.389  1.00  0.00    -0.252 OA
BRANCH   3   5
ATOM      5  C   UNL A   1      33.173  24.289  25.668  1.00  0.00     0.126 C 
ATOM      6  C   UNL A   1      31.938  23.393  25.793  1.00  0.00     0.025 C 
BRANCH   5   7
ATOM      7  C   UNL A   1      32.768  25.747  25.535  1.00  0.00    -0.033 A 
ATOM      8  C   UNL A   1      31.602  26.096  24.839  1.00  0.00     0.012 A 
ATOM      9  C   UNL A   1      33.534  26.761  26.124  1.00  0.00     0.016 A 
ATOM     10  C   UNL A   1      31.224  27.437  24.658  1.00  0.00    -0.024 A 
ATOM     11  C   UNL A   1      33.152  28.098  26.022  1.00  0.00     0.023 A 
ATOM     12  C   UNL A   1      32.003  28.431  25.276  1.00  0.00     0.020 A 
BRANCH  10  13
ATOM     13  C   UNL A   1      30.045  27.813  23.846  1.00  0.00     0.020 C 
ATOM     14  C   UNL A   1      29.820  29.069  23.423  1.00  0.00     0.106 C 
BRANCH  14  15
ATOM     15  S   UNL A   1      28.363  29.516  22.598  1.00  0.00     0.168 S 
ATOM     16  C   UNL A   1      27.922  30.986  23.497  1.00  0.00     0.163 C 
ATOM     17  O   UNL A   1      28.716  29.950  21.258  1.00  0.00    -0.225 OA
ATOM     18  O   UNL A   1      27.310  28.549  22.824  1.00  0.00    -0.225 OA
ENDBRANCH  14  15
ENDBRANCH  10  13
BRANCH  11  19
ATOM     19  C   UNL A   1      33.888  29.165  26.762  1.00  0.00     0.193 C 
ATOM     20  O   UNL A   1      35.038  28.953  27.130  1.00  0.00    -0.289 OA
BRANCH  19  21
ATOM     21  C   UNL A   1      33.316  30.518  26.994  1.00  0.00     0.022 A 
ATOM     22  C   UNL A   1      32.027  30.796  26.532  1.00  0.00     0.012 A 
ATOM     23  C   UNL A   1      34.041  31.533  27.609  1.00  0.00     0.012 A 
ATOM     24  C   UNL A   1      31.452  32.057  26.661  1.00  0.00     0.001 A 
ATOM     25  C   UNL A   1      33.458  32.798  27.768  1.00  0.00     0.001 A 
ATOM     26  C   UNL A   1      32.171  33.062  27.288  1.00  0.00     0.000 A 
ENDBRANCH  19  21
ENDBRANCH  11  19
ENDBRANCH   5   7
ENDBRANCH   3   5
ENDBRANCH   2   3
ENDBRANCH   1   2
BRANCH   1  27
ATOM     27  C   UNL A   1      36.365  21.287  25.352  1.00  0.00     0.275 C 
BRANCH  27  28
ATOM     28  O   UNL A   1      37.628  21.807  24.884  1.00  0.00    -0.458 OA
BRANCH  28  29
ATOM     29  C   UNL A   1      38.670  21.480  25.682  1.00  0.00     0.338 C 
ATOM     30  O   UNL A   1      39.239  20.398  25.689  1.00  0.00    -0.246 OA
BRANCH  29  31
ATOM     31  C   UNL A   1      39.148  22.603  26.512  1.00  0.00     0.060 A 
ATOM     32  C   UNL A   1      38.707  23.872  26.152  1.00  0.00     0.016 A 
ATOM     33  C   UNL A   1      40.248  22.468  27.367  1.00  0.00     0.016 A 
ATOM     34  C   UNL A   1      39.452  24.996  26.509  1.00  0.00     0.010 A 
ATOM     35  C   UNL A   1      40.958  23.615  27.784  1.00  0.00     0.010 A 
ATOM     36  C   UNL A   1      40.603  24.889  27.307  1.00  0.00    -0.014 A 
BRANCH  36  37
ATOM     37  C   UNL A   1      41.335  26.135  27.692  1.00  0.00     0.031 A 
ATOM     38  C   UNL A   1      40.737  27.232  28.548  1.00  0.00     0.074 A 
ATOM     39  C   UNL A   1      42.623  26.231  27.319  1.00  0.00     0.049 A 
ATOM     40  N   UNL A   1      41.230  28.397  28.901  1.00  0.00    -0.248 NA
ATOM     41  C   UNL A   1      39.413  26.985  29.104  1.00  0.00     0.031 C 
ATOM     42  C   UNL A   1      43.363  25.206  26.576  1.00  0.00     0.029 A 
ATOM     43  N   UNL A   1      43.537  27.232  27.510  1.00  0.00    -0.354 N 
ATOM     44  C   UNL A   1      40.276  28.987  29.739  1.00  0.00     0.074 A 
ATOM     45  C   UNL A   1      39.165  28.074  29.811  1.00  0.00     0.031 C 
ATOM     46  C   UNL A   1      44.613  25.635  26.370  1.00  0.00     0.029 A 
ATOM     47  C   UNL A   1      44.728  26.999  26.871  1.00  0.00     0.049 A 
ATOM     48  H   UNL A   1      43.358  28.036  28.050  1.00  0.00     0.167 HD
ATOM     49  C   UNL A   1      40.318  30.174  30.395  1.00  0.00     0.034 A 
ATOM     50  C   UNL A   1      45.769  27.817  26.638  1.00  0.00     0.034 A 
ATOM     51  C   UNL A   1      41.421  31.096  30.280  1.00  0.00     0.049 A 
ATOM     52  C   UNL A   1      45.731  29.209  27.196  1.00  0.00     0.074 A 
ATOM     53  C   UNL A   1      41.567  32.353  30.840  1.00  0.00     0.029 A 
ATOM     54  N   UNL A   1      42.565  30.859  29.530  1.00  0.00    -0.354 N 
ATOM     55  N   UNL A   1      44.801  29.779  27.928  1.00  0.00    -0.248 NA
ATOM     56  C   UNL A   1      46.880  30.066  26.896  1.00  0.00     0.031 C 
ATOM     57  C   UNL A   1      42.761  32.907  30.362  1.00  0.00     0.029 A 
ATOM     58  C   UNL A   1      43.399  31.964  29.569  1.00  0.00     0.049 A 
ATOM     59  H   UNL A   1      42.755  30.026  29.040  1.00  0.00     0.167 HD
ATOM     60  C   UNL A   1      45.262  31.064  28.189  1.00  0.00     0.074 A 
ATOM     61  C   UNL A   1      46.559  31.173  27.549  1.00  0.00     0.031 C 
ATOM     62  C   UNL A   1      44.672  32.062  28.896  1.00  0.00     0.034 A 
BRANCH  49  63
ATOM     63  C   UNL A   1      39.105  30.580  31.211  1.00  0.00     0.023 A 
ATOM     64  C   UNL A   1      38.116  31.459  30.724  1.00  0.00     0.031 A 
ATOM     65  C   UNL A   1      38.945  30.079  32.517  1.00  0.00     0.131 A 
ATOM     66  C   UNL A   1      37.040  31.836  31.550  1.00  0.00     0.055 A 
ATOM     67  C   UNL A   1      37.846  30.412  33.312  1.00  0.00     0.041 A 
ATOM     68  F   UNL A   1      39.865  29.257  33.050  1.00  0.00    -0.206 F 
ATOM     69  C   UNL A   1      36.891  31.301  32.833  1.00  0.00     0.022 A 
BRANCH  66  70
ATOM     70  S   UNL A   1      35.868  33.102  30.976  1.00  0.00     0.124 S 
ATOM     71  O   UNL A   1      34.612  32.362  30.942  1.00  0.00    -0.237 OA
ATOM     72  O   UNL A   1      35.982  34.132  32.003  1.00  0.00    -0.237 OA
ATOM     73  O   UNL A   1      36.388  33.482  29.663  1.00  0.00    -0.744 OA
ENDBRANCH  66  70
ENDBRANCH  49  63
BRANCH  50  74
ATOM     74  C   UNL A   1      46.860  27.351  25.742  1.00  0.00     0.023 A 
ATOM     75  C   UNL A   1      46.964  27.793  24.417  1.00  0.00     0.031 A 
ATOM     76  C   UNL A   1      47.848  26.470  26.228  1.00  0.00     0.131 A 
ATOM     77  C   UNL A   1      48.028  27.344  23.619  1.00  0.00     0.055 A 
ATOM     78  C   UNL A   1      48.933  26.073  25.449  1.00  0.00     0.041 A 
ATOM     79  F   UNL A   1      47.793  26.018  27.492  1.00  0.00    -0.206 F 
ATOM     80  C   UNL A   1      49.022  26.506  24.132  1.00  0.00     0.022 A 
BRANCH  77  81
ATOM     81  S   UNL A   1      48.066  27.825  21.872  1.00  0.00     0.124 S 
ATOM     82  O   UNL A   1      49.255  28.668  21.821  1.00  0.00    -0.237 OA
ATOM     83  O   UNL A   1      48.165  26.532  21.203  1.00  0.00    -0.237 OA
ATOM     84  O   UNL A   1      46.797  28.525  21.686  1.00  0.00    -0.744 OA
ENDBRANCH  77  81
ENDBRANCH  50  74
BRANCH  62  85
ATOM     85  C   UNL A   1      45.447  33.345  29.021  1.00  0.00     0.023 A 
ATOM     86  C   UNL A   1      45.260  34.402  28.115  1.00  0.00     0.031 A 
ATOM     87  C   UNL A   1      46.408  33.500  30.037  1.00  0.00     0.131 A 
ATOM     88  C   UNL A   1      46.069  35.542  28.200  1.00  0.00     0.055 A 
ATOM     89  C   UNL A   1      47.166  34.664  30.155  1.00  0.00     0.041 A 
ATOM     90  F   UNL A   1      46.626  32.518  30.927  1.00  0.00    -0.206 F 
ATOM     91  C   UNL A   1      47.009  35.688  29.224  1.00  0.00     0.022 A 
BRANCH  88  92
ATOM     92  S   UNL A   1      45.948  36.789  26.890  1.00  0.00     0.124 S 
ATOM     93  O   UNL A   1      46.551  36.096  25.756  1.00  0.00    -0.237 OA
ATOM     94  O   UNL A   1      44.509  37.017  26.805  1.00  0.00    -0.237 OA
ATOM     95  O   UNL A   1      46.723  37.912  27.412  1.00  0.00    -0.744 OA
ENDBRANCH  88  92
ENDBRANCH  62  85
ENDBRANCH  36  37
ENDBRANCH  29  31
ENDBRANCH  28  29
ENDBRANCH  27  28
ENDBRANCH   1  27
TORSDOF 19
ENDMDL
