MODEL 1
REMARK VINA RESULT:     -12.8      0.000      0.000
REMARK SMILES Cc1cccc(OCC(=O)Nc2cc(C(=O)OCCOC(=O)c3ccc(-c4c5nc(c(-c6cc(S(=O)(=O)[O-])ccc6F)c6ccc([nH]6)c(-c6cc(S(=O)(=O)[O-])ccc6F)c6nc(c(-c7cc(S(=O)(=O)[O-])ccc7F)c7ccc4[nH]7)C=C6)C=C5)cc3)c(Cl)cc2Cl)c1
REMARK SMILES IDX 18 1 17 2 15 3 16 4 14 5 12 6 13 7 89 8 88 9 90 10 86 11
REMARK SMILES IDX 87 12 11 13 9 14 10 15 8 17 7 18 6 19 1 20 2 21 3 22 91 23
REMARK SMILES IDX 4 24 5 25 19 26 20 27 21 28 22 29 23 30 24 31 85 32 25 33
REMARK SMILES IDX 84 34 26 35 27 36 28 37 78 38 29 39 83 40 77 41 79 42 30 43
REMARK SMILES IDX 82 44 76 45 75 46 31 48 63 49 43 50 62 51 44 52 47 53 61 54
REMARK SMILES IDX 80 55 45 56 46 57 60 59 81 60 48 61 32 62 33 63 41 64 34 65
REMARK SMILES IDX 40 66 42 67 39 68 35 69 36 70 37 71 38 72 64 73 65 74 73 75
REMARK SMILES IDX 66 76 72 77 74 78 71 79 67 80 68 81 69 82 70 83 49 84 50 85
REMARK SMILES IDX 58 86 51 87 57 88 59 89 56 90 52 91 53 92 54 93 55 94
REMARK H PARENT 11 16 79 47 47 58
REMARK Flexibility Score: inf
ROOT
ATOM      1  C   UNL A   1      33.776  30.188  27.548  1.00  0.00     0.275 C 
ENDROOT
BRANCH   1   2
ATOM      2  O   UNL A   1      33.426  29.628  26.294  1.00  0.00    -0.458 OA
BRANCH   2   3
ATOM      3  C   UNL A   1      32.146  29.842  26.022  1.00  0.00     0.339 C 
ATOM      4  O   UNL A   1      31.425  30.631  26.616  1.00  0.00    -0.246 OA
BRANCH   3   5
ATOM      5  C   UNL A   1      31.683  29.004  24.829  1.00  0.00     0.080 A 
ATOM      6  C   UNL A   1      30.588  26.171  25.213  1.00  0.00     0.061 A 
ATOM      7  C   UNL A   1      30.904  27.733  25.846  1.00  0.00     0.045 A 
ATOM      8  C   UNL A   1      31.006  25.701  23.592  1.00  0.00     0.066 A 
ATOM      9  C   UNL A   1      31.730  26.756  22.429  1.00  0.00     0.044 A 
ATOM     10  Cl  UNL A   1      30.748  24.054  23.128  1.00  0.00    -0.082 Cl
ATOM     11  C   UNL A   1      32.191  28.441  22.931  1.00  0.00     0.057 A 
ATOM     12  Cl  UNL A   1      33.950  28.212  21.951  1.00  0.00    -0.083 Cl
BRANCH   6  13
ATOM     13  N   UNL A   1      29.990  25.254  26.090  1.00  0.00    -0.322 N 
ATOM     14  C   UNL A   1      30.616  24.177  26.683  1.00  0.00     0.262 C 
ATOM     15  O   UNL A   1      29.927  23.335  27.269  1.00  0.00    -0.271 OA
ATOM     16  H   UNL A   1      29.038  25.394  26.302  1.00  0.00     0.170 HD
BRANCH  14  17
ATOM     17  C   UNL A   1      32.180  24.150  26.789  1.00  0.00     0.329 C 
BRANCH  17  18
ATOM     18  O   UNL A   1      33.029  23.037  26.546  1.00  0.00    -0.484 OA
BRANCH  18  19
ATOM     19  C   UNL A   1      34.112  23.188  25.737  1.00  0.00     0.120 A 
ATOM     20  C   UNL A   1      37.820  23.778  25.849  1.00  0.00     0.044 C 
ATOM     21  C   UNL A   1      36.464  23.442  25.322  1.00  0.00    -0.047 A 
ATOM     22  C   UNL A   1      36.257  23.215  23.954  1.00  0.00     0.003 A 
ATOM     23  C   UNL A   1      35.387  23.404  26.211  1.00  0.00     0.049 A 
ATOM     24  C   UNL A   1      34.967  23.039  23.469  1.00  0.00     0.004 A 
ATOM     25  C   UNL A   1      33.895  23.091  24.358  1.00  0.00     0.046 A 
ENDBRANCH  18  19
ENDBRANCH  17  18
ENDBRANCH  14  17
ENDBRANCH   6  13
ENDBRANCH   3   5
ENDBRANCH   2   3
ENDBRANCH   1   2
BRANCH   1  26
ATOM     26  C   UNL A   1      34.586  31.547  27.631  1.00  0.00     0.275 C 
BRANCH  26  27
ATOM     27  O   UNL A   1      34.158  32.933  28.094  1.00  0.00    -0.458 OA
BRANCH  27  28
ATOM     28  C   UNL A   1      34.383  33.799  29.159  1.00  0.00     0.338 C 
ATOM     29  O   UNL A   1      34.165  35.000  29.110  1.00  0.00    -0.246 OA
BRANCH  28  30
ATOM     30  C   UNL A   1      35.241  33.252  30.231  1.00  0.00     0.060 A 
ATOM     31  C   UNL A   1      35.077  31.971  31.557  1.00  0.00     0.016 A 
ATOM     32  C   UNL A   1      36.841  33.712  29.741  1.00  0.00     0.016 A 
ATOM     33  C   UNL A   1      36.822  31.086  32.128  1.00  0.00     0.010 A 
ATOM     34  C   UNL A   1      38.206  32.917  30.219  1.00  0.00     0.010 A 
ATOM     35  C   UNL A   1      38.353  31.648  31.355  1.00  0.00    -0.014 A 
BRANCH  35  36
ATOM     36  C   UNL A   1      39.715  31.022  31.164  1.00  0.00     0.031 A 
ATOM     37  C   UNL A   1      39.831  29.856  30.257  1.00  0.00     0.074 A 
ATOM     38  C   UNL A   1      40.830  31.647  31.688  1.00  0.00     0.049 A 
ATOM     39  N   UNL A   1      40.213  28.658  30.554  1.00  0.00    -0.248 NA
ATOM     40  C   UNL A   1      39.392  29.961  28.865  1.00  0.00     0.031 C 
ATOM     41  C   UNL A   1      42.269  31.454  31.493  1.00  0.00     0.029 A 
ATOM     42  N   UNL A   1      40.853  32.682  32.652  1.00  0.00    -0.354 N 
ATOM     43  C   UNL A   1      40.472  28.040  29.331  1.00  0.00     0.074 A 
ATOM     44  C   UNL A   1      39.660  28.742  28.375  1.00  0.00     0.031 C 
ATOM     45  C   UNL A   1      42.959  32.037  32.507  1.00  0.00     0.029 A 
ATOM     46  C   UNL A   1      42.014  32.651  33.417  1.00  0.00     0.049 A 
ATOM     47  H   UNL A   1      40.134  33.345  32.765  1.00  0.00     0.167 HD
ATOM     48  C   UNL A   1      41.663  27.404  29.096  1.00  0.00     0.034 A 
ATOM     49  C   UNL A   1      41.864  32.526  34.763  1.00  0.00     0.034 A 
ATOM     50  C   UNL A   1      42.595  27.738  30.169  1.00  0.00     0.049 A 
ATOM     51  C   UNL A   1      42.052  31.053  35.041  1.00  0.00     0.074 A 
ATOM     52  C   UNL A   1      43.695  28.576  30.234  1.00  0.00     0.029 A 
ATOM     53  N   UNL A   1      42.248  27.451  31.475  1.00  0.00    -0.354 N 
ATOM     54  N   UNL A   1      42.081  30.147  34.098  1.00  0.00    -0.248 NA
ATOM     55  C   UNL A   1      42.358  30.509  36.352  1.00  0.00     0.031 C 
ATOM     56  C   UNL A   1      43.973  28.816  31.612  1.00  0.00     0.029 A 
ATOM     57  C   UNL A   1      43.033  28.137  32.372  1.00  0.00     0.049 A 
ATOM     58  H   UNL A   1      41.527  26.831  31.732  1.00  0.00     0.167 HD
ATOM     59  C   UNL A   1      42.557  28.977  34.595  1.00  0.00     0.074 A 
ATOM     60  C   UNL A   1      42.700  29.253  36.021  1.00  0.00     0.031 C 
ATOM     61  C   UNL A   1      42.840  27.901  33.796  1.00  0.00     0.034 A 
BRANCH  48  62
ATOM     62  C   UNL A   1      42.143  26.770  27.793  1.00  0.00     0.023 A 
ATOM     63  C   UNL A   1      42.111  25.360  27.662  1.00  0.00     0.031 A 
ATOM     64  C   UNL A   1      42.527  27.463  26.627  1.00  0.00     0.131 A 
ATOM     65  C   UNL A   1      42.486  24.705  26.472  1.00  0.00     0.055 A 
ATOM     66  C   UNL A   1      42.926  26.810  25.444  1.00  0.00     0.041 A 
ATOM     67  F   UNL A   1      42.485  28.803  26.563  1.00  0.00    -0.206 F 
ATOM     68  C   UNL A   1      42.909  25.423  25.361  1.00  0.00     0.022 A 
BRANCH  65  69
ATOM     69  S   UNL A   1      42.370  22.893  26.396  1.00  0.00     0.124 S 
ATOM     70  O   UNL A   1      40.975  22.660  26.756  1.00  0.00    -0.237 OA
ATOM     71  O   UNL A   1      42.735  22.616  25.011  1.00  0.00    -0.237 OA
ATOM     72  O   UNL A   1      43.347  22.446  27.389  1.00  0.00    -0.744 OA
ENDBRANCH  65  69
ENDBRANCH  48  62
BRANCH  49  73
ATOM     73  C   UNL A   1      40.736  33.415  35.229  1.00  0.00     0.023 A 
ATOM     74  C   UNL A   1      39.561  32.783  35.749  1.00  0.00     0.031 A 
ATOM     75  C   UNL A   1      41.036  34.696  35.681  1.00  0.00     0.131 A 
ATOM     76  C   UNL A   1      38.879  33.332  36.852  1.00  0.00     0.055 A 
ATOM     77  C   UNL A   1      40.311  35.255  36.723  1.00  0.00     0.041 A 
ATOM     78  F   UNL A   1      42.142  35.340  35.285  1.00  0.00    -0.206 F 
ATOM     79  C   UNL A   1      39.265  34.565  37.351  1.00  0.00     0.022 A 
BRANCH  76  80
ATOM     80  S   UNL A   1      37.749  32.287  37.844  1.00  0.00     0.124 S 
ATOM     81  O   UNL A   1      38.394  32.280  39.150  1.00  0.00    -0.237 OA
ATOM     82  O   UNL A   1      36.490  33.023  37.745  1.00  0.00    -0.237 OA
ATOM     83  O   UNL A   1      37.739  31.006  37.139  1.00  0.00    -0.744 OA
ENDBRANCH  76  80
ENDBRANCH  49  73
BRANCH  61  84
ATOM     84  C   UNL A   1      43.036  26.500  34.306  1.00  0.00     0.023 A 
ATOM     85  C   UNL A   1      44.297  25.917  34.342  1.00  0.00     0.031 A 
ATOM     86  C   UNL A   1      41.987  25.718  34.851  1.00  0.00     0.131 A 
ATOM     87  C   UNL A   1      44.470  24.585  34.711  1.00  0.00     0.055 A 
ATOM     88  C   UNL A   1      42.187  24.440  35.368  1.00  0.00     0.041 A 
ATOM     89  F   UNL A   1      40.722  26.152  34.926  1.00  0.00    -0.206 F 
ATOM     90  C   UNL A   1      43.431  23.844  35.258  1.00  0.00     0.022 A 
BRANCH  87  91
ATOM     91  S   UNL A   1      46.068  23.850  34.324  1.00  0.00     0.124 S 
ATOM     92  O   UNL A   1      46.765  23.970  35.604  1.00  0.00    -0.237 OA
ATOM     93  O   UNL A   1      45.703  22.492  33.936  1.00  0.00    -0.237 OA
ATOM     94  O   UNL A   1      46.581  24.696  33.251  1.00  0.00    -0.744 OA
ENDBRANCH  87  91
ENDBRANCH  61  84
ENDBRANCH  35  36
ENDBRANCH  28  30
ENDBRANCH  27  28
ENDBRANCH  26  27
ENDBRANCH   1  26
TORSDOF 18
ENDMDL
MODEL 2
REMARK VINA RESULT:     -12.7      1.748      2.266
REMARK SMILES Cc1cccc(OCC(=O)Nc2cc(C(=O)OCCOC(=O)c3ccc(-c4c5nc(c(-c6cc(S(=O)(=O)[O-])ccc6F)c6ccc([nH]6)c(-c6cc(S(=O)(=O)[O-])ccc6F)c6nc(c(-c7cc(S(=O)(=O)[O-])ccc7F)c7ccc4[nH]7)C=C6)C=C5)cc3)c(Cl)cc2Cl)c1
REMARK SMILES IDX 18 1 17 2 15 3 16 4 14 5 12 6 13 7 89 8 88 9 90 10 86 11
REMARK SMILES IDX 87 12 11 13 9 14 10 15 8 17 7 18 6 19 1 20 2 21 3 22 91 23
REMARK SMILES IDX 4 24 5 25 19 26 20 27 21 28 22 29 23 30 24 31 85 32 25 33
REMARK SMILES IDX 84 34 26 35 27 36 28 37 78 38 29 39 83 40 77 41 79 42 30 43
REMARK SMILES IDX 82 44 76 45 75 46 31 48 63 49 43 50 62 51 44 52 47 53 61 54
REMARK SMILES IDX 80 55 45 56 46 57 60 59 81 60 48 61 32 62 33 63 41 64 34 65
REMARK SMILES IDX 40 66 42 67 39 68 35 69 36 70 37 71 38 72 64 73 65 74 73 75
REMARK SMILES IDX 66 76 72 77 74 78 71 79 67 80 68 81 69 82 70 83 49 84 50 85
REMARK SMILES IDX 58 86 51 87 57 88 59 89 56 90 52 91 53 92 54 93 55 94
REMARK H PARENT 11 16 79 47 47 58
REMARK Flexibility Score: inf
ROOT
ATOM      1  C   UNL A   1      32.290  30.470  27.007  1.00  0.00     0.275 C 
ENDROOT
BRANCH   1   2
ATOM      2  O   UNL A   1      32.416  29.285  26.239  1.00  0.00    -0.458 OA
BRANCH   2   3
ATOM      3  C   UNL A   1      31.777  28.277  26.817  1.00  0.00     0.339 C 
ATOM      4  O   UNL A   1      31.423  28.249  27.988  1.00  0.00    -0.246 OA
BRANCH   3   5
ATOM      5  C   UNL A   1      31.490  27.154  25.820  1.00  0.00     0.080 A 
ATOM      6  C   UNL A   1      33.689  25.213  24.945  1.00  0.00     0.061 A 
ATOM      7  C   UNL A   1      33.063  26.314  26.099  1.00  0.00     0.045 A 
ATOM      8  C   UNL A   1      32.886  24.850  23.445  1.00  0.00     0.066 A 
ATOM      9  C   UNL A   1      31.359  25.508  22.975  1.00  0.00     0.044 A 
ATOM     10  Cl  UNL A   1      33.696  23.819  22.315  1.00  0.00    -0.082 Cl
ATOM     11  C   UNL A   1      30.560  26.740  24.047  1.00  0.00     0.057 A 
ATOM     12  Cl  UNL A   1      30.116  27.832  22.398  1.00  0.00    -0.083 Cl
BRANCH   6  13
ATOM     13  N   UNL A   1      34.924  24.623  25.254  1.00  0.00    -0.322 N 
ATOM     14  C   UNL A   1      35.110  23.342  25.733  1.00  0.00     0.262 C 
ATOM     15  O   UNL A   1      36.225  23.019  26.156  1.00  0.00    -0.271 OA
ATOM     16  H   UNL A   1      35.729  25.172  25.115  1.00  0.00     0.170 HD
BRANCH  14  17
ATOM     17  C   UNL A   1      33.983  22.269  25.538  1.00  0.00     0.329 C 
BRANCH  17  18
ATOM     18  O   UNL A   1      34.109  20.865  25.712  1.00  0.00    -0.484 OA
BRANCH  18  19
ATOM     19  C   UNL A   1      33.685  20.030  24.725  1.00  0.00     0.120 A 
ATOM     20  C   UNL A   1      34.028  16.497  23.497  1.00  0.00     0.044 C 
ATOM     21  C   UNL A   1      33.513  17.891  23.647  1.00  0.00    -0.047 A 
ATOM     22  C   UNL A   1      32.518  18.389  22.794  1.00  0.00     0.003 A 
ATOM     23  C   UNL A   1      34.076  18.713  24.626  1.00  0.00     0.049 A 
ATOM     24  C   UNL A   1      32.152  19.727  22.865  1.00  0.00     0.004 A 
ATOM     25  C   UNL A   1      32.787  20.555  23.788  1.00  0.00     0.046 A 
ENDBRANCH  18  19
ENDBRANCH  17  18
ENDBRANCH  14  17
ENDBRANCH   6  13
ENDBRANCH   3   5
ENDBRANCH   2   3
ENDBRANCH   1   2
BRANCH   1  26
ATOM     26  C   UNL A   1      33.566  31.174  27.625  1.00  0.00     0.275 C 
BRANCH  26  27
ATOM     27  O   UNL A   1      33.906  32.649  27.792  1.00  0.00    -0.458 OA
BRANCH  27  28
ATOM     28  C   UNL A   1      33.997  33.596  28.807  1.00  0.00     0.338 C 
ATOM     29  O   UNL A   1      33.588  34.742  28.699  1.00  0.00    -0.246 OA
BRANCH  28  30
ATOM     30  C   UNL A   1      34.940  33.252  29.892  1.00  0.00     0.060 A 
ATOM     31  C   UNL A   1      34.881  32.267  31.457  1.00  0.00     0.016 A 
ATOM     32  C   UNL A   1      36.495  33.565  29.187  1.00  0.00     0.016 A 
ATOM     33  C   UNL A   1      36.662  31.469  32.046  1.00  0.00     0.010 A 
ATOM     34  C   UNL A   1      37.890  32.846  29.700  1.00  0.00     0.010 A 
ATOM     35  C   UNL A   1      38.124  31.825  31.051  1.00  0.00    -0.014 A 
BRANCH  35  36
ATOM     36  C   UNL A   1      39.459  31.139  30.877  1.00  0.00     0.031 A 
ATOM     37  C   UNL A   1      39.513  29.907  30.055  1.00  0.00     0.074 A 
ATOM     38  C   UNL A   1      40.607  31.761  31.330  1.00  0.00     0.049 A 
ATOM     39  N   UNL A   1      39.862  28.721  30.429  1.00  0.00    -0.248 NA
ATOM     40  C   UNL A   1      39.045  29.928  28.668  1.00  0.00     0.031 C 
ATOM     41  C   UNL A   1      42.034  31.502  31.118  1.00  0.00     0.029 A 
ATOM     42  N   UNL A   1      40.688  32.860  32.215  1.00  0.00    -0.354 N 
ATOM     43  C   UNL A   1      40.070  28.008  29.250  1.00  0.00     0.074 A 
ATOM     44  C   UNL A   1      39.259  28.668  28.262  1.00  0.00     0.031 C 
ATOM     45  C   UNL A   1      42.767  32.131  32.072  1.00  0.00     0.029 A 
ATOM     46  C   UNL A   1      41.865  32.843  32.955  1.00  0.00     0.049 A 
ATOM     47  H   UNL A   1      39.995  33.555  32.296  1.00  0.00     0.167 HD
ATOM     48  C   UNL A   1      41.233  27.314  29.035  1.00  0.00     0.034 A 
ATOM     49  C   UNL A   1      41.744  32.820  34.310  1.00  0.00     0.034 A 
ATOM     50  C   UNL A   1      42.201  27.691  30.062  1.00  0.00     0.049 A 
ATOM     51  C   UNL A   1      41.888  31.365  34.690  1.00  0.00     0.074 A 
ATOM     52  C   UNL A   1      43.330  28.493  30.041  1.00  0.00     0.029 A 
ATOM     53  N   UNL A   1      41.876  27.511  31.392  1.00  0.00    -0.354 N 
ATOM     54  N   UNL A   1      41.864  30.393  33.815  1.00  0.00    -0.248 NA
ATOM     55  C   UNL A   1      42.207  30.907  36.030  1.00  0.00     0.031 C 
ATOM     56  C   UNL A   1      43.649  28.821  31.392  1.00  0.00     0.029 A 
ATOM     57  C   UNL A   1      42.705  28.232  32.219  1.00  0.00     0.049 A 
ATOM     58  H   UNL A   1      41.141  26.938  31.708  1.00  0.00     0.167 HD
ATOM     59  C   UNL A   1      42.312  29.246  34.385  1.00  0.00     0.074 A 
ATOM     60  C   UNL A   1      42.498  29.618  35.784  1.00  0.00     0.031 C 
ATOM     61  C   UNL A   1      42.538  28.106  33.660  1.00  0.00     0.034 A 
BRANCH  48  62
ATOM     62  C   UNL A   1      41.659  26.572  27.772  1.00  0.00     0.023 A 
ATOM     63  C   UNL A   1      41.588  25.158  27.749  1.00  0.00     0.031 A 
ATOM     64  C   UNL A   1      42.027  27.165  26.547  1.00  0.00     0.131 A 
ATOM     65  C   UNL A   1      41.913  24.405  26.602  1.00  0.00     0.055 A 
ATOM     66  C   UNL A   1      42.376  26.414  25.407  1.00  0.00     0.041 A 
ATOM     67  F   UNL A   1      42.017  28.497  26.383  1.00  0.00    -0.206 F 
ATOM     68  C   UNL A   1      42.321  25.026  25.430  1.00  0.00     0.022 A 
BRANCH  65  69
ATOM     69  S   UNL A   1      41.749  22.597  26.667  1.00  0.00     0.124 S 
ATOM     70  O   UNL A   1      42.281  22.194  25.369  1.00  0.00    -0.237 OA
ATOM     71  O   UNL A   1      42.556  22.253  27.832  1.00  0.00    -0.237 OA
ATOM     72  O   UNL A   1      40.310  22.390  26.834  1.00  0.00    -0.744 OA
ENDBRANCH  65  69
ENDBRANCH  48  62
BRANCH  49  73
ATOM     73  C   UNL A   1      40.658  33.780  34.734  1.00  0.00     0.023 A 
ATOM     74  C   UNL A   1      39.440  33.225  35.242  1.00  0.00     0.031 A 
ATOM     75  C   UNL A   1      41.020  35.052  35.166  1.00  0.00     0.131 A 
ATOM     76  C   UNL A   1      38.768  33.835  36.320  1.00  0.00     0.055 A 
ATOM     77  C   UNL A   1      40.307  35.673  36.182  1.00  0.00     0.041 A 
ATOM     78  F   UNL A   1      42.168  35.625  34.781  1.00  0.00    -0.206 F 
ATOM     79  C   UNL A   1      39.212  35.055  36.802  1.00  0.00     0.022 A 
BRANCH  76  80
ATOM     80  S   UNL A   1      37.562  32.875  37.309  1.00  0.00     0.124 S 
ATOM     81  O   UNL A   1      37.978  33.164  38.675  1.00  0.00    -0.237 OA
ATOM     82  O   UNL A   1      36.290  33.454  36.881  1.00  0.00    -0.237 OA
ATOM     83  O   UNL A   1      37.759  31.496  36.869  1.00  0.00    -0.744 OA
ENDBRANCH  76  80
ENDBRANCH  49  73
BRANCH  61  84
ATOM     84  C   UNL A   1      42.699  26.739  34.267  1.00  0.00     0.023 A 
ATOM     85  C   UNL A   1      43.819  25.960  33.999  1.00  0.00     0.031 A 
ATOM     86  C   UNL A   1      41.782  26.189  35.197  1.00  0.00     0.131 A 
ATOM     87  C   UNL A   1      43.921  24.653  34.470  1.00  0.00     0.055 A 
ATOM     88  C   UNL A   1      41.965  24.944  35.793  1.00  0.00     0.041 A 
ATOM     89  F   UNL A   1      40.673  26.832  35.589  1.00  0.00    -0.206 F 
ATOM     90  C   UNL A   1      43.020  24.143  35.395  1.00  0.00     0.022 A 
BRANCH  87  91
ATOM     91  S   UNL A   1      45.205  23.634  33.723  1.00  0.00     0.124 S 
ATOM     92  O   UNL A   1      44.636  23.364  32.403  1.00  0.00    -0.237 OA
ATOM     93  O   UNL A   1      46.359  24.526  33.735  1.00  0.00    -0.237 OA
ATOM     94  O   UNL A   1      45.288  22.483  34.615  1.00  0.00    -0.744 OA
ENDBRANCH  87  91
ENDBRANCH  61  84
ENDBRANCH  35  36
ENDBRANCH  28  30
ENDBRANCH  27  28
ENDBRANCH  26  27
ENDBRANCH   1  26
TORSDOF 18
ENDMDL
MODEL 3
REMARK VINA RESULT:     -12.5      4.414     10.165
REMARK SMILES Cc1cccc(OCC(=O)Nc2cc(C(=O)OCCOC(=O)c3ccc(-c4c5nc(c(-c6cc(S(=O)(=O)[O-])ccc6F)c6ccc([nH]6)c(-c6cc(S(=O)(=O)[O-])ccc6F)c6nc(c(-c7cc(S(=O)(=O)[O-])ccc7F)c7ccc4[nH]7)C=C6)C=C5)cc3)c(Cl)cc2Cl)c1
REMARK SMILES IDX 18 1 17 2 15 3 16 4 14 5 12 6 13 7 89 8 88 9 90 10 86 11
REMARK SMILES IDX 87 12 11 13 9 14 10 15 8 17 7 18 6 19 1 20 2 21 3 22 91 23
REMARK SMILES IDX 4 24 5 25 19 26 20 27 21 28 22 29 23 30 24 31 85 32 25 33
REMARK SMILES IDX 84 34 26 35 27 36 28 37 78 38 29 39 83 40 77 41 79 42 30 43
REMARK SMILES IDX 82 44 76 45 75 46 31 48 63 49 43 50 62 51 44 52 47 53 61 54
REMARK SMILES IDX 80 55 45 56 46 57 60 59 81 60 48 61 32 62 33 63 41 64 34 65
REMARK SMILES IDX 40 66 42 67 39 68 35 69 36 70 37 71 38 72 64 73 65 74 73 75
REMARK SMILES IDX 66 76 72 77 74 78 71 79 67 80 68 81 69 82 70 83 49 84 50 85
REMARK SMILES IDX 58 86 51 87 57 88 59 89 56 90 52 91 53 92 54 93 55 94
REMARK H PARENT 11 16 79 47 47 58
REMARK Flexibility Score: inf
ROOT
ATOM      1  C   UNL A   1      37.581  22.966  25.304  1.00  0.00     0.275 C 
ENDROOT
BRANCH   1   2
ATOM      2  O   UNL A   1      36.172  23.050  25.172  1.00  0.00    -0.458 OA
BRANCH   2   3
ATOM      3  C   UNL A   1      35.828  23.267  23.910  1.00  0.00     0.339 C 
ATOM      4  O   UNL A   1      36.609  23.327  22.970  1.00  0.00    -0.246 OA
BRANCH   3   5
ATOM      5  C   UNL A   1      34.312  23.393  23.760  1.00  0.00     0.080 A 
ATOM      6  C   UNL A   1      32.796  25.779  24.935  1.00  0.00     0.061 A 
ATOM      7  C   UNL A   1      34.254  25.099  24.344  1.00  0.00     0.045 A 
ATOM      8  C   UNL A   1      31.305  24.887  25.035  1.00  0.00     0.066 A 
ATOM      9  C   UNL A   1      31.112  23.253  24.508  1.00  0.00     0.044 A 
ATOM     10  Cl  UNL A   1      29.942  25.658  25.773  1.00  0.00    -0.082 Cl
ATOM     11  C   UNL A   1      32.563  22.343  23.898  1.00  0.00     0.057 A 
ATOM     12  Cl  UNL A   1      31.964  20.737  24.980  1.00  0.00    -0.083 Cl
BRANCH   6  13
ATOM     13  N   UNL A   1      32.862  27.109  25.375  1.00  0.00    -0.322 N 
ATOM     14  C   UNL A   1      32.922  28.225  24.565  1.00  0.00     0.262 C 
ATOM     15  O   UNL A   1      33.183  29.319  25.076  1.00  0.00    -0.271 OA
ATOM     16  H   UNL A   1      32.864  27.259  26.348  1.00  0.00     0.170 HD
BRANCH  14  17
ATOM     17  C   UNL A   1      32.456  28.127  23.071  1.00  0.00     0.329 C 
BRANCH  17  18
ATOM     18  O   UNL A   1      31.573  29.012  22.397  1.00  0.00    -0.484 OA
BRANCH  18  19
ATOM     19  C   UNL A   1      30.269  29.070  22.778  1.00  0.00     0.120 A 
ATOM     20  C   UNL A   1      27.500  31.515  23.463  1.00  0.00     0.044 C 
ATOM     21  C   UNL A   1      28.207  30.224  23.212  1.00  0.00    -0.047 A 
ATOM     22  C   UNL A   1      27.531  29.000  23.311  1.00  0.00     0.003 A 
ATOM     23  C   UNL A   1      29.573  30.251  22.922  1.00  0.00     0.049 A 
ATOM     24  C   UNL A   1      28.237  27.809  23.207  1.00  0.00     0.004 A 
ATOM     25  C   UNL A   1      29.616  27.853  23.005  1.00  0.00     0.046 A 
ENDBRANCH  18  19
ENDBRANCH  17  18
ENDBRANCH  14  17
ENDBRANCH   6  13
ENDBRANCH   3   5
ENDBRANCH   2   3
ENDBRANCH   1   2
BRANCH   1  26
ATOM     26  C   UNL A   1      38.291  21.571  25.544  1.00  0.00     0.275 C 
BRANCH  26  27
ATOM     27  O   UNL A   1      39.525  21.210  26.360  1.00  0.00    -0.458 OA
BRANCH  27  28
ATOM     28  C   UNL A   1      40.852  20.850  26.152  1.00  0.00     0.338 C 
ATOM     29  O   UNL A   1      41.247  19.694  26.159  1.00  0.00    -0.246 OA
BRANCH  28  30
ATOM     30  C   UNL A   1      41.822  21.958  26.282  1.00  0.00     0.060 A 
ATOM     31  C   UNL A   1      42.668  23.141  25.138  1.00  0.00     0.016 A 
ATOM     32  C   UNL A   1      41.721  22.385  27.962  1.00  0.00     0.016 A 
ATOM     33  C   UNL A   1      43.187  24.929  25.969  1.00  0.00     0.010 A 
ATOM     34  C   UNL A   1      42.127  23.872  28.551  1.00  0.00     0.010 A 
ATOM     35  C   UNL A   1      42.840  25.185  27.721  1.00  0.00    -0.014 A 
BRANCH  35  36
ATOM     36  C   UNL A   1      42.665  26.416  28.579  1.00  0.00     0.031 A 
ATOM     37  C   UNL A   1      41.379  27.149  28.501  1.00  0.00     0.074 A 
ATOM     38  C   UNL A   1      43.618  26.722  29.531  1.00  0.00     0.049 A 
ATOM     39  N   UNL A   1      41.187  28.370  28.125  1.00  0.00    -0.248 NA
ATOM     40  C   UNL A   1      40.120  26.455  28.774  1.00  0.00     0.031 C 
ATOM     41  C   UNL A   1      43.643  27.665  30.653  1.00  0.00     0.029 A 
ATOM     42  N   UNL A   1      44.922  26.186  29.636  1.00  0.00    -0.354 N 
ATOM     43  C   UNL A   1      39.894  28.684  28.541  1.00  0.00     0.074 A 
ATOM     44  C   UNL A   1      39.206  27.425  28.619  1.00  0.00     0.031 C 
ATOM     45  C   UNL A   1      44.924  27.880  31.051  1.00  0.00     0.029 A 
ATOM     46  C   UNL A   1      45.806  27.086  30.221  1.00  0.00     0.049 A 
ATOM     47  H   UNL A   1      45.173  25.284  29.331  1.00  0.00     0.167 HD
ATOM     48  C   UNL A   1      39.641  29.812  29.279  1.00  0.00     0.034 A 
ATOM     49  C   UNL A   1      46.901  27.437  29.495  1.00  0.00     0.034 A 
ATOM     50  C   UNL A   1      40.912  30.376  29.728  1.00  0.00     0.049 A 
ATOM     51  C   UNL A   1      46.533  28.752  28.846  1.00  0.00     0.074 A 
ATOM     52  C   UNL A   1      41.553  30.392  30.955  1.00  0.00     0.029 A 
ATOM     53  N   UNL A   1      41.861  30.726  28.788  1.00  0.00    -0.354 N 
ATOM     54  N   UNL A   1      45.314  29.225  28.834  1.00  0.00    -0.248 NA
ATOM     55  C   UNL A   1      47.503  29.683  28.299  1.00  0.00     0.031 C 
ATOM     56  C   UNL A   1      42.921  30.722  30.721  1.00  0.00     0.029 A 
ATOM     57  C   UNL A   1      43.103  30.888  29.357  1.00  0.00     0.049 A 
ATOM     58  H   UNL A   1      41.672  30.846  27.829  1.00  0.00     0.167 HD
ATOM     59  C   UNL A   1      45.327  30.530  28.463  1.00  0.00     0.074 A 
ATOM     60  C   UNL A   1      46.726  30.766  28.120  1.00  0.00     0.031 C 
ATOM     61  C   UNL A   1      44.209  31.319  28.513  1.00  0.00     0.034 A 
BRANCH  48  62
ATOM     62  C   UNL A   1      38.315  30.249  29.895  1.00  0.00     0.023 A 
ATOM     63  C   UNL A   1      37.403  30.992  29.107  1.00  0.00     0.031 A 
ATOM     64  C   UNL A   1      37.836  29.887  31.171  1.00  0.00     0.131 A 
ATOM     65  C   UNL A   1      36.137  31.385  29.587  1.00  0.00     0.055 A 
ATOM     66  C   UNL A   1      36.581  30.299  31.663  1.00  0.00     0.041 A 
ATOM     67  F   UNL A   1      38.538  29.079  31.980  1.00  0.00    -0.206 F 
ATOM     68  C   UNL A   1      35.723  31.053  30.870  1.00  0.00     0.022 A 
BRANCH  65  69
ATOM     69  S   UNL A   1      35.027  32.303  28.480  1.00  0.00     0.124 S 
ATOM     70  O   UNL A   1      34.312  31.227  27.801  1.00  0.00    -0.237 OA
ATOM     71  O   UNL A   1      34.248  33.106  29.416  1.00  0.00    -0.237 OA
ATOM     72  O   UNL A   1      35.944  33.065  27.633  1.00  0.00    -0.744 OA
ENDBRANCH  65  69
ENDBRANCH  48  62
BRANCH  49  73
ATOM     73  C   UNL A   1      47.480  26.212  28.829  1.00  0.00     0.023 A 
ATOM     74  C   UNL A   1      47.000  25.873  27.523  1.00  0.00     0.031 A 
ATOM     75  C   UNL A   1      48.767  25.810  29.170  1.00  0.00     0.131 A 
ATOM     76  C   UNL A   1      47.879  25.375  26.542  1.00  0.00     0.055 A 
ATOM     77  C   UNL A   1      49.602  25.255  28.210  1.00  0.00     0.041 A 
ATOM     78  F   UNL A   1      49.314  26.128  30.351  1.00  0.00    -0.206 F 
ATOM     79  C   UNL A   1      49.189  25.080  26.883  1.00  0.00     0.022 A 
BRANCH  76  80
ATOM     80  S   UNL A   1      47.419  25.460  24.772  1.00  0.00     0.124 S 
ATOM     81  O   UNL A   1      46.466  26.561  24.748  1.00  0.00    -0.237 OA
ATOM     82  O   UNL A   1      48.711  25.705  24.134  1.00  0.00    -0.237 OA
ATOM     83  O   UNL A   1      46.863  24.139  24.485  1.00  0.00    -0.744 OA
ENDBRANCH  76  80
ENDBRANCH  49  73
BRANCH  61  84
ATOM     84  C   UNL A   1      44.078  32.642  27.809  1.00  0.00     0.023 A 
ATOM     85  C   UNL A   1      43.640  33.775  28.484  1.00  0.00     0.031 A 
ATOM     86  C   UNL A   1      44.458  32.844  26.459  1.00  0.00     0.131 A 
ATOM     87  C   UNL A   1      43.413  34.975  27.813  1.00  0.00     0.055 A 
ATOM     88  C   UNL A   1      44.381  34.084  25.830  1.00  0.00     0.041 A 
ATOM     89  F   UNL A   1      44.937  31.861  25.685  1.00  0.00    -0.206 F 
ATOM     90  C   UNL A   1      43.811  35.155  26.495  1.00  0.00     0.022 A 
BRANCH  87  91
ATOM     91  S   UNL A   1      42.472  36.224  28.707  1.00  0.00     0.124 S 
ATOM     92  O   UNL A   1      42.182  37.189  27.647  1.00  0.00    -0.237 OA
ATOM     93  O   UNL A   1      41.325  35.464  29.191  1.00  0.00    -0.237 OA
ATOM     94  O   UNL A   1      43.403  36.682  29.733  1.00  0.00    -0.744 OA
ENDBRANCH  87  91
ENDBRANCH  61  84
ENDBRANCH  35  36
ENDBRANCH  28  30
ENDBRANCH  27  28
ENDBRANCH  26  27
ENDBRANCH   1  26
TORSDOF 18
ENDMDL
