MODEL 1
REMARK VINA RESULT:     -11.5      0.000      0.000
REMARK SMILES CC[C@@](C)([NH3+])C(=O)Nc1cc(C(=O)OCCOC(=O)c2ccc(-c3c4nc(c(-c5cc(S(=O)(=O)[O-])ccc5F)c5ccc([nH]5)c(-c5cc(S(=O)(=O)[O-])ccc5F)c5nc(c(-c6cc(S(=O)(=O)[O-])ccc6F)c6ccc3[nH]6)C=C5)C=C4)cc2)cc(C(F)(F)F)c1
REMARK SMILES IDX 15 1 14 2 12 3 13 4 11 5 9 6 10 7 89 8 84 9 83 10 8 11 6 12
REMARK SMILES IDX 7 13 3 15 4 16 2 17 1 18 5 19 85 23 86 24 87 25 88 26 16 27
REMARK SMILES IDX 17 28 18 29 19 30 20 31 21 32 82 33 22 34 81 35 23 36 24 37
REMARK SMILES IDX 25 38 75 39 26 40 80 41 74 42 76 43 27 44 79 45 73 46 72 47
REMARK SMILES IDX 28 49 60 50 40 51 59 52 41 53 44 54 58 55 77 56 42 57 43 58
REMARK SMILES IDX 57 60 78 61 45 62 29 63 30 64 38 65 31 66 37 67 39 68 36 69
REMARK SMILES IDX 32 70 33 71 34 72 35 73 61 74 62 75 70 76 63 77 69 78 71 79
REMARK SMILES IDX 68 80 64 81 65 82 66 83 67 84 46 85 47 86 55 87 48 88 54 89
REMARK SMILES IDX 56 90 53 91 49 92 50 93 51 94 52 95
REMARK H PARENT 8 14 5 20 5 21 5 22 76 48 44 59
REMARK Flexibility Score: inf
ROOT
ATOM      1  C   UNL A   1      38.724  20.874  25.513  1.00  0.00     0.275 C 
ENDROOT
BRANCH   1   2
ATOM      2  O   UNL A   1      37.488  20.764  24.778  1.00  0.00    -0.458 OA
BRANCH   2   3
ATOM      3  C   UNL A   1      36.712  21.874  24.750  1.00  0.00     0.338 C 
ATOM      4  O   UNL A   1      37.090  23.032  24.689  1.00  0.00    -0.246 OA
BRANCH   3   5
ATOM      5  C   UNL A   1      35.288  21.480  24.636  1.00  0.00     0.062 A 
ATOM      6  C   UNL A   1      33.035  22.135  24.036  1.00  0.00     0.042 A 
ATOM      7  C   UNL A   1      34.365  22.463  24.264  1.00  0.00     0.041 A 
ATOM      8  C   UNL A   1      32.607  20.820  24.216  1.00  0.00     0.039 A 
ATOM      9  C   UNL A   1      33.504  19.833  24.663  1.00  0.00     0.058 A 
ATOM     10  C   UNL A   1      34.856  20.169  24.851  1.00  0.00     0.029 A 
BRANCH   6  11
ATOM     11  N   UNL A   1      32.203  23.118  23.503  1.00  0.00    -0.321 N 
ATOM     12  C   UNL A   1      31.102  23.743  24.023  1.00  0.00     0.285 C 
ATOM     13  O   UNL A   1      30.330  24.264  23.212  1.00  0.00    -0.267 OA
ATOM     14  H   UNL A   1      32.450  23.413  22.596  1.00  0.00     0.170 HD
BRANCH  12  15
ATOM     15  C   UNL A   1      30.916  23.907  25.573  1.00  0.00     0.171 C 
ATOM     16  C   UNL A   1      30.647  22.555  26.255  1.00  0.00     0.090 C 
BRANCH  15  17
ATOM     17  C   UNL A   1      32.194  24.560  26.177  1.00  0.00     0.075 C 
ATOM     18  C   UNL A   1      32.636  25.863  25.511  1.00  0.00     0.011 C 
ENDBRANCH  15  17
BRANCH  15  19
ATOM     19  N   UNL A   1      29.791  24.837  25.857  1.00  0.00    -0.345 N 
ATOM     20  H   UNL A   1      29.985  25.745  25.435  1.00  0.00     0.345 HD
ATOM     21  H   UNL A   1      29.687  24.946  26.866  1.00  0.00     0.345 HD
ATOM     22  H   UNL A   1      28.929  24.457  25.465  1.00  0.00     0.345 HD
ENDBRANCH  15  19
ENDBRANCH  12  15
ENDBRANCH   6  11
BRANCH   9  23
ATOM     23  C   UNL A   1      33.036  18.426  24.936  1.00  0.00     0.416 C 
ATOM     24  F   UNL A   1      32.551  18.266  26.196  1.00  0.00    -0.166 F 
ATOM     25  F   UNL A   1      32.022  18.063  24.098  1.00  0.00    -0.166 F 
ATOM     26  F   UNL A   1      34.000  17.480  24.774  1.00  0.00    -0.166 F 
ENDBRANCH   9  23
ENDBRANCH   3   5
ENDBRANCH   2   3
ENDBRANCH   1   2
BRANCH   1  27
ATOM     27  C   UNL A   1      39.389  19.500  25.607  1.00  0.00     0.275 C 
BRANCH  27  28
ATOM     28  O   UNL A   1      40.425  19.553  26.604  1.00  0.00    -0.458 OA
BRANCH  28  29
ATOM     29  C   UNL A   1      41.699  19.433  26.157  1.00  0.00     0.338 C 
ATOM     30  O   UNL A   1      42.206  18.463  25.623  1.00  0.00    -0.246 OA
BRANCH  29  31
ATOM     31  C   UNL A   1      42.400  20.712  26.381  1.00  0.00     0.060 A 
ATOM     32  C   UNL A   1      42.466  21.219  27.675  1.00  0.00     0.016 A 
ATOM     33  C   UNL A   1      42.912  21.453  25.321  1.00  0.00     0.016 A 
ATOM     34  C   UNL A   1      42.960  22.499  27.912  1.00  0.00     0.010 A 
ATOM     35  C   UNL A   1      43.510  22.698  25.574  1.00  0.00     0.010 A 
ATOM     36  C   UNL A   1      43.510  23.257  26.868  1.00  0.00    -0.014 A 
BRANCH  36  37
ATOM     37  C   UNL A   1      44.036  24.631  27.139  1.00  0.00     0.031 A 
ATOM     38  C   UNL A   1      43.145  25.689  27.743  1.00  0.00     0.074 A 
ATOM     39  C   UNL A   1      45.325  24.935  26.874  1.00  0.00     0.049 A 
ATOM     40  N   UNL A   1      43.380  26.963  27.940  1.00  0.00    -0.248 NA
ATOM     41  C   UNL A   1      41.801  25.261  28.152  1.00  0.00     0.031 C 
ATOM     42  C   UNL A   1      46.311  24.018  26.299  1.00  0.00     0.029 A 
ATOM     43  N   UNL A   1      46.034  26.096  27.069  1.00  0.00    -0.354 N 
ATOM     44  C   UNL A   1      42.195  27.501  28.437  1.00  0.00     0.074 A 
ATOM     45  C   UNL A   1      41.240  26.412  28.488  1.00  0.00     0.031 C 
ATOM     46  C   UNL A   1      47.502  24.631  26.235  1.00  0.00     0.029 A 
ATOM     47  C   UNL A   1      47.353  26.011  26.682  1.00  0.00     0.049 A 
ATOM     48  H   UNL A   1      45.636  26.913  27.448  1.00  0.00     0.167 HD
ATOM     49  C   UNL A   1      41.929  28.777  28.817  1.00  0.00     0.034 A 
ATOM     50  C   UNL A   1      48.328  26.941  26.648  1.00  0.00     0.034 A 
ATOM     51  C   UNL A   1      42.907  29.843  28.816  1.00  0.00     0.049 A 
ATOM     52  C   UNL A   1      48.018  28.345  27.089  1.00  0.00     0.074 A 
ATOM     53  C   UNL A   1      42.750  31.157  29.222  1.00  0.00     0.029 A 
ATOM     54  N   UNL A   1      44.226  29.716  28.399  1.00  0.00    -0.354 N 
ATOM     55  N   UNL A   1      46.881  28.846  27.511  1.00  0.00    -0.248 NA
ATOM     56  C   UNL A   1      49.123  29.311  27.037  1.00  0.00     0.031 C 
ATOM     57  C   UNL A   1      43.952  31.839  28.990  1.00  0.00     0.029 A 
ATOM     58  C   UNL A   1      44.884  30.935  28.508  1.00  0.00     0.049 A 
ATOM     59  H   UNL A   1      44.635  28.883  28.073  1.00  0.00     0.167 HD
ATOM     60  C   UNL A   1      47.131  30.190  27.768  1.00  0.00     0.074 A 
ATOM     61  C   UNL A   1      48.538  30.410  27.492  1.00  0.00     0.031 C 
ATOM     62  C   UNL A   1      46.275  31.157  28.184  1.00  0.00     0.034 A 
BRANCH  49  63
ATOM     63  C   UNL A   1      40.499  29.102  29.197  1.00  0.00     0.023 A 
ATOM     64  C   UNL A   1      40.051  29.091  30.530  1.00  0.00     0.031 A 
ATOM     65  C   UNL A   1      39.553  29.372  28.191  1.00  0.00     0.131 A 
ATOM     66  C   UNL A   1      38.684  29.250  30.810  1.00  0.00     0.055 A 
ATOM     67  C   UNL A   1      38.209  29.617  28.484  1.00  0.00     0.041 A 
ATOM     68  F   UNL A   1      39.912  29.377  26.897  1.00  0.00    -0.206 F 
ATOM     69  C   UNL A   1      37.764  29.537  29.800  1.00  0.00     0.022 A 
BRANCH  66  70
ATOM     70  S   UNL A   1      38.096  28.897  32.492  1.00  0.00     0.124 S 
ATOM     71  O   UNL A   1      38.955  29.766  33.294  1.00  0.00    -0.237 OA
ATOM     72  O   UNL A   1      36.690  29.275  32.419  1.00  0.00    -0.237 OA
ATOM     73  O   UNL A   1      38.352  27.467  32.650  1.00  0.00    -0.744 OA
ENDBRANCH  66  70
ENDBRANCH  49  63
BRANCH  50  74
ATOM     74  C   UNL A   1      49.674  26.588  26.110  1.00  0.00     0.023 A 
ATOM     75  C   UNL A   1      50.089  27.009  24.837  1.00  0.00     0.031 A 
ATOM     76  C   UNL A   1      50.563  25.809  26.872  1.00  0.00     0.131 A 
ATOM     77  C   UNL A   1      51.354  26.632  24.357  1.00  0.00     0.055 A 
ATOM     78  C   UNL A   1      51.837  25.477  26.411  1.00  0.00     0.041 A 
ATOM     79  F   UNL A   1      50.214  25.384  28.097  1.00  0.00    -0.206 F 
ATOM     80  C   UNL A   1      52.236  25.884  25.142  1.00  0.00     0.022 A 
BRANCH  77  81
ATOM     81  S   UNL A   1      51.824  27.103  22.669  1.00  0.00     0.124 S 
ATOM     82  O   UNL A   1      52.828  26.094  22.347  1.00  0.00    -0.237 OA
ATOM     83  O   UNL A   1      50.555  26.995  21.957  1.00  0.00    -0.237 OA
ATOM     84  O   UNL A   1      52.333  28.464  22.825  1.00  0.00    -0.744 OA
ENDBRANCH  77  81
ENDBRANCH  50  74
BRANCH  62  85
ATOM     85  C   UNL A   1      46.854  32.541  28.362  1.00  0.00     0.023 A 
ATOM     86  C   UNL A   1      46.918  33.451  27.291  1.00  0.00     0.031 A 
ATOM     87  C   UNL A   1      47.397  32.936  29.596  1.00  0.00     0.131 A 
ATOM     88  C   UNL A   1      47.573  34.682  27.454  1.00  0.00     0.055 A 
ATOM     89  C   UNL A   1      47.994  34.186  29.770  1.00  0.00     0.041 A 
ATOM     90  F   UNL A   1      47.370  32.107  30.652  1.00  0.00    -0.206 F 
ATOM     91  C   UNL A   1      48.101  35.060  28.691  1.00  0.00     0.022 A 
BRANCH  88  92
ATOM     92  S   UNL A   1      47.837  35.730  25.996  1.00  0.00     0.124 S 
ATOM     93  O   UNL A   1      48.228  34.753  24.985  1.00  0.00    -0.237 OA
ATOM     94  O   UNL A   1      46.527  36.346  25.814  1.00  0.00    -0.237 OA
ATOM     95  O   UNL A   1      48.898  36.643  26.417  1.00  0.00    -0.744 OA
ENDBRANCH  88  92
ENDBRANCH  62  85
ENDBRANCH  36  37
ENDBRANCH  29  31
ENDBRANCH  28  29
ENDBRANCH  27  28
ENDBRANCH   1  27
TORSDOF 19
ENDMDL
MODEL 2
REMARK VINA RESULT:     -11.3      2.619      3.703
REMARK SMILES CC[C@@](C)([NH3+])C(=O)Nc1cc(C(=O)OCCOC(=O)c2ccc(-c3c4nc(c(-c5cc(S(=O)(=O)[O-])ccc5F)c5ccc([nH]5)c(-c5cc(S(=O)(=O)[O-])ccc5F)c5nc(c(-c6cc(S(=O)(=O)[O-])ccc6F)c6ccc3[nH]6)C=C5)C=C4)cc2)cc(C(F)(F)F)c1
REMARK SMILES IDX 15 1 14 2 12 3 13 4 11 5 9 6 10 7 89 8 84 9 83 10 8 11 6 12
REMARK SMILES IDX 7 13 3 15 4 16 2 17 1 18 5 19 85 23 86 24 87 25 88 26 16 27
REMARK SMILES IDX 17 28 18 29 19 30 20 31 21 32 82 33 22 34 81 35 23 36 24 37
REMARK SMILES IDX 25 38 75 39 26 40 80 41 74 42 76 43 27 44 79 45 73 46 72 47
REMARK SMILES IDX 28 49 60 50 40 51 59 52 41 53 44 54 58 55 77 56 42 57 43 58
REMARK SMILES IDX 57 60 78 61 45 62 29 63 30 64 38 65 31 66 37 67 39 68 36 69
REMARK SMILES IDX 32 70 33 71 34 72 35 73 61 74 62 75 70 76 63 77 69 78 71 79
REMARK SMILES IDX 68 80 64 81 65 82 66 83 67 84 46 85 47 86 55 87 48 88 54 89
REMARK SMILES IDX 56 90 53 91 49 92 50 93 51 94 52 95
REMARK H PARENT 8 14 5 20 5 21 5 22 76 48 44 59
REMARK Flexibility Score: inf
ROOT
ATOM      1  C   UNL A   1      36.745  22.298  23.576  1.00  0.00     0.275 C 
ENDROOT
BRANCH   1   2
ATOM      2  O   UNL A   1      35.955  23.293  24.258  1.00  0.00    -0.458 OA
BRANCH   2   3
ATOM      3  C   UNL A   1      34.879  23.766  23.583  1.00  0.00     0.338 C 
ATOM      4  O   UNL A   1      34.669  23.677  22.385  1.00  0.00    -0.246 OA
BRANCH   3   5
ATOM      5  C   UNL A   1      33.879  24.285  24.545  1.00  0.00     0.062 A 
ATOM      6  C   UNL A   1      32.970  26.211  25.697  1.00  0.00     0.042 A 
ATOM      7  C   UNL A   1      33.942  25.640  24.886  1.00  0.00     0.041 A 
ATOM      8  C   UNL A   1      31.943  25.419  26.207  1.00  0.00     0.039 A 
ATOM      9  C   UNL A   1      31.905  24.039  25.938  1.00  0.00     0.058 A 
ATOM     10  C   UNL A   1      32.872  23.481  25.082  1.00  0.00     0.029 A 
BRANCH   6  11
ATOM     11  N   UNL A   1      32.988  27.595  25.860  1.00  0.00    -0.321 N 
ATOM     12  C   UNL A   1      32.692  28.607  24.987  1.00  0.00     0.285 C 
ATOM     13  O   UNL A   1      33.168  29.716  25.250  1.00  0.00    -0.267 OA
ATOM     14  H   UNL A   1      33.260  27.897  26.757  1.00  0.00     0.170 HD
BRANCH  12  15
ATOM     15  C   UNL A   1      31.686  28.392  23.802  1.00  0.00     0.171 C 
ATOM     16  C   UNL A   1      32.315  27.558  22.673  1.00  0.00     0.090 C 
BRANCH  15  17
ATOM     17  C   UNL A   1      30.409  27.680  24.337  1.00  0.00     0.075 C 
ATOM     18  C   UNL A   1      29.946  26.474  23.519  1.00  0.00     0.011 C 
ENDBRANCH  15  17
BRANCH  15  19
ATOM     19  N   UNL A   1      31.245  29.705  23.261  1.00  0.00    -0.345 N 
ATOM     20  H   UNL A   1      31.895  30.009  22.537  1.00  0.00     0.345 HD
ATOM     21  H   UNL A   1      31.227  30.393  24.014  1.00  0.00     0.345 HD
ATOM     22  H   UNL A   1      30.311  29.612  22.863  1.00  0.00     0.345 HD
ENDBRANCH  15  19
ENDBRANCH  12  15
ENDBRANCH   6  11
BRANCH   9  23
ATOM     23  C   UNL A   1      30.845  23.157  26.546  1.00  0.00     0.416 C 
ATOM     24  F   UNL A   1      30.484  22.128  25.735  1.00  0.00    -0.166 F 
ATOM     25  F   UNL A   1      31.275  22.581  27.706  1.00  0.00    -0.166 F 
ATOM     26  F   UNL A   1      29.697  23.811  26.868  1.00  0.00    -0.166 F 
ENDBRANCH   9  23
ENDBRANCH   3   5
ENDBRANCH   2   3
ENDBRANCH   1   2
BRANCH   1  27
ATOM     27  C   UNL A   1      36.992  21.111  24.507  1.00  0.00     0.275 C 
BRANCH  27  28
ATOM     28  O   UNL A   1      37.509  21.601  25.757  1.00  0.00    -0.458 OA
BRANCH  28  29
ATOM     29  C   UNL A   1      38.801  21.302  26.034  1.00  0.00     0.338 C 
ATOM     30  O   UNL A   1      39.361  20.232  25.876  1.00  0.00    -0.246 OA
BRANCH  29  31
ATOM     31  C   UNL A   1      39.469  22.518  26.537  1.00  0.00     0.060 A 
ATOM     32  C   UNL A   1      39.011  23.758  26.106  1.00  0.00     0.016 A 
ATOM     33  C   UNL A   1      40.592  22.442  27.355  1.00  0.00     0.016 A 
ATOM     34  C   UNL A   1      39.714  24.920  26.411  1.00  0.00     0.010 A 
ATOM     35  C   UNL A   1      41.237  23.623  27.754  1.00  0.00     0.010 A 
ATOM     36  C   UNL A   1      40.831  24.878  27.257  1.00  0.00    -0.014 A 
BRANCH  36  37
ATOM     37  C   UNL A   1      41.576  26.136  27.576  1.00  0.00     0.031 A 
ATOM     38  C   UNL A   1      40.947  27.202  28.440  1.00  0.00     0.074 A 
ATOM     39  C   UNL A   1      42.833  26.322  27.119  1.00  0.00     0.049 A 
ATOM     40  N   UNL A   1      41.382  28.405  28.727  1.00  0.00    -0.248 NA
ATOM     41  C   UNL A   1      39.643  26.882  29.034  1.00  0.00     0.031 C 
ATOM     42  C   UNL A   1      43.578  25.380  26.281  1.00  0.00     0.029 A 
ATOM     43  N   UNL A   1      43.715  27.359  27.308  1.00  0.00    -0.354 N 
ATOM     44  C   UNL A   1      40.378  29.006  29.483  1.00  0.00     0.074 A 
ATOM     45  C   UNL A   1      39.305  28.037  29.586  1.00  0.00     0.031 C 
ATOM     46  C   UNL A   1      44.814  25.856  26.073  1.00  0.00     0.029 A 
ATOM     47  C   UNL A   1      44.928  27.174  26.684  1.00  0.00     0.049 A 
ATOM     48  H   UNL A   1      43.499  28.160  27.838  1.00  0.00     0.167 HD
ATOM     49  C   UNL A   1      40.352  30.245  30.040  1.00  0.00     0.034 A 
ATOM     50  C   UNL A   1      46.002  27.983  26.577  1.00  0.00     0.034 A 
ATOM     51  C   UNL A   1      41.452  31.182  29.978  1.00  0.00     0.049 A 
ATOM     52  C   UNL A   1      45.961  29.344  27.215  1.00  0.00     0.074 A 
ATOM     53  C   UNL A   1      41.543  32.443  30.545  1.00  0.00     0.029 A 
ATOM     54  N   UNL A   1      42.656  30.960  29.321  1.00  0.00    -0.354 N 
ATOM     55  N   UNL A   1      44.987  29.913  27.885  1.00  0.00    -0.248 NA
ATOM     56  C   UNL A   1      47.163  30.175  27.070  1.00  0.00     0.031 C 
ATOM     57  C   UNL A   1      42.772  33.006  30.176  1.00  0.00     0.029 A 
ATOM     58  C   UNL A   1      43.481  32.071  29.441  1.00  0.00     0.049 A 
ATOM     59  H   UNL A   1      42.889  30.134  28.839  1.00  0.00     0.167 HD
ATOM     60  C   UNL A   1      45.455  31.176  28.235  1.00  0.00     0.074 A 
ATOM     61  C   UNL A   1      46.815  31.266  27.738  1.00  0.00     0.031 C 
ATOM     62  C   UNL A   1      44.817  32.172  28.900  1.00  0.00     0.034 A 
BRANCH  49  63
ATOM     63  C   UNL A   1      39.061  30.680  30.701  1.00  0.00     0.023 A 
ATOM     64  C   UNL A   1      38.068  31.402  30.015  1.00  0.00     0.031 A 
ATOM     65  C   UNL A   1      38.851  30.412  32.067  1.00  0.00     0.131 A 
ATOM     66  C   UNL A   1      36.962  31.911  30.716  1.00  0.00     0.055 A 
ATOM     67  C   UNL A   1      37.704  30.845  32.737  1.00  0.00     0.041 A 
ATOM     68  F   UNL A   1      39.769  29.745  32.783  1.00  0.00    -0.206 F 
ATOM     69  C   UNL A   1      36.761  31.616  32.067  1.00  0.00     0.022 A 
BRANCH  66  70
ATOM     70  S   UNL A   1      35.884  33.111  29.884  1.00  0.00     0.124 S 
ATOM     71  O   UNL A   1      34.673  32.321  29.668  1.00  0.00    -0.237 OA
ATOM     72  O   UNL A   1      35.785  34.181  30.869  1.00  0.00    -0.237 OA
ATOM     73  O   UNL A   1      36.621  33.448  28.668  1.00  0.00    -0.744 OA
ENDBRANCH  66  70
ENDBRANCH  49  63
BRANCH  50  74
ATOM     74  C   UNL A   1      47.181  27.550  25.772  1.00  0.00     0.023 A 
ATOM     75  C   UNL A   1      47.276  27.831  24.401  1.00  0.00     0.031 A 
ATOM     76  C   UNL A   1      48.232  26.835  26.377  1.00  0.00     0.131 A 
ATOM     77  C   UNL A   1      48.391  27.382  23.673  1.00  0.00     0.055 A 
ATOM     78  C   UNL A   1      49.359  26.433  25.661  1.00  0.00     0.041 A 
ATOM     79  F   UNL A   1      48.189  26.545  27.687  1.00  0.00    -0.206 F 
ATOM     80  C   UNL A   1      49.440  26.700  24.298  1.00  0.00     0.022 A 
BRANCH  77  81
ATOM     81  S   UNL A   1      48.440  27.668  21.883  1.00  0.00     0.124 S 
ATOM     82  O   UNL A   1      47.122  28.243  21.636  1.00  0.00    -0.237 OA
ATOM     83  O   UNL A   1      49.572  28.579  21.750  1.00  0.00    -0.237 OA
ATOM     84  O   UNL A   1      48.652  26.332  21.330  1.00  0.00    -0.744 OA
ENDBRANCH  77  81
ENDBRANCH  50  74
BRANCH  62  85
ATOM     85  C   UNL A   1      45.600  33.446  29.118  1.00  0.00     0.023 A 
ATOM     86  C   UNL A   1      45.713  34.419  28.108  1.00  0.00     0.031 A 
ATOM     87  C   UNL A   1      46.284  33.666  30.326  1.00  0.00     0.131 A 
ATOM     88  C   UNL A   1      46.547  35.531  28.297  1.00  0.00     0.055 A 
ATOM     89  C   UNL A   1      47.065  34.805  30.531  1.00  0.00     0.041 A 
ATOM     90  F   UNL A   1      46.217  32.771  31.323  1.00  0.00    -0.206 F 
ATOM     91  C   UNL A   1      47.214  35.737  29.507  1.00  0.00     0.022 A 
BRANCH  88  92
ATOM     92  S   UNL A   1      46.849  36.643  26.894  1.00  0.00     0.124 S 
ATOM     93  O   UNL A   1      46.000  37.784  27.220  1.00  0.00    -0.237 OA
ATOM     94  O   UNL A   1      48.287  36.872  26.981  1.00  0.00    -0.237 OA
ATOM     95  O   UNL A   1      46.415  35.861  25.737  1.00  0.00    -0.744 OA
ENDBRANCH  88  92
ENDBRANCH  62  85
ENDBRANCH  36  37
ENDBRANCH  29  31
ENDBRANCH  28  29
ENDBRANCH  27  28
ENDBRANCH   1  27
TORSDOF 19
ENDMDL
MODEL 3
REMARK VINA RESULT:     -11.3      2.931      4.134
REMARK SMILES CC[C@@](C)([NH3+])C(=O)Nc1cc(C(=O)OCCOC(=O)c2ccc(-c3c4nc(c(-c5cc(S(=O)(=O)[O-])ccc5F)c5ccc([nH]5)c(-c5cc(S(=O)(=O)[O-])ccc5F)c5nc(c(-c6cc(S(=O)(=O)[O-])ccc6F)c6ccc3[nH]6)C=C5)C=C4)cc2)cc(C(F)(F)F)c1
REMARK SMILES IDX 15 1 14 2 12 3 13 4 11 5 9 6 10 7 89 8 84 9 83 10 8 11 6 12
REMARK SMILES IDX 7 13 3 15 4 16 2 17 1 18 5 19 85 23 86 24 87 25 88 26 16 27
REMARK SMILES IDX 17 28 18 29 19 30 20 31 21 32 82 33 22 34 81 35 23 36 24 37
REMARK SMILES IDX 25 38 75 39 26 40 80 41 74 42 76 43 27 44 79 45 73 46 72 47
REMARK SMILES IDX 28 49 60 50 40 51 59 52 41 53 44 54 58 55 77 56 42 57 43 58
REMARK SMILES IDX 57 60 78 61 45 62 29 63 30 64 38 65 31 66 37 67 39 68 36 69
REMARK SMILES IDX 32 70 33 71 34 72 35 73 61 74 62 75 70 76 63 77 69 78 71 79
REMARK SMILES IDX 68 80 64 81 65 82 66 83 67 84 46 85 47 86 55 87 48 88 54 89
REMARK SMILES IDX 56 90 53 91 49 92 50 93 51 94 52 95
REMARK H PARENT 8 14 5 20 5 21 5 22 76 48 44 59
REMARK Flexibility Score: inf
ROOT
ATOM      1  C   UNL A   1      34.569  21.297  25.702  1.00  0.00     0.275 C 
ENDROOT
BRANCH   1   2
ATOM      2  O   UNL A   1      33.606  22.331  25.992  1.00  0.00    -0.458 OA
BRANCH   2   3
ATOM      3  C   UNL A   1      32.452  22.286  25.285  1.00  0.00     0.338 C 
ATOM      4  O   UNL A   1      31.689  21.340  25.185  1.00  0.00    -0.246 OA
BRANCH   3   5
ATOM      5  C   UNL A   1      32.142  23.636  24.757  1.00  0.00     0.062 A 
ATOM      6  C   UNL A   1      31.350  25.875  25.230  1.00  0.00     0.042 A 
ATOM      7  C   UNL A   1      31.566  24.563  25.632  1.00  0.00     0.041 A 
ATOM      8  C   UNL A   1      31.676  26.263  23.932  1.00  0.00     0.039 A 
ATOM      9  C   UNL A   1      32.185  25.326  23.014  1.00  0.00     0.058 A 
ATOM     10  C   UNL A   1      32.438  24.011  23.445  1.00  0.00     0.029 A 
BRANCH   6  11
ATOM     11  N   UNL A   1      30.935  26.792  26.195  1.00  0.00    -0.321 N 
ATOM     12  C   UNL A   1      31.652  27.640  26.996  1.00  0.00     0.285 C 
ATOM     13  O   UNL A   1      31.087  28.039  28.019  1.00  0.00    -0.267 OA
ATOM     14  H   UNL A   1      29.960  26.838  26.322  1.00  0.00     0.170 HD
BRANCH  12  15
ATOM     15  C   UNL A   1      33.057  28.182  26.555  1.00  0.00     0.171 C 
ATOM     16  C   UNL A   1      34.000  27.038  26.144  1.00  0.00     0.090 C 
BRANCH  15  17
ATOM     17  C   UNL A   1      32.875  29.171  25.365  1.00  0.00     0.075 C 
ATOM     18  C   UNL A   1      31.597  30.010  25.407  1.00  0.00     0.011 C 
ENDBRANCH  15  17
BRANCH  15  19
ATOM     19  N   UNL A   1      33.675  28.959  27.662  1.00  0.00    -0.345 N 
ATOM     20  H   UNL A   1      34.144  28.321  28.305  1.00  0.00     0.345 HD
ATOM     21  H   UNL A   1      32.950  29.474  28.161  1.00  0.00     0.345 HD
ATOM     22  H   UNL A   1      34.355  29.616  27.278  1.00  0.00     0.345 HD
ENDBRANCH  15  19
ENDBRANCH  12  15
ENDBRANCH   6  11
BRANCH   9  23
ATOM     23  C   UNL A   1      32.469  25.714  21.586  1.00  0.00     0.416 C 
ATOM     24  F   UNL A   1      33.242  26.828  21.485  1.00  0.00    -0.166 F 
ATOM     25  F   UNL A   1      33.147  24.732  20.923  1.00  0.00    -0.166 F 
ATOM     26  F   UNL A   1      31.355  25.953  20.844  1.00  0.00    -0.166 F 
ENDBRANCH   9  23
ENDBRANCH   3   5
ENDBRANCH   2   3
ENDBRANCH   1   2
BRANCH   1  27
ATOM     27  C   UNL A   1      35.938  21.701  26.251  1.00  0.00     0.275 C 
BRANCH  27  28
ATOM     28  O   UNL A   1      36.917  21.563  25.206  1.00  0.00    -0.458 OA
BRANCH  28  29
ATOM     29  C   UNL A   1      38.157  21.176  25.589  1.00  0.00     0.338 C 
ATOM     30  O   UNL A   1      38.652  20.069  25.478  1.00  0.00    -0.246 OA
BRANCH  29  31
ATOM     31  C   UNL A   1      38.866  22.345  26.146  1.00  0.00     0.060 A 
ATOM     32  C   UNL A   1      38.424  23.618  25.803  1.00  0.00     0.016 A 
ATOM     33  C   UNL A   1      40.007  22.196  26.927  1.00  0.00     0.016 A 
ATOM     34  C   UNL A   1      39.160  24.745  26.158  1.00  0.00     0.010 A 
ATOM     35  C   UNL A   1      40.689  23.337  27.378  1.00  0.00     0.010 A 
ATOM     36  C   UNL A   1      40.298  24.628  26.970  1.00  0.00    -0.014 A 
BRANCH  36  37
ATOM     37  C   UNL A   1      41.078  25.849  27.343  1.00  0.00     0.031 A 
ATOM     38  C   UNL A   1      40.491  26.880  28.276  1.00  0.00     0.074 A 
ATOM     39  C   UNL A   1      42.332  26.030  26.874  1.00  0.00     0.049 A 
ATOM     40  N   UNL A   1      40.960  28.054  28.620  1.00  0.00    -0.248 NA
ATOM     41  C   UNL A   1      39.190  26.558  28.876  1.00  0.00     0.031 C 
ATOM     42  C   UNL A   1      43.039  25.119  25.971  1.00  0.00     0.029 A 
ATOM     43  N   UNL A   1      43.242  27.035  27.102  1.00  0.00    -0.354 N 
ATOM     44  C   UNL A   1      39.985  28.636  29.427  1.00  0.00     0.074 A 
ATOM     45  C   UNL A   1      38.891  27.688  29.497  1.00  0.00     0.031 C 
ATOM     46  C   UNL A   1      44.283  25.576  25.766  1.00  0.00     0.029 A 
ATOM     47  C   UNL A   1      44.440  26.856  26.447  1.00  0.00     0.049 A 
ATOM     48  H   UNL A   1      43.055  27.810  27.679  1.00  0.00     0.167 HD
ATOM     49  C   UNL A   1      39.999  29.843  30.051  1.00  0.00     0.034 A 
ATOM     50  C   UNL A   1      45.531  27.644  26.364  1.00  0.00     0.034 A 
ATOM     51  C   UNL A   1      41.120  30.756  30.021  1.00  0.00     0.049 A 
ATOM     52  C   UNL A   1      45.534  28.968  27.076  1.00  0.00     0.074 A 
ATOM     53  C   UNL A   1      41.252  31.980  30.654  1.00  0.00     0.029 A 
ATOM     54  N   UNL A   1      42.307  30.542  29.330  1.00  0.00    -0.354 N 
ATOM     55  N   UNL A   1      44.586  29.522  27.795  1.00  0.00    -0.248 NA
ATOM     56  C   UNL A   1      46.753  29.777  26.955  1.00  0.00     0.031 C 
ATOM     57  C   UNL A   1      42.487  32.534  30.294  1.00  0.00     0.029 A 
ATOM     58  C   UNL A   1      43.161  31.625  29.495  1.00  0.00     0.049 A 
ATOM     59  H   UNL A   1      42.512  29.739  28.799  1.00  0.00     0.167 HD
ATOM     60  C   UNL A   1      45.091  30.752  28.205  1.00  0.00     0.074 A 
ATOM     61  C   UNL A   1      46.443  30.837  27.688  1.00  0.00     0.031 C 
ATOM     62  C   UNL A   1      44.490  31.725  28.935  1.00  0.00     0.034 A 
BRANCH  49  63
ATOM     63  C   UNL A   1      38.731  30.270  30.760  1.00  0.00     0.023 A 
ATOM     64  C   UNL A   1      37.646  30.851  30.079  1.00  0.00     0.031 A 
ATOM     65  C   UNL A   1      38.635  30.144  32.158  1.00  0.00     0.131 A 
ATOM     66  C   UNL A   1      36.560  31.367  30.805  1.00  0.00     0.055 A 
ATOM     67  C   UNL A   1      37.511  30.579  32.865  1.00  0.00     0.041 A 
ATOM     68  F   UNL A   1      39.644  29.616  32.869  1.00  0.00    -0.206 F 
ATOM     69  C   UNL A   1      36.473  31.213  32.190  1.00  0.00     0.022 A 
BRANCH  66  70
ATOM     70  S   UNL A   1      35.347  32.401  29.935  1.00  0.00     0.124 S 
ATOM     71  O   UNL A   1      34.943  31.524  28.838  1.00  0.00    -0.237 OA
ATOM     72  O   UNL A   1      34.344  32.645  30.965  1.00  0.00    -0.237 OA
ATOM     73  O   UNL A   1      36.123  33.572  29.530  1.00  0.00    -0.744 OA
ENDBRANCH  66  70
ENDBRANCH  49  63
BRANCH  50  74
ATOM     74  C   UNL A   1      46.684  27.228  25.515  1.00  0.00     0.023 A 
ATOM     75  C   UNL A   1      46.855  27.728  24.214  1.00  0.00     0.031 A 
ATOM     76  C   UNL A   1      47.633  26.310  26.002  1.00  0.00     0.131 A 
ATOM     77  C   UNL A   1      47.941  27.291  23.437  1.00  0.00     0.055 A 
ATOM     78  C   UNL A   1      48.735  25.916  25.244  1.00  0.00     0.041 A 
ATOM     79  F   UNL A   1      47.515  25.806  27.240  1.00  0.00    -0.206 F 
ATOM     80  C   UNL A   1      48.890  26.402  23.950  1.00  0.00     0.022 A 
BRANCH  77  81
ATOM     81  S   UNL A   1      48.081  27.872  21.725  1.00  0.00     0.124 S 
ATOM     82  O   UNL A   1      49.213  28.789  21.812  1.00  0.00    -0.237 OA
ATOM     83  O   UNL A   1      48.318  26.629  20.999  1.00  0.00    -0.237 OA
ATOM     84  O   UNL A   1      46.786  28.501  21.472  1.00  0.00    -0.744 OA
ENDBRANCH  77  81
ENDBRANCH  50  74
BRANCH  62  85
ATOM     85  C   UNL A   1      45.307  32.966  29.209  1.00  0.00     0.023 A 
ATOM     86  C   UNL A   1      45.277  34.069  28.337  1.00  0.00     0.031 A 
ATOM     87  C   UNL A   1      46.164  33.026  30.321  1.00  0.00     0.131 A 
ATOM     88  C   UNL A   1      46.139  35.156  28.551  1.00  0.00     0.055 A 
ATOM     89  C   UNL A   1      46.976  34.135  30.562  1.00  0.00     0.041 A 
ATOM     90  F   UNL A   1      46.238  32.001  31.184  1.00  0.00    -0.206 F 
ATOM     91  C   UNL A   1      46.980  35.201  29.666  1.00  0.00     0.022 A 
BRANCH  88  92
ATOM     92  S   UNL A   1      46.238  36.453  27.286  1.00  0.00     0.124 S 
ATOM     93  O   UNL A   1      46.591  35.690  26.093  1.00  0.00    -0.237 OA
ATOM     94  O   UNL A   1      44.892  37.014  27.308  1.00  0.00    -0.237 OA
ATOM     95  O   UNL A   1      47.288  37.340  27.785  1.00  0.00    -0.744 OA
ENDBRANCH  88  92
ENDBRANCH  62  85
ENDBRANCH  36  37
ENDBRANCH  29  31
ENDBRANCH  28  29
ENDBRANCH  27  28
ENDBRANCH   1  27
TORSDOF 19
ENDMDL
