MODEL 1
REMARK VINA RESULT:     -10.7      0.000      0.000
REMARK SMILES O=C(OCCOC(=O)c1ccc(CNC(=O)c2ccc(F)cc2Br)o1)c1ccc(-c2c3nc(c(-c4cc(S(=O)(=O)[O-])ccc4F)c4ccc([nH]4)c(-c4cc(S(=O)(=O)[O-])ccc4F)c4nc(c(-c5cc(S(=O)(=O)[O-])ccc5F)c5ccc2[nH]5)C=C4)C=C3)cc1
REMARK SMILES IDX 4 1 3 2 2 3 1 4 26 5 27 6 88 7 28 8 87 9 29 10 30 11 31 12
REMARK SMILES IDX 81 13 32 14 86 15 80 16 82 17 33 18 85 19 79 20 78 21 34 23
REMARK SMILES IDX 66 24 46 25 65 26 47 27 50 28 64 29 83 30 48 31 49 32 63 34
REMARK SMILES IDX 84 35 51 36 35 37 36 38 44 39 37 40 43 41 45 42 42 43 38 44
REMARK SMILES IDX 39 45 40 46 41 47 67 48 68 49 76 50 69 51 75 52 77 53 74 54
REMARK SMILES IDX 70 55 71 56 72 57 73 58 52 59 53 60 61 61 54 62 60 63 62 64
REMARK SMILES IDX 59 65 55 66 56 67 57 68 58 69 5 70 6 71 7 72 8 73 9 74 10 75
REMARK SMILES IDX 25 76 11 77 12 78 13 79 14 80 15 81 16 83 17 84 18 85 23 86
REMARK SMILES IDX 19 87 22 88 24 89 20 90 21 91
REMARK H PARENT 82 22 50 33 14 82
REMARK Flexibility Score: inf
ROOT
ATOM      1  C   UNL A   1      40.700  20.646  26.918  1.00  0.00     0.275 C 
ENDROOT
BRANCH   1   2
ATOM      2  O   UNL A   1      40.358  21.802  26.133  1.00  0.00    -0.458 OA
BRANCH   2   3
ATOM      3  C   UNL A   1      39.349  22.683  26.343  1.00  0.00     0.338 C 
ATOM      4  O   UNL A   1      38.198  22.381  26.038  1.00  0.00    -0.246 OA
BRANCH   3   5
ATOM      5  C   UNL A   1      39.618  24.092  26.744  1.00  0.00     0.060 A 
ATOM      6  C   UNL A   1      40.183  25.062  25.914  1.00  0.00     0.016 A 
ATOM      7  C   UNL A   1      39.412  24.405  28.098  1.00  0.00     0.016 A 
ATOM      8  C   UNL A   1      40.464  26.344  26.403  1.00  0.00     0.010 A 
ATOM      9  C   UNL A   1      39.717  25.677  28.595  1.00  0.00     0.010 A 
ATOM     10  C   UNL A   1      40.241  26.659  27.748  1.00  0.00    -0.014 A 
BRANCH  10  11
ATOM     11  C   UNL A   1      40.670  27.970  28.288  1.00  0.00     0.031 A 
ATOM     12  C   UNL A   1      42.134  28.282  28.388  1.00  0.00     0.074 A 
ATOM     13  C   UNL A   1      39.759  28.877  28.688  1.00  0.00     0.049 A 
ATOM     14  N   UNL A   1      42.719  29.385  28.775  1.00  0.00    -0.248 NA
ATOM     15  C   UNL A   1      43.057  27.207  27.998  1.00  0.00     0.031 C 
ATOM     16  C   UNL A   1      38.310  28.692  28.639  1.00  0.00     0.029 A 
ATOM     17  N   UNL A   1      39.918  30.128  29.225  1.00  0.00    -0.354 N 
ATOM     18  C   UNL A   1      44.083  29.158  28.624  1.00  0.00     0.074 A 
ATOM     19  C   UNL A   1      44.233  27.783  28.194  1.00  0.00     0.031 C 
ATOM     20  C   UNL A   1      37.712  29.774  29.167  1.00  0.00     0.029 A 
ATOM     21  C   UNL A   1      38.735  30.732  29.577  1.00  0.00     0.049 A 
ATOM     22  H   UNL A   1      40.797  30.554  29.347  1.00  0.00     0.167 HD
ATOM     23  C   UNL A   1      45.112  30.025  28.791  1.00  0.00     0.034 A 
ATOM     24  C   UNL A   1      38.505  31.923  30.165  1.00  0.00     0.034 A 
ATOM     25  C   UNL A   1      44.958  31.375  29.269  1.00  0.00     0.049 A 
ATOM     26  C   UNL A   1      39.667  32.836  30.448  1.00  0.00     0.074 A 
ATOM     27  C   UNL A   1      45.929  32.340  29.473  1.00  0.00     0.029 A 
ATOM     28  N   UNL A   1      43.748  31.946  29.642  1.00  0.00    -0.354 N 
ATOM     29  N   UNL A   1      40.947  32.632  30.235  1.00  0.00    -0.248 NA
ATOM     30  C   UNL A   1      39.353  34.151  31.023  1.00  0.00     0.031 C 
ATOM     31  C   UNL A   1      45.311  33.476  30.014  1.00  0.00     0.029 A 
ATOM     32  C   UNL A   1      43.949  33.237  30.103  1.00  0.00     0.049 A 
ATOM     33  H   UNL A   1      42.873  31.498  29.587  1.00  0.00     0.167 HD
ATOM     34  C   UNL A   1      41.587  33.808  30.615  1.00  0.00     0.074 A 
ATOM     35  C   UNL A   1      40.552  34.713  31.078  1.00  0.00     0.031 C 
ATOM     36  C   UNL A   1      42.907  34.118  30.570  1.00  0.00     0.034 A 
BRANCH  23  37
ATOM     37  C   UNL A   1      46.485  29.501  28.463  1.00  0.00     0.023 A 
ATOM     38  C   UNL A   1      47.320  28.988  29.472  1.00  0.00     0.031 A 
ATOM     39  C   UNL A   1      46.999  29.590  27.160  1.00  0.00     0.131 A 
ATOM     40  C   UNL A   1      48.652  28.664  29.180  1.00  0.00     0.055 A 
ATOM     41  C   UNL A   1      48.306  29.198  26.860  1.00  0.00     0.041 A 
ATOM     42  F   UNL A   1      46.252  30.091  26.164  1.00  0.00    -0.206 F 
ATOM     43  C   UNL A   1      49.146  28.750  27.877  1.00  0.00     0.022 A 
BRANCH  40  44
ATOM     44  S   UNL A   1      49.767  28.277  30.558  1.00  0.00     0.124 S 
ATOM     45  O   UNL A   1      48.829  27.796  31.571  1.00  0.00    -0.237 OA
ATOM     46  O   UNL A   1      50.649  27.272  29.977  1.00  0.00    -0.237 OA
ATOM     47  O   UNL A   1      50.395  29.561  30.860  1.00  0.00    -0.744 OA
ENDBRANCH  40  44
ENDBRANCH  23  37
BRANCH  24  48
ATOM     48  C   UNL A   1      37.120  32.312  30.541  1.00  0.00     0.023 A 
ATOM     49  C   UNL A   1      36.247  32.897  29.613  1.00  0.00     0.031 A 
ATOM     50  C   UNL A   1      36.663  32.123  31.857  1.00  0.00     0.131 A 
ATOM     51  C   UNL A   1      34.966  33.302  30.022  1.00  0.00     0.055 A 
ATOM     52  C   UNL A   1      35.380  32.503  32.253  1.00  0.00     0.041 A 
ATOM     53  F   UNL A   1      37.460  31.553  32.777  1.00  0.00    -0.206 F 
ATOM     54  C   UNL A   1      34.526  33.106  31.334  1.00  0.00     0.022 A 
BRANCH  51  55
ATOM     55  S   UNL A   1      33.894  34.137  28.821  1.00  0.00     0.124 S 
ATOM     56  O   UNL A   1      32.827  34.648  29.676  1.00  0.00    -0.237 OA
ATOM     57  O   UNL A   1      34.797  35.133  28.255  1.00  0.00    -0.237 OA
ATOM     58  O   UNL A   1      33.504  33.064  27.911  1.00  0.00    -0.744 OA
ENDBRANCH  51  55
ENDBRANCH  24  48
BRANCH  36  59
ATOM     59  C   UNL A   1      43.287  35.512  30.991  1.00  0.00     0.023 A 
ATOM     60  C   UNL A   1      43.459  36.543  30.051  1.00  0.00     0.031 A 
ATOM     61  C   UNL A   1      43.498  35.805  32.350  1.00  0.00     0.131 A 
ATOM     62  C   UNL A   1      43.876  37.812  30.480  1.00  0.00     0.055 A 
ATOM     63  C   UNL A   1      43.873  37.080  32.774  1.00  0.00     0.041 A 
ATOM     64  F   UNL A   1      43.348  34.852  33.284  1.00  0.00    -0.206 F 
ATOM     65  C   UNL A   1      44.073  38.090  31.836  1.00  0.00     0.022 A 
BRANCH  62  66
ATOM     66  S   UNL A   1      44.219  39.083  29.232  1.00  0.00     0.124 S 
ATOM     67  O   UNL A   1      44.466  38.278  28.041  1.00  0.00    -0.237 OA
ATOM     68  O   UNL A   1      42.984  39.862  29.232  1.00  0.00    -0.237 OA
ATOM     69  O   UNL A   1      45.389  39.780  29.766  1.00  0.00    -0.744 OA
ENDBRANCH  62  66
ENDBRANCH  36  59
ENDBRANCH  10  11
ENDBRANCH   3   5
ENDBRANCH   2   3
ENDBRANCH   1   2
BRANCH   1  70
ATOM     70  C   UNL A   1      40.899  19.382  26.085  1.00  0.00     0.275 C 
BRANCH  70  71
ATOM     71  O   UNL A   1      42.107  19.419  25.314  1.00  0.00    -0.456 OA
BRANCH  71  72
ATOM     72  C   UNL A   1      43.171  18.767  25.876  1.00  0.00     0.374 C 
ATOM     73  O   UNL A   1      43.081  17.851  26.684  1.00  0.00    -0.242 OA
BRANCH  72  74
ATOM     74  C   UNL A   1      44.393  19.285  25.319  1.00  0.00     0.211 A 
ATOM     75  C   UNL A   1      45.614  18.702  25.034  1.00  0.00     0.058 A 
ATOM     76  O   UNL A   1      44.458  20.626  25.053  1.00  0.00    -0.452 OA
ATOM     77  C   UNL A   1      46.471  19.743  24.597  1.00  0.00     0.048 A 
ATOM     78  C   UNL A   1      45.738  20.907  24.677  1.00  0.00     0.124 A 
BRANCH  78  79
ATOM     79  C   UNL A   1      46.094  22.341  24.560  1.00  0.00     0.191 C 
BRANCH  79  80
ATOM     80  N   UNL A   1      44.907  23.154  24.421  1.00  0.00    -0.345 N 
ATOM     81  C   UNL A   1      44.489  24.172  25.239  1.00  0.00     0.252 C 
ATOM     82  H   UNL A   1      44.331  22.952  23.650  1.00  0.00     0.164 HD
ATOM     83  O   UNL A   1      43.479  24.818  24.979  1.00  0.00    -0.269 OA
BRANCH  81  84
ATOM     84  C   UNL A   1      45.285  24.512  26.438  1.00  0.00     0.054 A 
ATOM     85  C   UNL A   1      46.420  25.324  26.281  1.00  0.00     0.018 A 
ATOM     86  C   UNL A   1      44.908  24.069  27.713  1.00  0.00     0.033 A 
ATOM     87  C   UNL A   1      47.185  25.671  27.395  1.00  0.00     0.040 A 
ATOM     88  C   UNL A   1      45.674  24.429  28.827  1.00  0.00     0.055 A 
ATOM     89  Br  UNL A   1      43.406  22.949  28.011  1.00  0.00    -0.050 Br
ATOM     90  C   UNL A   1      46.802  25.225  28.655  1.00  0.00     0.124 A 
ATOM     91  F   UNL A   1      47.528  25.573  29.725  1.00  0.00    -0.207 F 
ENDBRANCH  81  84
ENDBRANCH  79  80
ENDBRANCH  78  79
ENDBRANCH  72  74
ENDBRANCH  71  72
ENDBRANCH  70  71
ENDBRANCH   1  70
TORSDOF 17
ENDMDL
MODEL 2
REMARK VINA RESULT:     -10.5      2.155      2.586
REMARK SMILES O=C(OCCOC(=O)c1ccc(CNC(=O)c2ccc(F)cc2Br)o1)c1ccc(-c2c3nc(c(-c4cc(S(=O)(=O)[O-])ccc4F)c4ccc([nH]4)c(-c4cc(S(=O)(=O)[O-])ccc4F)c4nc(c(-c5cc(S(=O)(=O)[O-])ccc5F)c5ccc2[nH]5)C=C4)C=C3)cc1
REMARK SMILES IDX 4 1 3 2 2 3 1 4 26 5 27 6 88 7 28 8 87 9 29 10 30 11 31 12
REMARK SMILES IDX 81 13 32 14 86 15 80 16 82 17 33 18 85 19 79 20 78 21 34 23
REMARK SMILES IDX 66 24 46 25 65 26 47 27 50 28 64 29 83 30 48 31 49 32 63 34
REMARK SMILES IDX 84 35 51 36 35 37 36 38 44 39 37 40 43 41 45 42 42 43 38 44
REMARK SMILES IDX 39 45 40 46 41 47 67 48 68 49 76 50 69 51 75 52 77 53 74 54
REMARK SMILES IDX 70 55 71 56 72 57 73 58 52 59 53 60 61 61 54 62 60 63 62 64
REMARK SMILES IDX 59 65 55 66 56 67 57 68 58 69 5 70 6 71 7 72 8 73 9 74 10 75
REMARK SMILES IDX 25 76 11 77 12 78 13 79 14 80 15 81 16 83 17 84 18 85 23 86
REMARK SMILES IDX 19 87 22 88 24 89 20 90 21 91
REMARK H PARENT 82 22 50 33 14 82
REMARK Flexibility Score: inf
ROOT
ATOM      1  C   UNL A   1      40.009  20.598  26.052  1.00  0.00     0.275 C 
ENDROOT
BRANCH   1   2
ATOM      2  O   UNL A   1      39.756  21.800  26.800  1.00  0.00    -0.458 OA
BRANCH   2   3
ATOM      3  C   UNL A   1      39.027  22.879  26.421  1.00  0.00     0.338 C 
ATOM      4  O   UNL A   1      38.195  22.771  25.524  1.00  0.00    -0.246 OA
BRANCH   3   5
ATOM      5  C   UNL A   1      39.346  24.246  26.917  1.00  0.00     0.060 A 
ATOM      6  C   UNL A   1      40.056  25.209  26.196  1.00  0.00     0.016 A 
ATOM      7  C   UNL A   1      39.024  24.515  28.257  1.00  0.00     0.016 A 
ATOM      8  C   UNL A   1      40.370  26.446  26.775  1.00  0.00     0.010 A 
ATOM      9  C   UNL A   1      39.360  25.739  28.846  1.00  0.00     0.010 A 
ATOM     10  C   UNL A   1      40.031  26.717  28.105  1.00  0.00    -0.014 A 
BRANCH  10  11
ATOM     11  C   UNL A   1      40.488  27.970  28.750  1.00  0.00     0.031 A 
ATOM     12  C   UNL A   1      41.954  28.181  28.993  1.00  0.00     0.074 A 
ATOM     13  C   UNL A   1      39.602  28.913  29.118  1.00  0.00     0.049 A 
ATOM     14  N   UNL A   1      42.568  29.224  29.487  1.00  0.00    -0.248 NA
ATOM     15  C   UNL A   1      42.842  27.068  28.625  1.00  0.00     0.031 C 
ATOM     16  C   UNL A   1      38.155  28.825  28.935  1.00  0.00     0.029 A 
ATOM     17  N   UNL A   1      39.788  30.124  29.734  1.00  0.00    -0.354 N 
ATOM     18  C   UNL A   1      43.923  28.917  29.442  1.00  0.00     0.074 A 
ATOM     19  C   UNL A   1      44.028  27.557  28.953  1.00  0.00     0.031 C 
ATOM     20  C   UNL A   1      37.578  29.917  29.467  1.00  0.00     0.029 A 
ATOM     21  C   UNL A   1      38.616  30.785  30.015  1.00  0.00     0.049 A 
ATOM     22  H   UNL A   1      40.677  30.486  29.954  1.00  0.00     0.167 HD
ATOM     23  C   UNL A   1      44.984  29.706  29.744  1.00  0.00     0.034 A 
ATOM     24  C   UNL A   1      38.407  31.959  30.645  1.00  0.00     0.034 A 
ATOM     25  C   UNL A   1      44.870  31.038  30.279  1.00  0.00     0.049 A 
ATOM     26  C   UNL A   1      39.593  32.780  31.075  1.00  0.00     0.074 A 
ATOM     27  C   UNL A   1      45.875  31.928  30.618  1.00  0.00     0.029 A 
ATOM     28  N   UNL A   1      43.668  31.667  30.577  1.00  0.00    -0.354 N 
ATOM     29  N   UNL A   1      40.871  32.504  30.963  1.00  0.00    -0.248 NA
ATOM     30  C   UNL A   1      39.308  34.083  31.691  1.00  0.00     0.031 C 
ATOM     31  C   UNL A   1      45.281  33.074  31.164  1.00  0.00     0.029 A 
ATOM     32  C   UNL A   1      43.904  32.919  31.122  1.00  0.00     0.049 A 
ATOM     33  H   UNL A   1      42.776  31.280  30.422  1.00  0.00     0.167 HD
ATOM     34  C   UNL A   1      41.544  33.616  31.460  1.00  0.00     0.074 A 
ATOM     35  C   UNL A   1      40.529  34.563  31.880  1.00  0.00     0.031 C 
ATOM     36  C   UNL A   1      42.880  33.842  31.545  1.00  0.00     0.034 A 
BRANCH  23  37
ATOM     37  C   UNL A   1      46.346  29.110  29.507  1.00  0.00     0.023 A 
ATOM     38  C   UNL A   1      46.979  29.237  28.257  1.00  0.00     0.031 A 
ATOM     39  C   UNL A   1      46.981  28.343  30.496  1.00  0.00     0.131 A 
ATOM     40  C   UNL A   1      48.165  28.536  27.999  1.00  0.00     0.055 A 
ATOM     41  C   UNL A   1      48.200  27.704  30.256  1.00  0.00     0.041 A 
ATOM     42  F   UNL A   1      46.412  28.172  31.699  1.00  0.00    -0.206 F 
ATOM     43  C   UNL A   1      48.789  27.784  28.996  1.00  0.00     0.022 A 
BRANCH  40  44
ATOM     44  S   UNL A   1      48.793  28.501  26.297  1.00  0.00     0.124 S 
ATOM     45  O   UNL A   1      47.569  28.710  25.526  1.00  0.00    -0.237 OA
ATOM     46  O   UNL A   1      49.748  29.603  26.290  1.00  0.00    -0.237 OA
ATOM     47  O   UNL A   1      49.378  27.167  26.176  1.00  0.00    -0.744 OA
ENDBRANCH  40  44
ENDBRANCH  23  37
BRANCH  24  48
ATOM     48  C   UNL A   1      37.020  32.418  30.920  1.00  0.00     0.023 A 
ATOM     49  C   UNL A   1      36.219  32.974  29.912  1.00  0.00     0.031 A 
ATOM     50  C   UNL A   1      36.488  32.327  32.219  1.00  0.00     0.131 A 
ATOM     51  C   UNL A   1      34.935  33.448  30.226  1.00  0.00     0.055 A 
ATOM     52  C   UNL A   1      35.201  32.775  32.520  1.00  0.00     0.041 A 
ATOM     53  F   UNL A   1      37.214  31.788  33.213  1.00  0.00    -0.206 F 
ATOM     54  C   UNL A   1      34.420  33.349  31.521  1.00  0.00     0.022 A 
BRANCH  51  55
ATOM     55  S   UNL A   1      33.959  34.244  28.921  1.00  0.00     0.124 S 
ATOM     56  O   UNL A   1      33.705  33.129  28.014  1.00  0.00    -0.237 OA
ATOM     57  O   UNL A   1      32.809  34.740  29.668  1.00  0.00    -0.237 OA
ATOM     58  O   UNL A   1      34.857  35.274  28.406  1.00  0.00    -0.744 OA
ENDBRANCH  51  55
ENDBRANCH  24  48
BRANCH  36  59
ATOM     59  C   UNL A   1      43.304  35.186  32.072  1.00  0.00     0.023 A 
ATOM     60  C   UNL A   1      43.484  35.414  33.447  1.00  0.00     0.031 A 
ATOM     61  C   UNL A   1      43.512  36.257  31.184  1.00  0.00     0.131 A 
ATOM     62  C   UNL A   1      43.818  36.699  33.900  1.00  0.00     0.055 A 
ATOM     63  C   UNL A   1      43.885  37.523  31.638  1.00  0.00     0.041 A 
ATOM     64  F   UNL A   1      43.350  36.088  29.862  1.00  0.00    -0.206 F 
ATOM     65  C   UNL A   1      44.031  37.751  33.004  1.00  0.00     0.022 A 
BRANCH  62  66
ATOM     66  S   UNL A   1      43.912  36.994  35.687  1.00  0.00     0.124 S 
ATOM     67  O   UNL A   1      44.608  35.799  36.154  1.00  0.00    -0.237 OA
ATOM     68  O   UNL A   1      44.667  38.241  35.759  1.00  0.00    -0.237 OA
ATOM     69  O   UNL A   1      42.511  37.096  36.092  1.00  0.00    -0.744 OA
ENDBRANCH  62  66
ENDBRANCH  36  59
ENDBRANCH  10  11
ENDBRANCH   3   5
ENDBRANCH   2   3
ENDBRANCH   1   2
BRANCH   1  70
ATOM     70  C   UNL A   1      41.281  19.870  26.484  1.00  0.00     0.275 C 
BRANCH  70  71
ATOM     71  O   UNL A   1      42.071  19.440  25.368  1.00  0.00    -0.456 OA
BRANCH  71  72
ATOM     72  C   UNL A   1      43.138  18.646  25.686  1.00  0.00     0.374 C 
ATOM     73  O   UNL A   1      43.055  17.540  26.204  1.00  0.00    -0.242 OA
BRANCH  72  74
ATOM     74  C   UNL A   1      44.353  19.289  25.259  1.00  0.00     0.211 A 
ATOM     75  C   UNL A   1      45.545  18.801  24.758  1.00  0.00     0.058 A 
ATOM     76  O   UNL A   1      44.445  20.647  25.406  1.00  0.00    -0.452 OA
ATOM     77  C   UNL A   1      46.414  19.913  24.618  1.00  0.00     0.048 A 
ATOM     78  C   UNL A   1      45.718  21.009  25.076  1.00  0.00     0.124 A 
BRANCH  78  79
ATOM     79  C   UNL A   1      46.108  22.405  25.381  1.00  0.00     0.191 C 
BRANCH  79  80
ATOM     80  N   UNL A   1      45.136  23.336  24.855  1.00  0.00    -0.345 N 
ATOM     81  C   UNL A   1      44.163  24.011  25.546  1.00  0.00     0.252 C 
ATOM     82  H   UNL A   1      45.177  23.505  23.887  1.00  0.00     0.164 HD
ATOM     83  O   UNL A   1      43.427  24.814  24.982  1.00  0.00    -0.269 OA
BRANCH  81  84
ATOM     84  C   UNL A   1      44.017  23.784  27.000  1.00  0.00     0.054 A 
ATOM     85  C   UNL A   1      42.896  23.074  27.459  1.00  0.00     0.018 A 
ATOM     86  C   UNL A   1      44.985  24.233  27.909  1.00  0.00     0.033 A 
ATOM     87  C   UNL A   1      42.735  22.835  28.824  1.00  0.00     0.040 A 
ATOM     88  C   UNL A   1      44.823  23.981  29.275  1.00  0.00     0.055 A 
ATOM     89  Br  UNL A   1      46.515  25.221  27.379  1.00  0.00    -0.050 Br
ATOM     90  C   UNL A   1      43.703  23.286  29.717  1.00  0.00     0.124 A 
ATOM     91  F   UNL A   1      43.555  23.040  31.025  1.00  0.00    -0.207 F 
ENDBRANCH  81  84
ENDBRANCH  79  80
ENDBRANCH  78  79
ENDBRANCH  72  74
ENDBRANCH  71  72
ENDBRANCH  70  71
ENDBRANCH   1  70
TORSDOF 17
ENDMDL
MODEL 3
REMARK VINA RESULT:     -10.4      1.501      1.865
REMARK SMILES O=C(OCCOC(=O)c1ccc(CNC(=O)c2ccc(F)cc2Br)o1)c1ccc(-c2c3nc(c(-c4cc(S(=O)(=O)[O-])ccc4F)c4ccc([nH]4)c(-c4cc(S(=O)(=O)[O-])ccc4F)c4nc(c(-c5cc(S(=O)(=O)[O-])ccc5F)c5ccc2[nH]5)C=C4)C=C3)cc1
REMARK SMILES IDX 4 1 3 2 2 3 1 4 26 5 27 6 88 7 28 8 87 9 29 10 30 11 31 12
REMARK SMILES IDX 81 13 32 14 86 15 80 16 82 17 33 18 85 19 79 20 78 21 34 23
REMARK SMILES IDX 66 24 46 25 65 26 47 27 50 28 64 29 83 30 48 31 49 32 63 34
REMARK SMILES IDX 84 35 51 36 35 37 36 38 44 39 37 40 43 41 45 42 42 43 38 44
REMARK SMILES IDX 39 45 40 46 41 47 67 48 68 49 76 50 69 51 75 52 77 53 74 54
REMARK SMILES IDX 70 55 71 56 72 57 73 58 52 59 53 60 61 61 54 62 60 63 62 64
REMARK SMILES IDX 59 65 55 66 56 67 57 68 58 69 5 70 6 71 7 72 8 73 9 74 10 75
REMARK SMILES IDX 25 76 11 77 12 78 13 79 14 80 15 81 16 83 17 84 18 85 23 86
REMARK SMILES IDX 19 87 22 88 24 89 20 90 21 91
REMARK H PARENT 82 22 50 33 14 82
REMARK Flexibility Score: inf
ROOT
ATOM      1  C   UNL A   1      40.341  20.540  26.781  1.00  0.00     0.275 C 
ENDROOT
BRANCH   1   2
ATOM      2  O   UNL A   1      40.138  21.794  26.106  1.00  0.00    -0.458 OA
BRANCH   2   3
ATOM      3  C   UNL A   1      39.157  22.705  26.319  1.00  0.00     0.338 C 
ATOM      4  O   UNL A   1      37.996  22.438  26.018  1.00  0.00    -0.246 OA
BRANCH   3   5
ATOM      5  C   UNL A   1      39.469  24.106  26.716  1.00  0.00     0.060 A 
ATOM      6  C   UNL A   1      40.165  25.022  25.924  1.00  0.00     0.016 A 
ATOM      7  C   UNL A   1      39.157  24.464  28.038  1.00  0.00     0.016 A 
ATOM      8  C   UNL A   1      40.474  26.298  26.413  1.00  0.00     0.010 A 
ATOM      9  C   UNL A   1      39.488  25.728  28.537  1.00  0.00     0.010 A 
ATOM     10  C   UNL A   1      40.145  26.658  27.725  1.00  0.00    -0.014 A 
BRANCH  10  11
ATOM     11  C   UNL A   1      40.598  27.956  28.278  1.00  0.00     0.031 A 
ATOM     12  C   UNL A   1      42.067  28.246  28.367  1.00  0.00     0.074 A 
ATOM     13  C   UNL A   1      39.704  28.870  28.698  1.00  0.00     0.049 A 
ATOM     14  N   UNL A   1      42.672  29.335  28.762  1.00  0.00    -0.248 NA
ATOM     15  C   UNL A   1      42.971  27.163  27.953  1.00  0.00     0.031 C 
ATOM     16  C   UNL A   1      38.252  28.706  28.662  1.00  0.00     0.029 A 
ATOM     17  N   UNL A   1      39.887  30.111  29.250  1.00  0.00    -0.354 N 
ATOM     18  C   UNL A   1      44.031  29.091  28.594  1.00  0.00     0.074 A 
ATOM     19  C   UNL A   1      44.157  27.720  28.144  1.00  0.00     0.031 C 
ATOM     20  C   UNL A   1      37.675  29.789  29.210  1.00  0.00     0.029 A 
ATOM     21  C   UNL A   1      38.716  30.727  29.622  1.00  0.00     0.049 A 
ATOM     22  H   UNL A   1      40.773  30.523  29.369  1.00  0.00     0.167 HD
ATOM     23  C   UNL A   1      45.074  29.941  28.762  1.00  0.00     0.034 A 
ATOM     24  C   UNL A   1      38.508  31.913  30.229  1.00  0.00     0.034 A 
ATOM     25  C   UNL A   1      44.944  31.287  29.259  1.00  0.00     0.049 A 
ATOM     26  C   UNL A   1      39.687  32.806  30.511  1.00  0.00     0.074 A 
ATOM     27  C   UNL A   1      45.930  32.236  29.466  1.00  0.00     0.029 A 
ATOM     28  N   UNL A   1      43.746  31.870  29.652  1.00  0.00    -0.354 N 
ATOM     29  N   UNL A   1      40.961  32.587  30.283  1.00  0.00    -0.248 NA
ATOM     30  C   UNL A   1      39.396  34.117  31.106  1.00  0.00     0.031 C 
ATOM     31  C   UNL A   1      45.334  33.373  30.028  1.00  0.00     0.029 A 
ATOM     32  C   UNL A   1      43.970  33.151  30.128  1.00  0.00     0.049 A 
ATOM     33  H   UNL A   1      42.864  31.434  29.600  1.00  0.00     0.167 HD
ATOM     34  C   UNL A   1      41.621  33.749  30.672  1.00  0.00     0.074 A 
ATOM     35  C   UNL A   1      40.604  34.662  31.157  1.00  0.00     0.031 C 
ATOM     36  C   UNL A   1      42.945  34.041  30.617  1.00  0.00     0.034 A 
BRANCH  23  37
ATOM     37  C   UNL A   1      46.436  29.402  28.413  1.00  0.00     0.023 A 
ATOM     38  C   UNL A   1      47.248  28.809  29.396  1.00  0.00     0.031 A 
ATOM     39  C   UNL A   1      46.963  29.556  27.121  1.00  0.00     0.131 A 
ATOM     40  C   UNL A   1      48.574  28.468  29.094  1.00  0.00     0.055 A 
ATOM     41  C   UNL A   1      48.262  29.149  26.808  1.00  0.00     0.041 A 
ATOM     42  F   UNL A   1      46.239  30.135  26.152  1.00  0.00    -0.206 F 
ATOM     43  C   UNL A   1      49.082  28.619  27.803  1.00  0.00     0.022 A 
BRANCH  40  44
ATOM     44  S   UNL A   1      49.667  27.970  30.455  1.00  0.00     0.124 S 
ATOM     45  O   UNL A   1      50.801  28.872  30.267  1.00  0.00    -0.237 OA
ATOM     46  O   UNL A   1      48.840  28.220  31.630  1.00  0.00    -0.237 OA
ATOM     47  O   UNL A   1      49.944  26.563  30.174  1.00  0.00    -0.744 OA
ENDBRANCH  40  44
ENDBRANCH  23  37
BRANCH  24  48
ATOM     48  C   UNL A   1      37.132  32.317  30.623  1.00  0.00     0.023 A 
ATOM     49  C   UNL A   1      36.275  32.967  29.726  1.00  0.00     0.031 A 
ATOM     50  C   UNL A   1      36.670  32.074  31.929  1.00  0.00     0.131 A 
ATOM     51  C   UNL A   1      35.004  33.383  30.155  1.00  0.00     0.055 A 
ATOM     52  C   UNL A   1      35.396  32.465  32.343  1.00  0.00     0.041 A 
ATOM     53  F   UNL A   1      37.453  31.440  32.819  1.00  0.00    -0.206 F 
ATOM     54  C   UNL A   1      34.558  33.133  31.455  1.00  0.00     0.022 A 
BRANCH  51  55
ATOM     55  S   UNL A   1      33.953  34.302  28.997  1.00  0.00     0.124 S 
ATOM     56  O   UNL A   1      33.447  33.235  28.140  1.00  0.00    -0.237 OA
ATOM     57  O   UNL A   1      32.984  34.918  29.897  1.00  0.00    -0.237 OA
ATOM     58  O   UNL A   1      34.883  35.229  28.357  1.00  0.00    -0.744 OA
ENDBRANCH  51  55
ENDBRANCH  24  48
BRANCH  36  59
ATOM     59  C   UNL A   1      43.349  35.424  31.052  1.00  0.00     0.023 A 
ATOM     60  C   UNL A   1      43.529  35.745  32.408  1.00  0.00     0.031 A 
ATOM     61  C   UNL A   1      43.538  36.436  30.095  1.00  0.00     0.131 A 
ATOM     62  C   UNL A   1      43.843  37.062  32.774  1.00  0.00     0.055 A 
ATOM     63  C   UNL A   1      43.892  37.735  30.463  1.00  0.00     0.041 A 
ATOM     64  F   UNL A   1      43.376  36.178  28.788  1.00  0.00    -0.206 F 
ATOM     65  C   UNL A   1      44.037  38.056  31.811  1.00  0.00     0.022 A 
BRANCH  62  66
ATOM     66  S   UNL A   1      43.936  37.476  34.538  1.00  0.00     0.124 S 
ATOM     67  O   UNL A   1      44.686  36.346  35.075  1.00  0.00    -0.237 OA
ATOM     68  O   UNL A   1      44.636  38.757  34.522  1.00  0.00    -0.237 OA
ATOM     69  O   UNL A   1      42.534  37.543  34.948  1.00  0.00    -0.744 OA
ENDBRANCH  62  66
ENDBRANCH  36  59
ENDBRANCH  10  11
ENDBRANCH   3   5
ENDBRANCH   2   3
ENDBRANCH   1   2
BRANCH   1  70
ATOM     70  C   UNL A   1      41.808  20.122  26.859  1.00  0.00     0.275 C 
BRANCH  70  71
ATOM     71  O   UNL A   1      42.382  19.898  25.565  1.00  0.00    -0.456 OA
BRANCH  71  72
ATOM     72  C   UNL A   1      43.290  18.877  25.504  1.00  0.00     0.374 C 
ATOM     73  O   UNL A   1      43.021  17.694  25.669  1.00  0.00    -0.242 OA
BRANCH  72  74
ATOM     74  C   UNL A   1      44.581  19.409  25.156  1.00  0.00     0.211 A 
ATOM     75  C   UNL A   1      45.859  18.885  25.223  1.00  0.00     0.058 A 
ATOM     76  O   UNL A   1      44.645  20.706  24.726  1.00  0.00    -0.452 OA
ATOM     77  C   UNL A   1      46.745  19.923  24.839  1.00  0.00     0.048 A 
ATOM     78  C   UNL A   1      45.963  21.031  24.598  1.00  0.00     0.124 A 
BRANCH  78  79
ATOM     79  C   UNL A   1      46.273  22.460  24.362  1.00  0.00     0.191 C 
BRANCH  79  80
ATOM     80  N   UNL A   1      45.059  23.229  24.206  1.00  0.00    -0.345 N 
ATOM     81  C   UNL A   1      44.559  24.186  25.052  1.00  0.00     0.252 C 
ATOM     82  H   UNL A   1      44.528  23.043  23.399  1.00  0.00     0.164 HD
ATOM     83  O   UNL A   1      43.535  24.801  24.776  1.00  0.00    -0.269 OA
BRANCH  81  84
ATOM     84  C   UNL A   1      45.283  24.497  26.304  1.00  0.00     0.054 A 
ATOM     85  C   UNL A   1      44.866  23.875  27.492  1.00  0.00     0.018 A 
ATOM     86  C   UNL A   1      46.383  25.365  26.313  1.00  0.00     0.033 A 
ATOM     87  C   UNL A   1      45.535  24.140  28.686  1.00  0.00     0.040 A 
ATOM     88  C   UNL A   1      47.056  25.618  27.513  1.00  0.00     0.055 A 
ATOM     89  Br  UNL A   1      46.996  26.267  24.761  1.00  0.00    -0.050 Br
ATOM     90  C   UNL A   1      46.625  25.004  28.684  1.00  0.00     0.124 A 
ATOM     91  F   UNL A   1      47.277  25.243  29.829  1.00  0.00    -0.207 F 
ENDBRANCH  81  84
ENDBRANCH  79  80
ENDBRANCH  78  79
ENDBRANCH  72  74
ENDBRANCH  71  72
ENDBRANCH  70  71
ENDBRANCH   1  70
TORSDOF 17
ENDMDL
