MODEL 1
REMARK VINA RESULT:     -11.8      0.000      0.000
REMARK SMILES COc1cc(Cl)ccc1NC(=O)COc1ccccc1C(=O)OCCOC(=O)c1ccc(-c2c3nc(c(-c4cc(S(=O)(=O)[O-])ccc4F)c4ccc([nH]4)c(-c4cc(S(=O)(=O)[O-])ccc4F)c4nc(c(-c5cc(S(=O)(=O)[O-])ccc5F)c5ccc2[nH]5)C=C4)C=C3)cc1
REMARK SMILES IDX 24 1 23 2 21 3 22 4 20 5 15 6 16 7 17 8 19 9 18 10 14 11
REMARK SMILES IDX 13 12 11 13 10 14 12 16 9 17 3 18 4 19 5 20 8 21 6 22 7 23
REMARK SMILES IDX 2 24 1 25 25 26 26 27 27 28 28 29 29 30 30 31 91 32 31 33
REMARK SMILES IDX 90 34 32 35 33 36 34 37 84 38 35 39 89 40 83 41 85 42 36 43
REMARK SMILES IDX 88 44 82 45 81 46 37 48 69 49 49 50 68 51 50 52 53 53 67 54
REMARK SMILES IDX 86 55 51 56 52 57 66 59 87 60 54 61 38 62 39 63 47 64 40 65
REMARK SMILES IDX 46 66 48 67 45 68 41 69 42 70 43 71 44 72 70 73 71 74 79 75
REMARK SMILES IDX 72 76 78 77 80 78 77 79 73 80 74 81 75 82 76 83 55 84 56 85
REMARK SMILES IDX 64 86 57 87 63 88 65 89 62 90 58 91 59 92 60 93 61 94
REMARK H PARENT 10 15 85 47 53 58
REMARK Flexibility Score: inf
ROOT
ATOM      1  C   UNL A   1      31.207  29.225  24.677  1.00  0.00     0.275 C 
ENDROOT
BRANCH   1   2
ATOM      2  O   UNL A   1      31.108  28.654  23.353  1.00  0.00    -0.458 OA
BRANCH   2   3
ATOM      3  C   UNL A   1      30.347  27.541  23.260  1.00  0.00     0.342 C 
ATOM      4  O   UNL A   1      29.131  27.492  23.335  1.00  0.00    -0.246 OA
BRANCH   3   5
ATOM      5  C   UNL A   1      31.169  26.366  22.897  1.00  0.00     0.102 A 
ATOM      6  C   UNL A   1      31.128  25.102  23.497  1.00  0.00     0.134 A 
ATOM      7  C   UNL A   1      31.993  24.102  23.012  1.00  0.00     0.047 A 
ATOM      8  C   UNL A   1      32.883  24.343  21.963  1.00  0.00     0.004 A 
ATOM      9  C   UNL A   1      32.060  26.594  21.825  1.00  0.00     0.019 A 
ATOM     10  C   UNL A   1      32.927  25.598  21.375  1.00  0.00     0.001 A 
BRANCH   6  11
ATOM     11  O   UNL A   1      30.390  24.646  24.548  1.00  0.00    -0.483 OA
BRANCH  11  12
ATOM     12  C   UNL A   1      30.751  24.929  25.882  1.00  0.00     0.329 C 
BRANCH  12  13
ATOM     13  C   UNL A   1      31.017  23.726  26.793  1.00  0.00     0.262 C 
ATOM     14  N   UNL A   1      32.269  23.217  26.978  1.00  0.00    -0.320 N 
ATOM     15  H   UNL A   1      32.387  22.784  27.854  1.00  0.00     0.170 HD
ATOM     16  O   UNL A   1      30.082  23.217  27.424  1.00  0.00    -0.271 OA
BRANCH  14  17
ATOM     17  C   UNL A   1      33.424  23.183  26.179  1.00  0.00     0.084 A 
ATOM     18  C   UNL A   1      33.723  21.969  25.519  1.00  0.00     0.143 A 
ATOM     19  C   UNL A   1      34.760  21.912  24.584  1.00  0.00     0.069 A 
ATOM     20  C   UNL A   1      35.500  23.058  24.310  1.00  0.00     0.044 A 
ATOM     21  C   UNL A   1      34.192  24.316  25.909  1.00  0.00     0.031 A 
ATOM     22  Cl  UNL A   1      36.723  23.011  23.101  1.00  0.00    -0.084 Cl
ATOM     23  C   UNL A   1      35.228  24.253  24.972  1.00  0.00     0.023 A 
BRANCH  18  24
ATOM     24  O   UNL A   1      32.907  20.891  25.780  1.00  0.00    -0.495 OA
ATOM     25  C   UNL A   1      32.287  20.329  24.618  1.00  0.00     0.278 C 
ENDBRANCH  18  24
ENDBRANCH  14  17
ENDBRANCH  12  13
ENDBRANCH  11  12
ENDBRANCH   6  11
ENDBRANCH   3   5
ENDBRANCH   2   3
ENDBRANCH   1   2
BRANCH   1  26
ATOM     26  C   UNL A   1      32.670  29.555  24.999  1.00  0.00     0.275 C 
BRANCH  26  27
ATOM     27  O   UNL A   1      32.839  29.638  26.422  1.00  0.00    -0.458 OA
BRANCH  27  28
ATOM     28  C   UNL A   1      33.181  30.864  26.874  1.00  0.00     0.338 C 
ATOM     29  O   UNL A   1      32.501  31.877  26.913  1.00  0.00    -0.246 OA
BRANCH  28  30
ATOM     30  C   UNL A   1      34.438  30.720  27.592  1.00  0.00     0.060 A 
ATOM     31  C   UNL A   1      35.171  31.889  27.805  1.00  0.00     0.016 A 
ATOM     32  C   UNL A   1      34.881  29.486  28.047  1.00  0.00     0.016 A 
ATOM     33  C   UNL A   1      36.384  31.834  28.470  1.00  0.00     0.010 A 
ATOM     34  C   UNL A   1      36.085  29.434  28.742  1.00  0.00     0.010 A 
ATOM     35  C   UNL A   1      36.843  30.606  28.950  1.00  0.00    -0.014 A 
BRANCH  35  36
ATOM     36  C   UNL A   1      38.155  30.502  29.622  1.00  0.00     0.031 A 
ATOM     37  C   UNL A   1      39.210  29.651  28.986  1.00  0.00     0.074 A 
ATOM     38  C   UNL A   1      38.364  31.117  30.799  1.00  0.00     0.049 A 
ATOM     39  N   UNL A   1      40.285  29.132  29.512  1.00  0.00    -0.248 NA
ATOM     40  C   UNL A   1      38.996  29.310  27.571  1.00  0.00     0.031 C 
ATOM     41  C   UNL A   1      37.432  32.037  31.455  1.00  0.00     0.029 A 
ATOM     42  N   UNL A   1      39.421  31.039  31.668  1.00  0.00    -0.354 N 
ATOM     43  C   UNL A   1      40.847  28.350  28.509  1.00  0.00     0.074 A 
ATOM     44  C   UNL A   1      39.986  28.459  27.351  1.00  0.00     0.031 C 
ATOM     45  C   UNL A   1      37.956  32.431  32.626  1.00  0.00     0.029 A 
ATOM     46  C   UNL A   1      39.209  31.720  32.845  1.00  0.00     0.049 A 
ATOM     47  H   UNL A   1      40.250  30.547  31.469  1.00  0.00     0.167 HD
ATOM     48  C   UNL A   1      41.976  27.603  28.573  1.00  0.00     0.034 A 
ATOM     49  C   UNL A   1      39.914  31.709  33.992  1.00  0.00     0.034 A 
ATOM     50  C   UNL A   1      42.811  27.549  29.749  1.00  0.00     0.049 A 
ATOM     51  C   UNL A   1      41.136  30.825  34.064  1.00  0.00     0.074 A 
ATOM     52  C   UNL A   1      43.974  26.830  29.955  1.00  0.00     0.029 A 
ATOM     53  N   UNL A   1      42.567  28.257  30.921  1.00  0.00    -0.354 N 
ATOM     54  N   UNL A   1      41.627  30.022  33.148  1.00  0.00    -0.248 NA
ATOM     55  C   UNL A   1      41.889  30.837  35.323  1.00  0.00     0.031 C 
ATOM     56  C   UNL A   1      44.401  27.060  31.267  1.00  0.00     0.029 A 
ATOM     57  C   UNL A   1      43.550  27.982  31.857  1.00  0.00     0.049 A 
ATOM     58  H   UNL A   1      41.806  28.865  31.066  1.00  0.00     0.167 HD
ATOM     59  C   UNL A   1      42.770  29.461  33.707  1.00  0.00     0.074 A 
ATOM     60  C   UNL A   1      42.892  30.017  35.041  1.00  0.00     0.031 C 
ATOM     61  C   UNL A   1      43.644  28.571  33.173  1.00  0.00     0.034 A 
BRANCH  48  62
ATOM     62  C   UNL A   1      42.314  26.748  27.376  1.00  0.00     0.023 A 
ATOM     63  C   UNL A   1      41.905  25.406  27.278  1.00  0.00     0.031 A 
ATOM     64  C   UNL A   1      43.109  27.268  26.339  1.00  0.00     0.131 A 
ATOM     65  C   UNL A   1      42.362  24.611  26.217  1.00  0.00     0.055 A 
ATOM     66  C   UNL A   1      43.487  26.495  25.238  1.00  0.00     0.041 A 
ATOM     67  F   UNL A   1      43.555  28.533  26.388  1.00  0.00    -0.206 F 
ATOM     68  C   UNL A   1      43.127  25.152  25.181  1.00  0.00     0.022 A 
BRANCH  65  69
ATOM     69  S   UNL A   1      42.074  22.820  26.289  1.00  0.00     0.124 S 
ATOM     70  O   UNL A   1      40.619  22.763  26.414  1.00  0.00    -0.237 OA
ATOM     71  O   UNL A   1      42.623  22.360  25.019  1.00  0.00    -0.237 OA
ATOM     72  O   UNL A   1      42.812  22.401  27.478  1.00  0.00    -0.744 OA
ENDBRANCH  65  69
ENDBRANCH  48  62
BRANCH  49  73
ATOM     73  C   UNL A   1      39.456  32.496  35.171  1.00  0.00     0.023 A 
ATOM     74  C   UNL A   1      38.780  31.875  36.233  1.00  0.00     0.031 A 
ATOM     75  C   UNL A   1      39.663  33.886  35.248  1.00  0.00     0.131 A 
ATOM     76  C   UNL A   1      38.303  32.644  37.306  1.00  0.00     0.055 A 
ATOM     77  C   UNL A   1      39.237  34.639  36.344  1.00  0.00     0.041 A 
ATOM     78  F   UNL A   1      40.302  34.534  34.261  1.00  0.00    -0.206 F 
ATOM     79  C   UNL A   1      38.541  34.019  37.377  1.00  0.00     0.022 A 
BRANCH  76  80
ATOM     80  S   UNL A   1      37.286  31.833  38.569  1.00  0.00     0.124 S 
ATOM     81  O   UNL A   1      36.091  32.668  38.568  1.00  0.00    -0.237 OA
ATOM     82  O   UNL A   1      37.131  30.492  38.015  1.00  0.00    -0.237 OA
ATOM     83  O   UNL A   1      38.108  31.918  39.773  1.00  0.00    -0.744 OA
ENDBRANCH  76  80
ENDBRANCH  49  73
BRANCH  61  84
ATOM     84  C   UNL A   1      44.850  28.217  34.001  1.00  0.00     0.023 A 
ATOM     85  C   UNL A   1      44.850  27.127  34.886  1.00  0.00     0.031 A 
ATOM     86  C   UNL A   1      46.026  28.977  33.875  1.00  0.00     0.131 A 
ATOM     87  C   UNL A   1      45.998  26.849  35.643  1.00  0.00     0.055 A 
ATOM     88  C   UNL A   1      47.180  28.664  34.590  1.00  0.00     0.041 A 
ATOM     89  F   UNL A   1      46.073  30.029  33.042  1.00  0.00    -0.206 F 
ATOM     90  C   UNL A   1      47.168  27.599  35.486  1.00  0.00     0.022 A 
BRANCH  87  91
ATOM     91  S   UNL A   1      45.928  25.525  36.878  1.00  0.00     0.124 S 
ATOM     92  O   UNL A   1      46.663  26.112  37.994  1.00  0.00    -0.237 OA
ATOM     93  O   UNL A   1      44.492  25.357  37.079  1.00  0.00    -0.237 OA
ATOM     94  O   UNL A   1      46.595  24.404  36.217  1.00  0.00    -0.744 OA
ENDBRANCH  87  91
ENDBRANCH  61  84
ENDBRANCH  35  36
ENDBRANCH  28  30
ENDBRANCH  27  28
ENDBRANCH  26  27
ENDBRANCH   1  26
TORSDOF 19
ENDMDL
MODEL 2
REMARK VINA RESULT:     -11.7      4.913      9.662
REMARK SMILES COc1cc(Cl)ccc1NC(=O)COc1ccccc1C(=O)OCCOC(=O)c1ccc(-c2c3nc(c(-c4cc(S(=O)(=O)[O-])ccc4F)c4ccc([nH]4)c(-c4cc(S(=O)(=O)[O-])ccc4F)c4nc(c(-c5cc(S(=O)(=O)[O-])ccc5F)c5ccc2[nH]5)C=C4)C=C3)cc1
REMARK SMILES IDX 24 1 23 2 21 3 22 4 20 5 15 6 16 7 17 8 19 9 18 10 14 11
REMARK SMILES IDX 13 12 11 13 10 14 12 16 9 17 3 18 4 19 5 20 8 21 6 22 7 23
REMARK SMILES IDX 2 24 1 25 25 26 26 27 27 28 28 29 29 30 30 31 91 32 31 33
REMARK SMILES IDX 90 34 32 35 33 36 34 37 84 38 35 39 89 40 83 41 85 42 36 43
REMARK SMILES IDX 88 44 82 45 81 46 37 48 69 49 49 50 68 51 50 52 53 53 67 54
REMARK SMILES IDX 86 55 51 56 52 57 66 59 87 60 54 61 38 62 39 63 47 64 40 65
REMARK SMILES IDX 46 66 48 67 45 68 41 69 42 70 43 71 44 72 70 73 71 74 79 75
REMARK SMILES IDX 72 76 78 77 80 78 77 79 73 80 74 81 75 82 76 83 55 84 56 85
REMARK SMILES IDX 64 86 57 87 63 88 65 89 62 90 58 91 59 92 60 93 61 94
REMARK H PARENT 10 15 85 47 53 58
REMARK Flexibility Score: inf
ROOT
ATOM      1  C   UNL A   1      34.680  22.097  25.506  1.00  0.00     0.275 C 
ENDROOT
BRANCH   1   2
ATOM      2  O   UNL A   1      33.484  21.358  25.843  1.00  0.00    -0.458 OA
BRANCH   2   3
ATOM      3  C   UNL A   1      32.493  21.414  24.926  1.00  0.00     0.342 C 
ATOM      4  O   UNL A   1      32.200  20.538  24.129  1.00  0.00    -0.246 OA
BRANCH   3   5
ATOM      5  C   UNL A   1      31.679  22.636  25.100  1.00  0.00     0.102 A 
ATOM      6  C   UNL A   1      31.389  23.592  24.119  1.00  0.00     0.134 A 
ATOM      7  C   UNL A   1      30.592  24.697  24.476  1.00  0.00     0.047 A 
ATOM      8  C   UNL A   1      30.095  24.860  25.770  1.00  0.00     0.004 A 
ATOM      9  C   UNL A   1      31.157  22.801  26.402  1.00  0.00     0.019 A 
ATOM     10  C   UNL A   1      30.389  23.915  26.742  1.00  0.00     0.001 A 
BRANCH   6  11
ATOM     11  O   UNL A   1      31.791  23.674  22.819  1.00  0.00    -0.483 OA
BRANCH  11  12
ATOM     12  C   UNL A   1      33.089  24.104  22.474  1.00  0.00     0.329 C 
BRANCH  12  13
ATOM     13  C   UNL A   1      33.197  25.445  21.740  1.00  0.00     0.262 C 
ATOM     14  N   UNL A   1      33.432  26.617  22.396  1.00  0.00    -0.320 N 
ATOM     15  H   UNL A   1      33.900  27.285  21.846  1.00  0.00     0.170 HD
ATOM     16  O   UNL A   1      33.118  25.474  20.505  1.00  0.00    -0.271 OA
BRANCH  14  17
ATOM     17  C   UNL A   1      33.143  27.069  23.695  1.00  0.00     0.084 A 
ATOM     18  C   UNL A   1      32.082  27.991  23.843  1.00  0.00     0.143 A 
ATOM     19  C   UNL A   1      31.638  28.356  25.117  1.00  0.00     0.069 A 
ATOM     20  C   UNL A   1      32.249  27.807  26.239  1.00  0.00     0.044 A 
ATOM     21  C   UNL A   1      33.760  26.546  24.833  1.00  0.00     0.031 A 
ATOM     22  Cl  UNL A   1      31.650  28.190  27.806  1.00  0.00    -0.084 Cl
ATOM     23  C   UNL A   1      33.309  26.914  26.105  1.00  0.00     0.023 A 
BRANCH  18  24
ATOM     24  O   UNL A   1      31.472  28.441  22.693  1.00  0.00    -0.495 OA
ATOM     25  C   UNL A   1      30.079  28.120  22.605  1.00  0.00     0.278 C 
ENDBRANCH  18  24
ENDBRANCH  14  17
ENDBRANCH  12  13
ENDBRANCH  11  12
ENDBRANCH   6  11
ENDBRANCH   3   5
ENDBRANCH   2   3
ENDBRANCH   1   2
BRANCH   1  26
ATOM     26  C   UNL A   1      35.852  21.132  25.294  1.00  0.00     0.275 C 
BRANCH  26  27
ATOM     27  O   UNL A   1      37.056  21.884  25.074  1.00  0.00    -0.458 OA
BRANCH  27  28
ATOM     28  C   UNL A   1      38.151  21.375  25.679  1.00  0.00     0.338 C 
ATOM     29  O   UNL A   1      38.571  20.229  25.652  1.00  0.00    -0.246 OA
BRANCH  28  30
ATOM     30  C   UNL A   1      38.939  22.501  26.156  1.00  0.00     0.060 A 
ATOM     31  C   UNL A   1      40.127  22.192  26.822  1.00  0.00     0.016 A 
ATOM     32  C   UNL A   1      38.533  23.813  25.953  1.00  0.00     0.016 A 
ATOM     33  C   UNL A   1      40.926  23.208  27.317  1.00  0.00     0.010 A 
ATOM     34  C   UNL A   1      39.352  24.835  26.425  1.00  0.00     0.010 A 
ATOM     35  C   UNL A   1      40.546  24.537  27.112  1.00  0.00    -0.014 A 
BRANCH  35  36
ATOM     36  C   UNL A   1      41.350  25.645  27.669  1.00  0.00     0.031 A 
ATOM     37  C   UNL A   1      40.656  26.667  28.515  1.00  0.00     0.074 A 
ATOM     38  C   UNL A   1      42.657  25.751  27.370  1.00  0.00     0.049 A 
ATOM     39  N   UNL A   1      41.033  27.874  28.833  1.00  0.00    -0.248 NA
ATOM     40  C   UNL A   1      39.339  26.279  29.043  1.00  0.00     0.031 C 
ATOM     41  C   UNL A   1      43.442  24.762  26.627  1.00  0.00     0.029 A 
ATOM     42  N   UNL A   1      43.551  26.755  27.633  1.00  0.00    -0.354 N 
ATOM     43  C   UNL A   1      39.971  28.418  29.546  1.00  0.00     0.074 A 
ATOM     44  C   UNL A   1      38.936  27.408  29.604  1.00  0.00     0.031 C 
ATOM     45  C   UNL A   1      44.698  25.214  26.488  1.00  0.00     0.029 A 
ATOM     46  C   UNL A   1      44.779  26.559  27.045  1.00  0.00     0.049 A 
ATOM     47  H   UNL A   1      43.336  27.539  28.190  1.00  0.00     0.167 HD
ATOM     48  C   UNL A   1      39.881  29.658  30.086  1.00  0.00     0.034 A 
ATOM     49  C   UNL A   1      45.822  27.400  26.912  1.00  0.00     0.034 A 
ATOM     50  C   UNL A   1      40.955  30.619  30.018  1.00  0.00     0.049 A 
ATOM     51  C   UNL A   1      45.681  28.796  27.468  1.00  0.00     0.074 A 
ATOM     52  C   UNL A   1      40.997  31.909  30.513  1.00  0.00     0.029 A 
ATOM     53  N   UNL A   1      42.187  30.381  29.418  1.00  0.00    -0.354 N 
ATOM     54  N   UNL A   1      44.650  29.342  28.072  1.00  0.00    -0.248 NA
ATOM     55  C   UNL A   1      46.834  29.690  27.315  1.00  0.00     0.031 C 
ATOM     56  C   UNL A   1      42.230  32.468  30.163  1.00  0.00     0.029 A 
ATOM     57  C   UNL A   1      42.990  31.504  29.519  1.00  0.00     0.049 A 
ATOM     58  H   UNL A   1      42.451  29.537  28.984  1.00  0.00     0.167 HD
ATOM     59  C   UNL A   1      45.044  30.633  28.406  1.00  0.00     0.074 A 
ATOM     60  C   UNL A   1      46.407  30.783  27.933  1.00  0.00     0.031 C 
ATOM     61  C   UNL A   1      44.351  31.608  29.047  1.00  0.00     0.034 A 
BRANCH  48  62
ATOM     62  C   UNL A   1      38.567  30.048  30.718  1.00  0.00     0.023 A 
ATOM     63  C   UNL A   1      37.561  30.717  29.998  1.00  0.00     0.031 A 
ATOM     64  C   UNL A   1      38.337  29.796  32.083  1.00  0.00     0.131 A 
ATOM     65  C   UNL A   1      36.418  31.186  30.662  1.00  0.00     0.055 A 
ATOM     66  C   UNL A   1      37.157  30.187  32.719  1.00  0.00     0.041 A 
ATOM     67  F   UNL A   1      39.270  29.187  32.831  1.00  0.00    -0.206 F 
ATOM     68  C   UNL A   1      36.195  30.902  32.011  1.00  0.00     0.022 A 
BRANCH  65  69
ATOM     69  S   UNL A   1      35.300  32.308  29.776  1.00  0.00     0.124 S 
ATOM     70  O   UNL A   1      34.336  32.646  30.821  1.00  0.00    -0.237 OA
ATOM     71  O   UNL A   1      36.194  33.382  29.361  1.00  0.00    -0.237 OA
ATOM     72  O   UNL A   1      34.771  31.482  28.694  1.00  0.00    -0.744 OA
ENDBRANCH  65  69
ENDBRANCH  48  62
BRANCH  49  73
ATOM     73  C   UNL A   1      47.047  26.978  26.176  1.00  0.00     0.023 A 
ATOM     74  C   UNL A   1      48.103  26.340  26.844  1.00  0.00     0.031 A 
ATOM     75  C   UNL A   1      47.195  27.225  24.799  1.00  0.00     0.131 A 
ATOM     76  C   UNL A   1      49.274  26.005  26.146  1.00  0.00     0.055 A 
ATOM     77  C   UNL A   1      48.338  26.840  24.095  1.00  0.00     0.041 A 
ATOM     78  F   UNL A   1      46.218  27.835  24.108  1.00  0.00    -0.206 F 
ATOM     79  C   UNL A   1      49.393  26.235  24.773  1.00  0.00     0.022 A 
BRANCH  76  80
ATOM     80  S   UNL A   1      50.680  25.341  27.079  1.00  0.00     0.124 S 
ATOM     81  O   UNL A   1      51.141  26.521  27.800  1.00  0.00    -0.237 OA
ATOM     82  O   UNL A   1      50.044  24.305  27.886  1.00  0.00    -0.237 OA
ATOM     83  O   UNL A   1      51.580  24.853  26.037  1.00  0.00    -0.744 OA
ENDBRANCH  76  80
ENDBRANCH  49  73
BRANCH  61  84
ATOM     84  C   UNL A   1      45.090  32.885  29.347  1.00  0.00     0.023 A 
ATOM     85  C   UNL A   1      45.070  33.979  28.468  1.00  0.00     0.031 A 
ATOM     86  C   UNL A   1      45.803  33.008  30.552  1.00  0.00     0.131 A 
ATOM     87  C   UNL A   1      45.785  35.142  28.791  1.00  0.00     0.055 A 
ATOM     88  C   UNL A   1      46.468  34.184  30.893  1.00  0.00     0.041 A 
ATOM     89  F   UNL A   1      45.852  31.987  31.424  1.00  0.00    -0.206 F 
ATOM     90  C   UNL A   1      46.468  35.257  30.007  1.00  0.00     0.022 A 
BRANCH  87  91
ATOM     91  S   UNL A   1      45.858  36.487  27.579  1.00  0.00     0.124 S 
ATOM     92  O   UNL A   1      44.463  36.594  27.162  1.00  0.00    -0.237 OA
ATOM     93  O   UNL A   1      46.373  37.598  28.373  1.00  0.00    -0.237 OA
ATOM     94  O   UNL A   1      46.773  35.979  26.558  1.00  0.00    -0.744 OA
ENDBRANCH  87  91
ENDBRANCH  61  84
ENDBRANCH  35  36
ENDBRANCH  28  30
ENDBRANCH  27  28
ENDBRANCH  26  27
ENDBRANCH   1  26
TORSDOF 19
ENDMDL
MODEL 3
REMARK VINA RESULT:     -11.4      1.284      2.139
REMARK SMILES COc1cc(Cl)ccc1NC(=O)COc1ccccc1C(=O)OCCOC(=O)c1ccc(-c2c3nc(c(-c4cc(S(=O)(=O)[O-])ccc4F)c4ccc([nH]4)c(-c4cc(S(=O)(=O)[O-])ccc4F)c4nc(c(-c5cc(S(=O)(=O)[O-])ccc5F)c5ccc2[nH]5)C=C4)C=C3)cc1
REMARK SMILES IDX 24 1 23 2 21 3 22 4 20 5 15 6 16 7 17 8 19 9 18 10 14 11
REMARK SMILES IDX 13 12 11 13 10 14 12 16 9 17 3 18 4 19 5 20 8 21 6 22 7 23
REMARK SMILES IDX 2 24 1 25 25 26 26 27 27 28 28 29 29 30 30 31 91 32 31 33
REMARK SMILES IDX 90 34 32 35 33 36 34 37 84 38 35 39 89 40 83 41 85 42 36 43
REMARK SMILES IDX 88 44 82 45 81 46 37 48 69 49 49 50 68 51 50 52 53 53 67 54
REMARK SMILES IDX 86 55 51 56 52 57 66 59 87 60 54 61 38 62 39 63 47 64 40 65
REMARK SMILES IDX 46 66 48 67 45 68 41 69 42 70 43 71 44 72 70 73 71 74 79 75
REMARK SMILES IDX 72 76 78 77 80 78 77 79 73 80 74 81 75 82 76 83 55 84 56 85
REMARK SMILES IDX 64 86 57 87 63 88 65 89 62 90 58 91 59 92 60 93 61 94
REMARK H PARENT 10 15 85 47 53 58
REMARK Flexibility Score: inf
ROOT
ATOM      1  C   UNL A   1      31.507  28.877  25.248  1.00  0.00     0.275 C 
ENDROOT
BRANCH   1   2
ATOM      2  O   UNL A   1      32.159  27.649  25.642  1.00  0.00    -0.458 OA
BRANCH   2   3
ATOM      3  C   UNL A   1      31.471  26.885  26.519  1.00  0.00     0.342 C 
ATOM      4  O   UNL A   1      30.947  27.270  27.551  1.00  0.00    -0.246 OA
BRANCH   3   5
ATOM      5  C   UNL A   1      31.289  25.513  25.998  1.00  0.00     0.102 A 
ATOM      6  C   UNL A   1      30.937  25.157  24.690  1.00  0.00     0.134 A 
ATOM      7  C   UNL A   1      30.809  23.789  24.381  1.00  0.00     0.047 A 
ATOM      8  C   UNL A   1      31.019  22.794  25.337  1.00  0.00     0.004 A 
ATOM      9  C   UNL A   1      31.517  24.498  26.953  1.00  0.00     0.019 A 
ATOM     10  C   UNL A   1      31.362  23.150  26.633  1.00  0.00     0.001 A 
BRANCH   6  11
ATOM     11  O   UNL A   1      30.640  25.936  23.612  1.00  0.00    -0.483 OA
BRANCH  11  12
ATOM     12  C   UNL A   1      31.407  25.883  22.430  1.00  0.00     0.329 C 
BRANCH  12  13
ATOM     13  C   UNL A   1      32.758  26.607  22.454  1.00  0.00     0.262 C 
ATOM     14  N   UNL A   1      33.911  25.982  22.828  1.00  0.00    -0.320 N 
ATOM     15  H   UNL A   1      34.715  26.362  22.406  1.00  0.00     0.170 HD
ATOM     16  O   UNL A   1      32.828  27.784  22.079  1.00  0.00    -0.271 OA
BRANCH  14  17
ATOM     17  C   UNL A   1      34.190  24.909  23.691  1.00  0.00     0.084 A 
ATOM     18  C   UNL A   1      34.165  23.607  23.141  1.00  0.00     0.143 A 
ATOM     19  C   UNL A   1      34.589  22.513  23.900  1.00  0.00     0.069 A 
ATOM     20  C   UNL A   1      35.035  22.713  25.202  1.00  0.00     0.044 A 
ATOM     21  C   UNL A   1      34.618  25.088  25.008  1.00  0.00     0.031 A 
ATOM     22  Cl  UNL A   1      35.635  21.380  26.110  1.00  0.00    -0.084 Cl
ATOM     23  C   UNL A   1      35.043  23.989  25.761  1.00  0.00     0.023 A 
BRANCH  18  24
ATOM     24  O   UNL A   1      33.783  23.486  21.824  1.00  0.00    -0.495 OA
ATOM     25  C   UNL A   1      32.777  22.493  21.594  1.00  0.00     0.278 C 
ENDBRANCH  18  24
ENDBRANCH  14  17
ENDBRANCH  12  13
ENDBRANCH  11  12
ENDBRANCH   6  11
ENDBRANCH   3   5
ENDBRANCH   2   3
ENDBRANCH   1   2
BRANCH   1  26
ATOM     26  C   UNL A   1      32.478  30.056  25.387  1.00  0.00     0.275 C 
BRANCH  26  27
ATOM     27  O   UNL A   1      33.030  30.067  26.713  1.00  0.00    -0.458 OA
BRANCH  27  28
ATOM     28  C   UNL A   1      33.425  31.284  27.143  1.00  0.00     0.338 C 
ATOM     29  O   UNL A   1      32.770  32.312  27.226  1.00  0.00    -0.246 OA
BRANCH  28  30
ATOM     30  C   UNL A   1      34.721  31.113  27.781  1.00  0.00     0.060 A 
ATOM     31  C   UNL A   1      35.021  29.832  28.248  1.00  0.00     0.016 A 
ATOM     32  C   UNL A   1      35.615  32.168  27.913  1.00  0.00     0.016 A 
ATOM     33  C   UNL A   1      36.231  29.591  28.878  1.00  0.00     0.010 A 
ATOM     34  C   UNL A   1      36.842  31.919  28.519  1.00  0.00     0.010 A 
ATOM     35  C   UNL A   1      37.152  30.633  29.008  1.00  0.00    -0.014 A 
BRANCH  35  36
ATOM     36  C   UNL A   1      38.432  30.424  29.717  1.00  0.00     0.031 A 
ATOM     37  C   UNL A   1      39.440  29.506  29.099  1.00  0.00     0.074 A 
ATOM     38  C   UNL A   1      38.648  31.006  30.910  1.00  0.00     0.049 A 
ATOM     39  N   UNL A   1      40.458  28.904  29.648  1.00  0.00    -0.248 NA
ATOM     40  C   UNL A   1      39.247  29.202  27.673  1.00  0.00     0.031 C 
ATOM     41  C   UNL A   1      37.765  31.982  31.552  1.00  0.00     0.029 A 
ATOM     42  N   UNL A   1      39.669  30.838  31.808  1.00  0.00    -0.354 N 
ATOM     43  C   UNL A   1      40.993  28.096  28.650  1.00  0.00     0.074 A 
ATOM     44  C   UNL A   1      40.179  28.284  27.469  1.00  0.00     0.031 C 
ATOM     45  C   UNL A   1      38.280  32.320  32.744  1.00  0.00     0.029 A 
ATOM     46  C   UNL A   1      39.471  31.516  32.989  1.00  0.00     0.049 A 
ATOM     47  H   UNL A   1      40.466  30.289  31.626  1.00  0.00     0.167 HD
ATOM     48  C   UNL A   1      42.063  27.268  28.736  1.00  0.00     0.034 A 
ATOM     49  C   UNL A   1      40.138  31.438  34.157  1.00  0.00     0.034 A 
ATOM     50  C   UNL A   1      42.855  27.137  29.935  1.00  0.00     0.049 A 
ATOM     51  C   UNL A   1      41.289  30.466  34.251  1.00  0.00     0.074 A 
ATOM     52  C   UNL A   1      43.955  26.333  30.164  1.00  0.00     0.029 A 
ATOM     53  N   UNL A   1      42.626  27.844  31.111  1.00  0.00    -0.354 N 
ATOM     54  N   UNL A   1      41.748  29.642  33.336  1.00  0.00    -0.248 NA
ATOM     55  C   UNL A   1      42.002  30.406  35.532  1.00  0.00     0.031 C 
ATOM     56  C   UNL A   1      44.357  26.513  31.492  1.00  0.00     0.029 A 
ATOM     57  C   UNL A   1      43.557  27.486  32.070  1.00  0.00     0.049 A 
ATOM     58  H   UNL A   1      41.907  28.505  31.242  1.00  0.00     0.167 HD
ATOM     59  C   UNL A   1      42.830  28.991  33.920  1.00  0.00     0.074 A 
ATOM     60  C   UNL A   1      42.951  29.519  35.266  1.00  0.00     0.031 C 
ATOM     61  C   UNL A   1      43.653  28.047  33.398  1.00  0.00     0.034 A 
BRANCH  48  62
ATOM     62  C   UNL A   1      42.374  26.407  27.536  1.00  0.00     0.023 A 
ATOM     63  C   UNL A   1      41.858  25.107  27.396  1.00  0.00     0.031 A 
ATOM     64  C   UNL A   1      43.251  26.875  26.540  1.00  0.00     0.131 A 
ATOM     65  C   UNL A   1      42.288  24.293  26.337  1.00  0.00     0.055 A 
ATOM     66  C   UNL A   1      43.605  26.091  25.440  1.00  0.00     0.041 A 
ATOM     67  F   UNL A   1      43.799  28.096  26.631  1.00  0.00    -0.206 F 
ATOM     68  C   UNL A   1      43.136  24.784  25.342  1.00  0.00     0.022 A 
BRANCH  65  69
ATOM     69  S   UNL A   1      41.847  22.533  26.363  1.00  0.00     0.124 S 
ATOM     70  O   UNL A   1      40.389  22.595  26.278  1.00  0.00    -0.237 OA
ATOM     71  O   UNL A   1      42.532  22.018  25.183  1.00  0.00    -0.237 OA
ATOM     72  O   UNL A   1      42.371  22.066  27.643  1.00  0.00    -0.744 OA
ENDBRANCH  65  69
ENDBRANCH  48  62
BRANCH  49  73
ATOM     73  C   UNL A   1      39.701  32.240  35.334  1.00  0.00     0.023 A 
ATOM     74  C   UNL A   1      38.907  31.669  36.339  1.00  0.00     0.031 A 
ATOM     75  C   UNL A   1      40.050  33.597  35.464  1.00  0.00     0.131 A 
ATOM     76  C   UNL A   1      38.455  32.458  37.409  1.00  0.00     0.055 A 
ATOM     77  C   UNL A   1      39.647  34.364  36.559  1.00  0.00     0.041 A 
ATOM     78  F   UNL A   1      40.808  34.197  34.532  1.00  0.00    -0.206 F 
ATOM     79  C   UNL A   1      38.833  33.797  37.535  1.00  0.00     0.022 A 
BRANCH  76  80
ATOM     80  S   UNL A   1      37.291  31.729  38.592  1.00  0.00     0.124 S 
ATOM     81  O   UNL A   1      37.113  30.388  38.046  1.00  0.00    -0.237 OA
ATOM     82  O   UNL A   1      38.036  31.818  39.843  1.00  0.00    -0.237 OA
ATOM     83  O   UNL A   1      36.122  32.601  38.501  1.00  0.00    -0.744 OA
ENDBRANCH  76  80
ENDBRANCH  49  73
BRANCH  61  84
ATOM     84  C   UNL A   1      44.804  27.595  34.256  1.00  0.00     0.023 A 
ATOM     85  C   UNL A   1      44.764  26.392  34.979  1.00  0.00     0.031 A 
ATOM     86  C   UNL A   1      45.969  28.379  34.324  1.00  0.00     0.131 A 
ATOM     87  C   UNL A   1      45.861  26.024  35.773  1.00  0.00     0.055 A 
ATOM     88  C   UNL A   1      47.076  27.981  35.072  1.00  0.00     0.041 A 
ATOM     89  F   UNL A   1      46.053  29.537  33.650  1.00  0.00    -0.206 F 
ATOM     90  C   UNL A   1      47.023  26.802  35.809  1.00  0.00     0.022 A 
BRANCH  87  91
ATOM     91  S   UNL A   1      45.731  24.540  36.804  1.00  0.00     0.124 S 
ATOM     92  O   UNL A   1      44.536  24.822  37.593  1.00  0.00    -0.237 OA
ATOM     93  O   UNL A   1      45.602  23.477  35.812  1.00  0.00    -0.237 OA
ATOM     94  O   UNL A   1      46.984  24.534  37.557  1.00  0.00    -0.744 OA
ENDBRANCH  87  91
ENDBRANCH  61  84
ENDBRANCH  35  36
ENDBRANCH  28  30
ENDBRANCH  27  28
ENDBRANCH  26  27
ENDBRANCH   1  26
TORSDOF 19
ENDMDL
