MODEL 1
REMARK VINA RESULT:     -13.6      0.000      0.000
REMARK SMILES CC1=C([C@H](NC(=O)[C@@H]2[C@H](C)c3cc(F)ccc3N2C)C(=O)OCCOC(=O)c2ccc(-c3c4nc(c(-c5cc(S(=O)(=O)[O-])ccc5F)c5ccc([nH]5)c(-c5cc(S(=O)(=O)[O-])ccc5F)c5nc(c(-c6cc(S(=O)(=O)[O-])ccc6F)c6ccc3[nH]6)C=C5)C=C4)cc2)[C@@H](C)N=N1
REMARK SMILES IDX 24 1 23 2 22 3 20 4 21 5 4 6 3 7 1 8 2 9 94 10 91 11 93 12
REMARK SMILES IDX 92 13 5 14 6 15 7 17 8 18 9 19 18 20 11 21 10 22 17 23 19 24
REMARK SMILES IDX 12 25 16 26 13 27 15 28 14 29 25 30 26 31 27 32 28 33 29 34
REMARK SMILES IDX 90 35 30 36 89 37 31 38 32 39 33 40 83 41 34 42 88 43 82 44
REMARK SMILES IDX 84 45 35 46 87 47 81 48 80 49 36 51 68 52 48 53 67 54 49 55
REMARK SMILES IDX 52 56 66 57 85 58 50 59 51 60 65 62 86 63 53 64 37 65 38 66
REMARK SMILES IDX 46 67 39 68 45 69 47 70 44 71 40 72 41 73 42 74 43 75 69 76
REMARK SMILES IDX 70 77 78 78 71 79 77 80 79 81 76 82 72 83 73 84 74 85 75 86
REMARK SMILES IDX 54 87 55 88 63 89 56 90 62 91 64 92 61 93 57 94 58 95 59 96
REMARK SMILES IDX 60 97
REMARK H PARENT 5 16 84 50 52 61
REMARK Flexibility Score: inf
ROOT
ATOM      1  C   UNL A   1      33.102  31.312  27.296  1.00  0.00     0.275 C 
ENDROOT
BRANCH   1   2
ATOM      2  C   UNL A   1      33.010  29.763  27.218  1.00  0.00     0.274 C 
BRANCH   2   3
ATOM      3  O   UNL A   1      31.784  29.334  26.569  1.00  0.00    -0.460 OA
BRANCH   3   4
ATOM      4  C   UNL A   1      31.455  28.092  26.981  1.00  0.00     0.333 C 
ATOM      5  O   UNL A   1      31.021  27.899  28.109  1.00  0.00    -0.249 OA
BRANCH   4   6
ATOM      6  C   UNL A   1      31.499  26.945  25.995  1.00  0.00     0.223 C 
BRANCH   6   7
ATOM      7  C   UNL A   1      31.128  27.495  24.676  1.00  0.00     0.012 C 
ATOM      8  C   UNL A   1      28.350  26.768  23.941  1.00  0.00     0.069 C 
ATOM      9  C   UNL A   1      29.752  27.346  23.776  1.00  0.00     0.064 C 
ATOM     10  N   UNL A   1      29.895  28.301  22.233  1.00  0.00    -0.160 NA
ATOM     11  C   UNL A   1      32.396  28.781  23.721  1.00  0.00     0.156 C 
ATOM     12  N   UNL A   1      31.310  29.135  22.076  1.00  0.00    -0.181 NA
ATOM     13  C   UNL A   1      33.866  28.866  23.282  1.00  0.00     0.040 C 
ENDBRANCH   6   7
BRANCH   6  14
ATOM     14  N   UNL A   1      30.763  25.741  26.180  1.00  0.00    -0.337 N 
ATOM     15  C   UNL A   1      31.340  24.527  26.383  1.00  0.00     0.244 C 
ATOM     16  H   UNL A   1      29.779  25.789  26.160  1.00  0.00     0.164 HD
ATOM     17  O   UNL A   1      30.612  23.591  26.727  1.00  0.00    -0.273 OA
BRANCH  15  18
ATOM     18  C   UNL A   1      32.875  24.333  26.071  1.00  0.00     0.178 C 
ATOM     19  C   UNL A   1      33.714  24.694  24.525  1.00  0.00     0.050 C 
ATOM     20  N   UNL A   1      33.198  22.953  26.485  1.00  0.00    -0.362 N 
ATOM     21  C   UNL A   1      34.873  23.418  24.900  1.00  0.00    -0.016 A 
ATOM     22  C   UNL A   1      32.789  25.190  22.502  1.00  0.00     0.015 C 
ATOM     23  C   UNL A   1      34.325  22.516  25.822  1.00  0.00     0.041 A 
ATOM     24  C   UNL A   1      33.026  22.586  27.880  1.00  0.00     0.144 C 
ATOM     25  C   UNL A   1      36.081  23.103  24.238  1.00  0.00     0.045 A 
ATOM     26  C   UNL A   1      34.878  21.244  25.963  1.00  0.00     0.029 A 
ATOM     27  C   UNL A   1      36.582  21.806  24.358  1.00  0.00     0.123 A 
ATOM     28  C   UNL A   1      35.978  20.871  25.193  1.00  0.00     0.041 A 
ATOM     29  F   UNL A   1      37.580  21.406  23.559  1.00  0.00    -0.207 F 
ENDBRANCH  15  18
ENDBRANCH   6  14
ENDBRANCH   4   6
ENDBRANCH   3   4
ENDBRANCH   2   3
ENDBRANCH   1   2
BRANCH   1  30
ATOM     30  O   UNL A   1      34.002  31.806  28.343  1.00  0.00    -0.458 OA
BRANCH  30  31
ATOM     31  C   UNL A   1      35.242  32.244  27.954  1.00  0.00     0.338 C 
ATOM     32  O   UNL A   1      35.459  33.363  27.502  1.00  0.00    -0.246 OA
BRANCH  31  33
ATOM     33  C   UNL A   1      36.363  31.364  28.474  1.00  0.00     0.060 A 
ATOM     34  C   UNL A   1      37.498  31.812  29.157  1.00  0.00     0.016 A 
ATOM     35  C   UNL A   1      36.357  30.031  28.046  1.00  0.00     0.016 A 
ATOM     36  C   UNL A   1      38.666  30.996  29.230  1.00  0.00     0.010 A 
ATOM     37  C   UNL A   1      37.515  29.240  28.120  1.00  0.00     0.010 A 
ATOM     38  C   UNL A   1      38.736  29.741  28.594  1.00  0.00    -0.014 A 
BRANCH  38  39
ATOM     39  C   UNL A   1      39.873  28.760  28.737  1.00  0.00     0.031 A 
ATOM     40  C   UNL A   1      40.061  28.498  30.167  1.00  0.00     0.074 A 
ATOM     41  C   UNL A   1      40.730  28.104  27.892  1.00  0.00     0.049 A 
ATOM     42  N   UNL A   1      40.885  29.206  30.861  1.00  0.00    -0.248 NA
ATOM     43  C   UNL A   1      39.141  27.678  30.954  1.00  0.00     0.031 C 
ATOM     44  C   UNL A   1      40.943  28.291  26.475  1.00  0.00     0.029 A 
ATOM     45  N   UNL A   1      41.623  27.054  28.128  1.00  0.00    -0.354 N 
ATOM     46  C   UNL A   1      40.802  28.706  32.136  1.00  0.00     0.074 A 
ATOM     47  C   UNL A   1      39.555  27.981  32.189  1.00  0.00     0.031 C 
ATOM     48  C   UNL A   1      41.577  27.241  25.905  1.00  0.00     0.029 A 
ATOM     49  C   UNL A   1      42.062  26.365  26.956  1.00  0.00     0.049 A 
ATOM     50  H   UNL A   1      41.925  26.809  29.032  1.00  0.00     0.167 HD
ATOM     51  C   UNL A   1      41.916  28.694  32.913  1.00  0.00     0.034 A 
ATOM     52  C   UNL A   1      43.182  25.618  26.677  1.00  0.00     0.034 A 
ATOM     53  C   UNL A   1      42.976  29.475  32.305  1.00  0.00     0.049 A 
ATOM     54  C   UNL A   1      44.214  25.999  27.660  1.00  0.00     0.074 A 
ATOM     55  C   UNL A   1      43.138  30.806  31.977  1.00  0.00     0.029 A 
ATOM     56  N   UNL A   1      43.885  28.781  31.540  1.00  0.00    -0.354 N 
ATOM     57  N   UNL A   1      44.853  27.131  27.618  1.00  0.00    -0.248 NA
ATOM     58  C   UNL A   1      44.129  25.353  28.958  1.00  0.00     0.031 C 
ATOM     59  C   UNL A   1      43.859  30.815  30.749  1.00  0.00     0.029 A 
ATOM     60  C   UNL A   1      44.211  29.506  30.420  1.00  0.00     0.049 A 
ATOM     61  H   UNL A   1      44.249  27.893  31.763  1.00  0.00     0.167 HD
ATOM     62  C   UNL A   1      44.764  27.593  28.919  1.00  0.00     0.074 A 
ATOM     63  C   UNL A   1      44.372  26.425  29.712  1.00  0.00     0.031 C 
ATOM     64  C   UNL A   1      44.723  28.930  29.185  1.00  0.00     0.034 A 
BRANCH  51  65
ATOM     65  C   UNL A   1      42.152  27.667  33.982  1.00  0.00     0.023 A 
ATOM     66  C   UNL A   1      42.944  26.519  33.790  1.00  0.00     0.031 A 
ATOM     67  C   UNL A   1      41.723  27.912  35.297  1.00  0.00     0.131 A 
ATOM     68  C   UNL A   1      43.236  25.644  34.839  1.00  0.00     0.055 A 
ATOM     69  C   UNL A   1      42.079  27.080  36.363  1.00  0.00     0.041 A 
ATOM     70  F   UNL A   1      40.981  28.991  35.591  1.00  0.00    -0.206 F 
ATOM     71  C   UNL A   1      42.833  25.934  36.136  1.00  0.00     0.022 A 
BRANCH  68  72
ATOM     72  S   UNL A   1      44.137  24.102  34.523  1.00  0.00     0.124 S 
ATOM     73  O   UNL A   1      44.450  24.220  33.103  1.00  0.00    -0.237 OA
ATOM     74  O   UNL A   1      45.271  24.235  35.434  1.00  0.00    -0.237 OA
ATOM     75  O   UNL A   1      43.178  23.062  34.880  1.00  0.00    -0.744 OA
ENDBRANCH  68  72
ENDBRANCH  51  65
BRANCH  52  76
ATOM     76  C   UNL A   1      43.165  24.204  26.174  1.00  0.00     0.023 A 
ATOM     77  C   UNL A   1      42.025  23.408  26.345  1.00  0.00     0.031 A 
ATOM     78  C   UNL A   1      44.342  23.547  25.741  1.00  0.00     0.131 A 
ATOM     79  C   UNL A   1      42.102  22.013  26.206  1.00  0.00     0.055 A 
ATOM     80  C   UNL A   1      44.406  22.156  25.558  1.00  0.00     0.041 A 
ATOM     81  F   UNL A   1      45.478  24.237  25.547  1.00  0.00    -0.206 F 
ATOM     82  C   UNL A   1      43.284  21.377  25.818  1.00  0.00     0.022 A 
BRANCH  79  83
ATOM     83  S   UNL A   1      40.682  20.982  26.665  1.00  0.00     0.124 S 
ATOM     84  O   UNL A   1      41.038  19.686  26.091  1.00  0.00    -0.237 OA
ATOM     85  O   UNL A   1      40.728  21.056  28.121  1.00  0.00    -0.237 OA
ATOM     86  O   UNL A   1      39.552  21.651  26.029  1.00  0.00    -0.744 OA
ENDBRANCH  79  83
ENDBRANCH  52  76
BRANCH  64  87
ATOM     87  C   UNL A   1      45.092  29.912  28.082  1.00  0.00     0.023 A 
ATOM     88  C   UNL A   1      46.459  30.176  27.917  1.00  0.00     0.031 A 
ATOM     89  C   UNL A   1      44.198  30.731  27.367  1.00  0.00     0.131 A 
ATOM     90  C   UNL A   1      46.891  31.266  27.154  1.00  0.00     0.055 A 
ATOM     91  C   UNL A   1      44.631  31.790  26.555  1.00  0.00     0.041 A 
ATOM     92  F   UNL A   1      42.877  30.578  27.472  1.00  0.00    -0.206 F 
ATOM     93  C   UNL A   1      45.987  32.076  26.465  1.00  0.00     0.022 A 
BRANCH  90  94
ATOM     94  S   UNL A   1      48.633  31.748  27.185  1.00  0.00     0.124 S 
ATOM     95  O   UNL A   1      48.844  32.056  28.597  1.00  0.00    -0.237 OA
ATOM     96  O   UNL A   1      49.296  30.539  26.701  1.00  0.00    -0.237 OA
ATOM     97  O   UNL A   1      48.699  32.891  26.280  1.00  0.00    -0.744 OA
ENDBRANCH  90  94
ENDBRANCH  64  87
ENDBRANCH  38  39
ENDBRANCH  31  33
ENDBRANCH  30  31
ENDBRANCH   1  30
TORSDOF 17
ENDMDL
MODEL 2
REMARK VINA RESULT:     -12.8      3.313      6.580
REMARK SMILES CC1=C([C@H](NC(=O)[C@@H]2[C@H](C)c3cc(F)ccc3N2C)C(=O)OCCOC(=O)c2ccc(-c3c4nc(c(-c5cc(S(=O)(=O)[O-])ccc5F)c5ccc([nH]5)c(-c5cc(S(=O)(=O)[O-])ccc5F)c5nc(c(-c6cc(S(=O)(=O)[O-])ccc6F)c6ccc3[nH]6)C=C5)C=C4)cc2)[C@@H](C)N=N1
REMARK SMILES IDX 24 1 23 2 22 3 20 4 21 5 4 6 3 7 1 8 2 9 94 10 91 11 93 12
REMARK SMILES IDX 92 13 5 14 6 15 7 17 8 18 9 19 18 20 11 21 10 22 17 23 19 24
REMARK SMILES IDX 12 25 16 26 13 27 15 28 14 29 25 30 26 31 27 32 28 33 29 34
REMARK SMILES IDX 90 35 30 36 89 37 31 38 32 39 33 40 83 41 34 42 88 43 82 44
REMARK SMILES IDX 84 45 35 46 87 47 81 48 80 49 36 51 68 52 48 53 67 54 49 55
REMARK SMILES IDX 52 56 66 57 85 58 50 59 51 60 65 62 86 63 53 64 37 65 38 66
REMARK SMILES IDX 46 67 39 68 45 69 47 70 44 71 40 72 41 73 42 74 43 75 69 76
REMARK SMILES IDX 70 77 78 78 71 79 77 80 79 81 76 82 72 83 73 84 74 85 75 86
REMARK SMILES IDX 54 87 55 88 63 89 56 90 62 91 64 92 61 93 57 94 58 95 59 96
REMARK SMILES IDX 60 97
REMARK H PARENT 5 16 84 50 52 61
REMARK Flexibility Score: inf
ROOT
ATOM      1  C   UNL A   1      35.453  29.808  28.103  1.00  0.00     0.275 C 
ENDROOT
BRANCH   1   2
ATOM      2  C   UNL A   1      34.272  29.501  27.140  1.00  0.00     0.274 C 
BRANCH   2   3
ATOM      3  O   UNL A   1      33.392  28.483  27.685  1.00  0.00    -0.460 OA
BRANCH   3   4
ATOM      4  C   UNL A   1      32.302  28.350  26.902  1.00  0.00     0.333 C 
ATOM      5  O   UNL A   1      31.475  29.249  26.819  1.00  0.00    -0.249 OA
BRANCH   4   6
ATOM      6  C   UNL A   1      32.165  27.130  26.018  1.00  0.00     0.223 C 
BRANCH   6   7
ATOM      7  C   UNL A   1      31.686  27.601  24.703  1.00  0.00     0.012 C 
ATOM      8  C   UNL A   1      28.897  26.741  24.192  1.00  0.00     0.069 C 
ATOM      9  C   UNL A   1      30.261  27.360  23.906  1.00  0.00     0.064 C 
ATOM     10  N   UNL A   1      30.264  28.243  22.315  1.00  0.00    -0.160 NA
ATOM     11  C   UNL A   1      32.838  28.884  23.606  1.00  0.00     0.156 C 
ATOM     12  N   UNL A   1      31.632  29.119  22.024  1.00  0.00    -0.181 NA
ATOM     13  C   UNL A   1      34.271  29.000  23.065  1.00  0.00     0.040 C 
ENDBRANCH   6   7
BRANCH   6  14
ATOM     14  N   UNL A   1      31.379  25.999  26.379  1.00  0.00    -0.337 N 
ATOM     15  C   UNL A   1      31.901  24.776  26.659  1.00  0.00     0.244 C 
ATOM     16  H   UNL A   1      30.402  26.109  26.430  1.00  0.00     0.164 HD
ATOM     17  O   UNL A   1      31.153  23.927  27.151  1.00  0.00    -0.273 OA
BRANCH  15  18
ATOM     18  C   UNL A   1      33.392  24.454  26.252  1.00  0.00     0.178 C 
ATOM     19  C   UNL A   1      34.150  24.718  24.646  1.00  0.00     0.050 C 
ATOM     20  N   UNL A   1      33.632  23.060  26.676  1.00  0.00    -0.362 N 
ATOM     21  C   UNL A   1      35.228  23.361  24.974  1.00  0.00    -0.016 A 
ATOM     22  C   UNL A   1      33.133  25.250  22.677  1.00  0.00     0.015 C 
ATOM     23  C   UNL A   1      34.674  22.523  25.950  1.00  0.00     0.041 A 
ATOM     24  C   UNL A   1      33.527  22.733  28.087  1.00  0.00     0.144 C 
ATOM     25  C   UNL A   1      36.360  22.938  24.241  1.00  0.00     0.045 A 
ATOM     26  C   UNL A   1      35.134  21.213  26.085  1.00  0.00     0.029 A 
ATOM     27  C   UNL A   1      36.764  21.608  24.358  1.00  0.00     0.123 A 
ATOM     28  C   UNL A   1      36.147  20.739  25.253  1.00  0.00     0.041 A 
ATOM     29  F   UNL A   1      37.672  21.114  23.505  1.00  0.00    -0.207 F 
ENDBRANCH  15  18
ENDBRANCH   6  14
ENDBRANCH   4   6
ENDBRANCH   3   4
ENDBRANCH   2   3
ENDBRANCH   1   2
BRANCH   1  30
ATOM     30  O   UNL A   1      36.717  30.106  27.421  1.00  0.00    -0.458 OA
BRANCH  30  31
ATOM     31  C   UNL A   1      37.845  30.194  28.196  1.00  0.00     0.338 C 
ATOM     32  O   UNL A   1      37.909  30.842  29.236  1.00  0.00    -0.246 OA
BRANCH  31  33
ATOM     33  C   UNL A   1      38.874  29.133  27.854  1.00  0.00     0.060 A 
ATOM     34  C   UNL A   1      39.363  28.161  28.732  1.00  0.00     0.016 A 
ATOM     35  C   UNL A   1      39.535  29.280  26.628  1.00  0.00     0.016 A 
ATOM     36  C   UNL A   1      40.598  27.499  28.461  1.00  0.00     0.010 A 
ATOM     37  C   UNL A   1      40.751  28.625  26.376  1.00  0.00     0.010 A 
ATOM     38  C   UNL A   1      41.381  27.820  27.335  1.00  0.00    -0.014 A 
BRANCH  38  39
ATOM     39  C   UNL A   1      42.620  27.075  26.902  1.00  0.00     0.031 A 
ATOM     40  C   UNL A   1      42.270  25.657  26.781  1.00  0.00     0.074 A 
ATOM     41  C   UNL A   1      43.924  27.396  26.625  1.00  0.00     0.049 A 
ATOM     42  N   UNL A   1      42.416  24.857  27.781  1.00  0.00    -0.248 NA
ATOM     43  C   UNL A   1      41.464  25.128  25.682  1.00  0.00     0.031 C 
ATOM     44  C   UNL A   1      44.629  28.638  26.841  1.00  0.00     0.029 A 
ATOM     45  N   UNL A   1      44.944  26.646  26.033  1.00  0.00    -0.354 N 
ATOM     46  C   UNL A   1      41.989  23.634  27.327  1.00  0.00     0.074 A 
ATOM     47  C   UNL A   1      41.184  23.911  26.162  1.00  0.00     0.031 C 
ATOM     48  C   UNL A   1      45.771  28.716  26.120  1.00  0.00     0.029 A 
ATOM     49  C   UNL A   1      46.047  27.411  25.547  1.00  0.00     0.049 A 
ATOM     50  H   UNL A   1      44.905  25.664  25.957  1.00  0.00     0.167 HD
ATOM     51  C   UNL A   1      42.599  22.511  27.789  1.00  0.00     0.034 A 
ATOM     52  C   UNL A   1      47.366  27.102  25.309  1.00  0.00     0.034 A 
ATOM     53  C   UNL A   1      43.460  22.819  28.914  1.00  0.00     0.049 A 
ATOM     54  C   UNL A   1      47.679  25.898  26.102  1.00  0.00     0.074 A 
ATOM     55  C   UNL A   1      43.260  23.314  30.187  1.00  0.00     0.029 A 
ATOM     56  N   UNL A   1      44.788  23.040  28.625  1.00  0.00    -0.354 N 
ATOM     57  N   UNL A   1      47.828  25.918  27.394  1.00  0.00    -0.248 NA
ATOM     58  C   UNL A   1      47.295  24.628  25.515  1.00  0.00     0.031 C 
ATOM     59  C   UNL A   1      44.373  24.161  30.451  1.00  0.00     0.029 A 
ATOM     60  C   UNL A   1      45.272  24.074  29.387  1.00  0.00     0.049 A 
ATOM     61  H   UNL A   1      45.314  22.530  27.967  1.00  0.00     0.167 HD
ATOM     62  C   UNL A   1      47.044  24.860  27.818  1.00  0.00     0.074 A 
ATOM     63  C   UNL A   1      46.800  24.060  26.615  1.00  0.00     0.031 C 
ATOM     64  C   UNL A   1      46.422  24.892  29.031  1.00  0.00     0.034 A 
BRANCH  51  65
ATOM     65  C   UNL A   1      42.713  21.255  26.977  1.00  0.00     0.023 A 
ATOM     66  C   UNL A   1      43.760  21.016  26.066  1.00  0.00     0.031 A 
ATOM     67  C   UNL A   1      41.853  20.173  27.233  1.00  0.00     0.131 A 
ATOM     68  C   UNL A   1      43.898  19.788  25.412  1.00  0.00     0.055 A 
ATOM     69  C   UNL A   1      42.037  18.920  26.638  1.00  0.00     0.041 A 
ATOM     70  F   UNL A   1      40.837  20.290  28.101  1.00  0.00    -0.206 F 
ATOM     71  C   UNL A   1      43.059  18.725  25.716  1.00  0.00     0.022 A 
BRANCH  68  72
ATOM     72  S   UNL A   1      45.172  19.567  24.141  1.00  0.00     0.124 S 
ATOM     73  O   UNL A   1      45.994  20.758  24.323  1.00  0.00    -0.237 OA
ATOM     74  O   UNL A   1      45.783  18.307  24.557  1.00  0.00    -0.237 OA
ATOM     75  O   UNL A   1      44.411  19.502  22.897  1.00  0.00    -0.744 OA
ENDBRANCH  68  72
ENDBRANCH  51  65
BRANCH  52  76
ATOM     76  C   UNL A   1      48.066  27.291  23.994  1.00  0.00     0.023 A 
ATOM     77  C   UNL A   1      49.430  26.996  23.873  1.00  0.00     0.031 A 
ATOM     78  C   UNL A   1      47.466  27.987  22.918  1.00  0.00     0.131 A 
ATOM     79  C   UNL A   1      50.171  27.484  22.784  1.00  0.00     0.055 A 
ATOM     80  C   UNL A   1      48.199  28.435  21.806  1.00  0.00     0.041 A 
ATOM     81  F   UNL A   1      46.160  28.304  22.951  1.00  0.00    -0.206 F 
ATOM     82  C   UNL A   1      49.569  28.206  21.750  1.00  0.00     0.022 A 
BRANCH  79  83
ATOM     83  S   UNL A   1      51.975  27.299  22.767  1.00  0.00     0.124 S 
ATOM     84  O   UNL A   1      52.202  26.565  21.524  1.00  0.00    -0.237 OA
ATOM     85  O   UNL A   1      52.410  28.692  22.761  1.00  0.00    -0.237 OA
ATOM     86  O   UNL A   1      52.255  26.550  23.988  1.00  0.00    -0.744 OA
ENDBRANCH  79  83
ENDBRANCH  52  76
BRANCH  64  87
ATOM     87  C   UNL A   1      46.843  25.946  30.046  1.00  0.00     0.023 A 
ATOM     88  C   UNL A   1      47.975  25.648  30.817  1.00  0.00     0.031 A 
ATOM     89  C   UNL A   1      46.094  27.075  30.430  1.00  0.00     0.131 A 
ATOM     90  C   UNL A   1      48.274  26.388  31.967  1.00  0.00     0.055 A 
ATOM     91  C   UNL A   1      46.425  27.853  31.550  1.00  0.00     0.041 A 
ATOM     92  F   UNL A   1      44.987  27.431  29.778  1.00  0.00    -0.206 F 
ATOM     93  C   UNL A   1      47.509  27.494  32.339  1.00  0.00     0.022 A 
BRANCH  90  94
ATOM     94  S   UNL A   1      49.569  25.815  33.091  1.00  0.00     0.124 S 
ATOM     95  O   UNL A   1      49.439  26.742  34.211  1.00  0.00    -0.237 OA
ATOM     96  O   UNL A   1      49.154  24.440  33.363  1.00  0.00    -0.237 OA
ATOM     97  O   UNL A   1      50.796  25.946  32.312  1.00  0.00    -0.744 OA
ENDBRANCH  90  94
ENDBRANCH  64  87
ENDBRANCH  38  39
ENDBRANCH  31  33
ENDBRANCH  30  31
ENDBRANCH   1  30
TORSDOF 17
ENDMDL
MODEL 3
REMARK VINA RESULT:     -11.9      4.285      9.055
REMARK SMILES CC1=C([C@H](NC(=O)[C@@H]2[C@H](C)c3cc(F)ccc3N2C)C(=O)OCCOC(=O)c2ccc(-c3c4nc(c(-c5cc(S(=O)(=O)[O-])ccc5F)c5ccc([nH]5)c(-c5cc(S(=O)(=O)[O-])ccc5F)c5nc(c(-c6cc(S(=O)(=O)[O-])ccc6F)c6ccc3[nH]6)C=C5)C=C4)cc2)[C@@H](C)N=N1
REMARK SMILES IDX 24 1 23 2 22 3 20 4 21 5 4 6 3 7 1 8 2 9 94 10 91 11 93 12
REMARK SMILES IDX 92 13 5 14 6 15 7 17 8 18 9 19 18 20 11 21 10 22 17 23 19 24
REMARK SMILES IDX 12 25 16 26 13 27 15 28 14 29 25 30 26 31 27 32 28 33 29 34
REMARK SMILES IDX 90 35 30 36 89 37 31 38 32 39 33 40 83 41 34 42 88 43 82 44
REMARK SMILES IDX 84 45 35 46 87 47 81 48 80 49 36 51 68 52 48 53 67 54 49 55
REMARK SMILES IDX 52 56 66 57 85 58 50 59 51 60 65 62 86 63 53 64 37 65 38 66
REMARK SMILES IDX 46 67 39 68 45 69 47 70 44 71 40 72 41 73 42 74 43 75 69 76
REMARK SMILES IDX 70 77 78 78 71 79 77 80 79 81 76 82 72 83 73 84 74 85 75 86
REMARK SMILES IDX 54 87 55 88 63 89 56 90 62 91 64 92 61 93 57 94 58 95 59 96
REMARK SMILES IDX 60 97
REMARK H PARENT 5 16 84 50 52 61
REMARK Flexibility Score: inf
ROOT
ATOM      1  C   UNL A   1      34.817  32.680  31.680  1.00  0.00     0.275 C 
ENDROOT
BRANCH   1   2
ATOM      2  C   UNL A   1      34.720  33.451  33.027  1.00  0.00     0.274 C 
BRANCH   2   3
ATOM      3  O   UNL A   1      35.604  32.884  34.029  1.00  0.00    -0.460 OA
BRANCH   3   4
ATOM      4  C   UNL A   1      36.503  33.809  34.425  1.00  0.00     0.333 C 
ATOM      5  O   UNL A   1      36.458  34.954  33.995  1.00  0.00    -0.249 OA
BRANCH   4   6
ATOM      6  C   UNL A   1      37.498  33.462  35.511  1.00  0.00     0.223 C 
BRANCH   6   7
ATOM      7  C   UNL A   1      38.833  33.854  35.016  1.00  0.00     0.012 C 
ATOM      8  C   UNL A   1      39.762  32.049  32.858  1.00  0.00     0.069 C 
ATOM      9  C   UNL A   1      39.825  33.172  33.887  1.00  0.00     0.064 C 
ATOM     10  N   UNL A   1      41.344  34.157  33.698  1.00  0.00    -0.160 NA
ATOM     11  C   UNL A   1      39.684  35.593  35.669  1.00  0.00     0.156 C 
ATOM     12  N   UNL A   1      41.395  35.518  34.630  1.00  0.00    -0.181 NA
ATOM     13  C   UNL A   1      40.022  36.310  36.985  1.00  0.00     0.040 C 
ENDBRANCH   6   7
BRANCH   6  14
ATOM     14  N   UNL A   1      37.613  32.154  36.063  1.00  0.00    -0.337 N 
ATOM     15  C   UNL A   1      37.490  31.881  37.388  1.00  0.00     0.244 C 
ATOM     16  H   UNL A   1      37.791  31.405  35.449  1.00  0.00     0.164 HD
ATOM     17  O   UNL A   1      37.410  30.698  37.730  1.00  0.00    -0.273 OA
BRANCH  15  18
ATOM     18  C   UNL A   1      37.564  33.059  38.436  1.00  0.00     0.178 C 
ATOM     19  C   UNL A   1      39.049  33.834  39.083  1.00  0.00     0.050 C 
ATOM     20  N   UNL A   1      36.703  32.649  39.564  1.00  0.00    -0.362 N 
ATOM     21  C   UNL A   1      38.172  34.186  40.572  1.00  0.00    -0.016 A 
ATOM     22  C   UNL A   1      41.209  33.140  38.866  1.00  0.00     0.015 C 
ATOM     23  C   UNL A   1      37.073  33.326  40.706  1.00  0.00     0.041 A 
ATOM     24  C   UNL A   1      35.289  32.427  39.315  1.00  0.00     0.144 C 
ATOM     25  C   UNL A   1      38.571  34.994  41.660  1.00  0.00     0.045 A 
ATOM     26  C   UNL A   1      36.479  33.146  41.955  1.00  0.00     0.029 A 
ATOM     27  C   UNL A   1      37.995  34.755  42.908  1.00  0.00     0.123 A 
ATOM     28  C   UNL A   1      36.974  33.823  43.068  1.00  0.00     0.041 A 
ATOM     29  F   UNL A   1      38.518  35.330  44.000  1.00  0.00    -0.207 F 
ENDBRANCH  15  18
ENDBRANCH   6  14
ENDBRANCH   4   6
ENDBRANCH   3   4
ENDBRANCH   2   3
ENDBRANCH   1   2
BRANCH   1  30
ATOM     30  O   UNL A   1      35.579  33.383  30.643  1.00  0.00    -0.458 OA
BRANCH  30  31
ATOM     31  C   UNL A   1      35.444  32.940  29.352  1.00  0.00     0.338 C 
ATOM     32  O   UNL A   1      34.744  33.494  28.511  1.00  0.00    -0.246 OA
BRANCH  31  33
ATOM     33  C   UNL A   1      36.514  31.937  28.962  1.00  0.00     0.060 A 
ATOM     34  C   UNL A   1      36.289  30.715  28.322  1.00  0.00     0.016 A 
ATOM     35  C   UNL A   1      37.796  32.165  29.478  1.00  0.00     0.016 A 
ATOM     36  C   UNL A   1      37.270  29.680  28.377  1.00  0.00     0.010 A 
ATOM     37  C   UNL A   1      38.750  31.136  29.529  1.00  0.00     0.010 A 
ATOM     38  C   UNL A   1      38.470  29.832  29.099  1.00  0.00    -0.014 A 
BRANCH  38  39
ATOM     39  C   UNL A   1      39.614  28.848  29.093  1.00  0.00     0.031 A 
ATOM     40  C   UNL A   1      39.912  28.500  30.485  1.00  0.00     0.074 A 
ATOM     41  C   UNL A   1      40.402  28.250  28.144  1.00  0.00     0.049 A 
ATOM     42  N   UNL A   1      40.788  29.167  31.156  1.00  0.00    -0.248 NA
ATOM     43  C   UNL A   1      39.055  27.628  31.288  1.00  0.00     0.031 C 
ATOM     44  C   UNL A   1      40.505  28.525  26.730  1.00  0.00     0.029 A 
ATOM     45  N   UNL A   1      41.310  27.191  28.245  1.00  0.00    -0.354 N 
ATOM     46  C   UNL A   1      40.803  28.588  32.399  1.00  0.00     0.074 A 
ATOM     47  C   UNL A   1      39.564  27.856  32.504  1.00  0.00     0.031 C 
ATOM     48  C   UNL A   1      41.092  27.515  26.048  1.00  0.00     0.029 A 
ATOM     49  C   UNL A   1      41.657  26.578  27.002  1.00  0.00     0.049 A 
ATOM     50  H   UNL A   1      41.682  26.891  29.106  1.00  0.00     0.167 HD
ATOM     51  C   UNL A   1      41.975  28.532  33.086  1.00  0.00     0.034 A 
ATOM     52  C   UNL A   1      42.752  25.855  26.592  1.00  0.00     0.034 A 
ATOM     53  C   UNL A   1      42.985  29.355  32.447  1.00  0.00     0.049 A 
ATOM     54  C   UNL A   1      43.857  26.178  27.514  1.00  0.00     0.074 A 
ATOM     55  C   UNL A   1      43.122  30.704  32.191  1.00  0.00     0.029 A 
ATOM     56  N   UNL A   1      43.831  28.713  31.572  1.00  0.00    -0.354 N 
ATOM     57  N   UNL A   1      44.492  27.313  27.492  1.00  0.00    -0.248 NA
ATOM     58  C   UNL A   1      43.872  25.452  28.771  1.00  0.00     0.031 C 
ATOM     59  C   UNL A   1      43.745  30.792  30.913  1.00  0.00     0.029 A 
ATOM     60  C   UNL A   1      44.070  29.507  30.478  1.00  0.00     0.049 A 
ATOM     61  H   UNL A   1      44.211  27.815  31.711  1.00  0.00     0.167 HD
ATOM     62  C   UNL A   1      44.504  27.693  28.822  1.00  0.00     0.074 A 
ATOM     63  C   UNL A   1      44.174  26.476  29.570  1.00  0.00     0.031 C 
ATOM     64  C   UNL A   1      44.484  29.011  29.174  1.00  0.00     0.034 A 
BRANCH  51  65
ATOM     65  C   UNL A   1      42.292  27.443  34.067  1.00  0.00     0.023 A 
ATOM     66  C   UNL A   1      43.112  26.341  33.760  1.00  0.00     0.031 A 
ATOM     67  C   UNL A   1      41.914  27.579  35.414  1.00  0.00     0.131 A 
ATOM     68  C   UNL A   1      43.480  25.405  34.731  1.00  0.00     0.055 A 
ATOM     69  C   UNL A   1      42.346  26.687  36.401  1.00  0.00     0.041 A 
ATOM     70  F   UNL A   1      41.151  28.607  35.815  1.00  0.00    -0.206 F 
ATOM     71  C   UNL A   1      43.126  25.588  36.061  1.00  0.00     0.022 A 
BRANCH  68  72
ATOM     72  S   UNL A   1      44.417  23.923  34.267  1.00  0.00     0.124 S 
ATOM     73  O   UNL A   1      43.353  22.958  34.014  1.00  0.00    -0.237 OA
ATOM     74  O   UNL A   1      45.139  24.393  33.087  1.00  0.00    -0.237 OA
ATOM     75  O   UNL A   1      45.250  23.662  35.436  1.00  0.00    -0.744 OA
ENDBRANCH  68  72
ENDBRANCH  51  65
BRANCH  52  76
ATOM     76  C   UNL A   1      42.695  24.474  26.004  1.00  0.00     0.023 A 
ATOM     77  C   UNL A   1      41.670  23.592  26.373  1.00  0.00     0.031 A 
ATOM     78  C   UNL A   1      43.773  23.927  25.268  1.00  0.00     0.131 A 
ATOM     79  C   UNL A   1      41.788  22.216  26.119  1.00  0.00     0.055 A 
ATOM     80  C   UNL A   1      43.868  22.557  24.974  1.00  0.00     0.041 A 
ATOM     81  F   UNL A   1      44.794  24.705  24.869  1.00  0.00    -0.206 F 
ATOM     82  C   UNL A   1      42.881  21.688  25.426  1.00  0.00     0.022 A 
BRANCH  79  83
ATOM     83  S   UNL A   1      40.573  21.064  26.814  1.00  0.00     0.124 S 
ATOM     84  O   UNL A   1      41.019  19.779  26.281  1.00  0.00    -0.237 OA
ATOM     85  O   UNL A   1      40.778  21.254  28.246  1.00  0.00    -0.237 OA
ATOM     86  O   UNL A   1      39.301  21.546  26.284  1.00  0.00    -0.744 OA
ENDBRANCH  79  83
ENDBRANCH  52  76
BRANCH  64  87
ATOM     87  C   UNL A   1      44.767  30.061  28.109  1.00  0.00     0.023 A 
ATOM     88  C   UNL A   1      46.113  30.397  27.910  1.00  0.00     0.031 A 
ATOM     89  C   UNL A   1      43.811  30.870  27.466  1.00  0.00     0.131 A 
ATOM     90  C   UNL A   1      46.468  31.542  27.187  1.00  0.00     0.055 A 
ATOM     91  C   UNL A   1      44.165  31.985  26.693  1.00  0.00     0.041 A 
ATOM     92  F   UNL A   1      42.504  30.650  27.609  1.00  0.00    -0.206 F 
ATOM     93  C   UNL A   1      45.502  32.340  26.571  1.00  0.00     0.022 A 
BRANCH  90  94
ATOM     94  S   UNL A   1      48.186  32.103  27.181  1.00  0.00     0.124 S 
ATOM     95  O   UNL A   1      48.449  32.307  28.603  1.00  0.00    -0.237 OA
ATOM     96  O   UNL A   1      48.878  30.970  26.571  1.00  0.00    -0.237 OA
ATOM     97  O   UNL A   1      48.157  33.317  26.371  1.00  0.00    -0.744 OA
ENDBRANCH  90  94
ENDBRANCH  64  87
ENDBRANCH  38  39
ENDBRANCH  31  33
ENDBRANCH  30  31
ENDBRANCH   1  30
TORSDOF 17
ENDMDL
