MODEL 1
REMARK VINA RESULT:     -12.3      0.000      0.000
REMARK SMILES CC[C@@H]1CCCN(S(=O)(=O)c2cc(C(=O)OCCOC(=O)c3ccc(-c4c5nc(c(-c6cc(S(=O)(=O)[O-])ccc6F)c6ccc([nH]6)c(-c6cc(S(=O)(=O)[O-])ccc6F)c6nc(c(-c7cc(S(=O)(=O)[O-])ccc7F)c7ccc4[nH]7)C=C6)C=C5)cc3)ccc2F)C1
REMARK SMILES IDX 17 1 16 2 14 3 15 4 13 5 11 6 12 7 87 8 86 9 88 10 85 11
REMARK SMILES IDX 8 12 9 13 10 14 7 15 3 16 4 17 89 18 5 19 6 20 2 21 1 22
REMARK SMILES IDX 18 23 19 24 20 25 21 26 22 27 23 28 84 29 24 30 83 31 25 32
REMARK SMILES IDX 26 33 27 34 77 35 28 36 82 37 76 38 78 39 29 40 81 41 75 42
REMARK SMILES IDX 74 43 30 45 62 46 42 47 61 48 43 49 46 50 60 51 79 52 44 53
REMARK SMILES IDX 45 54 59 56 80 57 47 58 31 59 32 60 40 61 33 62 39 63 41 64
REMARK SMILES IDX 38 65 34 66 35 67 36 68 37 69 63 70 64 71 72 72 65 73 71 74
REMARK SMILES IDX 73 75 70 76 66 77 67 78 68 79 69 80 48 81 49 82 57 83 50 84
REMARK SMILES IDX 56 85 58 86 55 87 51 88 52 89 53 90 54 91
REMARK H PARENT 78 44 46 55
REMARK Flexibility Score: inf
ROOT
ATOM      1  C   UNL A   1      35.956  20.673  24.991  1.00  0.00     0.275 C 
ENDROOT
BRANCH   1   2
ATOM      2  O   UNL A   1      36.065  22.112  24.964  1.00  0.00    -0.458 OA
BRANCH   2   3
ATOM      3  C   UNL A   1      35.857  22.718  23.767  1.00  0.00     0.338 C 
ATOM      4  O   UNL A   1      36.661  22.835  22.860  1.00  0.00    -0.246 OA
BRANCH   3   5
ATOM      5  C   UNL A   1      34.441  23.156  23.663  1.00  0.00     0.061 A 
ATOM      6  C   UNL A   1      32.823  24.813  22.925  1.00  0.00     0.119 A 
ATOM      7  C   UNL A   1      34.153  24.430  23.147  1.00  0.00     0.040 A 
ATOM      8  C   UNL A   1      31.791  23.963  23.297  1.00  0.00     0.143 A 
ATOM      9  C   UNL A   1      32.070  22.727  23.878  1.00  0.00     0.041 A 
ATOM     10  F   UNL A   1      30.506  24.308  23.144  1.00  0.00    -0.206 F 
ATOM     11  C   UNL A   1      33.393  22.309  24.041  1.00  0.00     0.019 A 
BRANCH   6  12
ATOM     12  S   UNL A   1      32.485  26.248  21.941  1.00  0.00     0.246 S 
ATOM     13  O   UNL A   1      31.572  25.879  20.879  1.00  0.00    -0.207 OA
ATOM     14  O   UNL A   1      33.770  26.834  21.636  1.00  0.00    -0.207 OA
BRANCH  12  15
ATOM     15  N   UNL A   1      31.664  27.316  23.000  1.00  0.00    -0.197 NA
ATOM     16  C   UNL A   1      31.910  29.028  24.817  1.00  0.00     0.004 C 
ATOM     17  C   UNL A   1      30.681  29.755  24.248  1.00  0.00     0.006 C 
ATOM     18  C   UNL A   1      32.623  28.228  23.717  1.00  0.00     0.106 C 
ATOM     19  C   UNL A   1      29.777  28.834  23.442  1.00  0.00     0.017 C 
ATOM     20  C   UNL A   1      30.563  28.091  22.370  1.00  0.00     0.102 C 
BRANCH  16  21
ATOM     21  C   UNL A   1      31.600  28.234  26.109  1.00  0.00     0.001 C 
ATOM     22  C   UNL A   1      32.708  27.366  26.690  1.00  0.00     0.004 C 
ENDBRANCH  16  21
ENDBRANCH  12  15
ENDBRANCH   6  12
ENDBRANCH   3   5
ENDBRANCH   2   3
ENDBRANCH   1   2
BRANCH   1  23
ATOM     23  C   UNL A   1      37.336  20.016  24.968  1.00  0.00     0.275 C 
BRANCH  23  24
ATOM     24  O   UNL A   1      38.359  21.025  25.044  1.00  0.00    -0.458 OA
BRANCH  24  25
ATOM     25  C   UNL A   1      39.341  20.790  25.944  1.00  0.00     0.338 C 
ATOM     26  O   UNL A   1      39.892  19.727  26.177  1.00  0.00    -0.246 OA
BRANCH  25  27
ATOM     27  C   UNL A   1      39.746  22.058  26.569  1.00  0.00     0.060 A 
ATOM     28  C   UNL A   1      39.092  23.214  26.162  1.00  0.00     0.016 A 
ATOM     29  C   UNL A   1      40.858  22.140  27.405  1.00  0.00     0.016 A 
ATOM     30  C   UNL A   1      39.608  24.462  26.493  1.00  0.00     0.010 A 
ATOM     31  C   UNL A   1      41.316  23.401  27.818  1.00  0.00     0.010 A 
ATOM     32  C   UNL A   1      40.729  24.582  27.324  1.00  0.00    -0.014 A 
BRANCH  32  33
ATOM     33  C   UNL A   1      41.315  25.934  27.589  1.00  0.00     0.031 A 
ATOM     34  C   UNL A   1      42.639  26.322  26.973  1.00  0.00     0.074 A 
ATOM     35  C   UNL A   1      40.636  26.854  28.309  1.00  0.00     0.049 A 
ATOM     36  N   UNL A   1      43.376  27.382  27.192  1.00  0.00    -0.248 NA
ATOM     37  C   UNL A   1      43.219  25.387  25.994  1.00  0.00     0.031 C 
ATOM     38  C   UNL A   1      39.311  26.657  28.903  1.00  0.00     0.029 A 
ATOM     39  N   UNL A   1      40.950  28.152  28.640  1.00  0.00    -0.354 N 
ATOM     40  C   UNL A   1      44.525  27.216  26.423  1.00  0.00     0.074 A 
ATOM     41  C   UNL A   1      44.394  25.946  25.742  1.00  0.00     0.031 C 
ATOM     42  C   UNL A   1      38.896  27.808  29.452  1.00  0.00     0.029 A 
ATOM     43  C   UNL A   1      39.965  28.797  29.353  1.00  0.00     0.049 A 
ATOM     44  H   UNL A   1      41.801  28.580  28.390  1.00  0.00     0.167 HD
ATOM     45  C   UNL A   1      45.588  28.048  26.295  1.00  0.00     0.034 A 
ATOM     46  C   UNL A   1      39.928  30.029  29.902  1.00  0.00     0.034 A 
ATOM     47  C   UNL A   1      45.677  29.346  26.917  1.00  0.00     0.049 A 
ATOM     48  C   UNL A   1      41.141  30.913  29.797  1.00  0.00     0.074 A 
ATOM     49  C   UNL A   1      46.709  30.266  26.841  1.00  0.00     0.029 A 
ATOM     50  N   UNL A   1      44.692  29.919  27.709  1.00  0.00    -0.354 N 
ATOM     51  N   UNL A   1      42.270  30.688  29.168  1.00  0.00    -0.248 NA
ATOM     52  C   UNL A   1      41.091  32.201  30.502  1.00  0.00     0.031 C 
ATOM     53  C   UNL A   1      46.373  31.370  27.629  1.00  0.00     0.029 A 
ATOM     54  C   UNL A   1      45.103  31.169  28.145  1.00  0.00     0.049 A 
ATOM     55  H   UNL A   1      43.829  29.500  27.929  1.00  0.00     0.167 HD
ATOM     56  C   UNL A   1      43.062  31.806  29.398  1.00  0.00     0.074 A 
ATOM     57  C   UNL A   1      42.281  32.713  30.214  1.00  0.00     0.031 C 
ATOM     58  C   UNL A   1      44.324  32.058  28.970  1.00  0.00     0.034 A 
BRANCH  45  59
ATOM     59  C   UNL A   1      46.771  27.565  25.494  1.00  0.00     0.023 A 
ATOM     60  C   UNL A   1      46.977  27.941  24.156  1.00  0.00     0.031 A 
ATOM     61  C   UNL A   1      47.730  26.736  26.105  1.00  0.00     0.131 A 
ATOM     62  C   UNL A   1      48.098  27.457  23.462  1.00  0.00     0.055 A 
ATOM     63  C   UNL A   1      48.874  26.311  25.429  1.00  0.00     0.041 A 
ATOM     64  F   UNL A   1      47.575  26.335  27.377  1.00  0.00    -0.206 F 
ATOM     65  C   UNL A   1      49.060  26.665  24.097  1.00  0.00     0.022 A 
BRANCH  62  66
ATOM     66  S   UNL A   1      48.257  27.817  21.692  1.00  0.00     0.124 S 
ATOM     67  O   UNL A   1      48.535  26.492  21.146  1.00  0.00    -0.237 OA
ATOM     68  O   UNL A   1      46.954  28.384  21.364  1.00  0.00    -0.237 OA
ATOM     69  O   UNL A   1      49.375  28.756  21.632  1.00  0.00    -0.744 OA
ENDBRANCH  62  66
ENDBRANCH  45  59
BRANCH  46  70
ATOM     70  C   UNL A   1      38.726  30.465  30.667  1.00  0.00     0.023 A 
ATOM     71  C   UNL A   1      37.697  31.194  30.051  1.00  0.00     0.031 A 
ATOM     72  C   UNL A   1      38.587  30.147  32.030  1.00  0.00     0.131 A 
ATOM     73  C   UNL A   1      36.576  31.587  30.801  1.00  0.00     0.055 A 
ATOM     74  C   UNL A   1      37.451  30.499  32.759  1.00  0.00     0.041 A 
ATOM     75  F   UNL A   1      39.545  29.453  32.666  1.00  0.00    -0.206 F 
ATOM     76  C   UNL A   1      36.438  31.228  32.145  1.00  0.00     0.022 A 
BRANCH  73  77
ATOM     77  S   UNL A   1      35.298  32.597  30.003  1.00  0.00     0.124 S 
ATOM     78  O   UNL A   1      36.072  33.744  29.540  1.00  0.00    -0.237 OA
ATOM     79  O   UNL A   1      34.798  31.700  28.966  1.00  0.00    -0.237 OA
ATOM     80  O   UNL A   1      34.357  32.875  31.086  1.00  0.00    -0.744 OA
ENDBRANCH  73  77
ENDBRANCH  46  70
BRANCH  58  81
ATOM     81  C   UNL A   1      44.939  33.377  29.349  1.00  0.00     0.023 A 
ATOM     82  C   UNL A   1      44.770  34.521  28.551  1.00  0.00     0.031 A 
ATOM     83  C   UNL A   1      45.650  33.501  30.555  1.00  0.00     0.131 A 
ATOM     84  C   UNL A   1      45.322  35.742  28.964  1.00  0.00     0.055 A 
ATOM     85  C   UNL A   1      46.162  34.727  30.979  1.00  0.00     0.041 A 
ATOM     86  F   UNL A   1      45.834  32.436  31.352  1.00  0.00    -0.206 F 
ATOM     87  C   UNL A   1      46.001  35.856  30.181  1.00  0.00     0.022 A 
BRANCH  84  88
ATOM     88  S   UNL A   1      45.154  37.190  27.884  1.00  0.00     0.124 S 
ATOM     89  O   UNL A   1      45.972  38.180  28.578  1.00  0.00    -0.237 OA
ATOM     90  O   UNL A   1      45.685  36.703  26.614  1.00  0.00    -0.237 OA
ATOM     91  O   UNL A   1      43.717  37.458  27.890  1.00  0.00    -0.744 OA
ENDBRANCH  84  88
ENDBRANCH  58  81
ENDBRANCH  32  33
ENDBRANCH  25  27
ENDBRANCH  24  25
ENDBRANCH  23  24
ENDBRANCH   1  23
TORSDOF 17
ENDMDL
MODEL 2
REMARK VINA RESULT:     -12.1      4.963      7.841
REMARK SMILES CC[C@@H]1CCCN(S(=O)(=O)c2cc(C(=O)OCCOC(=O)c3ccc(-c4c5nc(c(-c6cc(S(=O)(=O)[O-])ccc6F)c6ccc([nH]6)c(-c6cc(S(=O)(=O)[O-])ccc6F)c6nc(c(-c7cc(S(=O)(=O)[O-])ccc7F)c7ccc4[nH]7)C=C6)C=C5)cc3)ccc2F)C1
REMARK SMILES IDX 17 1 16 2 14 3 15 4 13 5 11 6 12 7 87 8 86 9 88 10 85 11
REMARK SMILES IDX 8 12 9 13 10 14 7 15 3 16 4 17 89 18 5 19 6 20 2 21 1 22
REMARK SMILES IDX 18 23 19 24 20 25 21 26 22 27 23 28 84 29 24 30 83 31 25 32
REMARK SMILES IDX 26 33 27 34 77 35 28 36 82 37 76 38 78 39 29 40 81 41 75 42
REMARK SMILES IDX 74 43 30 45 62 46 42 47 61 48 43 49 46 50 60 51 79 52 44 53
REMARK SMILES IDX 45 54 59 56 80 57 47 58 31 59 32 60 40 61 33 62 39 63 41 64
REMARK SMILES IDX 38 65 34 66 35 67 36 68 37 69 63 70 64 71 72 72 65 73 71 74
REMARK SMILES IDX 73 75 70 76 66 77 67 78 68 79 69 80 48 81 49 82 57 83 50 84
REMARK SMILES IDX 56 85 58 86 55 87 51 88 52 89 53 90 54 91
REMARK H PARENT 78 44 46 55
REMARK Flexibility Score: inf
ROOT
ATOM      1  C   UNL A   1      31.120  29.534  24.990  1.00  0.00     0.275 C 
ENDROOT
BRANCH   1   2
ATOM      2  O   UNL A   1      30.941  29.801  23.583  1.00  0.00    -0.458 OA
BRANCH   2   3
ATOM      3  C   UNL A   1      29.918  29.157  22.965  1.00  0.00     0.338 C 
ATOM      4  O   UNL A   1      28.981  29.671  22.381  1.00  0.00    -0.246 OA
BRANCH   3   5
ATOM      5  C   UNL A   1      30.145  27.689  23.011  1.00  0.00     0.061 A 
ATOM      6  C   UNL A   1      31.578  25.787  22.525  1.00  0.00     0.119 A 
ATOM      7  C   UNL A   1      31.280  27.150  22.385  1.00  0.00     0.040 A 
ATOM      8  C   UNL A   1      30.701  24.958  23.210  1.00  0.00     0.143 A 
ATOM      9  C   UNL A   1      29.534  25.475  23.771  1.00  0.00     0.041 A 
ATOM     10  F   UNL A   1      30.924  23.643  23.328  1.00  0.00    -0.206 F 
ATOM     11  C   UNL A   1      29.264  26.844  23.695  1.00  0.00     0.019 A 
BRANCH   6  12
ATOM     12  S   UNL A   1      33.182  25.196  22.056  1.00  0.00     0.246 S 
ATOM     13  O   UNL A   1      34.047  26.334  21.825  1.00  0.00    -0.207 OA
ATOM     14  O   UNL A   1      32.958  24.220  21.014  1.00  0.00    -0.207 OA
BRANCH  12  15
ATOM     15  N   UNL A   1      33.758  24.361  23.436  1.00  0.00    -0.197 NA
ATOM     16  C   UNL A   1      35.006  22.352  24.271  1.00  0.00     0.004 C 
ATOM     17  C   UNL A   1      35.550  23.214  25.422  1.00  0.00     0.006 C 
ATOM     18  C   UNL A   1      34.668  23.225  23.054  1.00  0.00     0.106 C 
ATOM     19  C   UNL A   1      34.664  24.413  25.725  1.00  0.00     0.017 C 
ATOM     20  C   UNL A   1      34.390  25.226  24.466  1.00  0.00     0.102 C 
BRANCH  16  21
ATOM     21  C   UNL A   1      33.883  21.385  24.716  1.00  0.00     0.001 C 
ATOM     22  C   UNL A   1      33.842  20.971  26.181  1.00  0.00     0.004 C 
ENDBRANCH  16  21
ENDBRANCH  12  15
ENDBRANCH   6  12
ENDBRANCH   3   5
ENDBRANCH   2   3
ENDBRANCH   1   2
BRANCH   1  23
ATOM     23  C   UNL A   1      31.409  30.821  25.762  1.00  0.00     0.275 C 
BRANCH  23  24
ATOM     24  O   UNL A   1      32.473  30.596  26.704  1.00  0.00    -0.458 OA
BRANCH  24  25
ATOM     25  C   UNL A   1      33.083  31.711  27.168  1.00  0.00     0.338 C 
ATOM     26  O   UNL A   1      32.600  32.824  27.288  1.00  0.00    -0.246 OA
BRANCH  25  27
ATOM     27  C   UNL A   1      34.442  31.373  27.619  1.00  0.00     0.060 A 
ATOM     28  C   UNL A   1      34.721  30.037  27.877  1.00  0.00     0.016 A 
ATOM     29  C   UNL A   1      35.370  32.358  27.950  1.00  0.00     0.016 A 
ATOM     30  C   UNL A   1      35.874  29.684  28.568  1.00  0.00     0.010 A 
ATOM     31  C   UNL A   1      36.580  31.987  28.558  1.00  0.00     0.010 A 
ATOM     32  C   UNL A   1      36.826  30.650  28.924  1.00  0.00    -0.014 A 
BRANCH  32  33
ATOM     33  C   UNL A   1      38.013  30.253  29.745  1.00  0.00     0.031 A 
ATOM     34  C   UNL A   1      39.110  29.412  29.136  1.00  0.00     0.074 A 
ATOM     35  C   UNL A   1      38.164  30.706  31.008  1.00  0.00     0.049 A 
ATOM     36  N   UNL A   1      40.141  28.849  29.716  1.00  0.00    -0.248 NA
ATOM     37  C   UNL A   1      39.029  29.154  27.688  1.00  0.00     0.031 C 
ATOM     38  C   UNL A   1      37.230  31.592  31.709  1.00  0.00     0.029 A 
ATOM     39  N   UNL A   1      39.174  30.513  31.922  1.00  0.00    -0.354 N 
ATOM     40  C   UNL A   1      40.797  28.131  28.719  1.00  0.00     0.074 A 
ATOM     41  C   UNL A   1      40.040  28.318  27.501  1.00  0.00     0.031 C 
ATOM     42  C   UNL A   1      37.745  31.925  32.901  1.00  0.00     0.029 A 
ATOM     43  C   UNL A   1      38.991  31.193  33.105  1.00  0.00     0.049 A 
ATOM     44  H   UNL A   1      39.956  29.941  31.746  1.00  0.00     0.167 HD
ATOM     45  C   UNL A   1      41.928  27.389  28.812  1.00  0.00     0.034 A 
ATOM     46  C   UNL A   1      39.714  31.204  34.244  1.00  0.00     0.034 A 
ATOM     47  C   UNL A   1      42.720  27.270  30.011  1.00  0.00     0.049 A 
ATOM     48  C   UNL A   1      40.933  30.329  34.345  1.00  0.00     0.074 A 
ATOM     49  C   UNL A   1      43.886  26.548  30.203  1.00  0.00     0.029 A 
ATOM     50  N   UNL A   1      42.442  27.903  31.214  1.00  0.00    -0.354 N 
ATOM     51  N   UNL A   1      41.470  29.558  33.428  1.00  0.00    -0.248 NA
ATOM     52  C   UNL A   1      41.625  30.295  35.640  1.00  0.00     0.031 C 
ATOM     53  C   UNL A   1      44.283  26.701  31.534  1.00  0.00     0.029 A 
ATOM     54  C   UNL A   1      43.403  27.570  32.157  1.00  0.00     0.049 A 
ATOM     55  H   UNL A   1      41.677  28.501  31.375  1.00  0.00     0.167 HD
ATOM     56  C   UNL A   1      42.564  28.953  34.035  1.00  0.00     0.074 A 
ATOM     57  C   UNL A   1      42.621  29.454  35.393  1.00  0.00     0.031 C 
ATOM     58  C   UNL A   1      43.442  28.062  33.512  1.00  0.00     0.034 A 
BRANCH  45  59
ATOM     59  C   UNL A   1      42.358  26.600  27.600  1.00  0.00     0.023 A 
ATOM     60  C   UNL A   1      42.046  25.240  27.438  1.00  0.00     0.031 A 
ATOM     61  C   UNL A   1      43.068  27.245  26.570  1.00  0.00     0.131 A 
ATOM     62  C   UNL A   1      42.476  24.560  26.287  1.00  0.00     0.055 A 
ATOM     63  C   UNL A   1      43.437  26.579  25.401  1.00  0.00     0.041 A 
ATOM     64  F   UNL A   1      43.405  28.540  26.679  1.00  0.00    -0.206 F 
ATOM     65  C   UNL A   1      43.147  25.226  25.258  1.00  0.00     0.022 A 
BRANCH  62  66
ATOM     66  S   UNL A   1      42.209  22.770  26.176  1.00  0.00     0.124 S 
ATOM     67  O   UNL A   1      42.974  22.286  27.321  1.00  0.00    -0.237 OA
ATOM     68  O   UNL A   1      40.759  22.657  26.281  1.00  0.00    -0.237 OA
ATOM     69  O   UNL A   1      42.765  22.421  24.870  1.00  0.00    -0.744 OA
ENDBRANCH  62  66
ENDBRANCH  45  59
BRANCH  46  70
ATOM     70  C   UNL A   1      39.257  32.019  35.406  1.00  0.00     0.023 A 
ATOM     71  C   UNL A   1      38.509  31.446  36.446  1.00  0.00     0.031 A 
ATOM     72  C   UNL A   1      39.575  33.386  35.494  1.00  0.00     0.131 A 
ATOM     73  C   UNL A   1      38.098  32.242  37.528  1.00  0.00     0.055 A 
ATOM     74  C   UNL A   1      39.204  34.161  36.592  1.00  0.00     0.041 A 
ATOM     75  F   UNL A   1      40.286  33.981  34.523  1.00  0.00    -0.206 F 
ATOM     76  C   UNL A   1      38.457  33.590  37.617  1.00  0.00     0.022 A 
BRANCH  73  77
ATOM     77  S   UNL A   1      37.064  31.498  38.820  1.00  0.00     0.124 S 
ATOM     78  O   UNL A   1      37.917  31.631  39.996  1.00  0.00    -0.237 OA
ATOM     79  O   UNL A   1      35.876  32.345  38.790  1.00  0.00    -0.237 OA
ATOM     80  O   UNL A   1      36.861  30.130  38.348  1.00  0.00    -0.744 OA
ENDBRANCH  73  77
ENDBRANCH  46  70
BRANCH  58  81
ATOM     81  C   UNL A   1      44.561  27.585  34.395  1.00  0.00     0.023 A 
ATOM     82  C   UNL A   1      44.485  26.360  35.079  1.00  0.00     0.031 A 
ATOM     83  C   UNL A   1      45.743  28.338  34.503  1.00  0.00     0.131 A 
ATOM     84  C   UNL A   1      45.569  25.930  35.857  1.00  0.00     0.055 A 
ATOM     85  C   UNL A   1      46.834  27.887  35.246  1.00  0.00     0.041 A 
ATOM     86  F   UNL A   1      45.863  29.514  33.865  1.00  0.00    -0.206 F 
ATOM     87  C   UNL A   1      46.749  26.677  35.930  1.00  0.00     0.022 A 
BRANCH  84  88
ATOM     88  S   UNL A   1      45.421  24.381  36.789  1.00  0.00     0.124 S 
ATOM     89  O   UNL A   1      45.180  24.868  38.145  1.00  0.00    -0.237 OA
ATOM     90  O   UNL A   1      44.292  23.725  36.139  1.00  0.00    -0.237 OA
ATOM     91  O   UNL A   1      46.714  23.731  36.584  1.00  0.00    -0.744 OA
ENDBRANCH  84  88
ENDBRANCH  58  81
ENDBRANCH  32  33
ENDBRANCH  25  27
ENDBRANCH  24  25
ENDBRANCH  23  24
ENDBRANCH   1  23
TORSDOF 17
ENDMDL
MODEL 3
REMARK VINA RESULT:     -12.1      1.180      7.626
REMARK SMILES CC[C@@H]1CCCN(S(=O)(=O)c2cc(C(=O)OCCOC(=O)c3ccc(-c4c5nc(c(-c6cc(S(=O)(=O)[O-])ccc6F)c6ccc([nH]6)c(-c6cc(S(=O)(=O)[O-])ccc6F)c6nc(c(-c7cc(S(=O)(=O)[O-])ccc7F)c7ccc4[nH]7)C=C6)C=C5)cc3)ccc2F)C1
REMARK SMILES IDX 17 1 16 2 14 3 15 4 13 5 11 6 12 7 87 8 86 9 88 10 85 11
REMARK SMILES IDX 8 12 9 13 10 14 7 15 3 16 4 17 89 18 5 19 6 20 2 21 1 22
REMARK SMILES IDX 18 23 19 24 20 25 21 26 22 27 23 28 84 29 24 30 83 31 25 32
REMARK SMILES IDX 26 33 27 34 77 35 28 36 82 37 76 38 78 39 29 40 81 41 75 42
REMARK SMILES IDX 74 43 30 45 62 46 42 47 61 48 43 49 46 50 60 51 79 52 44 53
REMARK SMILES IDX 45 54 59 56 80 57 47 58 31 59 32 60 40 61 33 62 39 63 41 64
REMARK SMILES IDX 38 65 34 66 35 67 36 68 37 69 63 70 64 71 72 72 65 73 71 74
REMARK SMILES IDX 73 75 70 76 66 77 67 78 68 79 69 80 48 81 49 82 57 83 50 84
REMARK SMILES IDX 56 85 58 86 55 87 51 88 52 89 53 90 54 91
REMARK H PARENT 78 44 46 55
REMARK Flexibility Score: inf
ROOT
ATOM      1  C   UNL A   1      34.702  20.655  25.159  1.00  0.00     0.275 C 
ENDROOT
BRANCH   1   2
ATOM      2  O   UNL A   1      34.159  21.214  23.944  1.00  0.00    -0.458 OA
BRANCH   2   3
ATOM      3  C   UNL A   1      32.819  21.097  23.763  1.00  0.00     0.338 C 
ATOM      4  O   UNL A   1      32.239  20.213  23.158  1.00  0.00    -0.246 OA
BRANCH   3   5
ATOM      5  C   UNL A   1      32.115  22.175  24.504  1.00  0.00     0.061 A 
ATOM      6  C   UNL A   1      31.164  24.412  24.521  1.00  0.00     0.119 A 
ATOM      7  C   UNL A   1      31.934  23.425  23.890  1.00  0.00     0.040 A 
ATOM      8  C   UNL A   1      30.656  24.181  25.791  1.00  0.00     0.143 A 
ATOM      9  C   UNL A   1      30.894  22.968  26.436  1.00  0.00     0.041 A 
ATOM     10  F   UNL A   1      29.954  25.114  26.448  1.00  0.00    -0.206 F 
ATOM     11  C   UNL A   1      31.602  21.954  25.788  1.00  0.00     0.019 A 
BRANCH   6  12
ATOM     12  S   UNL A   1      30.636  25.827  23.593  1.00  0.00     0.246 S 
ATOM     13  O   UNL A   1      29.204  25.977  23.751  1.00  0.00    -0.207 OA
ATOM     14  O   UNL A   1      31.219  25.683  22.279  1.00  0.00    -0.207 OA
BRANCH  12  15
ATOM     15  N   UNL A   1      31.397  27.158  24.358  1.00  0.00    -0.197 NA
ATOM     16  C   UNL A   1      33.584  28.250  24.923  1.00  0.00     0.004 C 
ATOM     17  C   UNL A   1      32.897  29.617  24.775  1.00  0.00     0.006 C 
ATOM     18  C   UNL A   1      32.874  27.191  24.066  1.00  0.00     0.106 C 
ATOM     19  C   UNL A   1      31.392  29.541  24.976  1.00  0.00     0.017 C 
ATOM     20  C   UNL A   1      30.770  28.476  24.082  1.00  0.00     0.102 C 
BRANCH  16  21
ATOM     21  C   UNL A   1      33.821  27.847  26.398  1.00  0.00     0.001 C 
ATOM     22  C   UNL A   1      34.263  28.935  27.368  1.00  0.00     0.004 C 
ENDBRANCH  16  21
ENDBRANCH  12  15
ENDBRANCH   6  12
ENDBRANCH   3   5
ENDBRANCH   2   3
ENDBRANCH   1   2
BRANCH   1  23
ATOM     23  C   UNL A   1      36.198  20.377  25.017  1.00  0.00     0.275 C 
BRANCH  23  24
ATOM     24  O   UNL A   1      36.952  21.451  25.607  1.00  0.00    -0.458 OA
BRANCH  24  25
ATOM     25  C   UNL A   1      38.283  21.236  25.715  1.00  0.00     0.338 C 
ATOM     26  O   UNL A   1      38.919  20.296  25.268  1.00  0.00    -0.246 OA
BRANCH  25  27
ATOM     27  C   UNL A   1      38.911  22.382  26.389  1.00  0.00     0.060 A 
ATOM     28  C   UNL A   1      38.359  23.638  26.172  1.00  0.00     0.016 A 
ATOM     29  C   UNL A   1      40.115  22.256  27.078  1.00  0.00     0.016 A 
ATOM     30  C   UNL A   1      39.058  24.782  26.540  1.00  0.00     0.010 A 
ATOM     31  C   UNL A   1      40.770  23.411  27.536  1.00  0.00     0.010 A 
ATOM     32  C   UNL A   1      40.277  24.693  27.226  1.00  0.00    -0.014 A 
BRANCH  32  33
ATOM     33  C   UNL A   1      41.050  25.939  27.529  1.00  0.00     0.031 A 
ATOM     34  C   UNL A   1      40.479  26.978  28.465  1.00  0.00     0.074 A 
ATOM     35  C   UNL A   1      42.296  26.117  27.040  1.00  0.00     0.049 A 
ATOM     36  N   UNL A   1      40.923  28.179  28.741  1.00  0.00    -0.248 NA
ATOM     37  C   UNL A   1      39.235  26.629  29.172  1.00  0.00     0.031 C 
ATOM     38  C   UNL A   1      43.015  25.167  26.186  1.00  0.00     0.029 A 
ATOM     39  N   UNL A   1      43.196  27.142  27.214  1.00  0.00    -0.354 N 
ATOM     40  C   UNL A   1      39.990  28.744  29.607  1.00  0.00     0.074 A 
ATOM     41  C   UNL A   1      38.948  27.760  29.799  1.00  0.00     0.031 C 
ATOM     42  C   UNL A   1      44.262  25.615  25.979  1.00  0.00     0.029 A 
ATOM     43  C   UNL A   1      44.404  26.934  26.586  1.00  0.00     0.049 A 
ATOM     44  H   UNL A   1      42.996  27.951  27.739  1.00  0.00     0.167 HD
ATOM     45  C   UNL A   1      40.006  29.969  30.189  1.00  0.00     0.034 A 
ATOM     46  C   UNL A   1      45.493  27.722  26.473  1.00  0.00     0.034 A 
ATOM     47  C   UNL A   1      41.086  30.914  30.053  1.00  0.00     0.049 A 
ATOM     48  C   UNL A   1      45.466  29.099  27.078  1.00  0.00     0.074 A 
ATOM     49  C   UNL A   1      41.198  32.177  30.610  1.00  0.00     0.029 A 
ATOM     50  N   UNL A   1      42.249  30.696  29.328  1.00  0.00    -0.354 N 
ATOM     51  N   UNL A   1      44.521  29.665  27.791  1.00  0.00    -0.248 NA
ATOM     52  C   UNL A   1      46.633  29.958  26.837  1.00  0.00     0.031 C 
ATOM     53  C   UNL A   1      42.401  32.742  30.180  1.00  0.00     0.029 A 
ATOM     54  C   UNL A   1      43.072  31.809  29.407  1.00  0.00     0.049 A 
ATOM     55  H   UNL A   1      42.459  29.872  28.832  1.00  0.00     0.167 HD
ATOM     56  C   UNL A   1      44.982  30.943  28.086  1.00  0.00     0.074 A 
ATOM     57  C   UNL A   1      46.294  31.064  27.485  1.00  0.00     0.031 C 
ATOM     58  C   UNL A   1      44.371  31.925  28.792  1.00  0.00     0.034 A 
BRANCH  45  59
ATOM     59  C   UNL A   1      38.797  30.387  30.987  1.00  0.00     0.023 A 
ATOM     60  C   UNL A   1      37.730  31.103  30.419  1.00  0.00     0.031 A 
ATOM     61  C   UNL A   1      38.703  30.025  32.344  1.00  0.00     0.131 A 
ATOM     62  C   UNL A   1      36.632  31.465  31.216  1.00  0.00     0.055 A 
ATOM     63  C   UNL A   1      37.581  30.333  33.114  1.00  0.00     0.041 A 
ATOM     64  F   UNL A   1      39.701  29.353  32.942  1.00  0.00    -0.206 F 
ATOM     65  C   UNL A   1      36.539  31.063  32.552  1.00  0.00     0.022 A 
BRANCH  62  66
ATOM     66  S   UNL A   1      35.347  32.529  30.506  1.00  0.00     0.124 S 
ATOM     67  O   UNL A   1      34.342  32.524  31.565  1.00  0.00    -0.237 OA
ATOM     68  O   UNL A   1      36.054  33.788  30.300  1.00  0.00    -0.237 OA
ATOM     69  O   UNL A   1      34.958  31.829  29.283  1.00  0.00    -0.744 OA
ENDBRANCH  62  66
ENDBRANCH  45  59
BRANCH  46  70
ATOM     70  C   UNL A   1      46.672  27.252  25.690  1.00  0.00     0.023 A 
ATOM     71  C   UNL A   1      46.881  27.674  24.368  1.00  0.00     0.031 A 
ATOM     72  C   UNL A   1      47.613  26.379  26.264  1.00  0.00     0.131 A 
ATOM     73  C   UNL A   1      48.005  27.215  23.661  1.00  0.00     0.055 A 
ATOM     74  C   UNL A   1      48.751  25.962  25.573  1.00  0.00     0.041 A 
ATOM     75  F   UNL A   1      47.455  25.945  27.525  1.00  0.00    -0.206 F 
ATOM     76  C   UNL A   1      48.950  26.377  24.261  1.00  0.00     0.022 A 
BRANCH  73  77
ATOM     77  S   UNL A   1      48.211  27.709  21.927  1.00  0.00     0.124 S 
ATOM     78  O   UNL A   1      48.349  26.416  21.265  1.00  0.00    -0.237 OA
ATOM     79  O   UNL A   1      46.974  28.436  21.665  1.00  0.00    -0.237 OA
ATOM     80  O   UNL A   1      49.419  28.532  21.949  1.00  0.00    -0.744 OA
ENDBRANCH  73  77
ENDBRANCH  46  70
BRANCH  58  81
ATOM     81  C   UNL A   1      45.119  33.216  28.983  1.00  0.00     0.023 A 
ATOM     82  C   UNL A   1      44.808  34.363  28.233  1.00  0.00     0.031 A 
ATOM     83  C   UNL A   1      46.114  33.313  29.971  1.00  0.00     0.131 A 
ATOM     84  C   UNL A   1      45.500  35.558  28.473  1.00  0.00     0.055 A 
ATOM     85  C   UNL A   1      46.771  34.515  30.233  1.00  0.00     0.041 A 
ATOM     86  F   UNL A   1      46.444  32.245  30.715  1.00  0.00    -0.206 F 
ATOM     87  C   UNL A   1      46.466  35.647  29.480  1.00  0.00     0.022 A 
BRANCH  84  88
ATOM     88  S   UNL A   1      45.132  37.006  27.444  1.00  0.00     0.124 S 
ATOM     89  O   UNL A   1      46.293  37.050  26.560  1.00  0.00    -0.237 OA
ATOM     90  O   UNL A   1      43.867  36.638  26.816  1.00  0.00    -0.237 OA
ATOM     91  O   UNL A   1      45.046  38.101  28.409  1.00  0.00    -0.744 OA
ENDBRANCH  84  88
ENDBRANCH  58  81
ENDBRANCH  32  33
ENDBRANCH  25  27
ENDBRANCH  24  25
ENDBRANCH  23  24
ENDBRANCH   1  23
TORSDOF 17
ENDMDL
