MODEL 1
REMARK VINA RESULT:     -10.4      0.000      0.000
REMARK SMILES CCC[NH2+][C@@H]1COC[C@@H]1C(=O)N[C@@](C)(CC)C(=O)OCCOC(=O)c1ccc(-c2c3nc(c(-c4cc(S(=O)(=O)[O-])ccc4F)c4ccc([nH]4)c(-c4cc(S(=O)(=O)[O-])ccc4F)c4nc(c(-c5cc(S(=O)(=O)[O-])ccc5F)c5ccc2[nH]5)C=C4)C=C3)cc1
REMARK SMILES IDX 20 1 19 2 17 3 18 4 13 5 14 6 12 7 10 8 11 9 9 11 5 12 6 13
REMARK SMILES IDX 7 14 8 15 4 16 3 19 2 20 1 21 15 22 16 23 21 24 22 25 23 26
REMARK SMILES IDX 24 27 25 28 26 29 87 30 27 31 86 32 28 33 29 34 30 35 80 36
REMARK SMILES IDX 31 37 85 38 79 39 81 40 32 41 84 42 78 43 77 44 33 46 65 47
REMARK SMILES IDX 45 48 64 49 46 50 49 51 63 52 82 53 47 54 48 55 62 57 83 58
REMARK SMILES IDX 50 59 34 60 35 61 43 62 36 63 42 64 44 65 41 66 37 67 38 68
REMARK SMILES IDX 39 69 40 70 66 71 67 72 75 73 68 74 74 75 76 76 73 77 69 78
REMARK SMILES IDX 70 79 71 80 72 81 51 82 52 83 60 84 53 85 59 86 61 87 58 88
REMARK SMILES IDX 54 89 55 90 56 91 57 92
REMARK H PARENT 12 10 4 17 4 18 81 45 49 56
REMARK Flexibility Score: inf
ROOT
ATOM      1  C   UNL A   1      36.351  22.525  23.750  1.00  0.00     0.274 C 
ENDROOT
BRANCH   1   2
ATOM      2  O   UNL A   1      35.267  23.287  24.302  1.00  0.00    -0.460 OA
BRANCH   2   3
ATOM      3  C   UNL A   1      34.152  23.363  23.523  1.00  0.00     0.331 C 
ATOM      4  O   UNL A   1      34.160  23.242  22.302  1.00  0.00    -0.249 OA
BRANCH   3   5
ATOM      5  C   UNL A   1      32.880  23.531  24.387  1.00  0.00     0.135 C 
ATOM      6  C   UNL A   1      33.286  23.755  25.857  1.00  0.00     0.047 C 
BRANCH   5   7
ATOM      7  N   UNL A   1      32.014  24.661  23.962  1.00  0.00    -0.340 N 
ATOM      8  C   UNL A   1      32.232  26.018  23.970  1.00  0.00     0.232 C 
ATOM      9  O   UNL A   1      31.248  26.724  24.198  1.00  0.00    -0.274 OA
ATOM     10  H   UNL A   1      31.133  24.391  23.614  1.00  0.00     0.164 HD
BRANCH   8  11
ATOM     11  C   UNL A   1      33.576  26.622  23.559  1.00  0.00     0.164 C 
ATOM     12  C   UNL A   1      33.891  28.015  24.105  1.00  0.00     0.223 C 
ATOM     13  C   UNL A   1      33.584  28.939  22.926  1.00  0.00     0.225 C 
ATOM     14  O   UNL A   1      34.036  28.195  21.794  1.00  0.00    -0.374 OA
ATOM     15  C   UNL A   1      33.607  26.851  22.046  1.00  0.00     0.180 C 
BRANCH  12  16
ATOM     16  N   UNL A   1      33.322  28.256  25.421  1.00  0.00    -0.341 N 
ATOM     17  H   UNL A   1      32.659  27.508  25.623  1.00  0.00     0.346 HD
ATOM     18  H   UNL A   1      34.106  28.284  26.074  1.00  0.00     0.346 HD
BRANCH  16  19
ATOM     19  C   UNL A   1      32.627  29.530  25.557  1.00  0.00     0.260 C 
BRANCH  19  20
ATOM     20  C   UNL A   1      31.920  29.616  26.907  1.00  0.00     0.058 C 
ATOM     21  C   UNL A   1      31.589  28.260  27.511  1.00  0.00     0.010 C 
ENDBRANCH  19  20
ENDBRANCH  16  19
ENDBRANCH  12  16
ENDBRANCH   8  11
ENDBRANCH   5   7
BRANCH   5  22
ATOM     22  C   UNL A   1      32.105  22.169  24.358  1.00  0.00     0.037 C 
ATOM     23  C   UNL A   1      32.544  21.090  25.339  1.00  0.00     0.007 C 
ENDBRANCH   5  22
ENDBRANCH   3   5
ENDBRANCH   2   3
ENDBRANCH   1   2
BRANCH   1  24
ATOM     24  C   UNL A   1      36.561  21.266  24.593  1.00  0.00     0.275 C 
BRANCH  24  25
ATOM     25  O   UNL A   1      37.234  21.590  25.827  1.00  0.00    -0.458 OA
BRANCH  25  26
ATOM     26  C   UNL A   1      38.550  21.255  25.894  1.00  0.00     0.338 C 
ATOM     27  O   UNL A   1      39.055  20.212  25.510  1.00  0.00    -0.246 OA
BRANCH  26  28
ATOM     28  C   UNL A   1      39.326  22.431  26.349  1.00  0.00     0.060 A 
ATOM     29  C   UNL A   1      38.851  23.703  26.014  1.00  0.00     0.016 A 
ATOM     30  C   UNL A   1      40.468  22.304  27.143  1.00  0.00     0.016 A 
ATOM     31  C   UNL A   1      39.467  24.850  26.522  1.00  0.00     0.010 A 
ATOM     32  C   UNL A   1      41.106  23.456  27.629  1.00  0.00     0.010 A 
ATOM     33  C   UNL A   1      40.599  24.738  27.336  1.00  0.00    -0.014 A 
BRANCH  33  34
ATOM     34  C   UNL A   1      41.364  25.956  27.710  1.00  0.00     0.031 A 
ATOM     35  C   UNL A   1      40.638  27.014  28.485  1.00  0.00     0.074 A 
ATOM     36  C   UNL A   1      42.663  26.127  27.404  1.00  0.00     0.049 A 
ATOM     37  N   UNL A   1      41.051  28.185  28.892  1.00  0.00    -0.248 NA
ATOM     38  C   UNL A   1      39.250  26.694  28.850  1.00  0.00     0.031 C 
ATOM     39  C   UNL A   1      43.508  25.147  26.730  1.00  0.00     0.029 A 
ATOM     40  N   UNL A   1      43.503  27.195  27.616  1.00  0.00    -0.354 N 
ATOM     41  C   UNL A   1      39.981  28.735  29.584  1.00  0.00     0.074 A 
ATOM     42  C   UNL A   1      38.886  27.791  29.489  1.00  0.00     0.031 C 
ATOM     43  C   UNL A   1      44.736  25.667  26.554  1.00  0.00     0.029 A 
ATOM     44  C   UNL A   1      44.759  27.031  27.076  1.00  0.00     0.049 A 
ATOM     45  H   UNL A   1      43.230  28.004  28.107  1.00  0.00     0.167 HD
ATOM     46  C   UNL A   1      39.914  29.915  30.249  1.00  0.00     0.034 A 
ATOM     47  C   UNL A   1      45.794  27.892  26.988  1.00  0.00     0.034 A 
ATOM     48  C   UNL A   1      40.981  30.882  30.269  1.00  0.00     0.049 A 
ATOM     49  C   UNL A   1      45.649  29.271  27.587  1.00  0.00     0.074 A 
ATOM     50  C   UNL A   1      41.002  32.138  30.848  1.00  0.00     0.029 A 
ATOM     51  N   UNL A   1      42.216  30.709  29.652  1.00  0.00    -0.354 N 
ATOM     52  N   UNL A   1      44.629  29.789  28.235  1.00  0.00    -0.248 NA
ATOM     53  C   UNL A   1      46.793  30.182  27.446  1.00  0.00     0.031 C 
ATOM     54  C   UNL A   1      42.218  32.749  30.522  1.00  0.00     0.029 A 
ATOM     55  C   UNL A   1      42.990  31.850  29.802  1.00  0.00     0.049 A 
ATOM     56  H   UNL A   1      42.499  29.894  29.176  1.00  0.00     0.167 HD
ATOM     57  C   UNL A   1      45.023  31.073  28.603  1.00  0.00     0.074 A 
ATOM     58  C   UNL A   1      46.374  31.250  28.110  1.00  0.00     0.031 C 
ATOM     59  C   UNL A   1      44.332  32.017  29.295  1.00  0.00     0.034 A 
BRANCH  46  60
ATOM     60  C   UNL A   1      38.596  30.218  30.914  1.00  0.00     0.023 A 
ATOM     61  C   UNL A   1      37.550  30.835  30.202  1.00  0.00     0.031 A 
ATOM     62  C   UNL A   1      38.444  30.044  32.299  1.00  0.00     0.131 A 
ATOM     63  C   UNL A   1      36.456  31.368  30.899  1.00  0.00     0.055 A 
ATOM     64  C   UNL A   1      37.306  30.491  32.971  1.00  0.00     0.041 A 
ATOM     65  F   UNL A   1      39.423  29.488  33.030  1.00  0.00    -0.206 F 
ATOM     66  C   UNL A   1      36.315  31.181  32.276  1.00  0.00     0.022 A 
BRANCH  63  67
ATOM     67  S   UNL A   1      35.341  32.499  30.018  1.00  0.00     0.124 S 
ATOM     68  O   UNL A   1      34.975  31.703  28.849  1.00  0.00    -0.237 OA
ATOM     69  O   UNL A   1      34.284  32.726  30.995  1.00  0.00    -0.237 OA
ATOM     70  O   UNL A   1      36.186  33.657  29.731  1.00  0.00    -0.744 OA
ENDBRANCH  63  67
ENDBRANCH  46  60
BRANCH  47  71
ATOM     71  C   UNL A   1      47.037  27.516  26.248  1.00  0.00     0.023 A 
ATOM     72  C   UNL A   1      47.204  27.814  24.885  1.00  0.00     0.031 A 
ATOM     73  C   UNL A   1      48.052  26.781  26.888  1.00  0.00     0.131 A 
ATOM     74  C   UNL A   1      48.339  27.346  24.199  1.00  0.00     0.055 A 
ATOM     75  C   UNL A   1      49.198  26.357  26.214  1.00  0.00     0.041 A 
ATOM     76  F   UNL A   1      47.940  26.459  28.187  1.00  0.00    -0.206 F 
ATOM     77  C   UNL A   1      49.341  26.629  24.858  1.00  0.00     0.022 A 
BRANCH  74  78
ATOM     78  S   UNL A   1      48.460  27.624  22.409  1.00  0.00     0.124 S 
ATOM     79  O   UNL A   1      48.571  26.261  21.903  1.00  0.00    -0.237 OA
ATOM     80  O   UNL A   1      47.209  28.318  22.122  1.00  0.00    -0.237 OA
ATOM     81  O   UNL A   1      49.664  28.441  22.272  1.00  0.00    -0.744 OA
ENDBRANCH  74  78
ENDBRANCH  47  71
BRANCH  59  82
ATOM     82  C   UNL A   1      45.049  33.310  29.601  1.00  0.00     0.023 A 
ATOM     83  C   UNL A   1      44.991  34.417  28.735  1.00  0.00     0.031 A 
ATOM     84  C   UNL A   1      45.788  33.438  30.791  1.00  0.00     0.131 A 
ATOM     85  C   UNL A   1      45.692  35.589  29.056  1.00  0.00     0.055 A 
ATOM     86  C   UNL A   1      46.440  34.624  31.128  1.00  0.00     0.041 A 
ATOM     87  F   UNL A   1      45.877  32.412  31.653  1.00  0.00    -0.206 F 
ATOM     88  C   UNL A   1      46.402  35.706  30.254  1.00  0.00     0.022 A 
BRANCH  85  89
ATOM     89  S   UNL A   1      45.720  36.950  27.855  1.00  0.00     0.124 S 
ATOM     90  O   UNL A   1      46.399  38.003  28.604  1.00  0.00    -0.237 OA
ATOM     91  O   UNL A   1      46.471  36.372  26.744  1.00  0.00    -0.237 OA
ATOM     92  O   UNL A   1      44.305  37.198  27.582  1.00  0.00    -0.744 OA
ENDBRANCH  85  89
ENDBRANCH  59  82
ENDBRANCH  33  34
ENDBRANCH  26  28
ENDBRANCH  25  26
ENDBRANCH  24  25
ENDBRANCH   1  24
TORSDOF 20
ENDMDL
MODEL 2
REMARK VINA RESULT:     -10.3      5.092     10.076
REMARK SMILES CCC[NH2+][C@@H]1COC[C@@H]1C(=O)N[C@@](C)(CC)C(=O)OCCOC(=O)c1ccc(-c2c3nc(c(-c4cc(S(=O)(=O)[O-])ccc4F)c4ccc([nH]4)c(-c4cc(S(=O)(=O)[O-])ccc4F)c4nc(c(-c5cc(S(=O)(=O)[O-])ccc5F)c5ccc2[nH]5)C=C4)C=C3)cc1
REMARK SMILES IDX 20 1 19 2 17 3 18 4 13 5 14 6 12 7 10 8 11 9 9 11 5 12 6 13
REMARK SMILES IDX 7 14 8 15 4 16 3 19 2 20 1 21 15 22 16 23 21 24 22 25 23 26
REMARK SMILES IDX 24 27 25 28 26 29 87 30 27 31 86 32 28 33 29 34 30 35 80 36
REMARK SMILES IDX 31 37 85 38 79 39 81 40 32 41 84 42 78 43 77 44 33 46 65 47
REMARK SMILES IDX 45 48 64 49 46 50 49 51 63 52 82 53 47 54 48 55 62 57 83 58
REMARK SMILES IDX 50 59 34 60 35 61 43 62 36 63 42 64 44 65 41 66 37 67 38 68
REMARK SMILES IDX 39 69 40 70 66 71 67 72 75 73 68 74 74 75 76 76 73 77 69 78
REMARK SMILES IDX 70 79 71 80 72 81 51 82 52 83 60 84 53 85 59 86 61 87 58 88
REMARK SMILES IDX 54 89 55 90 56 91 57 92
REMARK H PARENT 12 10 4 17 4 18 81 45 49 56
REMARK Flexibility Score: inf
ROOT
ATOM      1  C   UNL A   1      31.643  28.397  26.464  1.00  0.00     0.274 C 
ENDROOT
BRANCH   1   2
ATOM      2  O   UNL A   1      31.789  27.364  25.480  1.00  0.00    -0.460 OA
BRANCH   2   3
ATOM      3  C   UNL A   1      31.729  26.090  25.958  1.00  0.00     0.331 C 
ATOM      4  O   UNL A   1      30.919  25.711  26.798  1.00  0.00    -0.249 OA
BRANCH   3   5
ATOM      5  C   UNL A   1      32.752  25.178  25.240  1.00  0.00     0.135 C 
ATOM      6  C   UNL A   1      33.516  25.997  24.183  1.00  0.00     0.047 C 
BRANCH   5   7
ATOM      7  N   UNL A   1      33.741  24.553  26.156  1.00  0.00    -0.340 N 
ATOM      8  C   UNL A   1      34.330  23.311  26.136  1.00  0.00     0.232 C 
ATOM      9  O   UNL A   1      34.561  22.802  27.236  1.00  0.00    -0.274 OA
ATOM     10  H   UNL A   1      34.022  25.126  26.906  1.00  0.00     0.164 HD
BRANCH   8  11
ATOM     11  C   UNL A   1      34.818  22.670  24.836  1.00  0.00     0.164 C 
ATOM     12  C   UNL A   1      35.084  21.165  24.878  1.00  0.00     0.223 C 
ATOM     13  C   UNL A   1      36.605  21.073  25.009  1.00  0.00     0.225 C 
ATOM     14  O   UNL A   1      37.074  22.138  24.182  1.00  0.00    -0.374 OA
ATOM     15  C   UNL A   1      36.190  23.232  24.458  1.00  0.00     0.180 C 
BRANCH  12  16
ATOM     16  N   UNL A   1      34.204  20.453  25.791  1.00  0.00    -0.341 N 
ATOM     17  H   UNL A   1      34.702  19.636  26.142  1.00  0.00     0.346 HD
ATOM     18  H   UNL A   1      33.952  21.115  26.526  1.00  0.00     0.346 HD
BRANCH  16  19
ATOM     19  C   UNL A   1      32.951  20.002  25.197  1.00  0.00     0.260 C 
BRANCH  19  20
ATOM     20  C   UNL A   1      32.794  18.491  25.357  1.00  0.00     0.058 C 
ATOM     21  C   UNL A   1      32.918  17.723  24.050  1.00  0.00     0.010 C 
ENDBRANCH  19  20
ENDBRANCH  16  19
ENDBRANCH  12  16
ENDBRANCH   8  11
ENDBRANCH   5   7
BRANCH   5  22
ATOM     22  C   UNL A   1      31.943  24.096  24.444  1.00  0.00     0.037 C 
ATOM     23  C   UNL A   1      30.974  24.589  23.377  1.00  0.00     0.007 C 
ENDBRANCH   5  22
ENDBRANCH   3   5
ENDBRANCH   2   3
ENDBRANCH   1   2
BRANCH   1  24
ATOM     24  C   UNL A   1      31.818  29.760  25.792  1.00  0.00     0.275 C 
BRANCH  24  25
ATOM     25  O   UNL A   1      33.163  30.246  25.975  1.00  0.00    -0.458 OA
BRANCH  25  26
ATOM     26  C   UNL A   1      33.324  31.221  26.910  1.00  0.00     0.338 C 
ATOM     27  O   UNL A   1      32.515  32.087  27.202  1.00  0.00    -0.246 OA
BRANCH  26  28
ATOM     28  C   UNL A   1      34.575  30.969  27.660  1.00  0.00     0.060 A 
ATOM     29  C   UNL A   1      34.865  29.653  28.035  1.00  0.00     0.016 A 
ATOM     30  C   UNL A   1      35.486  31.989  27.946  1.00  0.00     0.016 A 
ATOM     31  C   UNL A   1      36.089  29.336  28.630  1.00  0.00     0.010 A 
ATOM     32  C   UNL A   1      36.702  31.676  28.572  1.00  0.00     0.010 A 
ATOM     33  C   UNL A   1      37.020  30.344  28.903  1.00  0.00    -0.014 A 
BRANCH  33  34
ATOM     34  C   UNL A   1      38.229  30.033  29.710  1.00  0.00     0.031 A 
ATOM     35  C   UNL A   1      39.184  29.017  29.159  1.00  0.00     0.074 A 
ATOM     36  C   UNL A   1      38.501  30.638  30.881  1.00  0.00     0.049 A 
ATOM     37  N   UNL A   1      40.280  28.531  29.678  1.00  0.00    -0.248 NA
ATOM     38  C   UNL A   1      38.846  28.483  27.832  1.00  0.00     0.031 C 
ATOM     39  C   UNL A   1      37.705  31.699  31.490  1.00  0.00     0.029 A 
ATOM     40  N   UNL A   1      39.525  30.439  31.778  1.00  0.00    -0.354 N 
ATOM     41  C   UNL A   1      40.779  27.648  28.730  1.00  0.00     0.074 A 
ATOM     42  C   UNL A   1      39.833  27.628  27.634  1.00  0.00     0.031 C 
ATOM     43  C   UNL A   1      38.249  32.039  32.671  1.00  0.00     0.029 A 
ATOM     44  C   UNL A   1      39.418  31.198  32.922  1.00  0.00     0.049 A 
ATOM     45  H   UNL A   1      40.267  29.812  31.616  1.00  0.00     0.167 HD
ATOM     46  C   UNL A   1      41.925  26.926  28.761  1.00  0.00     0.034 A 
ATOM     47  C   UNL A   1      40.158  31.193  34.050  1.00  0.00     0.034 A 
ATOM     48  C   UNL A   1      42.818  26.892  29.890  1.00  0.00     0.049 A 
ATOM     49  C   UNL A   1      41.341  30.257  34.141  1.00  0.00     0.074 A 
ATOM     50  C   UNL A   1      43.968  26.145  30.063  1.00  0.00     0.029 A 
ATOM     51  N   UNL A   1      42.639  27.622  31.061  1.00  0.00    -0.354 N 
ATOM     52  N   UNL A   1      41.804  29.418  33.242  1.00  0.00    -0.248 NA
ATOM     53  C   UNL A   1      42.103  30.269  35.397  1.00  0.00     0.031 C 
ATOM     54  C   UNL A   1      44.445  26.370  31.360  1.00  0.00     0.029 A 
ATOM     55  C   UNL A   1      43.636  27.313  31.974  1.00  0.00     0.049 A 
ATOM     56  H   UNL A   1      41.910  28.265  31.218  1.00  0.00     0.167 HD
ATOM     57  C   UNL A   1      42.927  28.826  33.814  1.00  0.00     0.074 A 
ATOM     58  C   UNL A   1      43.076  29.407  35.133  1.00  0.00     0.031 C 
ATOM     59  C   UNL A   1      43.766  27.893  33.291  1.00  0.00     0.034 A 
BRANCH  46  60
ATOM     60  C   UNL A   1      42.187  26.061  27.554  1.00  0.00     0.023 A 
ATOM     61  C   UNL A   1      41.580  24.797  27.422  1.00  0.00     0.031 A 
ATOM     62  C   UNL A   1      43.169  26.426  26.620  1.00  0.00     0.131 A 
ATOM     63  C   UNL A   1      42.053  23.898  26.457  1.00  0.00     0.055 A 
ATOM     64  C   UNL A   1      43.567  25.560  25.601  1.00  0.00     0.041 A 
ATOM     65  F   UNL A   1      43.801  27.606  26.717  1.00  0.00    -0.206 F 
ATOM     66  C   UNL A   1      43.027  24.277  25.530  1.00  0.00     0.022 A 
BRANCH  63  67
ATOM     67  S   UNL A   1      41.541  22.159  26.575  1.00  0.00     0.124 S 
ATOM     68  O   UNL A   1      41.978  21.814  27.926  1.00  0.00    -0.237 OA
ATOM     69  O   UNL A   1      40.101  22.239  26.369  1.00  0.00    -0.237 OA
ATOM     70  O   UNL A   1      42.292  21.508  25.503  1.00  0.00    -0.744 OA
ENDBRANCH  63  67
ENDBRANCH  46  60
BRANCH  47  71
ATOM     71  C   UNL A   1      39.775  32.043  35.218  1.00  0.00     0.023 A 
ATOM     72  C   UNL A   1      38.970  31.549  36.258  1.00  0.00     0.031 A 
ATOM     73  C   UNL A   1      40.155  33.397  35.268  1.00  0.00     0.131 A 
ATOM     74  C   UNL A   1      38.540  32.412  37.281  1.00  0.00     0.055 A 
ATOM     75  C   UNL A   1      39.763  34.239  36.310  1.00  0.00     0.041 A 
ATOM     76  F   UNL A   1      40.915  33.925  34.294  1.00  0.00    -0.206 F 
ATOM     77  C   UNL A   1      38.940  33.750  37.319  1.00  0.00     0.022 A 
BRANCH  74  78
ATOM     78  S   UNL A   1      37.386  31.783  38.534  1.00  0.00     0.124 S 
ATOM     79  O   UNL A   1      38.172  31.916  39.756  1.00  0.00    -0.237 OA
ATOM     80  O   UNL A   1      36.255  32.694  38.394  1.00  0.00    -0.237 OA
ATOM     81  O   UNL A   1      37.130  30.410  38.102  1.00  0.00    -0.744 OA
ENDBRANCH  74  78
ENDBRANCH  47  71
BRANCH  59  82
ATOM     82  C   UNL A   1      44.948  27.479  34.133  1.00  0.00     0.023 A 
ATOM     83  C   UNL A   1      44.884  26.395  35.027  1.00  0.00     0.031 A 
ATOM     84  C   UNL A   1      46.165  28.176  34.023  1.00  0.00     0.131 A 
ATOM     85  C   UNL A   1      46.006  26.064  35.803  1.00  0.00     0.055 A 
ATOM     86  C   UNL A   1      47.292  27.809  34.759  1.00  0.00     0.041 A 
ATOM     87  F   UNL A   1      46.281  29.219  33.186  1.00  0.00    -0.206 F 
ATOM     88  C   UNL A   1      47.214  26.753  35.662  1.00  0.00     0.022 A 
BRANCH  85  89
ATOM     89  S   UNL A   1      45.853  24.755  37.051  1.00  0.00     0.124 S 
ATOM     90  O   UNL A   1      44.710  23.995  36.555  1.00  0.00    -0.237 OA
ATOM     91  O   UNL A   1      47.148  24.088  36.965  1.00  0.00    -0.237 OA
ATOM     92  O   UNL A   1      45.617  25.490  38.293  1.00  0.00    -0.744 OA
ENDBRANCH  85  89
ENDBRANCH  59  82
ENDBRANCH  33  34
ENDBRANCH  26  28
ENDBRANCH  25  26
ENDBRANCH  24  25
ENDBRANCH   1  24
TORSDOF 20
ENDMDL
MODEL 3
REMARK VINA RESULT:     -10.1      4.609      7.309
REMARK SMILES CCC[NH2+][C@@H]1COC[C@@H]1C(=O)N[C@@](C)(CC)C(=O)OCCOC(=O)c1ccc(-c2c3nc(c(-c4cc(S(=O)(=O)[O-])ccc4F)c4ccc([nH]4)c(-c4cc(S(=O)(=O)[O-])ccc4F)c4nc(c(-c5cc(S(=O)(=O)[O-])ccc5F)c5ccc2[nH]5)C=C4)C=C3)cc1
REMARK SMILES IDX 20 1 19 2 17 3 18 4 13 5 14 6 12 7 10 8 11 9 9 11 5 12 6 13
REMARK SMILES IDX 7 14 8 15 4 16 3 19 2 20 1 21 15 22 16 23 21 24 22 25 23 26
REMARK SMILES IDX 24 27 25 28 26 29 87 30 27 31 86 32 28 33 29 34 30 35 80 36
REMARK SMILES IDX 31 37 85 38 79 39 81 40 32 41 84 42 78 43 77 44 33 46 65 47
REMARK SMILES IDX 45 48 64 49 46 50 49 51 63 52 82 53 47 54 48 55 62 57 83 58
REMARK SMILES IDX 50 59 34 60 35 61 43 62 36 63 42 64 44 65 41 66 37 67 38 68
REMARK SMILES IDX 39 69 40 70 66 71 67 72 75 73 68 74 74 75 76 76 73 77 69 78
REMARK SMILES IDX 70 79 71 80 72 81 51 82 52 83 60 84 53 85 59 86 61 87 58 88
REMARK SMILES IDX 54 89 55 90 56 91 57 92
REMARK H PARENT 12 10 4 17 4 18 81 45 49 56
REMARK Flexibility Score: inf
ROOT
ATOM      1  C   UNL A   1      31.895  29.092  27.209  1.00  0.00     0.274 C 
ENDROOT
BRANCH   1   2
ATOM      2  O   UNL A   1      32.256  28.284  26.079  1.00  0.00    -0.460 OA
BRANCH   2   3
ATOM      3  C   UNL A   1      31.583  27.105  25.967  1.00  0.00     0.331 C 
ATOM      4  O   UNL A   1      30.793  26.685  26.807  1.00  0.00    -0.249 OA
BRANCH   3   5
ATOM      5  C   UNL A   1      31.881  26.422  24.611  1.00  0.00     0.135 C 
ATOM      6  C   UNL A   1      33.375  26.583  24.275  1.00  0.00     0.047 C 
BRANCH   5   7
ATOM      7  N   UNL A   1      31.545  24.975  24.585  1.00  0.00    -0.340 N 
ATOM      8  C   UNL A   1      32.258  23.877  25.003  1.00  0.00     0.232 C 
ATOM      9  O   UNL A   1      32.111  22.849  24.337  1.00  0.00    -0.274 OA
ATOM     10  H   UNL A   1      30.662  24.768  24.203  1.00  0.00     0.164 HD
BRANCH   8  11
ATOM     11  C   UNL A   1      33.056  23.880  26.308  1.00  0.00     0.164 C 
ATOM     12  C   UNL A   1      34.463  23.285  26.247  1.00  0.00     0.223 C 
ATOM     13  C   UNL A   1      34.287  21.887  26.841  1.00  0.00     0.225 C 
ATOM     14  O   UNL A   1      33.343  22.090  27.894  1.00  0.00    -0.374 OA
ATOM     15  C   UNL A   1      32.370  22.986  27.344  1.00  0.00     0.180 C 
BRANCH  12  16
ATOM     16  N   UNL A   1      35.112  23.482  24.961  1.00  0.00    -0.341 N 
ATOM     17  H   UNL A   1      34.497  24.048  24.377  1.00  0.00     0.346 HD
ATOM     18  H   UNL A   1      36.007  23.932  25.154  1.00  0.00     0.346 HD
BRANCH  16  19
ATOM     19  C   UNL A   1      35.417  22.252  24.241  1.00  0.00     0.260 C 
BRANCH  19  20
ATOM     20  C   UNL A   1      36.926  22.032  24.166  1.00  0.00     0.058 C 
ATOM     21  C   UNL A   1      37.395  20.765  24.863  1.00  0.00     0.010 C 
ENDBRANCH  19  20
ENDBRANCH  16  19
ENDBRANCH  12  16
ENDBRANCH   8  11
ENDBRANCH   5   7
BRANCH   5  22
ATOM     22  C   UNL A   1      31.103  27.213  23.503  1.00  0.00     0.037 C 
ATOM     23  C   UNL A   1      29.582  27.202  23.570  1.00  0.00     0.007 C 
ENDBRANCH   5  22
ENDBRANCH   3   5
ENDBRANCH   2   3
ENDBRANCH   1   2
BRANCH   1  24
ATOM     24  C   UNL A   1      32.188  30.560  26.891  1.00  0.00     0.275 C 
BRANCH  24  25
ATOM     25  O   UNL A   1      33.605  30.767  26.718  1.00  0.00    -0.458 OA
BRANCH  25  26
ATOM     26  C   UNL A   1      34.180  31.678  27.548  1.00  0.00     0.338 C 
ATOM     27  O   UNL A   1      33.692  32.734  27.917  1.00  0.00    -0.246 OA
BRANCH  26  28
ATOM     28  C   UNL A   1      35.436  31.112  28.089  1.00  0.00     0.060 A 
ATOM     29  C   UNL A   1      35.481  29.740  28.354  1.00  0.00     0.016 A 
ATOM     30  C   UNL A   1      36.579  31.893  28.281  1.00  0.00     0.016 A 
ATOM     31  C   UNL A   1      36.675  29.128  28.744  1.00  0.00     0.010 A 
ATOM     32  C   UNL A   1      37.771  31.285  28.702  1.00  0.00     0.010 A 
ATOM     33  C   UNL A   1      37.832  29.894  28.920  1.00  0.00    -0.014 A 
BRANCH  33  34
ATOM     34  C   UNL A   1      39.043  29.276  29.521  1.00  0.00     0.031 A 
ATOM     35  C   UNL A   1      39.528  29.834  30.825  1.00  0.00     0.074 A 
ATOM     36  C   UNL A   1      39.690  28.239  28.957  1.00  0.00     0.049 A 
ATOM     37  N   UNL A   1      40.578  29.514  31.533  1.00  0.00    -0.248 NA
ATOM     38  C   UNL A   1      38.701  30.902  31.405  1.00  0.00     0.031 C 
ATOM     39  C   UNL A   1      39.281  27.548  27.739  1.00  0.00     0.029 A 
ATOM     40  N   UNL A   1      40.841  27.587  29.335  1.00  0.00    -0.354 N 
ATOM     41  C   UNL A   1      40.527  30.326  32.658  1.00  0.00     0.074 A 
ATOM     42  C   UNL A   1      39.374  31.189  32.504  1.00  0.00     0.031 C 
ATOM     43  C   UNL A   1      40.179  26.590  27.450  1.00  0.00     0.029 A 
ATOM     44  C   UNL A   1      41.248  26.617  28.445  1.00  0.00     0.049 A 
ATOM     45  H   UNL A   1      41.329  27.795  30.164  1.00  0.00     0.167 HD
ATOM     46  C   UNL A   1      41.357  30.348  33.729  1.00  0.00     0.034 A 
ATOM     47  C   UNL A   1      42.365  25.861  28.423  1.00  0.00     0.034 A 
ATOM     48  C   UNL A   1      42.546  29.542  33.835  1.00  0.00     0.049 A 
ATOM     49  C   UNL A   1      43.371  26.015  29.540  1.00  0.00     0.074 A 
ATOM     50  C   UNL A   1      43.499  29.531  34.838  1.00  0.00     0.029 A 
ATOM     51  N   UNL A   1      42.963  28.620  32.881  1.00  0.00    -0.354 N 
ATOM     52  N   UNL A   1      43.321  26.792  30.599  1.00  0.00    -0.248 NA
ATOM     53  C   UNL A   1      44.585  25.189  29.461  1.00  0.00     0.031 C 
ATOM     54  C   UNL A   1      44.523  28.656  34.457  1.00  0.00     0.029 A 
ATOM     55  C   UNL A   1      44.177  28.063  33.252  1.00  0.00     0.049 A 
ATOM     56  H   UNL A   1      42.468  28.396  32.060  1.00  0.00     0.167 HD
ATOM     57  C   UNL A   1      44.479  26.524  31.324  1.00  0.00     0.074 A 
ATOM     58  C   UNL A   1      45.207  25.513  30.586  1.00  0.00     0.031 C 
ATOM     59  C   UNL A   1      44.898  27.062  32.500  1.00  0.00     0.034 A 
BRANCH  46  60
ATOM     60  C   UNL A   1      41.017  31.352  34.801  1.00  0.00     0.023 A 
ATOM     61  C   UNL A   1      40.011  31.086  35.750  1.00  0.00     0.031 A 
ATOM     62  C   UNL A   1      41.579  32.638  34.773  1.00  0.00     0.131 A 
ATOM     63  C   UNL A   1      39.513  32.129  36.544  1.00  0.00     0.055 A 
ATOM     64  C   UNL A   1      41.143  33.645  35.635  1.00  0.00     0.041 A 
ATOM     65  F   UNL A   1      42.520  32.953  33.869  1.00  0.00    -0.206 F 
ATOM     66  C   UNL A   1      40.086  33.402  36.509  1.00  0.00     0.022 A 
BRANCH  63  67
ATOM     67  S   UNL A   1      37.963  31.856  37.451  1.00  0.00     0.124 S 
ATOM     68  O   UNL A   1      37.679  30.457  37.137  1.00  0.00    -0.237 OA
ATOM     69  O   UNL A   1      38.348  32.138  38.827  1.00  0.00    -0.237 OA
ATOM     70  O   UNL A   1      37.041  32.818  36.849  1.00  0.00    -0.744 OA
ENDBRANCH  63  67
ENDBRANCH  46  60
BRANCH  47  71
ATOM     71  C   UNL A   1      42.641  24.942  27.278  1.00  0.00     0.023 A 
ATOM     72  C   UNL A   1      42.174  23.616  27.265  1.00  0.00     0.031 A 
ATOM     73  C   UNL A   1      43.448  25.364  26.205  1.00  0.00     0.131 A 
ATOM     74  C   UNL A   1      42.548  22.752  26.222  1.00  0.00     0.055 A 
ATOM     75  C   UNL A   1      43.780  24.514  25.148  1.00  0.00     0.041 A 
ATOM     76  F   UNL A   1      43.930  26.617  26.171  1.00  0.00    -0.206 F 
ATOM     77  C   UNL A   1      43.339  23.195  25.159  1.00  0.00     0.022 A 
BRANCH  74  78
ATOM     78  S   UNL A   1      42.048  21.009  26.304  1.00  0.00     0.124 S 
ATOM     79  O   UNL A   1      40.635  21.088  25.954  1.00  0.00    -0.237 OA
ATOM     80  O   UNL A   1      42.923  20.392  25.313  1.00  0.00    -0.237 OA
ATOM     81  O   UNL A   1      42.328  20.638  27.690  1.00  0.00    -0.744 OA
ENDBRANCH  74  78
ENDBRANCH  47  71
BRANCH  59  82
ATOM     82  C   UNL A   1      46.182  26.526  33.084  1.00  0.00     0.023 A 
ATOM     83  C   UNL A   1      47.430  27.114  32.807  1.00  0.00     0.031 A 
ATOM     84  C   UNL A   1      46.151  25.416  33.948  1.00  0.00     0.131 A 
ATOM     85  C   UNL A   1      48.597  26.565  33.359  1.00  0.00     0.055 A 
ATOM     86  C   UNL A   1      47.310  24.907  34.534  1.00  0.00     0.041 A 
ATOM     87  F   UNL A   1      44.988  24.815  34.245  1.00  0.00    -0.206 F 
ATOM     88  C   UNL A   1      48.544  25.476  34.234  1.00  0.00     0.022 A 
BRANCH  85  89
ATOM     89  S   UNL A   1      50.205  27.253  32.871  1.00  0.00     0.124 S 
ATOM     90  O   UNL A   1      50.804  26.138  32.144  1.00  0.00    -0.237 OA
ATOM     91  O   UNL A   1      49.820  28.407  32.065  1.00  0.00    -0.237 OA
ATOM     92  O   UNL A   1      50.843  27.575  34.146  1.00  0.00    -0.744 OA
ENDBRANCH  85  89
ENDBRANCH  59  82
ENDBRANCH  33  34
ENDBRANCH  26  28
ENDBRANCH  25  26
ENDBRANCH  24  25
ENDBRANCH   1  24
TORSDOF 20
ENDMDL
