MODEL 1
REMARK VINA RESULT:     -12.4      0.000      0.000
REMARK SMILES CC(C)Cc1cc2c(cc1Cl)C=C(C(=O)OCCOC(=O)c1ccc(-c3c4nc(c(-c5cc(S(=O)(=O)[O-])ccc5F)c5ccc([nH]5)c(-c5cc(S(=O)(=O)[O-])ccc5F)c5nc(c(-c6cc(S(=O)(=O)[O-])ccc6F)c6ccc3[nH]6)C=C5)C=C4)cc1)[C@@H](C(F)(F)F)O2
REMARK SMILES IDX 18 1 17 2 16 3 14 4 15 5 13 6 5 7 6 8 10 9 7 10 9 11 11 12
REMARK SMILES IDX 8 13 90 14 12 15 85 16 4 17 2 18 1 19 3 20 86 21 87 22 88 23
REMARK SMILES IDX 89 24 19 25 20 26 21 27 22 28 23 29 84 30 24 31 83 32 25 33
REMARK SMILES IDX 26 34 27 35 77 36 28 37 82 38 76 39 78 40 29 41 81 42 75 43
REMARK SMILES IDX 74 44 30 46 62 47 42 48 61 49 43 50 46 51 60 52 79 53 44 54
REMARK SMILES IDX 45 55 59 57 80 58 47 59 31 60 32 61 40 62 33 63 39 64 41 65
REMARK SMILES IDX 38 66 34 67 35 68 36 69 37 70 63 71 64 72 72 73 65 74 71 75
REMARK SMILES IDX 73 76 70 77 66 78 67 79 68 80 69 81 48 82 49 83 57 84 50 85
REMARK SMILES IDX 56 86 58 87 55 88 51 89 52 90 53 91 54 92
REMARK H PARENT 78 45 46 56
REMARK Flexibility Score: inf
ROOT
ATOM      1  C   UNL A   1      31.888  29.943  26.830  1.00  0.00     0.275 C 
ENDROOT
BRANCH   1   2
ATOM      2  C   UNL A   1      31.621  28.545  26.266  1.00  0.00     0.275 C 
BRANCH   2   3
ATOM      3  O   UNL A   1      32.728  27.647  26.501  1.00  0.00    -0.459 OA
BRANCH   3   4
ATOM      4  C   UNL A   1      33.273  27.093  25.392  1.00  0.00     0.338 C 
ATOM      5  O   UNL A   1      33.792  27.692  24.463  1.00  0.00    -0.246 OA
BRANCH   4   6
ATOM      6  C   UNL A   1      33.207  25.620  25.456  1.00  0.00     0.087 C 
ATOM      7  C   UNL A   1      34.363  20.750  24.946  1.00  0.00    -0.025 A 
ATOM      8  C   UNL A   1      33.152  21.459  25.106  1.00  0.00     0.052 A 
ATOM      9  C   UNL A   1      35.575  21.452  25.049  1.00  0.00     0.045 A 
ATOM     10  C   UNL A   1      33.147  22.841  25.295  1.00  0.00     0.128 A 
ATOM     11  C   UNL A   1      35.569  22.832  25.215  1.00  0.00     0.032 A 
ATOM     12  Cl  UNL A   1      37.116  20.680  24.938  1.00  0.00    -0.084 Cl
ATOM     13  C   UNL A   1      34.357  23.522  25.304  1.00  0.00     0.019 A 
ATOM     14  O   UNL A   1      31.936  23.458  25.439  1.00  0.00    -0.475 OA
ATOM     15  C   UNL A   1      34.363  24.963  25.337  1.00  0.00     0.027 C 
ATOM     16  C   UNL A   1      31.881  24.918  25.524  1.00  0.00     0.316 C 
BRANCH   7  17
ATOM     17  C   UNL A   1      34.314  19.281  24.595  1.00  0.00     0.040 C 
BRANCH  17  18
ATOM     18  C   UNL A   1      32.876  18.740  24.430  1.00  0.00    -0.013 C 
ATOM     19  C   UNL A   1      32.602  18.133  23.050  1.00  0.00     0.008 C 
ATOM     20  C   UNL A   1      32.601  17.686  25.505  1.00  0.00     0.008 C 
ENDBRANCH  17  18
ENDBRANCH   7  17
BRANCH  16  21
ATOM     21  C   UNL A   1      30.924  25.413  24.428  1.00  0.00     0.430 C 
ATOM     22  F   UNL A   1      30.018  26.291  24.926  1.00  0.00    -0.167 F 
ATOM     23  F   UNL A   1      31.580  26.067  23.438  1.00  0.00    -0.167 F 
ATOM     24  F   UNL A   1      30.233  24.403  23.855  1.00  0.00    -0.167 F 
ENDBRANCH  16  21
ENDBRANCH   4   6
ENDBRANCH   3   4
ENDBRANCH   2   3
ENDBRANCH   1   2
BRANCH   1  25
ATOM     25  O   UNL A   1      33.210  30.397  26.487  1.00  0.00    -0.458 OA
BRANCH  25  26
ATOM     26  C   UNL A   1      33.686  31.402  27.255  1.00  0.00     0.338 C 
ATOM     27  O   UNL A   1      33.078  32.385  27.642  1.00  0.00    -0.246 OA
BRANCH  26  28
ATOM     28  C   UNL A   1      35.052  31.086  27.692  1.00  0.00     0.060 A 
ATOM     29  C   UNL A   1      35.966  32.068  28.046  1.00  0.00     0.016 A 
ATOM     30  C   UNL A   1      35.359  29.748  27.901  1.00  0.00     0.016 A 
ATOM     31  C   UNL A   1      37.194  31.680  28.602  1.00  0.00     0.010 A 
ATOM     32  C   UNL A   1      36.493  29.380  28.614  1.00  0.00     0.010 A 
ATOM     33  C   UNL A   1      37.460  30.333  28.933  1.00  0.00    -0.014 A 
BRANCH  33  34
ATOM     34  C   UNL A   1      38.738  29.924  29.594  1.00  0.00     0.031 A 
ATOM     35  C   UNL A   1      39.106  30.424  30.976  1.00  0.00     0.074 A 
ATOM     36  C   UNL A   1      39.597  29.116  28.935  1.00  0.00     0.049 A 
ATOM     37  N   UNL A   1      40.141  30.111  31.715  1.00  0.00    -0.248 NA
ATOM     38  C   UNL A   1      38.233  31.437  31.594  1.00  0.00     0.031 C 
ATOM     39  C   UNL A   1      39.432  28.669  27.552  1.00  0.00     0.029 A 
ATOM     40  N   UNL A   1      40.762  28.508  29.340  1.00  0.00    -0.354 N 
ATOM     41  C   UNL A   1      40.047  30.897  32.861  1.00  0.00     0.074 A 
ATOM     42  C   UNL A   1      38.914  31.771  32.678  1.00  0.00     0.031 C 
ATOM     43  C   UNL A   1      40.399  27.789  27.254  1.00  0.00     0.029 A 
ATOM     44  C   UNL A   1      41.285  27.641  28.406  1.00  0.00     0.049 A 
ATOM     45  H   UNL A   1      41.182  28.675  30.215  1.00  0.00     0.167 HD
ATOM     46  C   UNL A   1      40.797  30.858  33.989  1.00  0.00     0.034 A 
ATOM     47  C   UNL A   1      42.339  26.799  28.472  1.00  0.00     0.034 A 
ATOM     48  C   UNL A   1      41.884  29.934  34.185  1.00  0.00     0.049 A 
ATOM     49  C   UNL A   1      43.114  26.709  29.764  1.00  0.00     0.074 A 
ATOM     50  C   UNL A   1      42.646  29.743  35.322  1.00  0.00     0.029 A 
ATOM     51  N   UNL A   1      42.351  29.040  33.233  1.00  0.00    -0.354 N 
ATOM     52  N   UNL A   1      42.924  27.363  30.885  1.00  0.00    -0.248 NA
ATOM     53  C   UNL A   1      44.232  25.756  29.811  1.00  0.00     0.031 C 
ATOM     54  C   UNL A   1      43.609  28.775  35.042  1.00  0.00     0.029 A 
ATOM     55  C   UNL A   1      43.403  28.308  33.752  1.00  0.00     0.049 A 
ATOM     56  H   UNL A   1      41.988  28.942  32.322  1.00  0.00     0.167 HD
ATOM     57  C   UNL A   1      43.884  26.890  31.775  1.00  0.00     0.074 A 
ATOM     58  C   UNL A   1      44.632  25.868  31.072  1.00  0.00     0.031 C 
ATOM     59  C   UNL A   1      44.128  27.274  33.054  1.00  0.00     0.034 A 
BRANCH  46  60
ATOM     60  C   UNL A   1      40.442  31.779  35.135  1.00  0.00     0.023 A 
ATOM     61  C   UNL A   1      39.450  31.410  36.064  1.00  0.00     0.031 A 
ATOM     62  C   UNL A   1      40.987  33.073  35.231  1.00  0.00     0.131 A 
ATOM     63  C   UNL A   1      39.014  32.335  37.023  1.00  0.00     0.055 A 
ATOM     64  C   UNL A   1      40.588  33.972  36.220  1.00  0.00     0.041 A 
ATOM     65  F   UNL A   1      41.928  33.483  34.364  1.00  0.00    -0.206 F 
ATOM     66  C   UNL A   1      39.586  33.608  37.113  1.00  0.00     0.022 A 
BRANCH  63  67
ATOM     67  S   UNL A   1      37.639  31.954  38.142  1.00  0.00     0.124 S 
ATOM     68  O   UNL A   1      38.261  32.126  39.453  1.00  0.00    -0.237 OA
ATOM     69  O   UNL A   1      36.659  32.975  37.780  1.00  0.00    -0.237 OA
ATOM     70  O   UNL A   1      37.277  30.583  37.802  1.00  0.00    -0.744 OA
ENDBRANCH  63  67
ENDBRANCH  46  60
BRANCH  47  71
ATOM     71  C   UNL A   1      42.630  25.905  27.310  1.00  0.00     0.023 A 
ATOM     72  C   UNL A   1      42.100  24.605  27.239  1.00  0.00     0.031 A 
ATOM     73  C   UNL A   1      43.548  26.296  26.319  1.00  0.00     0.131 A 
ATOM     74  C   UNL A   1      42.546  23.721  26.246  1.00  0.00     0.055 A 
ATOM     75  C   UNL A   1      43.932  25.437  25.287  1.00  0.00     0.041 A 
ATOM     76  F   UNL A   1      44.099  27.520  26.350  1.00  0.00    -0.206 F 
ATOM     77  C   UNL A   1      43.446  24.135  25.259  1.00  0.00     0.022 A 
BRANCH  74  78
ATOM     78  S   UNL A   1      42.094  21.964  26.292  1.00  0.00     0.124 S 
ATOM     79  O   UNL A   1      42.470  21.588  27.651  1.00  0.00    -0.237 OA
ATOM     80  O   UNL A   1      40.658  22.019  26.027  1.00  0.00    -0.237 OA
ATOM     81  O   UNL A   1      42.898  21.374  25.227  1.00  0.00    -0.744 OA
ENDBRANCH  74  78
ENDBRANCH  47  71
BRANCH  59  82
ATOM     82  C   UNL A   1      45.247  26.604  33.815  1.00  0.00     0.023 A 
ATOM     83  C   UNL A   1      44.980  25.457  34.587  1.00  0.00     0.031 A 
ATOM     84  C   UNL A   1      46.513  27.202  33.927  1.00  0.00     0.131 A 
ATOM     85  C   UNL A   1      45.948  24.974  35.476  1.00  0.00     0.055 A 
ATOM     86  C   UNL A   1      47.494  26.685  34.775  1.00  0.00     0.041 A 
ATOM     87  F   UNL A   1      46.810  28.306  33.224  1.00  0.00    -0.206 F 
ATOM     88  C   UNL A   1      47.206  25.578  35.568  1.00  0.00     0.022 A 
BRANCH  85  89
ATOM     89  S   UNL A   1      45.573  23.618  36.622  1.00  0.00     0.124 S 
ATOM     90  O   UNL A   1      46.910  23.154  36.987  1.00  0.00    -0.237 OA
ATOM     91  O   UNL A   1      44.839  24.304  37.682  1.00  0.00    -0.237 OA
ATOM     92  O   UNL A   1      44.789  22.684  35.819  1.00  0.00    -0.744 OA
ENDBRANCH  85  89
ENDBRANCH  59  82
ENDBRANCH  33  34
ENDBRANCH  26  28
ENDBRANCH  25  26
ENDBRANCH   1  25
TORSDOF 17
ENDMDL
MODEL 2
REMARK VINA RESULT:     -12.4      4.954     10.045
REMARK SMILES CC(C)Cc1cc2c(cc1Cl)C=C(C(=O)OCCOC(=O)c1ccc(-c3c4nc(c(-c5cc(S(=O)(=O)[O-])ccc5F)c5ccc([nH]5)c(-c5cc(S(=O)(=O)[O-])ccc5F)c5nc(c(-c6cc(S(=O)(=O)[O-])ccc6F)c6ccc3[nH]6)C=C5)C=C4)cc1)[C@@H](C(F)(F)F)O2
REMARK SMILES IDX 18 1 17 2 16 3 14 4 15 5 13 6 5 7 6 8 10 9 7 10 9 11 11 12
REMARK SMILES IDX 8 13 90 14 12 15 85 16 4 17 2 18 1 19 3 20 86 21 87 22 88 23
REMARK SMILES IDX 89 24 19 25 20 26 21 27 22 28 23 29 84 30 24 31 83 32 25 33
REMARK SMILES IDX 26 34 27 35 77 36 28 37 82 38 76 39 78 40 29 41 81 42 75 43
REMARK SMILES IDX 74 44 30 46 62 47 42 48 61 49 43 50 46 51 60 52 79 53 44 54
REMARK SMILES IDX 45 55 59 57 80 58 47 59 31 60 32 61 40 62 33 63 39 64 41 65
REMARK SMILES IDX 38 66 34 67 35 68 36 69 37 70 63 71 64 72 72 73 65 74 71 75
REMARK SMILES IDX 73 76 70 77 66 78 67 79 68 80 69 81 48 82 49 83 57 84 50 85
REMARK SMILES IDX 56 86 58 87 55 88 51 89 52 90 53 91 54 92
REMARK H PARENT 78 45 46 56
REMARK Flexibility Score: inf
ROOT
ATOM      1  C   UNL A   1      36.205  20.810  24.991  1.00  0.00     0.275 C 
ENDROOT
BRANCH   1   2
ATOM      2  C   UNL A   1      35.198  21.469  25.938  1.00  0.00     0.275 C 
BRANCH   2   3
ATOM      3  O   UNL A   1      34.710  22.725  25.418  1.00  0.00    -0.459 OA
BRANCH   3   4
ATOM      4  C   UNL A   1      33.718  23.306  26.134  1.00  0.00     0.338 C 
ATOM      5  O   UNL A   1      33.362  22.996  27.260  1.00  0.00    -0.246 OA
BRANCH   4   6
ATOM      6  C   UNL A   1      33.121  24.429  25.386  1.00  0.00     0.087 C 
ATOM      7  C   UNL A   1      30.955  28.837  24.293  1.00  0.00    -0.025 A 
ATOM      8  C   UNL A   1      31.023  27.588  23.637  1.00  0.00     0.052 A 
ATOM      9  C   UNL A   1      31.715  29.030  25.458  1.00  0.00     0.045 A 
ATOM     10  C   UNL A   1      31.774  26.538  24.165  1.00  0.00     0.128 A 
ATOM     11  C   UNL A   1      32.447  27.977  25.995  1.00  0.00     0.032 A 
ATOM     12  Cl  UNL A   1      31.764  30.534  26.305  1.00  0.00    -0.084 Cl
ATOM     13  C   UNL A   1      32.446  26.730  25.365  1.00  0.00     0.019 A 
ATOM     14  O   UNL A   1      31.789  25.358  23.475  1.00  0.00    -0.475 OA
ATOM     15  C   UNL A   1      33.093  25.612  26.005  1.00  0.00     0.027 C 
ATOM     16  C   UNL A   1      32.471  24.199  24.053  1.00  0.00     0.316 C 
BRANCH   7  17
ATOM     17  C   UNL A   1      30.013  29.894  23.766  1.00  0.00     0.040 C 
BRANCH  17  18
ATOM     18  C   UNL A   1      29.140  29.402  22.589  1.00  0.00    -0.013 C 
ATOM     19  C   UNL A   1      27.684  29.123  22.978  1.00  0.00     0.008 C 
ATOM     20  C   UNL A   1      29.168  30.440  21.466  1.00  0.00     0.008 C 
ENDBRANCH  17  18
ENDBRANCH   7  17
BRANCH  16  21
ATOM     21  C   UNL A   1      31.457  23.044  24.112  1.00  0.00     0.430 C 
ATOM     22  F   UNL A   1      32.077  21.841  24.019  1.00  0.00    -0.167 F 
ATOM     23  F   UNL A   1      30.773  23.029  25.281  1.00  0.00    -0.167 F 
ATOM     24  F   UNL A   1      30.549  23.107  23.113  1.00  0.00    -0.167 F 
ENDBRANCH  16  21
ENDBRANCH   4   6
ENDBRANCH   3   4
ENDBRANCH   2   3
ENDBRANCH   1   2
BRANCH   1  25
ATOM     25  O   UNL A   1      37.411  21.589  24.892  1.00  0.00    -0.458 OA
BRANCH  25  26
ATOM     26  C   UNL A   1      38.452  21.124  25.618  1.00  0.00     0.338 C 
ATOM     27  O   UNL A   1      38.893  19.987  25.630  1.00  0.00    -0.246 OA
BRANCH  26  28
ATOM     28  C   UNL A   1      39.097  22.238  26.326  1.00  0.00     0.060 A 
ATOM     29  C   UNL A   1      40.256  22.072  27.072  1.00  0.00     0.016 A 
ATOM     30  C   UNL A   1      38.600  23.512  26.091  1.00  0.00     0.016 A 
ATOM     31  C   UNL A   1      40.896  23.210  27.585  1.00  0.00     0.010 A 
ATOM     32  C   UNL A   1      39.333  24.639  26.446  1.00  0.00     0.010 A 
ATOM     33  C   UNL A   1      40.468  24.513  27.245  1.00  0.00    -0.014 A 
BRANCH  33  34
ATOM     34  C   UNL A   1      41.193  25.729  27.730  1.00  0.00     0.031 A 
ATOM     35  C   UNL A   1      42.624  26.010  27.319  1.00  0.00     0.074 A 
ATOM     36  C   UNL A   1      40.570  26.580  28.574  1.00  0.00     0.049 A 
ATOM     37  N   UNL A   1      43.369  27.051  27.596  1.00  0.00    -0.248 NA
ATOM     38  C   UNL A   1      43.329  24.978  26.540  1.00  0.00     0.031 C 
ATOM     39  C   UNL A   1      39.244  26.364  29.154  1.00  0.00     0.029 A 
ATOM     40  N   UNL A   1      40.951  27.803  29.073  1.00  0.00    -0.354 N 
ATOM     41  C   UNL A   1      44.620  26.786  27.044  1.00  0.00     0.074 A 
ATOM     42  C   UNL A   1      44.565  25.449  26.504  1.00  0.00     0.031 C 
ATOM     43  C   UNL A   1      38.883  27.452  29.849  1.00  0.00     0.029 A 
ATOM     44  C   UNL A   1      39.968  28.430  29.808  1.00  0.00     0.049 A 
ATOM     45  H   UNL A   1      41.841  28.195  28.919  1.00  0.00     0.167 HD
ATOM     46  C   UNL A   1      45.699  27.599  26.941  1.00  0.00     0.034 A 
ATOM     47  C   UNL A   1      39.927  29.660  30.364  1.00  0.00     0.034 A 
ATOM     48  C   UNL A   1      45.717  28.954  27.424  1.00  0.00     0.049 A 
ATOM     49  C   UNL A   1      41.105  30.582  30.171  1.00  0.00     0.074 A 
ATOM     50  C   UNL A   1      46.721  29.896  27.286  1.00  0.00     0.029 A 
ATOM     51  N   UNL A   1      44.685  29.566  28.120  1.00  0.00    -0.354 N 
ATOM     52  N   UNL A   1      42.227  30.361  29.526  1.00  0.00    -0.248 NA
ATOM     53  C   UNL A   1      41.011  31.925  30.759  1.00  0.00     0.031 C 
ATOM     54  C   UNL A   1      46.321  31.057  27.946  1.00  0.00     0.029 A 
ATOM     55  C   UNL A   1      45.037  30.867  28.434  1.00  0.00     0.049 A 
ATOM     56  H   UNL A   1      43.830  29.138  28.356  1.00  0.00     0.167 HD
ATOM     57  C   UNL A   1      42.962  31.540  29.615  1.00  0.00     0.074 A 
ATOM     58  C   UNL A   1      42.143  32.483  30.347  1.00  0.00     0.031 C 
ATOM     59  C   UNL A   1      44.205  31.810  29.142  1.00  0.00     0.034 A 
BRANCH  46  60
ATOM     60  C   UNL A   1      46.930  27.092  26.222  1.00  0.00     0.023 A 
ATOM     61  C   UNL A   1      47.942  26.419  26.933  1.00  0.00     0.031 A 
ATOM     62  C   UNL A   1      47.163  27.392  24.867  1.00  0.00     0.131 A 
ATOM     63  C   UNL A   1      49.149  26.098  26.294  1.00  0.00     0.055 A 
ATOM     64  C   UNL A   1      48.344  27.024  24.222  1.00  0.00     0.041 A 
ATOM     65  F   UNL A   1      46.238  28.044  24.143  1.00  0.00    -0.206 F 
ATOM     66  C   UNL A   1      49.349  26.385  24.940  1.00  0.00     0.022 A 
BRANCH  63  67
ATOM     67  S   UNL A   1      50.532  25.364  27.208  1.00  0.00     0.124 S 
ATOM     68  O   UNL A   1      51.446  24.999  26.128  1.00  0.00    -0.237 OA
ATOM     69  O   UNL A   1      50.971  26.478  28.045  1.00  0.00    -0.237 OA
ATOM     70  O   UNL A   1      49.930  24.240  27.916  1.00  0.00    -0.744 OA
ENDBRANCH  63  67
ENDBRANCH  46  60
BRANCH  47  71
ATOM     71  C   UNL A   1      38.676  30.106  31.050  1.00  0.00     0.023 A 
ATOM     72  C   UNL A   1      37.649  30.755  30.343  1.00  0.00     0.031 A 
ATOM     73  C   UNL A   1      38.550  30.004  32.446  1.00  0.00     0.131 A 
ATOM     74  C   UNL A   1      36.582  31.340  31.040  1.00  0.00     0.055 A 
ATOM     75  C   UNL A   1      37.447  30.521  33.129  1.00  0.00     0.041 A 
ATOM     76  F   UNL A   1      39.511  29.411  33.172  1.00  0.00    -0.206 F 
ATOM     77  C   UNL A   1      36.466  31.211  32.427  1.00  0.00     0.022 A 
BRANCH  74  78
ATOM     78  S   UNL A   1      35.392  32.415  30.190  1.00  0.00     0.124 S 
ATOM     79  O   UNL A   1      34.983  31.586  29.061  1.00  0.00    -0.237 OA
ATOM     80  O   UNL A   1      34.381  32.617  31.225  1.00  0.00    -0.237 OA
ATOM     81  O   UNL A   1      36.178  33.599  29.854  1.00  0.00    -0.744 OA
ENDBRANCH  74  78
ENDBRANCH  47  71
BRANCH  59  82
ATOM     82  C   UNL A   1      44.793  33.180  29.379  1.00  0.00     0.023 A 
ATOM     83  C   UNL A   1      44.446  34.249  28.529  1.00  0.00     0.031 A 
ATOM     84  C   UNL A   1      45.824  33.380  30.312  1.00  0.00     0.131 A 
ATOM     85  C   UNL A   1      45.160  35.450  28.594  1.00  0.00     0.055 A 
ATOM     86  C   UNL A   1      46.497  34.599  30.409  1.00  0.00     0.041 A 
ATOM     87  F   UNL A   1      46.202  32.388  31.134  1.00  0.00    -0.206 F 
ATOM     88  C   UNL A   1      46.178  35.634  29.534  1.00  0.00     0.022 A 
BRANCH  85  89
ATOM     89  S   UNL A   1      44.869  36.778  27.391  1.00  0.00     0.124 S 
ATOM     90  O   UNL A   1      44.595  37.918  28.261  1.00  0.00    -0.237 OA
ATOM     91  O   UNL A   1      46.142  36.829  26.676  1.00  0.00    -0.237 OA
ATOM     92  O   UNL A   1      43.731  36.304  26.610  1.00  0.00    -0.744 OA
ENDBRANCH  85  89
ENDBRANCH  59  82
ENDBRANCH  33  34
ENDBRANCH  26  28
ENDBRANCH  25  26
ENDBRANCH   1  25
TORSDOF 17
ENDMDL
MODEL 3
REMARK VINA RESULT:     -12.3      4.912     10.028
REMARK SMILES CC(C)Cc1cc2c(cc1Cl)C=C(C(=O)OCCOC(=O)c1ccc(-c3c4nc(c(-c5cc(S(=O)(=O)[O-])ccc5F)c5ccc([nH]5)c(-c5cc(S(=O)(=O)[O-])ccc5F)c5nc(c(-c6cc(S(=O)(=O)[O-])ccc6F)c6ccc3[nH]6)C=C5)C=C4)cc1)[C@@H](C(F)(F)F)O2
REMARK SMILES IDX 18 1 17 2 16 3 14 4 15 5 13 6 5 7 6 8 10 9 7 10 9 11 11 12
REMARK SMILES IDX 8 13 90 14 12 15 85 16 4 17 2 18 1 19 3 20 86 21 87 22 88 23
REMARK SMILES IDX 89 24 19 25 20 26 21 27 22 28 23 29 84 30 24 31 83 32 25 33
REMARK SMILES IDX 26 34 27 35 77 36 28 37 82 38 76 39 78 40 29 41 81 42 75 43
REMARK SMILES IDX 74 44 30 46 62 47 42 48 61 49 43 50 46 51 60 52 79 53 44 54
REMARK SMILES IDX 45 55 59 57 80 58 47 59 31 60 32 61 40 62 33 63 39 64 41 65
REMARK SMILES IDX 38 66 34 67 35 68 36 69 37 70 63 71 64 72 72 73 65 74 71 75
REMARK SMILES IDX 73 76 70 77 66 78 67 79 68 80 69 81 48 82 49 83 57 84 50 85
REMARK SMILES IDX 56 86 58 87 55 88 51 89 52 90 53 91 54 92
REMARK H PARENT 78 45 46 56
REMARK Flexibility Score: inf
ROOT
ATOM      1  C   UNL A   1      37.516  20.652  24.858  1.00  0.00     0.275 C 
ENDROOT
BRANCH   1   2
ATOM      2  C   UNL A   1      36.000  20.488  24.995  1.00  0.00     0.275 C 
BRANCH   2   3
ATOM      3  O   UNL A   1      35.278  21.453  24.199  1.00  0.00    -0.459 OA
BRANCH   3   4
ATOM      4  C   UNL A   1      33.940  21.495  24.406  1.00  0.00     0.338 C 
ATOM      5  O   UNL A   1      33.161  20.562  24.292  1.00  0.00    -0.246 OA
BRANCH   4   6
ATOM      6  C   UNL A   1      33.520  22.840  24.844  1.00  0.00     0.087 C 
ATOM      7  C   UNL A   1      33.225  27.838  25.340  1.00  0.00    -0.025 A 
ATOM      8  C   UNL A   1      32.863  26.747  26.162  1.00  0.00     0.052 A 
ATOM      9  C   UNL A   1      33.674  27.580  24.035  1.00  0.00     0.045 A 
ATOM     10  C   UNL A   1      33.007  25.433  25.718  1.00  0.00     0.128 A 
ATOM     11  C   UNL A   1      33.838  26.269  23.600  1.00  0.00     0.032 A 
ATOM     12  Cl  UNL A   1      34.080  28.834  22.920  1.00  0.00    -0.084 Cl
ATOM     13  C   UNL A   1      33.535  25.205  24.454  1.00  0.00     0.019 A 
ATOM     14  O   UNL A   1      32.637  24.430  26.570  1.00  0.00    -0.475 OA
ATOM     15  C   UNL A   1      33.840  23.858  24.042  1.00  0.00     0.027 C 
ATOM     16  C   UNL A   1      32.879  23.038  26.187  1.00  0.00     0.316 C 
BRANCH   7  17
ATOM     17  C   UNL A   1      33.193  29.234  25.917  1.00  0.00     0.040 C 
BRANCH  17  18
ATOM     18  C   UNL A   1      31.764  29.802  26.063  1.00  0.00    -0.013 C 
ATOM     19  C   UNL A   1      31.726  31.250  26.563  1.00  0.00     0.008 C 
ATOM     20  C   UNL A   1      31.042  29.719  24.716  1.00  0.00     0.008 C 
ENDBRANCH  17  18
ENDBRANCH   7  17
BRANCH  16  21
ATOM     21  C   UNL A   1      33.703  22.384  27.307  1.00  0.00     0.430 C 
ATOM     22  F   UNL A   1      35.011  22.733  27.223  1.00  0.00    -0.167 F 
ATOM     23  F   UNL A   1      33.287  22.771  28.538  1.00  0.00    -0.167 F 
ATOM     24  F   UNL A   1      33.643  21.034  27.267  1.00  0.00    -0.167 F 
ENDBRANCH  16  21
ENDBRANCH   4   6
ENDBRANCH   3   4
ENDBRANCH   2   3
ENDBRANCH   1   2
BRANCH   1  25
ATOM     25  O   UNL A   1      38.005  21.695  25.721  1.00  0.00    -0.458 OA
BRANCH  25  26
ATOM     26  C   UNL A   1      39.236  21.481  26.235  1.00  0.00     0.338 C 
ATOM     27  O   UNL A   1      39.925  20.482  26.107  1.00  0.00    -0.246 OA
BRANCH  26  28
ATOM     28  C   UNL A   1      39.718  22.704  26.890  1.00  0.00     0.060 A 
ATOM     29  C   UNL A   1      40.789  22.702  27.772  1.00  0.00     0.016 A 
ATOM     30  C   UNL A   1      39.169  23.907  26.471  1.00  0.00     0.016 A 
ATOM     31  C   UNL A   1      41.288  23.930  28.231  1.00  0.00     0.010 A 
ATOM     32  C   UNL A   1      39.778  25.117  26.784  1.00  0.00     0.010 A 
ATOM     33  C   UNL A   1      40.817  25.157  27.713  1.00  0.00    -0.014 A 
BRANCH  33  34
ATOM     34  C   UNL A   1      41.397  26.467  28.145  1.00  0.00     0.031 A 
ATOM     35  C   UNL A   1      42.813  26.862  27.777  1.00  0.00     0.074 A 
ATOM     36  C   UNL A   1      40.655  27.303  28.902  1.00  0.00     0.049 A 
ATOM     37  N   UNL A   1      43.440  27.986  28.014  1.00  0.00    -0.248 NA
ATOM     38  C   UNL A   1      43.651  25.858  27.100  1.00  0.00     0.031 C 
ATOM     39  C   UNL A   1      39.330  26.994  29.439  1.00  0.00     0.029 A 
ATOM     40  N   UNL A   1      40.892  28.587  29.335  1.00  0.00    -0.354 N 
ATOM     41  C   UNL A   1      44.736  27.813  27.535  1.00  0.00     0.074 A 
ATOM     42  C   UNL A   1      44.837  26.446  27.085  1.00  0.00     0.031 C 
ATOM     43  C   UNL A   1      38.832  28.083  30.044  1.00  0.00     0.029 A 
ATOM     44  C   UNL A   1      39.819  29.158  29.984  1.00  0.00     0.049 A 
ATOM     45  H   UNL A   1      41.747  29.055  29.192  1.00  0.00     0.167 HD
ATOM     46  C   UNL A   1      45.736  28.721  27.423  1.00  0.00     0.034 A 
ATOM     47  C   UNL A   1      39.633  30.410  30.454  1.00  0.00     0.034 A 
ATOM     48  C   UNL A   1      45.600  30.099  27.815  1.00  0.00     0.049 A 
ATOM     49  C   UNL A   1      40.725  31.431  30.248  1.00  0.00     0.074 A 
ATOM     50  C   UNL A   1      46.514  31.125  27.657  1.00  0.00     0.029 A 
ATOM     51  N   UNL A   1      44.482  30.648  28.424  1.00  0.00    -0.354 N 
ATOM     52  N   UNL A   1      41.893  31.282  29.669  1.00  0.00    -0.248 NA
ATOM     53  C   UNL A   1      40.473  32.792  30.741  1.00  0.00     0.031 C 
ATOM     54  C   UNL A   1      45.973  32.279  28.220  1.00  0.00     0.029 A 
ATOM     55  C   UNL A   1      44.691  31.994  28.665  1.00  0.00     0.049 A 
ATOM     56  H   UNL A   1      43.661  30.152  28.652  1.00  0.00     0.167 HD
ATOM     57  C   UNL A   1      42.506  32.531  29.709  1.00  0.00     0.074 A 
ATOM     58  C   UNL A   1      41.565  33.433  30.341  1.00  0.00     0.031 C 
ATOM     59  C   UNL A   1      43.738  32.893  29.272  1.00  0.00     0.034 A 
BRANCH  46  60
ATOM     60  C   UNL A   1      47.044  28.294  26.793  1.00  0.00     0.023 A 
ATOM     61  C   UNL A   1      47.169  28.221  25.393  1.00  0.00     0.031 A 
ATOM     62  C   UNL A   1      48.118  27.833  27.577  1.00  0.00     0.131 A 
ATOM     63  C   UNL A   1      48.326  27.671  24.823  1.00  0.00     0.055 A 
ATOM     64  C   UNL A   1      49.289  27.336  27.005  1.00  0.00     0.041 A 
ATOM     65  F   UNL A   1      48.049  27.868  28.918  1.00  0.00    -0.206 F 
ATOM     66  C   UNL A   1      49.390  27.240  25.621  1.00  0.00     0.022 A 
BRANCH  63  67
ATOM     67  S   UNL A   1      48.468  27.423  23.032  1.00  0.00     0.124 S 
ATOM     68  O   UNL A   1      49.782  27.998  22.753  1.00  0.00    -0.237 OA
ATOM     69  O   UNL A   1      48.389  25.969  22.919  1.00  0.00    -0.237 OA
ATOM     70  O   UNL A   1      47.337  28.162  22.484  1.00  0.00    -0.744 OA
ENDBRANCH  63  67
ENDBRANCH  46  60
BRANCH  47  71
ATOM     71  C   UNL A   1      38.313  30.773  31.054  1.00  0.00     0.023 A 
ATOM     72  C   UNL A   1      37.297  31.361  30.281  1.00  0.00     0.031 A 
ATOM     73  C   UNL A   1      38.100  30.654  32.439  1.00  0.00     0.131 A 
ATOM     74  C   UNL A   1      36.150  31.872  30.905  1.00  0.00     0.055 A 
ATOM     75  C   UNL A   1      36.923  31.096  33.047  1.00  0.00     0.041 A 
ATOM     76  F   UNL A   1      39.046  30.117  33.226  1.00  0.00    -0.206 F 
ATOM     77  C   UNL A   1      35.950  31.727  32.281  1.00  0.00     0.022 A 
BRANCH  74  78
ATOM     78  S   UNL A   1      34.956  32.877  29.979  1.00  0.00     0.124 S 
ATOM     79  O   UNL A   1      34.063  33.341  31.036  1.00  0.00    -0.237 OA
ATOM     80  O   UNL A   1      35.819  33.898  29.390  1.00  0.00    -0.237 OA
ATOM     81  O   UNL A   1      34.376  31.934  29.029  1.00  0.00    -0.744 OA
ENDBRANCH  74  78
ENDBRANCH  47  71
BRANCH  59  82
ATOM     82  C   UNL A   1      44.180  34.327  29.441  1.00  0.00     0.023 A 
ATOM     83  C   UNL A   1      44.695  34.759  30.679  1.00  0.00     0.031 A 
ATOM     84  C   UNL A   1      43.919  35.292  28.455  1.00  0.00     0.131 A 
ATOM     85  C   UNL A   1      44.883  36.126  30.916  1.00  0.00     0.055 A 
ATOM     86  C   UNL A   1      44.159  36.649  28.678  1.00  0.00     0.041 A 
ATOM     87  F   UNL A   1      43.414  34.932  27.265  1.00  0.00    -0.206 F 
ATOM     88  C   UNL A   1      44.625  37.072  29.919  1.00  0.00     0.022 A 
BRANCH  85  89
ATOM     89  S   UNL A   1      45.362  36.734  32.557  1.00  0.00     0.124 S 
ATOM     90  O   UNL A   1      46.491  35.867  32.882  1.00  0.00    -0.237 OA
ATOM     91  O   UNL A   1      45.704  38.127  32.281  1.00  0.00    -0.237 OA
ATOM     92  O   UNL A   1      44.168  36.531  33.371  1.00  0.00    -0.744 OA
ENDBRANCH  85  89
ENDBRANCH  59  82
ENDBRANCH  33  34
ENDBRANCH  26  28
ENDBRANCH  25  26
ENDBRANCH   1  25
TORSDOF 17
ENDMDL
