MODEL 1
REMARK VINA RESULT:     -11.4      0.000      0.000
REMARK SMILES Cc1cc(C)c2c(OCCCC(=O)OCCOC(=O)c3ccc(-c4c5nc(c(-c6cc(S(=O)(=O)[O-])ccc6F)c6ccc([nH]6)c(-c6cc(S(=O)(=O)[O-])ccc6F)c6nc(c(-c7cc(S(=O)(=O)[O-])ccc7F)c7ccc4[nH]7)C=C6)C=C5)cc3)nsc2n1
REMARK SMILES IDX 15 1 14 2 12 3 13 4 11 5 10 6 9 7 8 8 7 9 1 10 2 11 3 12
REMARK SMILES IDX 86 13 4 14 85 15 5 16 6 17 84 18 83 19 16 20 17 21 18 22
REMARK SMILES IDX 19 23 20 24 21 25 82 26 22 27 81 28 23 29 24 30 25 31 75 32
REMARK SMILES IDX 26 33 80 34 74 35 76 36 27 37 79 38 73 39 72 40 28 42 60 43
REMARK SMILES IDX 40 44 59 45 41 46 44 47 58 48 77 49 42 50 43 51 57 53 78 54
REMARK SMILES IDX 45 55 29 56 30 57 38 58 31 59 37 60 39 61 36 62 32 63 33 64
REMARK SMILES IDX 34 65 35 66 61 67 62 68 70 69 63 70 69 71 71 72 68 73 64 74
REMARK SMILES IDX 65 75 66 76 67 77 46 78 47 79 55 80 48 81 54 82 56 83 53 84
REMARK SMILES IDX 49 85 50 86 51 87 52 88
REMARK H PARENT 76 41 44 52
REMARK Flexibility Score: inf
ROOT
ATOM      1  C   UNL A   1      32.701  29.658  25.958  1.00  0.00     0.274 C 
ENDROOT
BRANCH   1   2
ATOM      2  O   UNL A   1      31.667  28.631  25.946  1.00  0.00    -0.462 OA
BRANCH   2   3
ATOM      3  C   UNL A   1      31.722  27.602  26.820  1.00  0.00     0.306 C 
ATOM      4  O   UNL A   1      31.511  27.738  28.022  1.00  0.00    -0.252 OA
BRANCH   3   5
ATOM      5  C   UNL A   1      32.231  26.284  26.228  1.00  0.00     0.126 C 
BRANCH   5   6
ATOM      6  C   UNL A   1      31.313  25.115  25.840  1.00  0.00     0.053 C 
BRANCH   6   7
ATOM      7  C   UNL A   1      31.619  23.634  26.154  1.00  0.00     0.232 C 
BRANCH   7   8
ATOM      8  O   UNL A   1      31.351  22.591  25.222  1.00  0.00    -0.477 OA
BRANCH   8   9
ATOM      9  C   UNL A   1      32.317  21.708  24.890  1.00  0.00     0.235 A 
ATOM     10  C   UNL A   1      37.767  21.755  25.271  1.00  0.00     0.067 C 
ATOM     11  C   UNL A   1      36.385  21.668  24.683  1.00  0.00     0.039 A 
ATOM     12  C   UNL A   1      35.844  22.767  24.028  1.00  0.00     0.027 A 
ATOM     13  N   UNL A   1      35.678  20.560  24.949  1.00  0.00    -0.240 NA
ATOM     14  C   UNL A   1      34.450  22.907  23.846  1.00  0.00    -0.034 A 
ATOM     15  C   UNL A   1      34.352  20.721  24.792  1.00  0.00     0.147 A 
ATOM     16  C   UNL A   1      33.892  24.120  23.150  1.00  0.00     0.045 C 
ATOM     17  C   UNL A   1      33.667  21.880  24.425  1.00  0.00     0.078 A 
ATOM     18  S   UNL A   1      33.236  19.467  25.065  1.00  0.00    -0.012 S 
ATOM     19  N   UNL A   1      31.905  20.452  25.076  1.00  0.00    -0.153 NA
ENDBRANCH   8   9
ENDBRANCH   7   8
ENDBRANCH   6   7
ENDBRANCH   5   6
ENDBRANCH   3   5
ENDBRANCH   2   3
ENDBRANCH   1   2
BRANCH   1  20
ATOM     20  C   UNL A   1      32.169  30.933  26.615  1.00  0.00     0.275 C 
BRANCH  20  21
ATOM     21  O   UNL A   1      33.126  31.413  27.536  1.00  0.00    -0.458 OA
BRANCH  21  22
ATOM     22  C   UNL A   1      32.996  32.741  27.777  1.00  0.00     0.338 C 
ATOM     23  O   UNL A   1      32.107  33.465  27.399  1.00  0.00    -0.246 OA
BRANCH  22  24
ATOM     24  C   UNL A   1      34.137  33.124  28.618  1.00  0.00     0.060 A 
ATOM     25  C   UNL A   1      35.080  33.928  27.998  1.00  0.00     0.016 A 
ATOM     26  C   UNL A   1      34.404  32.385  29.781  1.00  0.00     0.016 A 
ATOM     27  C   UNL A   1      36.389  33.643  28.278  1.00  0.00     0.010 A 
ATOM     28  C   UNL A   1      35.707  32.087  30.044  1.00  0.00     0.010 A 
ATOM     29  C   UNL A   1      36.663  32.614  29.189  1.00  0.00    -0.014 A 
BRANCH  29  30
ATOM     30  C   UNL A   1      38.028  32.201  29.364  1.00  0.00     0.031 A 
ATOM     31  C   UNL A   1      38.147  30.777  29.025  1.00  0.00     0.074 A 
ATOM     32  C   UNL A   1      39.023  33.030  29.721  1.00  0.00     0.049 A 
ATOM     33  N   UNL A   1      38.006  29.798  29.853  1.00  0.00    -0.248 NA
ATOM     34  C   UNL A   1      38.041  30.388  27.609  1.00  0.00     0.031 C 
ATOM     35  C   UNL A   1      39.020  34.483  29.881  1.00  0.00     0.029 A 
ATOM     36  N   UNL A   1      40.314  32.704  29.978  1.00  0.00    -0.354 N 
ATOM     37  C   UNL A   1      38.140  28.669  29.069  1.00  0.00     0.074 A 
ATOM     38  C   UNL A   1      37.805  29.081  27.736  1.00  0.00     0.031 C 
ATOM     39  C   UNL A   1      40.297  34.924  30.001  1.00  0.00     0.029 A 
ATOM     40  C   UNL A   1      41.194  33.780  30.062  1.00  0.00     0.049 A 
ATOM     41  H   UNL A   1      40.608  31.772  30.099  1.00  0.00     0.167 HD
ATOM     42  C   UNL A   1      38.910  27.640  29.510  1.00  0.00     0.034 A 
ATOM     43  C   UNL A   1      42.553  33.694  30.143  1.00  0.00     0.034 A 
ATOM     44  C   UNL A   1      39.121  27.737  30.945  1.00  0.00     0.049 A 
ATOM     45  C   UNL A   1      42.834  32.350  30.725  1.00  0.00     0.074 A 
ATOM     46  C   UNL A   1      38.279  27.816  32.040  1.00  0.00     0.029 A 
ATOM     47  N   UNL A   1      40.339  28.216  31.380  1.00  0.00    -0.354 N 
ATOM     48  N   UNL A   1      42.475  32.013  31.935  1.00  0.00    -0.248 NA
ATOM     49  C   UNL A   1      43.018  31.239  29.801  1.00  0.00     0.031 C 
ATOM     50  C   UNL A   1      38.888  28.765  32.914  1.00  0.00     0.029 A 
ATOM     51  C   UNL A   1      40.114  29.147  32.366  1.00  0.00     0.049 A 
ATOM     52  H   UNL A   1      41.220  27.937  31.043  1.00  0.00     0.167 HD
ATOM     53  C   UNL A   1      41.968  30.727  31.815  1.00  0.00     0.074 A 
ATOM     54  C   UNL A   1      42.399  30.274  30.490  1.00  0.00     0.031 C 
ATOM     55  C   UNL A   1      40.997  30.265  32.658  1.00  0.00     0.034 A 
BRANCH  42  56
ATOM     56  C   UNL A   1      39.819  26.843  28.603  1.00  0.00     0.023 A 
ATOM     57  C   UNL A   1      40.905  27.536  28.046  1.00  0.00     0.031 A 
ATOM     58  C   UNL A   1      39.553  25.568  28.044  1.00  0.00     0.131 A 
ATOM     59  C   UNL A   1      41.596  27.018  26.940  1.00  0.00     0.055 A 
ATOM     60  C   UNL A   1      40.278  25.034  26.980  1.00  0.00     0.041 A 
ATOM     61  F   UNL A   1      38.535  24.788  28.422  1.00  0.00    -0.206 F 
ATOM     62  C   UNL A   1      41.289  25.773  26.399  1.00  0.00     0.022 A 
BRANCH  59  63
ATOM     63  S   UNL A   1      42.823  28.070  26.139  1.00  0.00     0.124 S 
ATOM     64  O   UNL A   1      42.056  28.616  25.026  1.00  0.00    -0.237 OA
ATOM     65  O   UNL A   1      43.161  29.002  27.209  1.00  0.00    -0.237 OA
ATOM     66  O   UNL A   1      43.883  27.133  25.774  1.00  0.00    -0.744 OA
ENDBRANCH  59  63
ENDBRANCH  42  56
BRANCH  43  67
ATOM     67  C   UNL A   1      43.577  34.488  29.390  1.00  0.00     0.023 A 
ATOM     68  C   UNL A   1      44.170  34.017  28.192  1.00  0.00     0.031 A 
ATOM     69  C   UNL A   1      43.795  35.850  29.696  1.00  0.00     0.131 A 
ATOM     70  C   UNL A   1      44.914  34.893  27.360  1.00  0.00     0.055 A 
ATOM     71  C   UNL A   1      44.525  36.709  28.868  1.00  0.00     0.041 A 
ATOM     72  F   UNL A   1      43.230  36.426  30.768  1.00  0.00    -0.206 F 
ATOM     73  C   UNL A   1      45.078  36.239  27.689  1.00  0.00     0.022 A 
BRANCH  70  74
ATOM     74  S   UNL A   1      45.595  34.325  25.762  1.00  0.00     0.124 S 
ATOM     75  O   UNL A   1      44.387  33.988  25.017  1.00  0.00    -0.237 OA
ATOM     76  O   UNL A   1      46.340  35.490  25.299  1.00  0.00    -0.237 OA
ATOM     77  O   UNL A   1      46.426  33.178  26.135  1.00  0.00    -0.744 OA
ENDBRANCH  70  74
ENDBRANCH  43  67
BRANCH  55  78
ATOM     78  C   UNL A   1      40.694  31.051  33.921  1.00  0.00     0.023 A 
ATOM     79  C   UNL A   1      39.640  31.983  34.084  1.00  0.00     0.031 A 
ATOM     80  C   UNL A   1      41.435  30.699  35.063  1.00  0.00     0.131 A 
ATOM     81  C   UNL A   1      39.363  32.514  35.365  1.00  0.00     0.055 A 
ATOM     82  C   UNL A   1      41.144  31.209  36.327  1.00  0.00     0.041 A 
ATOM     83  F   UNL A   1      42.429  29.801  34.974  1.00  0.00    -0.206 F 
ATOM     84  C   UNL A   1      40.107  32.119  36.483  1.00  0.00     0.022 A 
BRANCH  81  85
ATOM     85  S   UNL A   1      38.003  33.707  35.615  1.00  0.00     0.124 S 
ATOM     86  O   UNL A   1      38.117  34.050  37.027  1.00  0.00    -0.237 OA
ATOM     87  O   UNL A   1      38.329  34.770  34.668  1.00  0.00    -0.237 OA
ATOM     88  O   UNL A   1      36.804  32.939  35.271  1.00  0.00    -0.744 OA
ENDBRANCH  81  85
ENDBRANCH  55  78
ENDBRANCH  29  30
ENDBRANCH  22  24
ENDBRANCH  21  22
ENDBRANCH  20  21
ENDBRANCH   1  20
TORSDOF 18
ENDMDL
MODEL 2
REMARK VINA RESULT:     -11.0      4.528      9.900
REMARK SMILES Cc1cc(C)c2c(OCCCC(=O)OCCOC(=O)c3ccc(-c4c5nc(c(-c6cc(S(=O)(=O)[O-])ccc6F)c6ccc([nH]6)c(-c6cc(S(=O)(=O)[O-])ccc6F)c6nc(c(-c7cc(S(=O)(=O)[O-])ccc7F)c7ccc4[nH]7)C=C6)C=C5)cc3)nsc2n1
REMARK SMILES IDX 15 1 14 2 12 3 13 4 11 5 10 6 9 7 8 8 7 9 1 10 2 11 3 12
REMARK SMILES IDX 86 13 4 14 85 15 5 16 6 17 84 18 83 19 16 20 17 21 18 22
REMARK SMILES IDX 19 23 20 24 21 25 82 26 22 27 81 28 23 29 24 30 25 31 75 32
REMARK SMILES IDX 26 33 80 34 74 35 76 36 27 37 79 38 73 39 72 40 28 42 60 43
REMARK SMILES IDX 40 44 59 45 41 46 44 47 58 48 77 49 42 50 43 51 57 53 78 54
REMARK SMILES IDX 45 55 29 56 30 57 38 58 31 59 37 60 39 61 36 62 32 63 33 64
REMARK SMILES IDX 34 65 35 66 61 67 62 68 70 69 63 70 69 71 71 72 68 73 64 74
REMARK SMILES IDX 65 75 66 76 67 77 46 78 47 79 55 80 48 81 54 82 56 83 53 84
REMARK SMILES IDX 49 85 50 86 51 87 52 88
REMARK H PARENT 76 41 44 52
REMARK Flexibility Score: inf
ROOT
ATOM      1  C   UNL A   1      33.623  34.473  28.793  1.00  0.00     0.274 C 
ENDROOT
BRANCH   1   2
ATOM      2  O   UNL A   1      34.550  34.704  29.893  1.00  0.00    -0.462 OA
BRANCH   2   3
ATOM      3  C   UNL A   1      34.132  34.570  31.172  1.00  0.00     0.306 C 
ATOM      4  O   UNL A   1      33.048  34.989  31.566  1.00  0.00    -0.252 OA
BRANCH   3   5
ATOM      5  C   UNL A   1      35.183  34.005  32.134  1.00  0.00     0.126 C 
BRANCH   5   6
ATOM      6  C   UNL A   1      34.864  33.532  33.560  1.00  0.00     0.053 C 
BRANCH   6   7
ATOM      7  C   UNL A   1      35.494  34.137  34.834  1.00  0.00     0.232 C 
BRANCH   7   8
ATOM      8  O   UNL A   1      36.215  33.344  35.772  1.00  0.00    -0.477 OA
BRANCH   8   9
ATOM      9  C   UNL A   1      37.565  33.355  35.779  1.00  0.00     0.235 A 
ATOM     10  C   UNL A   1      41.355  34.071  31.910  1.00  0.00     0.067 C 
ATOM     11  C   UNL A   1      40.567  33.444  33.027  1.00  0.00     0.039 A 
ATOM     12  C   UNL A   1      39.631  32.458  32.740  1.00  0.00     0.027 A 
ATOM     13  N   UNL A   1      40.710  33.977  34.249  1.00  0.00    -0.240 NA
ATOM     14  C   UNL A   1      38.583  32.149  33.637  1.00  0.00    -0.034 A 
ATOM     15  C   UNL A   1      39.692  33.690  35.080  1.00  0.00     0.147 A 
ATOM     16  C   UNL A   1      37.572  31.089  33.290  1.00  0.00     0.045 C 
ATOM     17  C   UNL A   1      38.541  32.951  34.802  1.00  0.00     0.078 A 
ATOM     18  S   UNL A   1      39.634  34.245  36.686  1.00  0.00    -0.012 S 
ATOM     19  N   UNL A   1      38.036  33.875  36.914  1.00  0.00    -0.153 NA
ENDBRANCH   8   9
ENDBRANCH   7   8
ENDBRANCH   6   7
ENDBRANCH   5   6
ENDBRANCH   3   5
ENDBRANCH   2   3
ENDBRANCH   1   2
BRANCH   1  20
ATOM     20  C   UNL A   1      33.896  33.110  28.153  1.00  0.00     0.275 C 
BRANCH  20  21
ATOM     21  O   UNL A   1      34.575  32.291  29.082  1.00  0.00    -0.458 OA
BRANCH  21  22
ATOM     22  C   UNL A   1      35.376  31.376  28.481  1.00  0.00     0.338 C 
ATOM     23  O   UNL A   1      35.292  30.970  27.347  1.00  0.00    -0.246 OA
BRANCH  22  24
ATOM     24  C   UNL A   1      36.389  30.996  29.473  1.00  0.00     0.060 A 
ATOM     25  C   UNL A   1      37.572  31.714  29.409  1.00  0.00     0.016 A 
ATOM     26  C   UNL A   1      36.280  29.752  30.115  1.00  0.00     0.016 A 
ATOM     27  C   UNL A   1      38.722  30.995  29.592  1.00  0.00     0.010 A 
ATOM     28  C   UNL A   1      37.425  29.032  30.277  1.00  0.00     0.010 A 
ATOM     29  C   UNL A   1      38.611  29.627  29.871  1.00  0.00    -0.014 A 
BRANCH  29  30
ATOM     30  C   UNL A   1      39.809  28.835  29.902  1.00  0.00     0.031 A 
ATOM     31  C   UNL A   1      40.210  28.621  31.297  1.00  0.00     0.074 A 
ATOM     32  C   UNL A   1      40.404  28.332  28.807  1.00  0.00     0.049 A 
ATOM     33  N   UNL A   1      40.997  29.387  31.974  1.00  0.00    -0.248 NA
ATOM     34  C   UNL A   1      39.396  27.714  32.124  1.00  0.00     0.031 C 
ATOM     35  C   UNL A   1      39.960  28.335  27.414  1.00  0.00     0.029 A 
ATOM     36  N   UNL A   1      41.571  27.643  28.746  1.00  0.00    -0.354 N 
ATOM     37  C   UNL A   1      41.020  28.822  33.234  1.00  0.00     0.074 A 
ATOM     38  C   UNL A   1      39.802  28.072  33.344  1.00  0.00     0.031 C 
ATOM     39  C   UNL A   1      40.745  27.498  26.690  1.00  0.00     0.029 A 
ATOM     40  C   UNL A   1      41.824  27.006  27.534  1.00  0.00     0.049 A 
ATOM     41  H   UNL A   1      42.196  27.598  29.506  1.00  0.00     0.167 HD
ATOM     42  C   UNL A   1      42.207  28.683  33.880  1.00  0.00     0.034 A 
ATOM     43  C   UNL A   1      42.838  26.126  27.292  1.00  0.00     0.034 A 
ATOM     44  C   UNL A   1      43.213  29.552  33.294  1.00  0.00     0.049 A 
ATOM     45  C   UNL A   1      43.895  26.450  28.291  1.00  0.00     0.074 A 
ATOM     46  C   UNL A   1      43.294  30.914  33.062  1.00  0.00     0.029 A 
ATOM     47  N   UNL A   1      44.141  28.978  32.450  1.00  0.00    -0.354 N 
ATOM     48  N   UNL A   1      44.533  27.591  28.301  1.00  0.00    -0.248 NA
ATOM     49  C   UNL A   1      43.858  25.749  29.568  1.00  0.00     0.031 C 
ATOM     50  C   UNL A   1      43.904  31.040  31.778  1.00  0.00     0.029 A 
ATOM     51  C   UNL A   1      44.257  29.765  31.329  1.00  0.00     0.049 A 
ATOM     52  H   UNL A   1      44.637  28.146  32.622  1.00  0.00     0.167 HD
ATOM     53  C   UNL A   1      44.592  27.959  29.638  1.00  0.00     0.074 A 
ATOM     54  C   UNL A   1      44.226  26.748  30.379  1.00  0.00     0.031 C 
ATOM     55  C   UNL A   1      44.627  29.273  30.013  1.00  0.00     0.034 A 
BRANCH  42  56
ATOM     56  C   UNL A   1      42.558  27.464  34.702  1.00  0.00     0.023 A 
ATOM     57  C   UNL A   1      43.433  26.543  34.108  1.00  0.00     0.031 A 
ATOM     58  C   UNL A   1      41.905  27.019  35.880  1.00  0.00     0.131 A 
ATOM     59  C   UNL A   1      43.552  25.238  34.611  1.00  0.00     0.055 A 
ATOM     60  C   UNL A   1      42.069  25.739  36.406  1.00  0.00     0.041 A 
ATOM     61  F   UNL A   1      41.010  27.748  36.554  1.00  0.00    -0.206 F 
ATOM     62  C   UNL A   1      42.873  24.826  35.754  1.00  0.00     0.022 A 
BRANCH  59  63
ATOM     63  S   UNL A   1      44.515  24.046  33.657  1.00  0.00     0.124 S 
ATOM     64  O   UNL A   1      45.727  24.807  33.380  1.00  0.00    -0.237 OA
ATOM     65  O   UNL A   1      44.647  22.945  34.605  1.00  0.00    -0.237 OA
ATOM     66  O   UNL A   1      43.664  23.774  32.502  1.00  0.00    -0.744 OA
ENDBRANCH  59  63
ENDBRANCH  42  56
BRANCH  43  67
ATOM     67  C   UNL A   1      42.770  24.813  26.572  1.00  0.00     0.023 A 
ATOM     68  C   UNL A   1      43.757  24.409  25.639  1.00  0.00     0.031 A 
ATOM     69  C   UNL A   1      41.865  23.812  26.989  1.00  0.00     0.131 A 
ATOM     70  C   UNL A   1      43.820  23.065  25.188  1.00  0.00     0.055 A 
ATOM     71  C   UNL A   1      41.936  22.488  26.545  1.00  0.00     0.041 A 
ATOM     72  F   UNL A   1      40.929  24.058  27.918  1.00  0.00    -0.206 F 
ATOM     73  C   UNL A   1      42.922  22.104  25.652  1.00  0.00     0.022 A 
BRANCH  70  74
ATOM     74  S   UNL A   1      45.151  22.507  24.067  1.00  0.00     0.124 S 
ATOM     75  O   UNL A   1      44.398  22.023  22.916  1.00  0.00    -0.237 OA
ATOM     76  O   UNL A   1      45.933  23.722  23.868  1.00  0.00    -0.237 OA
ATOM     77  O   UNL A   1      45.830  21.464  24.839  1.00  0.00    -0.744 OA
ENDBRANCH  70  74
ENDBRANCH  43  67
BRANCH  55  78
ATOM     78  C   UNL A   1      44.917  30.323  28.956  1.00  0.00     0.023 A 
ATOM     79  C   UNL A   1      46.200  30.798  28.590  1.00  0.00     0.031 A 
ATOM     80  C   UNL A   1      43.822  30.737  28.176  1.00  0.00     0.131 A 
ATOM     81  C   UNL A   1      46.341  31.649  27.469  1.00  0.00     0.055 A 
ATOM     82  C   UNL A   1      43.970  31.557  27.059  1.00  0.00     0.041 A 
ATOM     83  F   UNL A   1      42.585  30.297  28.460  1.00  0.00    -0.206 F 
ATOM     84  C   UNL A   1      45.230  32.016  26.701  1.00  0.00     0.022 A 
BRANCH  81  85
ATOM     85  S   UNL A   1      47.982  32.269  26.960  1.00  0.00     0.124 S 
ATOM     86  O   UNL A   1      47.671  33.155  25.844  1.00  0.00    -0.237 OA
ATOM     87  O   UNL A   1      48.474  32.913  28.174  1.00  0.00    -0.237 OA
ATOM     88  O   UNL A   1      48.708  31.053  26.585  1.00  0.00    -0.744 OA
ENDBRANCH  81  85
ENDBRANCH  55  78
ENDBRANCH  29  30
ENDBRANCH  22  24
ENDBRANCH  21  22
ENDBRANCH  20  21
ENDBRANCH   1  20
TORSDOF 18
ENDMDL
MODEL 3
REMARK VINA RESULT:     -11.0      4.849      9.650
REMARK SMILES Cc1cc(C)c2c(OCCCC(=O)OCCOC(=O)c3ccc(-c4c5nc(c(-c6cc(S(=O)(=O)[O-])ccc6F)c6ccc([nH]6)c(-c6cc(S(=O)(=O)[O-])ccc6F)c6nc(c(-c7cc(S(=O)(=O)[O-])ccc7F)c7ccc4[nH]7)C=C6)C=C5)cc3)nsc2n1
REMARK SMILES IDX 15 1 14 2 12 3 13 4 11 5 10 6 9 7 8 8 7 9 1 10 2 11 3 12
REMARK SMILES IDX 86 13 4 14 85 15 5 16 6 17 84 18 83 19 16 20 17 21 18 22
REMARK SMILES IDX 19 23 20 24 21 25 82 26 22 27 81 28 23 29 24 30 25 31 75 32
REMARK SMILES IDX 26 33 80 34 74 35 76 36 27 37 79 38 73 39 72 40 28 42 60 43
REMARK SMILES IDX 40 44 59 45 41 46 44 47 58 48 77 49 42 50 43 51 57 53 78 54
REMARK SMILES IDX 45 55 29 56 30 57 38 58 31 59 37 60 39 61 36 62 32 63 33 64
REMARK SMILES IDX 34 65 35 66 61 67 62 68 70 69 63 70 69 71 71 72 68 73 64 74
REMARK SMILES IDX 65 75 66 76 67 77 46 78 47 79 55 80 48 81 54 82 56 83 53 84
REMARK SMILES IDX 49 85 50 86 51 87 52 88
REMARK H PARENT 76 41 44 52
REMARK Flexibility Score: inf
ROOT
ATOM      1  C   UNL A   1      36.515  20.628  25.370  1.00  0.00     0.274 C 
ENDROOT
BRANCH   1   2
ATOM      2  O   UNL A   1      35.371  21.406  24.913  1.00  0.00    -0.462 OA
BRANCH   2   3
ATOM      3  C   UNL A   1      34.579  22.039  25.807  1.00  0.00     0.306 C 
ATOM      4  O   UNL A   1      34.573  21.764  27.003  1.00  0.00    -0.252 OA
BRANCH   3   5
ATOM      5  C   UNL A   1      33.567  23.010  25.191  1.00  0.00     0.126 C 
BRANCH   5   6
ATOM      6  C   UNL A   1      33.298  23.115  23.682  1.00  0.00     0.053 C 
BRANCH   6   7
ATOM      7  C   UNL A   1      34.073  24.051  22.728  1.00  0.00     0.232 C 
BRANCH   7   8
ATOM      8  O   UNL A   1      33.415  25.025  21.923  1.00  0.00    -0.477 OA
BRANCH   8   9
ATOM      9  C   UNL A   1      33.126  26.243  22.428  1.00  0.00     0.235 A 
ATOM     10  C   UNL A   1      31.686  28.030  27.387  1.00  0.00     0.067 C 
ATOM     11  C   UNL A   1      31.647  27.761  25.907  1.00  0.00     0.039 A 
ATOM     12  C   UNL A   1      30.856  26.729  25.415  1.00  0.00     0.027 A 
ATOM     13  N   UNL A   1      32.500  28.453  25.138  1.00  0.00    -0.240 NA
ATOM     14  C   UNL A   1      31.097  26.154  24.147  1.00  0.00    -0.034 A 
ATOM     15  C   UNL A   1      32.733  27.877  23.945  1.00  0.00     0.147 A 
ATOM     16  C   UNL A   1      30.236  25.024  23.649  1.00  0.00     0.045 C 
ATOM     17  C   UNL A   1      32.221  26.672  23.461  1.00  0.00     0.078 A 
ATOM     18  S   UNL A   1      33.776  28.555  22.786  1.00  0.00    -0.012 S 
ATOM     19  N   UNL A   1      33.867  27.192  21.851  1.00  0.00    -0.153 NA
ENDBRANCH   8   9
ENDBRANCH   7   8
ENDBRANCH   6   7
ENDBRANCH   5   6
ENDBRANCH   3   5
ENDBRANCH   2   3
ENDBRANCH   1   2
BRANCH   1  20
ATOM     20  C   UNL A   1      37.799  21.153  24.726  1.00  0.00     0.275 C 
BRANCH  20  21
ATOM     21  O   UNL A   1      38.751  21.414  25.736  1.00  0.00    -0.458 OA
BRANCH  21  22
ATOM     22  C   UNL A   1      39.715  20.462  25.801  1.00  0.00     0.338 C 
ATOM     23  O   UNL A   1      39.630  19.314  25.439  1.00  0.00    -0.246 OA
BRANCH  22  24
ATOM     24  C   UNL A   1      40.901  21.112  26.373  1.00  0.00     0.060 A 
ATOM     25  C   UNL A   1      41.111  20.871  27.721  1.00  0.00     0.016 A 
ATOM     26  C   UNL A   1      41.487  22.187  25.685  1.00  0.00     0.016 A 
ATOM     27  C   UNL A   1      41.533  21.940  28.463  1.00  0.00     0.010 A 
ATOM     28  C   UNL A   1      41.887  23.257  26.427  1.00  0.00     0.010 A 
ATOM     29  C   UNL A   1      41.762  23.156  27.805  1.00  0.00    -0.014 A 
BRANCH  29  30
ATOM     30  C   UNL A   1      42.046  24.320  28.596  1.00  0.00     0.031 A 
ATOM     31  C   UNL A   1      41.033  25.347  28.324  1.00  0.00     0.074 A 
ATOM     32  C   UNL A   1      43.053  24.398  29.483  1.00  0.00     0.049 A 
ATOM     33  N   UNL A   1      41.115  26.254  27.411  1.00  0.00    -0.248 NA
ATOM     34  C   UNL A   1      39.670  25.131  28.838  1.00  0.00     0.031 C 
ATOM     35  C   UNL A   1      43.974  23.362  29.948  1.00  0.00     0.029 A 
ATOM     36  N   UNL A   1      43.430  25.479  30.208  1.00  0.00    -0.354 N 
ATOM     37  C   UNL A   1      39.913  26.930  27.495  1.00  0.00     0.074 A 
ATOM     38  C   UNL A   1      38.991  26.008  28.094  1.00  0.00     0.031 C 
ATOM     39  C   UNL A   1      44.658  23.820  31.026  1.00  0.00     0.029 A 
ATOM     40  C   UNL A   1      44.324  25.220  31.244  1.00  0.00     0.049 A 
ATOM     41  H   UNL A   1      43.096  26.386  30.015  1.00  0.00     0.167 HD
ATOM     42  C   UNL A   1      39.909  28.288  27.460  1.00  0.00     0.034 A 
ATOM     43  C   UNL A   1      44.712  26.108  32.205  1.00  0.00     0.034 A 
ATOM     44  C   UNL A   1      41.156  28.789  26.906  1.00  0.00     0.049 A 
ATOM     45  C   UNL A   1      44.514  27.458  31.604  1.00  0.00     0.074 A 
ATOM     46  C   UNL A   1      41.837  28.579  25.720  1.00  0.00     0.029 A 
ATOM     47  N   UNL A   1      42.094  29.283  27.788  1.00  0.00    -0.354 N 
ATOM     48  N   UNL A   1      45.191  27.877  30.567  1.00  0.00    -0.248 NA
ATOM     49  C   UNL A   1      43.224  28.106  31.806  1.00  0.00     0.031 C 
ATOM     50  C   UNL A   1      43.214  28.503  26.087  1.00  0.00     0.029 A 
ATOM     51  C   UNL A   1      43.323  28.765  27.454  1.00  0.00     0.049 A 
ATOM     52  H   UNL A   1      41.914  29.903  28.531  1.00  0.00     0.167 HD
ATOM     53  C   UNL A   1      44.255  28.503  29.756  1.00  0.00     0.074 A 
ATOM     54  C   UNL A   1      43.074  28.678  30.606  1.00  0.00     0.031 C 
ATOM     55  C   UNL A   1      44.405  28.541  28.398  1.00  0.00     0.034 A 
BRANCH  42  56
ATOM     56  C   UNL A   1      39.003  29.132  28.326  1.00  0.00     0.023 A 
ATOM     57  C   UNL A   1      39.207  29.045  29.711  1.00  0.00     0.031 A 
ATOM     58  C   UNL A   1      37.811  29.785  27.922  1.00  0.00     0.131 A 
ATOM     59  C   UNL A   1      38.227  29.491  30.611  1.00  0.00     0.055 A 
ATOM     60  C   UNL A   1      36.867  30.277  28.821  1.00  0.00     0.041 A 
ATOM     61  F   UNL A   1      37.436  29.924  26.646  1.00  0.00    -0.206 F 
ATOM     62  C   UNL A   1      37.055  30.103  30.177  1.00  0.00     0.022 A 
BRANCH  59  63
ATOM     63  S   UNL A   1      38.460  29.133  32.364  1.00  0.00     0.124 S 
ATOM     64  O   UNL A   1      37.144  28.627  32.735  1.00  0.00    -0.237 OA
ATOM     65  O   UNL A   1      39.541  28.153  32.327  1.00  0.00    -0.237 OA
ATOM     66  O   UNL A   1      38.818  30.432  32.928  1.00  0.00    -0.744 OA
ENDBRANCH  59  63
ENDBRANCH  42  56
BRANCH  43  67
ATOM     67  C   UNL A   1      44.827  25.880  33.681  1.00  0.00     0.023 A 
ATOM     68  C   UNL A   1      43.806  26.255  34.589  1.00  0.00     0.031 A 
ATOM     69  C   UNL A   1      45.839  25.042  34.200  1.00  0.00     0.131 A 
ATOM     70  C   UNL A   1      43.815  25.782  35.926  1.00  0.00     0.055 A 
ATOM     71  C   UNL A   1      45.840  24.574  35.518  1.00  0.00     0.041 A 
ATOM     72  F   UNL A   1      46.823  24.567  33.421  1.00  0.00    -0.206 F 
ATOM     73  C   UNL A   1      44.821  24.931  36.385  1.00  0.00     0.022 A 
BRANCH  70  74
ATOM     74  S   UNL A   1      42.449  26.173  37.076  1.00  0.00     0.124 S 
ATOM     75  O   UNL A   1      43.161  26.406  38.328  1.00  0.00    -0.237 OA
ATOM     76  O   UNL A   1      41.831  27.338  36.454  1.00  0.00    -0.237 OA
ATOM     77  O   UNL A   1      41.628  24.962  37.052  1.00  0.00    -0.744 OA
ENDBRANCH  70  74
ENDBRANCH  43  67
BRANCH  55  78
ATOM     78  C   UNL A   1      45.753  28.172  27.804  1.00  0.00     0.023 A 
ATOM     79  C   UNL A   1      46.170  26.867  27.446  1.00  0.00     0.031 A 
ATOM     80  C   UNL A   1      46.585  29.246  27.441  1.00  0.00     0.131 A 
ATOM     81  C   UNL A   1      47.383  26.686  26.741  1.00  0.00     0.055 A 
ATOM     82  C   UNL A   1      47.768  29.064  26.727  1.00  0.00     0.041 A 
ATOM     83  F   UNL A   1      46.227  30.507  27.731  1.00  0.00    -0.206 F 
ATOM     84  C   UNL A   1      48.172  27.783  26.374  1.00  0.00     0.022 A 
BRANCH  81  85
ATOM     85  S   UNL A   1      47.946  25.020  26.250  1.00  0.00     0.124 S 
ATOM     86  O   UNL A   1      48.075  25.125  24.802  1.00  0.00    -0.237 OA
ATOM     87  O   UNL A   1      49.192  24.868  26.996  1.00  0.00    -0.237 OA
ATOM     88  O   UNL A   1      46.863  24.143  26.701  1.00  0.00    -0.744 OA
ENDBRANCH  81  85
ENDBRANCH  55  78
ENDBRANCH  29  30
ENDBRANCH  22  24
ENDBRANCH  21  22
ENDBRANCH  20  21
ENDBRANCH   1  20
TORSDOF 18
ENDMDL
