MODEL 1
REMARK VINA RESULT:      -9.8      0.000      0.000
REMARK SMILES CCOC(=O)c1cc(C[NH2+]CC(=O)OCCOC(=O)c2ccc(-c3c4nc(c(-c5cc(S(=O)(=O)[O-])ccc5F)c5ccc([nH]5)c(-c5cc(S(=O)(=O)[O-])ccc5F)c5nc(c(-c6cc(S(=O)(=O)[O-])ccc6F)c6ccc3[nH]6)C=C5)C=C4)cc2)c(C)o1
REMARK SMILES IDX 14 1 12 2 13 3 11 4 10 5 9 8 8 9 6 10 7 11 85 12 83 13 84 14
REMARK SMILES IDX 4 15 5 16 3 17 2 18 1 19 15 20 16 21 17 22 18 23 19 24 20 25
REMARK SMILES IDX 21 26 82 27 22 28 81 29 23 30 24 31 25 32 75 33 26 34 80 35
REMARK SMILES IDX 74 36 76 37 27 38 79 39 73 40 72 41 28 43 60 44 40 45 59 46
REMARK SMILES IDX 41 47 44 48 58 49 77 50 42 51 43 52 57 54 78 55 45 56 29 57
REMARK SMILES IDX 30 58 38 59 31 60 37 61 39 62 36 63 32 64 33 65 34 66 35 67
REMARK SMILES IDX 61 68 62 69 70 70 63 71 69 72 71 73 68 74 64 75 65 76 66 77
REMARK SMILES IDX 67 78 46 79 47 80 55 81 48 82 54 83 56 84 53 85 49 86 50 87
REMARK SMILES IDX 51 88 52 89
REMARK H PARENT 10 6 10 7 76 42 44 53
REMARK Flexibility Score: inf
ROOT
ATOM      1  O   UNL A   1      31.426  27.496  26.334  1.00  0.00    -0.458 OA
ENDROOT
BRANCH   1   2
ATOM      2  C   UNL A   1      32.379  26.525  26.309  1.00  0.00     0.361 C 
ATOM      3  O   UNL A   1      33.574  26.738  26.139  1.00  0.00    -0.245 OA
BRANCH   2   4
ATOM      4  C   UNL A   1      31.799  25.120  26.478  1.00  0.00     0.385 C 
BRANCH   4   5
ATOM      5  N   UNL A   1      30.490  24.902  25.828  1.00  0.00    -0.333 N 
ATOM      6  H   UNL A   1      29.952  24.235  26.381  1.00  0.00     0.347 HD
ATOM      7  H   UNL A   1      30.007  25.799  25.771  1.00  0.00     0.347 HD
BRANCH   5   8
ATOM      8  C   UNL A   1      30.646  24.383  24.483  1.00  0.00     0.301 C 
BRANCH   8   9
ATOM      9  C   UNL A   1      30.624  25.494  23.499  1.00  0.00     0.048 A 
ATOM     10  C   UNL A   1      30.223  27.554  22.694  1.00  0.00     0.212 A 
ATOM     11  C   UNL A   1      29.664  26.538  23.448  1.00  0.00     0.068 A 
ATOM     12  O   UNL A   1      31.345  27.081  22.069  1.00  0.00    -0.454 OA
ATOM     13  C   UNL A   1      31.556  25.812  22.529  1.00  0.00     0.110 A 
ATOM     14  C   UNL A   1      32.732  25.105  21.984  1.00  0.00     0.088 C 
BRANCH  10  15
ATOM     15  C   UNL A   1      29.885  28.952  22.621  1.00  0.00     0.374 C 
ATOM     16  O   UNL A   1      30.479  29.834  21.999  1.00  0.00    -0.242 OA
BRANCH  15  17
ATOM     17  O   UNL A   1      28.881  29.215  23.506  1.00  0.00    -0.460 OA
BRANCH  17  18
ATOM     18  C   UNL A   1      27.743  29.864  22.925  1.00  0.00     0.230 C 
ATOM     19  C   UNL A   1      27.669  31.269  23.507  1.00  0.00     0.049 C 
ENDBRANCH  17  18
ENDBRANCH  15  17
ENDBRANCH  10  15
ENDBRANCH   8   9
ENDBRANCH   5   8
ENDBRANCH   4   5
ENDBRANCH   2   4
ENDBRANCH   1   2
BRANCH   1  20
ATOM     20  C   UNL A   1      31.749  28.707  27.042  1.00  0.00     0.274 C 
BRANCH  20  21
ATOM     21  C   UNL A   1      31.844  29.895  26.079  1.00  0.00     0.275 C 
BRANCH  21  22
ATOM     22  O   UNL A   1      33.169  30.459  26.050  1.00  0.00    -0.458 OA
BRANCH  22  23
ATOM     23  C   UNL A   1      33.420  31.384  27.009  1.00  0.00     0.338 C 
ATOM     24  O   UNL A   1      32.670  32.275  27.374  1.00  0.00    -0.246 OA
BRANCH  23  25
ATOM     25  C   UNL A   1      34.682  31.067  27.702  1.00  0.00     0.060 A 
ATOM     26  C   UNL A   1      34.901  29.738  28.072  1.00  0.00     0.016 A 
ATOM     27  C   UNL A   1      35.610  32.056  28.034  1.00  0.00     0.016 A 
ATOM     28  C   UNL A   1      36.050  29.387  28.774  1.00  0.00     0.010 A 
ATOM     29  C   UNL A   1      36.768  31.700  28.740  1.00  0.00     0.010 A 
ATOM     30  C   UNL A   1      36.993  30.364  29.116  1.00  0.00    -0.014 A 
BRANCH  30  31
ATOM     31  C   UNL A   1      38.197  29.967  29.889  1.00  0.00     0.031 A 
ATOM     32  C   UNL A   1      38.414  30.508  31.275  1.00  0.00     0.074 A 
ATOM     33  C   UNL A   1      39.067  29.087  29.356  1.00  0.00     0.049 A 
ATOM     34  N   UNL A   1      39.413  30.302  32.094  1.00  0.00    -0.248 NA
ATOM     35  C   UNL A   1      37.372  31.399  31.808  1.00  0.00     0.031 C 
ATOM     36  C   UNL A   1      38.933  28.469  28.035  1.00  0.00     0.029 A 
ATOM     37  N   UNL A   1      40.230  28.558  29.853  1.00  0.00    -0.354 N 
ATOM     38  C   UNL A   1      39.131  31.047  33.234  1.00  0.00     0.074 A 
ATOM     39  C   UNL A   1      37.875  31.727  32.991  1.00  0.00     0.031 C 
ATOM     40  C   UNL A   1      39.973  27.644  27.830  1.00  0.00     0.029 A 
ATOM     41  C   UNL A   1      40.872  27.712  28.976  1.00  0.00     0.049 A 
ATOM     42  H   UNL A   1      40.575  28.763  30.753  1.00  0.00     0.167 HD
ATOM     43  C   UNL A   1      39.856  31.151  34.374  1.00  0.00     0.034 A 
ATOM     44  C   UNL A   1      42.065  27.089  29.075  1.00  0.00     0.034 A 
ATOM     45  C   UNL A   1      41.101  30.456  34.603  1.00  0.00     0.049 A 
ATOM     46  C   UNL A   1      42.875  27.271  30.336  1.00  0.00     0.074 A 
ATOM     47  C   UNL A   1      41.892  30.464  35.739  1.00  0.00     0.029 A 
ATOM     48  N   UNL A   1      41.740  29.637  33.681  1.00  0.00    -0.354 N 
ATOM     49  N   UNL A   1      42.584  27.964  31.413  1.00  0.00    -0.248 NA
ATOM     50  C   UNL A   1      44.169  26.580  30.398  1.00  0.00     0.031 C 
ATOM     51  C   UNL A   1      43.045  29.715  35.477  1.00  0.00     0.029 A 
ATOM     52  C   UNL A   1      42.935  29.170  34.208  1.00  0.00     0.049 A 
ATOM     53  H   UNL A   1      41.395  29.422  32.784  1.00  0.00     0.167 HD
ATOM     54  C   UNL A   1      43.649  27.769  32.288  1.00  0.00     0.074 A 
ATOM     55  C   UNL A   1      44.572  26.872  31.625  1.00  0.00     0.031 C 
ATOM     56  C   UNL A   1      43.850  28.284  33.528  1.00  0.00     0.034 A 
BRANCH  43  57
ATOM     57  C   UNL A   1      39.358  32.093  35.444  1.00  0.00     0.023 A 
ATOM     58  C   UNL A   1      39.792  33.426  35.531  1.00  0.00     0.031 A 
ATOM     59  C   UNL A   1      38.407  31.645  36.380  1.00  0.00     0.131 A 
ATOM     60  C   UNL A   1      39.306  34.253  36.555  1.00  0.00     0.055 A 
ATOM     61  C   UNL A   1      37.879  32.491  37.355  1.00  0.00     0.041 A 
ATOM     62  F   UNL A   1      37.974  30.375  36.359  1.00  0.00    -0.206 F 
ATOM     63  C   UNL A   1      38.332  33.802  37.452  1.00  0.00     0.022 A 
BRANCH  60  64
ATOM     64  S   UNL A   1      40.027  35.905  36.761  1.00  0.00     0.124 S 
ATOM     65  O   UNL A   1      39.319  36.390  37.944  1.00  0.00    -0.237 OA
ATOM     66  O   UNL A   1      41.443  35.612  36.939  1.00  0.00    -0.237 OA
ATOM     67  O   UNL A   1      39.682  36.587  35.515  1.00  0.00    -0.744 OA
ENDBRANCH  60  64
ENDBRANCH  43  57
BRANCH  44  68
ATOM     68  C   UNL A   1      42.605  26.288  27.936  1.00  0.00     0.023 A 
ATOM     69  C   UNL A   1      42.269  24.935  27.771  1.00  0.00     0.031 A 
ATOM     70  C   UNL A   1      43.538  26.846  27.043  1.00  0.00     0.131 A 
ATOM     71  C   UNL A   1      42.910  24.169  26.784  1.00  0.00     0.055 A 
ATOM     72  C   UNL A   1      44.121  26.097  26.019  1.00  0.00     0.041 A 
ATOM     73  F   UNL A   1      43.902  28.133  27.154  1.00  0.00    -0.206 F 
ATOM     74  C   UNL A   1      43.823  24.745  25.898  1.00  0.00     0.022 A 
BRANCH  71  75
ATOM     75  S   UNL A   1      42.632  22.376  26.760  1.00  0.00     0.124 S 
ATOM     76  O   UNL A   1      41.320  22.288  26.130  1.00  0.00    -0.237 OA
ATOM     77  O   UNL A   1      43.760  21.907  25.962  1.00  0.00    -0.237 OA
ATOM     78  O   UNL A   1      42.673  22.006  28.174  1.00  0.00    -0.744 OA
ENDBRANCH  71  75
ENDBRANCH  44  68
BRANCH  56  79
ATOM     79  C   UNL A   1      45.102  27.849  34.253  1.00  0.00     0.023 A 
ATOM     80  C   UNL A   1      45.120  26.711  35.080  1.00  0.00     0.031 A 
ATOM     81  C   UNL A   1      46.286  28.599  34.137  1.00  0.00     0.131 A 
ATOM     82  C   UNL A   1      46.275  26.397  35.812  1.00  0.00     0.055 A 
ATOM     83  C   UNL A   1      47.452  28.243  34.815  1.00  0.00     0.041 A 
ATOM     84  F   UNL A   1      46.327  29.696  33.364  1.00  0.00    -0.206 F 
ATOM     85  C   UNL A   1      47.446  27.145  35.671  1.00  0.00     0.022 A 
BRANCH  82  86
ATOM     86  S   UNL A   1      46.192  25.060  37.035  1.00  0.00     0.124 S 
ATOM     87  O   UNL A   1      46.975  24.011  36.392  1.00  0.00    -0.237 OA
ATOM     88  O   UNL A   1      46.796  25.676  38.212  1.00  0.00    -0.237 OA
ATOM     89  O   UNL A   1      44.759  24.786  37.146  1.00  0.00    -0.744 OA
ENDBRANCH  82  86
ENDBRANCH  56  79
ENDBRANCH  30  31
ENDBRANCH  23  25
ENDBRANCH  22  23
ENDBRANCH  21  22
ENDBRANCH  20  21
ENDBRANCH   1  20
TORSDOF 20
ENDMDL
MODEL 2
REMARK VINA RESULT:      -9.7      2.653      8.587
REMARK SMILES CCOC(=O)c1cc(C[NH2+]CC(=O)OCCOC(=O)c2ccc(-c3c4nc(c(-c5cc(S(=O)(=O)[O-])ccc5F)c5ccc([nH]5)c(-c5cc(S(=O)(=O)[O-])ccc5F)c5nc(c(-c6cc(S(=O)(=O)[O-])ccc6F)c6ccc3[nH]6)C=C5)C=C4)cc2)c(C)o1
REMARK SMILES IDX 14 1 12 2 13 3 11 4 10 5 9 8 8 9 6 10 7 11 85 12 83 13 84 14
REMARK SMILES IDX 4 15 5 16 3 17 2 18 1 19 15 20 16 21 17 22 18 23 19 24 20 25
REMARK SMILES IDX 21 26 82 27 22 28 81 29 23 30 24 31 25 32 75 33 26 34 80 35
REMARK SMILES IDX 74 36 76 37 27 38 79 39 73 40 72 41 28 43 60 44 40 45 59 46
REMARK SMILES IDX 41 47 44 48 58 49 77 50 42 51 43 52 57 54 78 55 45 56 29 57
REMARK SMILES IDX 30 58 38 59 31 60 37 61 39 62 36 63 32 64 33 65 34 66 35 67
REMARK SMILES IDX 61 68 62 69 70 70 63 71 69 72 71 73 68 74 64 75 65 76 66 77
REMARK SMILES IDX 67 78 46 79 47 80 55 81 48 82 54 83 56 84 53 85 49 86 50 87
REMARK SMILES IDX 51 88 52 89
REMARK H PARENT 10 6 10 7 76 42 44 53
REMARK Flexibility Score: inf
ROOT
ATOM      1  O   UNL A   1      32.250  28.268  25.600  1.00  0.00    -0.458 OA
ENDROOT
BRANCH   1   2
ATOM      2  C   UNL A   1      31.610  27.104  25.893  1.00  0.00     0.361 C 
ATOM      3  O   UNL A   1      30.977  26.908  26.924  1.00  0.00    -0.245 OA
BRANCH   2   4
ATOM      4  C   UNL A   1      31.795  26.037  24.813  1.00  0.00     0.385 C 
BRANCH   4   5
ATOM      5  N   UNL A   1      31.648  24.643  25.280  1.00  0.00    -0.333 N 
ATOM      6  H   UNL A   1      32.408  24.428  25.925  1.00  0.00     0.347 HD
ATOM      7  H   UNL A   1      30.743  24.554  25.744  1.00  0.00     0.347 HD
BRANCH   5   8
ATOM      8  C   UNL A   1      31.688  23.706  24.174  1.00  0.00     0.301 C 
BRANCH   8   9
ATOM      9  C   UNL A   1      32.473  22.503  24.548  1.00  0.00     0.048 A 
ATOM     10  C   UNL A   1      32.874  20.340  25.009  1.00  0.00     0.212 A 
ATOM     11  C   UNL A   1      31.971  21.364  25.230  1.00  0.00     0.068 A 
ATOM     12  O   UNL A   1      34.015  20.861  24.463  1.00  0.00    -0.454 OA
ATOM     13  C   UNL A   1      33.780  22.186  24.228  1.00  0.00     0.110 A 
ATOM     14  C   UNL A   1      34.890  22.952  23.628  1.00  0.00     0.088 C 
BRANCH  10  15
ATOM     15  C   UNL A   1      32.711  18.914  25.129  1.00  0.00     0.374 C 
ATOM     16  O   UNL A   1      32.438  18.275  26.147  1.00  0.00    -0.242 OA
BRANCH  15  17
ATOM     17  O   UNL A   1      33.085  18.322  23.959  1.00  0.00    -0.460 OA
BRANCH  17  18
ATOM     18  C   UNL A   1      34.257  17.504  24.064  1.00  0.00     0.230 C 
ATOM     19  C   UNL A   1      34.279  16.576  22.858  1.00  0.00     0.049 C 
ENDBRANCH  17  18
ENDBRANCH  15  17
ENDBRANCH  10  15
ENDBRANCH   8   9
ENDBRANCH   5   8
ENDBRANCH   4   5
ENDBRANCH   2   4
ENDBRANCH   1   2
BRANCH   1  20
ATOM     20  C   UNL A   1      31.424  29.405  25.289  1.00  0.00     0.274 C 
BRANCH  20  21
ATOM     21  C   UNL A   1      31.866  30.637  26.085  1.00  0.00     0.275 C 
BRANCH  21  22
ATOM     22  O   UNL A   1      33.233  30.529  26.528  1.00  0.00    -0.458 OA
BRANCH  22  23
ATOM     23  C   UNL A   1      33.673  31.561  27.288  1.00  0.00     0.338 C 
ATOM     24  O   UNL A   1      33.057  32.578  27.561  1.00  0.00    -0.246 OA
BRANCH  23  25
ATOM     25  C   UNL A   1      34.964  31.217  27.912  1.00  0.00     0.060 A 
ATOM     26  C   UNL A   1      35.110  29.927  28.430  1.00  0.00     0.016 A 
ATOM     27  C   UNL A   1      35.994  32.150  28.041  1.00  0.00     0.016 A 
ATOM     28  C   UNL A   1      36.285  29.560  29.076  1.00  0.00     0.010 A 
ATOM     29  C   UNL A   1      37.179  31.779  28.691  1.00  0.00     0.010 A 
ATOM     30  C   UNL A   1      37.331  30.482  29.215  1.00  0.00    -0.014 A 
BRANCH  30  31
ATOM     31  C   UNL A   1      38.565  30.074  29.933  1.00  0.00     0.031 A 
ATOM     32  C   UNL A   1      39.494  29.066  29.317  1.00  0.00     0.074 A 
ATOM     33  C   UNL A   1      38.862  30.643  31.117  1.00  0.00     0.049 A 
ATOM     34  N   UNL A   1      40.602  28.563  29.798  1.00  0.00    -0.248 NA
ATOM     35  C   UNL A   1      39.131  28.557  27.986  1.00  0.00     0.031 C 
ATOM     36  C   UNL A   1      38.050  31.661  31.787  1.00  0.00     0.029 A 
ATOM     37  N   UNL A   1      39.924  30.455  31.965  1.00  0.00    -0.354 N 
ATOM     38  C   UNL A   1      41.062  27.666  28.839  1.00  0.00     0.074 A 
ATOM     39  C   UNL A   1      40.101  27.681  27.757  1.00  0.00     0.031 C 
ATOM     40  C   UNL A   1      38.645  32.007  32.941  1.00  0.00     0.029 A 
ATOM     41  C   UNL A   1      39.850  31.203  33.118  1.00  0.00     0.049 A 
ATOM     42  H   UNL A   1      40.669  29.842  31.767  1.00  0.00     0.167 HD
ATOM     43  C   UNL A   1      42.183  26.905  28.866  1.00  0.00     0.034 A 
ATOM     44  C   UNL A   1      40.645  31.214  34.207  1.00  0.00     0.034 A 
ATOM     45  C   UNL A   1      43.136  26.913  29.950  1.00  0.00     0.049 A 
ATOM     46  C   UNL A   1      41.856  30.312  34.229  1.00  0.00     0.074 A 
ATOM     47  C   UNL A   1      44.323  26.208  30.055  1.00  0.00     0.029 A 
ATOM     48  N   UNL A   1      43.012  27.654  31.118  1.00  0.00    -0.354 N 
ATOM     49  N   UNL A   1      42.287  29.484  33.304  1.00  0.00    -0.248 NA
ATOM     50  C   UNL A   1      42.690  30.351  35.437  1.00  0.00     0.031 C 
ATOM     51  C   UNL A   1      44.875  26.462  31.315  1.00  0.00     0.029 A 
ATOM     52  C   UNL A   1      44.078  27.390  31.965  1.00  0.00     0.049 A 
ATOM     53  H   UNL A   1      42.274  28.275  31.316  1.00  0.00     0.167 HD
ATOM     54  C   UNL A   1      43.458  28.926  33.812  1.00  0.00     0.074 A 
ATOM     55  C   UNL A   1      43.678  29.533  35.109  1.00  0.00     0.031 C 
ATOM     56  C   UNL A   1      44.278  27.995  33.260  1.00  0.00     0.034 A 
BRANCH  43  57
ATOM     57  C   UNL A   1      42.416  25.953  27.718  1.00  0.00     0.023 A 
ATOM     58  C   UNL A   1      41.916  24.640  27.719  1.00  0.00     0.031 A 
ATOM     59  C   UNL A   1      43.136  26.385  26.588  1.00  0.00     0.131 A 
ATOM     60  C   UNL A   1      42.176  23.793  26.629  1.00  0.00     0.055 A 
ATOM     61  C   UNL A   1      43.335  25.560  25.481  1.00  0.00     0.041 A 
ATOM     62  F   UNL A   1      43.657  27.621  26.543  1.00  0.00    -0.206 F 
ATOM     63  C   UNL A   1      42.859  24.253  25.500  1.00  0.00     0.022 A 
BRANCH  60  64
ATOM     64  S   UNL A   1      41.687  22.050  26.742  1.00  0.00     0.124 S 
ATOM     65  O   UNL A   1      40.248  22.163  26.972  1.00  0.00    -0.237 OA
ATOM     66  O   UNL A   1      42.088  21.524  25.443  1.00  0.00    -0.237 OA
ATOM     67  O   UNL A   1      42.455  21.552  27.881  1.00  0.00    -0.744 OA
ENDBRANCH  60  64
ENDBRANCH  43  57
BRANCH  44  68
ATOM     68  C   UNL A   1      40.303  32.052  35.395  1.00  0.00     0.023 A 
ATOM     69  C   UNL A   1      39.354  31.629  36.339  1.00  0.00     0.031 A 
ATOM     70  C   UNL A   1      40.861  33.334  35.554  1.00  0.00     0.131 A 
ATOM     71  C   UNL A   1      38.942  32.503  37.358  1.00  0.00     0.055 A 
ATOM     72  C   UNL A   1      40.498  34.173  36.610  1.00  0.00     0.041 A 
ATOM     73  F   UNL A   1      41.769  33.796  34.681  1.00  0.00    -0.206 F 
ATOM     74  C   UNL A   1      39.519  33.766  37.508  1.00  0.00     0.022 A 
BRANCH  71  75
ATOM     75  S   UNL A   1      37.545  32.015  38.407  1.00  0.00     0.124 S 
ATOM     76  O   UNL A   1      37.242  30.682  37.899  1.00  0.00    -0.237 OA
ATOM     77  O   UNL A   1      38.133  32.075  39.741  1.00  0.00    -0.237 OA
ATOM     78  O   UNL A   1      36.535  33.034  38.125  1.00  0.00    -0.744 OA
ENDBRANCH  71  75
ENDBRANCH  44  68
BRANCH  56  79
ATOM     79  C   UNL A   1      45.507  27.615  34.051  1.00  0.00     0.023 A 
ATOM     80  C   UNL A   1      45.488  26.568  34.990  1.00  0.00     0.031 A 
ATOM     81  C   UNL A   1      46.707  28.329  33.882  1.00  0.00     0.131 A 
ATOM     82  C   UNL A   1      46.624  26.312  35.773  1.00  0.00     0.055 A 
ATOM     83  C   UNL A   1      47.854  28.024  34.616  1.00  0.00     0.041 A 
ATOM     84  F   UNL A   1      46.783  29.340  33.001  1.00  0.00    -0.206 F 
ATOM     85  C   UNL A   1      47.811  27.021  35.580  1.00  0.00     0.022 A 
BRANCH  82  86
ATOM     86  S   UNL A   1      46.493  25.109  37.125  1.00  0.00     0.124 S 
ATOM     87  O   UNL A   1      45.361  24.294  36.699  1.00  0.00    -0.237 OA
ATOM     88  O   UNL A   1      47.798  24.456  37.089  1.00  0.00    -0.237 OA
ATOM     89  O   UNL A   1      46.250  25.942  38.303  1.00  0.00    -0.744 OA
ENDBRANCH  82  86
ENDBRANCH  56  79
ENDBRANCH  30  31
ENDBRANCH  23  25
ENDBRANCH  22  23
ENDBRANCH  21  22
ENDBRANCH  20  21
ENDBRANCH   1  20
TORSDOF 20
ENDMDL
MODEL 3
REMARK VINA RESULT:      -9.6      3.177      9.107
REMARK SMILES CCOC(=O)c1cc(C[NH2+]CC(=O)OCCOC(=O)c2ccc(-c3c4nc(c(-c5cc(S(=O)(=O)[O-])ccc5F)c5ccc([nH]5)c(-c5cc(S(=O)(=O)[O-])ccc5F)c5nc(c(-c6cc(S(=O)(=O)[O-])ccc6F)c6ccc3[nH]6)C=C5)C=C4)cc2)c(C)o1
REMARK SMILES IDX 14 1 12 2 13 3 11 4 10 5 9 8 8 9 6 10 7 11 85 12 83 13 84 14
REMARK SMILES IDX 4 15 5 16 3 17 2 18 1 19 15 20 16 21 17 22 18 23 19 24 20 25
REMARK SMILES IDX 21 26 82 27 22 28 81 29 23 30 24 31 25 32 75 33 26 34 80 35
REMARK SMILES IDX 74 36 76 37 27 38 79 39 73 40 72 41 28 43 60 44 40 45 59 46
REMARK SMILES IDX 41 47 44 48 58 49 77 50 42 51 43 52 57 54 78 55 45 56 29 57
REMARK SMILES IDX 30 58 38 59 31 60 37 61 39 62 36 63 32 64 33 65 34 66 35 67
REMARK SMILES IDX 61 68 62 69 70 70 63 71 69 72 71 73 68 74 64 75 65 76 66 77
REMARK SMILES IDX 67 78 46 79 47 80 55 81 48 82 54 83 56 84 53 85 49 86 50 87
REMARK SMILES IDX 51 88 52 89
REMARK H PARENT 10 6 10 7 76 42 44 53
REMARK Flexibility Score: inf
ROOT
ATOM      1  O   UNL A   1      43.092  20.902  26.383  1.00  0.00    -0.458 OA
ENDROOT
BRANCH   1   2
ATOM      2  C   UNL A   1      41.957  20.196  26.127  1.00  0.00     0.361 C 
ATOM      3  O   UNL A   1      41.929  19.144  25.499  1.00  0.00    -0.245 OA
BRANCH   2   4
ATOM      4  C   UNL A   1      40.700  20.874  26.674  1.00  0.00     0.385 C 
BRANCH   4   5
ATOM      5  N   UNL A   1      39.978  21.725  25.706  1.00  0.00    -0.333 N 
ATOM      6  H   UNL A   1      40.000  22.691  26.032  1.00  0.00     0.347 HD
ATOM      7  H   UNL A   1      40.436  21.637  24.798  1.00  0.00     0.347 HD
BRANCH   5   8
ATOM      8  C   UNL A   1      38.597  21.308  25.562  1.00  0.00     0.301 C 
BRANCH   8   9
ATOM      9  C   UNL A   1      37.749  22.464  25.173  1.00  0.00     0.048 A 
ATOM     10  C   UNL A   1      35.963  23.552  24.351  1.00  0.00     0.212 A 
ATOM     11  C   UNL A   1      36.806  22.481  24.113  1.00  0.00     0.068 A 
ATOM     12  O   UNL A   1      36.500  24.333  25.338  1.00  0.00    -0.454 OA
ATOM     13  C   UNL A   1      37.612  23.688  25.801  1.00  0.00     0.110 A 
ATOM     14  C   UNL A   1      38.354  24.359  26.886  1.00  0.00     0.088 C 
BRANCH  10  15
ATOM     15  C   UNL A   1      34.643  23.827  23.844  1.00  0.00     0.374 C 
ATOM     16  O   UNL A   1      33.798  24.581  24.328  1.00  0.00    -0.242 OA
BRANCH  15  17
ATOM     17  O   UNL A   1      34.376  22.977  22.812  1.00  0.00    -0.460 OA
BRANCH  17  18
ATOM     18  C   UNL A   1      33.048  23.095  22.284  1.00  0.00     0.230 C 
ATOM     19  C   UNL A   1      32.195  22.020  22.943  1.00  0.00     0.049 C 
ENDBRANCH  17  18
ENDBRANCH  15  17
ENDBRANCH  10  15
ENDBRANCH   8   9
ENDBRANCH   5   8
ENDBRANCH   4   5
ENDBRANCH   2   4
ENDBRANCH   1   2
BRANCH   1  20
ATOM     20  C   UNL A   1      44.145  20.818  25.405  1.00  0.00     0.274 C 
BRANCH  20  21
ATOM     21  C   UNL A   1      43.942  21.852  24.293  1.00  0.00     0.275 C 
BRANCH  21  22
ATOM     22  O   UNL A   1      43.199  22.998  24.752  1.00  0.00    -0.458 OA
BRANCH  22  23
ATOM     23  C   UNL A   1      43.936  24.118  24.950  1.00  0.00     0.338 C 
ATOM     24  O   UNL A   1      44.859  24.513  24.256  1.00  0.00    -0.246 OA
BRANCH  23  25
ATOM     25  C   UNL A   1      43.355  24.920  26.042  1.00  0.00     0.060 A 
ATOM     26  C   UNL A   1      43.786  26.243  26.174  1.00  0.00     0.016 A 
ATOM     27  C   UNL A   1      42.449  24.378  26.955  1.00  0.00     0.016 A 
ATOM     28  C   UNL A   1      43.312  27.034  27.215  1.00  0.00     0.010 A 
ATOM     29  C   UNL A   1      41.971  25.177  28.004  1.00  0.00     0.010 A 
ATOM     30  C   UNL A   1      42.403  26.508  28.142  1.00  0.00    -0.014 A 
BRANCH  30  31
ATOM     31  C   UNL A   1      41.934  27.365  29.260  1.00  0.00     0.031 A 
ATOM     32  C   UNL A   1      42.668  27.358  30.572  1.00  0.00     0.074 A 
ATOM     33  C   UNL A   1      40.875  28.177  29.075  1.00  0.00     0.049 A 
ATOM     34  N   UNL A   1      42.399  28.013  31.672  1.00  0.00    -0.248 NA
ATOM     35  C   UNL A   1      43.862  26.502  30.658  1.00  0.00     0.031 C 
ATOM     36  C   UNL A   1      40.112  28.292  27.830  1.00  0.00     0.029 A 
ATOM     37  N   UNL A   1      40.257  29.058  29.925  1.00  0.00    -0.354 N 
ATOM     38  C   UNL A   1      43.377  27.639  32.588  1.00  0.00     0.074 A 
ATOM     39  C   UNL A   1      44.234  26.683  31.918  1.00  0.00     0.031 C 
ATOM     40  C   UNL A   1      39.131  29.194  27.998  1.00  0.00     0.029 A 
ATOM     41  C   UNL A   1      39.160  29.682  29.373  1.00  0.00     0.049 A 
ATOM     42  H   UNL A   1      40.568  29.229  30.844  1.00  0.00     0.167 HD
ATOM     43  C   UNL A   1      43.538  28.057  33.867  1.00  0.00     0.034 A 
ATOM     44  C   UNL A   1      38.263  30.525  29.923  1.00  0.00     0.034 A 
ATOM     45  C   UNL A   1      42.679  29.021  34.514  1.00  0.00     0.049 A 
ATOM     46  C   UNL A   1      38.440  30.928  31.368  1.00  0.00     0.074 A 
ATOM     47  C   UNL A   1      42.781  29.540  35.793  1.00  0.00     0.029 A 
ATOM     48  N   UNL A   1      41.557  29.604  33.938  1.00  0.00    -0.354 N 
ATOM     49  N   UNL A   1      39.382  30.580  32.214  1.00  0.00    -0.248 NA
ATOM     50  C   UNL A   1      37.437  31.843  31.928  1.00  0.00     0.031 C 
ATOM     51  C   UNL A   1      41.681  30.374  36.018  1.00  0.00     0.029 A 
ATOM     52  C   UNL A   1      40.936  30.444  34.851  1.00  0.00     0.049 A 
ATOM     53  H   UNL A   1      41.248  29.443  33.017  1.00  0.00     0.167 HD
ATOM     54  C   UNL A   1      39.096  31.256  33.398  1.00  0.00     0.074 A 
ATOM     55  C   UNL A   1      37.914  32.052  33.146  1.00  0.00     0.031 C 
ATOM     56  C   UNL A   1      39.750  31.223  34.588  1.00  0.00     0.034 A 
BRANCH  43  57
ATOM     57  C   UNL A   1      44.650  27.436  34.677  1.00  0.00     0.023 A 
ATOM     58  C   UNL A   1      45.929  28.012  34.759  1.00  0.00     0.031 A 
ATOM     59  C   UNL A   1      44.409  26.254  35.402  1.00  0.00     0.131 A 
ATOM     60  C   UNL A   1      46.930  27.383  35.518  1.00  0.00     0.055 A 
ATOM     61  C   UNL A   1      45.388  25.671  36.206  1.00  0.00     0.041 A 
ATOM     62  F   UNL A   1      43.212  25.649  35.342  1.00  0.00    -0.206 F 
ATOM     63  C   UNL A   1      46.660  26.231  36.262  1.00  0.00     0.022 A 
BRANCH  60  64
ATOM     64  S   UNL A   1      48.620  28.039  35.450  1.00  0.00     0.124 S 
ATOM     65  O   UNL A   1      49.386  26.843  35.108  1.00  0.00    -0.237 OA
ATOM     66  O   UNL A   1      48.523  29.055  34.409  1.00  0.00    -0.237 OA
ATOM     67  O   UNL A   1      48.844  28.549  36.801  1.00  0.00    -0.744 OA
ENDBRANCH  60  64
ENDBRANCH  43  57
BRANCH  44  68
ATOM     68  C   UNL A   1      37.083  31.002  29.142  1.00  0.00     0.023 A 
ATOM     69  C   UNL A   1      36.092  30.112  28.700  1.00  0.00     0.031 A 
ATOM     70  C   UNL A   1      36.978  32.350  28.751  1.00  0.00     0.131 A 
ATOM     71  C   UNL A   1      35.078  30.564  27.840  1.00  0.00     0.055 A 
ATOM     72  C   UNL A   1      35.928  32.808  27.951  1.00  0.00     0.041 A 
ATOM     73  F   UNL A   1      37.898  33.246  29.138  1.00  0.00    -0.206 F 
ATOM     74  C   UNL A   1      34.982  31.909  27.475  1.00  0.00     0.022 A 
BRANCH  71  75
ATOM     75  S   UNL A   1      33.961  29.342  27.097  1.00  0.00     0.124 S 
ATOM     76  O   UNL A   1      34.896  28.485  26.378  1.00  0.00    -0.237 OA
ATOM     77  O   UNL A   1      33.328  28.756  28.275  1.00  0.00    -0.237 OA
ATOM     78  O   UNL A   1      33.082  30.152  26.256  1.00  0.00    -0.744 OA
ENDBRANCH  71  75
ENDBRANCH  44  68
BRANCH  56  79
ATOM     79  C   UNL A   1      39.212  32.108  35.686  1.00  0.00     0.023 A 
ATOM     80  C   UNL A   1      39.648  33.436  35.846  1.00  0.00     0.031 A 
ATOM     81  C   UNL A   1      38.271  31.608  36.604  1.00  0.00     0.131 A 
ATOM     82  C   UNL A   1      39.197  34.194  36.938  1.00  0.00     0.055 A 
ATOM     83  C   UNL A   1      37.774  32.389  37.648  1.00  0.00     0.041 A 
ATOM     84  F   UNL A   1      37.820  30.347  36.502  1.00  0.00    -0.206 F 
ATOM     85  C   UNL A   1      38.250  33.685  37.829  1.00  0.00     0.022 A 
BRANCH  82  86
ATOM     86  S   UNL A   1      39.948  35.817  37.238  1.00  0.00     0.124 S 
ATOM     87  O   UNL A   1      39.248  36.258  38.439  1.00  0.00    -0.237 OA
ATOM     88  O   UNL A   1      41.358  35.481  37.409  1.00  0.00    -0.237 OA
ATOM     89  O   UNL A   1      39.634  36.570  36.024  1.00  0.00    -0.744 OA
ENDBRANCH  82  86
ENDBRANCH  56  79
ENDBRANCH  30  31
ENDBRANCH  23  25
ENDBRANCH  22  23
ENDBRANCH  21  22
ENDBRANCH  20  21
ENDBRANCH   1  20
TORSDOF 20
ENDMDL
