MODEL 1
REMARK VINA RESULT:     -11.9      0.000      0.000
REMARK SMILES Cc1ccc(C(=O)OCCOC(=O)c2ccc(-c3c4nc(c(-c5cc(S(=O)(=O)[O-])ccc5F)c5ccc([nH]5)c(-c5cc(S(=O)(=O)[O-])ccc5F)c5nc(c(-c6cc(S(=O)(=O)[O-])ccc6F)c6ccc3[nH]6)C=C5)C=C4)cc2)cc1S(=O)(=O)N(CC1CC1)C(C)C
REMARK SMILES IDX 9 1 8 2 6 3 7 4 5 5 1 6 2 7 3 8 78 9 4 10 77 11 79 12 80 13
REMARK SMILES IDX 81 14 82 15 83 16 84 17 85 18 86 19 87 20 88 21 89 22 10 23
REMARK SMILES IDX 11 24 12 25 13 26 14 27 15 28 76 29 16 30 75 31 17 32 18 33
REMARK SMILES IDX 19 34 69 35 20 36 74 37 68 38 70 39 21 40 73 41 67 42 66 43
REMARK SMILES IDX 22 45 54 46 34 47 53 48 35 49 38 50 52 51 71 52 36 53 37 54
REMARK SMILES IDX 51 56 72 57 39 58 23 59 24 60 32 61 25 62 31 63 33 64 30 65
REMARK SMILES IDX 26 66 27 67 28 68 29 69 55 70 56 71 64 72 57 73 63 74 65 75
REMARK SMILES IDX 62 76 58 77 59 78 60 79 61 80 40 81 41 82 49 83 42 84 48 85
REMARK SMILES IDX 50 86 47 87 43 88 44 89 45 90 46 91
REMARK H PARENT 70 44 38 55
REMARK Flexibility Score: inf
ROOT
ATOM      1  C   UNL A   1      32.661  30.100  27.210  1.00  0.00     0.275 C 
ENDROOT
BRANCH   1   2
ATOM      2  O   UNL A   1      31.759  29.363  26.368  1.00  0.00    -0.458 OA
BRANCH   2   3
ATOM      3  C   UNL A   1      31.539  28.114  26.844  1.00  0.00     0.338 C 
ATOM      4  O   UNL A   1      31.355  27.826  28.020  1.00  0.00    -0.246 OA
BRANCH   3   5
ATOM      5  C   UNL A   1      31.623  27.056  25.815  1.00  0.00     0.061 A 
ATOM      6  C   UNL A   1      30.638  23.700  23.287  1.00  0.00     0.046 C 
ATOM      7  C   UNL A   1      31.138  24.807  24.173  1.00  0.00    -0.031 A 
ATOM      8  C   UNL A   1      31.130  26.119  23.647  1.00  0.00     0.006 A 
ATOM      9  C   UNL A   1      31.536  24.642  25.507  1.00  0.00     0.086 A 
ATOM     10  C   UNL A   1      31.392  27.238  24.456  1.00  0.00     0.016 A 
ATOM     11  C   UNL A   1      31.754  25.765  26.315  1.00  0.00     0.037 A 
BRANCH   9  12
ATOM     12  S   UNL A   1      31.620  23.101  26.384  1.00  0.00     0.243 S 
ATOM     13  O   UNL A   1      32.104  23.380  27.714  1.00  0.00    -0.207 OA
ATOM     14  O   UNL A   1      30.310  22.494  26.201  1.00  0.00    -0.207 OA
BRANCH  12  15
ATOM     15  N   UNL A   1      32.772  22.091  25.671  1.00  0.00    -0.195 NA
BRANCH  15  16
ATOM     16  C   UNL A   1      32.423  20.906  24.860  1.00  0.00     0.106 C 
BRANCH  16  17
ATOM     17  C   UNL A   1      33.178  19.632  25.084  1.00  0.00     0.004 C 
ATOM     18  C   UNL A   1      32.614  18.331  25.603  1.00  0.00     0.005 C 
ATOM     19  C   UNL A   1      32.906  18.477  24.141  1.00  0.00     0.005 C 
ENDBRANCH  16  17
ENDBRANCH  15  16
BRANCH  15  20
ATOM     20  C   UNL A   1      34.104  22.705  25.312  1.00  0.00     0.067 C 
ATOM     21  C   UNL A   1      35.252  22.111  26.127  1.00  0.00     0.025 C 
ATOM     22  C   UNL A   1      34.448  22.628  23.825  1.00  0.00     0.025 C 
ENDBRANCH  15  20
ENDBRANCH  12  15
ENDBRANCH   9  12
ENDBRANCH   3   5
ENDBRANCH   2   3
ENDBRANCH   1   2
BRANCH   1  23
ATOM     23  C   UNL A   1      34.122  29.650  27.068  1.00  0.00     0.275 C 
BRANCH  23  24
ATOM     24  O   UNL A   1      34.985  29.622  28.229  1.00  0.00    -0.458 OA
BRANCH  24  25
ATOM     25  C   UNL A   1      36.099  30.397  28.246  1.00  0.00     0.338 C 
ATOM     26  O   UNL A   1      36.086  31.605  28.421  1.00  0.00    -0.246 OA
BRANCH  25  27
ATOM     27  C   UNL A   1      37.323  29.552  28.262  1.00  0.00     0.060 A 
ATOM     28  C   UNL A   1      38.284  29.713  27.252  1.00  0.00     0.016 A 
ATOM     29  C   UNL A   1      37.619  28.807  29.404  1.00  0.00     0.016 A 
ATOM     30  C   UNL A   1      39.580  29.240  27.441  1.00  0.00     0.010 A 
ATOM     31  C   UNL A   1      38.917  28.423  29.639  1.00  0.00     0.010 A 
ATOM     32  C   UNL A   1      39.892  28.617  28.652  1.00  0.00    -0.014 A 
BRANCH  32  33
ATOM     33  C   UNL A   1      41.067  27.780  28.834  1.00  0.00     0.031 A 
ATOM     34  C   UNL A   1      41.150  26.366  28.440  1.00  0.00     0.074 A 
ATOM     35  C   UNL A   1      42.123  28.476  29.311  1.00  0.00     0.049 A 
ATOM     36  N   UNL A   1      41.981  25.528  28.961  1.00  0.00    -0.248 NA
ATOM     37  C   UNL A   1      40.288  25.765  27.428  1.00  0.00     0.031 C 
ATOM     38  C   UNL A   1      43.521  28.108  29.410  1.00  0.00     0.029 A 
ATOM     39  N   UNL A   1      42.047  29.686  30.011  1.00  0.00    -0.354 N 
ATOM     40  C   UNL A   1      42.013  24.421  28.137  1.00  0.00     0.074 A 
ATOM     41  C   UNL A   1      40.860  24.562  27.277  1.00  0.00     0.031 C 
ATOM     42  C   UNL A   1      44.075  28.858  30.384  1.00  0.00     0.029 A 
ATOM     43  C   UNL A   1      42.987  29.592  31.026  1.00  0.00     0.049 A 
ATOM     44  H   UNL A   1      41.451  30.446  29.822  1.00  0.00     0.167 HD
ATOM     45  C   UNL A   1      43.124  23.625  28.137  1.00  0.00     0.034 A 
ATOM     46  C   UNL A   1      42.613  29.493  32.337  1.00  0.00     0.034 A 
ATOM     47  C   UNL A   1      44.104  24.101  29.112  1.00  0.00     0.049 A 
ATOM     48  C   UNL A   1      43.192  28.236  32.940  1.00  0.00     0.074 A 
ATOM     49  C   UNL A   1      45.226  24.898  28.964  1.00  0.00     0.029 A 
ATOM     50  N   UNL A   1      43.815  24.064  30.471  1.00  0.00    -0.354 N 
ATOM     51  N   UNL A   1      43.360  27.120  32.282  1.00  0.00    -0.248 NA
ATOM     52  C   UNL A   1      43.683  28.175  34.309  1.00  0.00     0.031 C 
ATOM     53  C   UNL A   1      45.551  25.428  30.236  1.00  0.00     0.029 A 
ATOM     54  C   UNL A   1      44.651  24.923  31.159  1.00  0.00     0.049 A 
ATOM     55  H   UNL A   1      43.117  23.507  30.884  1.00  0.00     0.167 HD
ATOM     56  C   UNL A   1      44.079  26.253  33.064  1.00  0.00     0.074 A 
ATOM     57  C   UNL A   1      44.220  26.944  34.337  1.00  0.00     0.031 C 
ATOM     58  C   UNL A   1      44.568  25.063  32.601  1.00  0.00     0.034 A 
BRANCH  45  59
ATOM     59  C   UNL A   1      43.489  22.688  27.003  1.00  0.00     0.023 A 
ATOM     60  C   UNL A   1      42.911  21.398  26.965  1.00  0.00     0.031 A 
ATOM     61  C   UNL A   1      44.412  22.963  25.980  1.00  0.00     0.131 A 
ATOM     62  C   UNL A   1      43.330  20.421  26.046  1.00  0.00     0.055 A 
ATOM     63  C   UNL A   1      44.854  21.983  25.076  1.00  0.00     0.041 A 
ATOM     64  F   UNL A   1      44.900  24.199  25.795  1.00  0.00    -0.206 F 
ATOM     65  C   UNL A   1      44.328  20.696  25.118  1.00  0.00     0.022 A 
BRANCH  62  66
ATOM     66  S   UNL A   1      42.559  18.778  26.101  1.00  0.00     0.124 S 
ATOM     67  O   UNL A   1      41.192  19.062  25.678  1.00  0.00    -0.237 OA
ATOM     68  O   UNL A   1      43.378  18.018  25.163  1.00  0.00    -0.237 OA
ATOM     69  O   UNL A   1      42.700  18.382  27.501  1.00  0.00    -0.744 OA
ENDBRANCH  62  66
ENDBRANCH  45  59
BRANCH  46  70
ATOM     70  C   UNL A   1      41.284  30.080  32.720  1.00  0.00     0.023 A 
ATOM     71  C   UNL A   1      41.135  31.488  32.740  1.00  0.00     0.031 A 
ATOM     72  C   UNL A   1      40.112  29.316  32.827  1.00  0.00     0.131 A 
ATOM     73  C   UNL A   1      39.860  32.079  32.744  1.00  0.00     0.055 A 
ATOM     74  C   UNL A   1      38.842  29.912  32.886  1.00  0.00     0.041 A 
ATOM     75  F   UNL A   1      40.161  27.977  32.802  1.00  0.00    -0.206 F 
ATOM     76  C   UNL A   1      38.709  31.297  32.818  1.00  0.00     0.022 A 
BRANCH  73  77
ATOM     77  S   UNL A   1      39.726  33.865  32.430  1.00  0.00     0.124 S 
ATOM     78  O   UNL A   1      41.030  34.351  32.865  1.00  0.00    -0.237 OA
ATOM     79  O   UNL A   1      39.471  33.908  30.992  1.00  0.00    -0.237 OA
ATOM     80  O   UNL A   1      38.595  34.268  33.260  1.00  0.00    -0.744 OA
ENDBRANCH  73  77
ENDBRANCH  46  70
BRANCH  58  81
ATOM     81  C   UNL A   1      45.169  23.980  33.462  1.00  0.00     0.023 A 
ATOM     82  C   UNL A   1      46.466  24.066  33.978  1.00  0.00     0.031 A 
ATOM     83  C   UNL A   1      44.408  22.860  33.879  1.00  0.00     0.131 A 
ATOM     84  C   UNL A   1      46.998  23.038  34.769  1.00  0.00     0.055 A 
ATOM     85  C   UNL A   1      44.908  21.885  34.743  1.00  0.00     0.041 A 
ATOM     86  F   UNL A   1      43.143  22.670  33.477  1.00  0.00    -0.206 F 
ATOM     87  C   UNL A   1      46.221  21.958  35.180  1.00  0.00     0.022 A 
BRANCH  84  88
ATOM     88  S   UNL A   1      48.758  23.110  35.177  1.00  0.00     0.124 S 
ATOM     89  O   UNL A   1      48.820  22.282  36.380  1.00  0.00    -0.237 OA
ATOM     90  O   UNL A   1      49.381  22.541  33.986  1.00  0.00    -0.237 OA
ATOM     91  O   UNL A   1      49.005  24.534  35.389  1.00  0.00    -0.744 OA
ENDBRANCH  84  88
ENDBRANCH  58  81
ENDBRANCH  32  33
ENDBRANCH  25  27
ENDBRANCH  24  25
ENDBRANCH  23  24
ENDBRANCH   1  23
TORSDOF 19
ENDMDL
MODEL 2
REMARK VINA RESULT:     -11.9      4.303     10.427
REMARK SMILES Cc1ccc(C(=O)OCCOC(=O)c2ccc(-c3c4nc(c(-c5cc(S(=O)(=O)[O-])ccc5F)c5ccc([nH]5)c(-c5cc(S(=O)(=O)[O-])ccc5F)c5nc(c(-c6cc(S(=O)(=O)[O-])ccc6F)c6ccc3[nH]6)C=C5)C=C4)cc2)cc1S(=O)(=O)N(CC1CC1)C(C)C
REMARK SMILES IDX 9 1 8 2 6 3 7 4 5 5 1 6 2 7 3 8 78 9 4 10 77 11 79 12 80 13
REMARK SMILES IDX 81 14 82 15 83 16 84 17 85 18 86 19 87 20 88 21 89 22 10 23
REMARK SMILES IDX 11 24 12 25 13 26 14 27 15 28 76 29 16 30 75 31 17 32 18 33
REMARK SMILES IDX 19 34 69 35 20 36 74 37 68 38 70 39 21 40 73 41 67 42 66 43
REMARK SMILES IDX 22 45 54 46 34 47 53 48 35 49 38 50 52 51 71 52 36 53 37 54
REMARK SMILES IDX 51 56 72 57 39 58 23 59 24 60 32 61 25 62 31 63 33 64 30 65
REMARK SMILES IDX 26 66 27 67 28 68 29 69 55 70 56 71 64 72 57 73 63 74 65 75
REMARK SMILES IDX 62 76 58 77 59 78 60 79 61 80 40 81 41 82 49 83 42 84 48 85
REMARK SMILES IDX 50 86 47 87 43 88 44 89 45 90 46 91
REMARK H PARENT 70 44 38 55
REMARK Flexibility Score: inf
ROOT
ATOM      1  C   UNL A   1      36.530  22.553  25.797  1.00  0.00     0.275 C 
ENDROOT
BRANCH   1   2
ATOM      2  O   UNL A   1      36.741  21.935  24.517  1.00  0.00    -0.458 OA
BRANCH   2   3
ATOM      3  C   UNL A   1      36.173  22.650  23.517  1.00  0.00     0.338 C 
ATOM      4  O   UNL A   1      36.746  23.036  22.507  1.00  0.00    -0.246 OA
BRANCH   3   5
ATOM      5  C   UNL A   1      34.766  23.025  23.772  1.00  0.00     0.061 A 
ATOM      6  C   UNL A   1      30.555  23.791  23.217  1.00  0.00     0.046 C 
ATOM      7  C   UNL A   1      32.024  23.661  23.509  1.00  0.00    -0.031 A 
ATOM      8  C   UNL A   1      32.450  22.517  24.220  1.00  0.00     0.006 A 
ATOM      9  C   UNL A   1      33.008  24.552  23.059  1.00  0.00     0.086 A 
ATOM     10  C   UNL A   1      33.813  22.209  24.372  1.00  0.00     0.016 A 
ATOM     11  C   UNL A   1      34.363  24.216  23.177  1.00  0.00     0.037 A 
BRANCH   9  12
ATOM     12  S   UNL A   1      32.719  26.046  22.144  1.00  0.00     0.243 S 
ATOM     13  O   UNL A   1      34.002  26.638  21.854  1.00  0.00    -0.207 OA
ATOM     14  O   UNL A   1      31.837  25.653  21.054  1.00  0.00    -0.207 OA
BRANCH  12  15
ATOM     15  N   UNL A   1      31.897  27.165  23.108  1.00  0.00    -0.195 NA
BRANCH  15  16
ATOM     16  C   UNL A   1      32.574  28.067  24.062  1.00  0.00     0.106 C 
BRANCH  16  17
ATOM     17  C   UNL A   1      32.573  27.708  25.517  1.00  0.00     0.004 C 
ATOM     18  C   UNL A   1      32.156  26.387  26.116  1.00  0.00     0.005 C 
ATOM     19  C   UNL A   1      33.612  26.716  25.999  1.00  0.00     0.005 C 
ENDBRANCH  16  17
ENDBRANCH  15  16
BRANCH  15  20
ATOM     20  C   UNL A   1      30.590  27.706  22.580  1.00  0.00     0.067 C 
ATOM     21  C   UNL A   1      29.404  27.317  23.462  1.00  0.00     0.025 C 
ATOM     22  C   UNL A   1      30.581  29.219  22.360  1.00  0.00     0.025 C 
ENDBRANCH  15  20
ENDBRANCH  12  15
ENDBRANCH   9  12
ENDBRANCH   3   5
ENDBRANCH   2   3
ENDBRANCH   1   2
BRANCH   1  23
ATOM     23  C   UNL A   1      37.323  23.856  25.976  1.00  0.00     0.275 C 
BRANCH  23  24
ATOM     24  O   UNL A   1      38.749  23.872  25.728  1.00  0.00    -0.458 OA
BRANCH  24  25
ATOM     25  C   UNL A   1      39.603  23.960  26.780  1.00  0.00     0.338 C 
ATOM     26  O   UNL A   1      40.489  23.151  27.006  1.00  0.00    -0.246 OA
BRANCH  25  27
ATOM     27  C   UNL A   1      39.465  25.276  27.458  1.00  0.00     0.060 A 
ATOM     28  C   UNL A   1      39.023  25.322  28.788  1.00  0.00     0.016 A 
ATOM     29  C   UNL A   1      40.017  26.409  26.859  1.00  0.00     0.016 A 
ATOM     30  C   UNL A   1      39.248  26.459  29.560  1.00  0.00     0.010 A 
ATOM     31  C   UNL A   1      40.329  27.497  27.638  1.00  0.00     0.010 A 
ATOM     32  C   UNL A   1      39.926  27.534  28.980  1.00  0.00    -0.014 A 
BRANCH  32  33
ATOM     33  C   UNL A   1      39.910  28.876  29.536  1.00  0.00     0.031 A 
ATOM     34  C   UNL A   1      38.833  29.853  29.319  1.00  0.00     0.074 A 
ATOM     35  C   UNL A   1      40.948  29.097  30.373  1.00  0.00     0.049 A 
ATOM     36  N   UNL A   1      38.992  31.129  29.432  1.00  0.00    -0.248 NA
ATOM     37  C   UNL A   1      37.475  29.477  28.938  1.00  0.00     0.031 C 
ATOM     38  C   UNL A   1      41.185  30.178  31.309  1.00  0.00     0.029 A 
ATOM     39  N   UNL A   1      42.154  28.387  30.373  1.00  0.00    -0.354 N 
ATOM     40  C   UNL A   1      37.735  31.693  29.495  1.00  0.00     0.074 A 
ATOM     41  C   UNL A   1      36.835  30.650  29.059  1.00  0.00     0.031 C 
ATOM     42  C   UNL A   1      42.515  30.259  31.515  1.00  0.00     0.029 A 
ATOM     43  C   UNL A   1      43.147  29.333  30.577  1.00  0.00     0.049 A 
ATOM     44  H   UNL A   1      42.273  27.417  30.253  1.00  0.00     0.167 HD
ATOM     45  C   UNL A   1      37.580  32.905  30.106  1.00  0.00     0.034 A 
ATOM     46  C   UNL A   1      44.029  29.667  29.588  1.00  0.00     0.034 A 
ATOM     47  C   UNL A   1      38.868  33.428  30.558  1.00  0.00     0.049 A 
ATOM     48  C   UNL A   1      43.954  31.150  29.317  1.00  0.00     0.074 A 
ATOM     49  C   UNL A   1      39.489  33.387  31.795  1.00  0.00     0.029 A 
ATOM     50  N   UNL A   1      39.846  33.778  29.632  1.00  0.00    -0.354 N 
ATOM     51  N   UNL A   1      42.857  31.855  29.401  1.00  0.00    -0.248 NA
ATOM     52  C   UNL A   1      45.128  31.950  28.998  1.00  0.00     0.031 C 
ATOM     53  C   UNL A   1      40.871  33.614  31.594  1.00  0.00     0.029 A 
ATOM     54  C   UNL A   1      41.084  33.830  30.243  1.00  0.00     0.049 A 
ATOM     55  H   UNL A   1      39.679  33.963  28.680  1.00  0.00     0.167 HD
ATOM     56  C   UNL A   1      43.178  33.184  29.284  1.00  0.00     0.074 A 
ATOM     57  C   UNL A   1      44.604  33.187  28.992  1.00  0.00     0.031 C 
ATOM     58  C   UNL A   1      42.277  34.189  29.501  1.00  0.00     0.034 A 
BRANCH  45  59
ATOM     59  C   UNL A   1      36.258  33.413  30.648  1.00  0.00     0.023 A 
ATOM     60  C   UNL A   1      35.371  34.083  29.774  1.00  0.00     0.031 A 
ATOM     61  C   UNL A   1      35.835  33.328  31.984  1.00  0.00     0.131 A 
ATOM     62  C   UNL A   1      34.212  34.728  30.240  1.00  0.00     0.055 A 
ATOM     63  C   UNL A   1      34.693  33.993  32.460  1.00  0.00     0.041 A 
ATOM     64  F   UNL A   1      36.493  32.573  32.877  1.00  0.00    -0.206 F 
ATOM     65  C   UNL A   1      33.883  34.716  31.590  1.00  0.00     0.022 A 
BRANCH  62  66
ATOM     66  S   UNL A   1      33.155  35.599  29.048  1.00  0.00     0.124 S 
ATOM     67  O   UNL A   1      32.298  36.397  29.918  1.00  0.00    -0.237 OA
ATOM     68  O   UNL A   1      34.128  36.336  28.249  1.00  0.00    -0.237 OA
ATOM     69  O   UNL A   1      32.474  34.515  28.340  1.00  0.00    -0.744 OA
ENDBRANCH  62  66
ENDBRANCH  45  59
BRANCH  46  70
ATOM     70  C   UNL A   1      44.312  28.629  28.540  1.00  0.00     0.023 A 
ATOM     71  C   UNL A   1      45.086  27.496  28.886  1.00  0.00     0.031 A 
ATOM     72  C   UNL A   1      43.656  28.595  27.300  1.00  0.00     0.131 A 
ATOM     73  C   UNL A   1      45.090  26.348  28.075  1.00  0.00     0.055 A 
ATOM     74  C   UNL A   1      43.706  27.466  26.466  1.00  0.00     0.041 A 
ATOM     75  F   UNL A   1      42.891  29.620  26.899  1.00  0.00    -0.206 F 
ATOM     76  C   UNL A   1      44.403  26.327  26.863  1.00  0.00     0.022 A 
BRANCH  73  77
ATOM     77  S   UNL A   1      45.820  24.818  28.732  1.00  0.00     0.124 S 
ATOM     78  O   UNL A   1      46.063  25.170  30.126  1.00  0.00    -0.237 OA
ATOM     79  O   UNL A   1      44.761  23.841  28.491  1.00  0.00    -0.237 OA
ATOM     80  O   UNL A   1      47.014  24.636  27.912  1.00  0.00    -0.744 OA
ENDBRANCH  73  77
ENDBRANCH  46  70
BRANCH  58  81
ATOM     81  C   UNL A   1      42.509  35.643  29.177  1.00  0.00     0.023 A 
ATOM     82  C   UNL A   1      43.414  36.436  29.892  1.00  0.00     0.031 A 
ATOM     83  C   UNL A   1      41.895  36.258  28.058  1.00  0.00     0.131 A 
ATOM     84  C   UNL A   1      43.600  37.788  29.570  1.00  0.00     0.055 A 
ATOM     85  C   UNL A   1      42.154  37.578  27.683  1.00  0.00     0.041 A 
ATOM     86  F   UNL A   1      41.026  35.604  27.274  1.00  0.00    -0.206 F 
ATOM     87  C   UNL A   1      42.998  38.361  28.454  1.00  0.00     0.022 A 
BRANCH  84  88
ATOM     88  S   UNL A   1      44.587  38.797  30.701  1.00  0.00     0.124 S 
ATOM     89  O   UNL A   1      43.740  38.824  31.892  1.00  0.00    -0.237 OA
ATOM     90  O   UNL A   1      45.819  38.022  30.821  1.00  0.00    -0.237 OA
ATOM     91  O   UNL A   1      44.718  40.072  30.002  1.00  0.00    -0.744 OA
ENDBRANCH  84  88
ENDBRANCH  58  81
ENDBRANCH  32  33
ENDBRANCH  25  27
ENDBRANCH  24  25
ENDBRANCH  23  24
ENDBRANCH   1  23
TORSDOF 19
ENDMDL
MODEL 3
REMARK VINA RESULT:     -11.8      3.647      9.784
REMARK SMILES Cc1ccc(C(=O)OCCOC(=O)c2ccc(-c3c4nc(c(-c5cc(S(=O)(=O)[O-])ccc5F)c5ccc([nH]5)c(-c5cc(S(=O)(=O)[O-])ccc5F)c5nc(c(-c6cc(S(=O)(=O)[O-])ccc6F)c6ccc3[nH]6)C=C5)C=C4)cc2)cc1S(=O)(=O)N(CC1CC1)C(C)C
REMARK SMILES IDX 9 1 8 2 6 3 7 4 5 5 1 6 2 7 3 8 78 9 4 10 77 11 79 12 80 13
REMARK SMILES IDX 81 14 82 15 83 16 84 17 85 18 86 19 87 20 88 21 89 22 10 23
REMARK SMILES IDX 11 24 12 25 13 26 14 27 15 28 76 29 16 30 75 31 17 32 18 33
REMARK SMILES IDX 19 34 69 35 20 36 74 37 68 38 70 39 21 40 73 41 67 42 66 43
REMARK SMILES IDX 22 45 54 46 34 47 53 48 35 49 38 50 52 51 71 52 36 53 37 54
REMARK SMILES IDX 51 56 72 57 39 58 23 59 24 60 32 61 25 62 31 63 33 64 30 65
REMARK SMILES IDX 26 66 27 67 28 68 29 69 55 70 56 71 64 72 57 73 63 74 65 75
REMARK SMILES IDX 62 76 58 77 59 78 60 79 61 80 40 81 41 82 49 83 42 84 48 85
REMARK SMILES IDX 50 86 47 87 43 88 44 89 45 90 46 91
REMARK H PARENT 70 44 38 55
REMARK Flexibility Score: inf
ROOT
ATOM      1  C   UNL A   1      35.700  20.769  25.170  1.00  0.00     0.275 C 
ENDROOT
BRANCH   1   2
ATOM      2  O   UNL A   1      35.925  21.814  26.129  1.00  0.00    -0.458 OA
BRANCH   2   3
ATOM      3  C   UNL A   1      35.808  23.041  25.567  1.00  0.00     0.338 C 
ATOM      4  O   UNL A   1      36.701  23.641  24.981  1.00  0.00    -0.246 OA
BRANCH   3   5
ATOM      5  C   UNL A   1      34.494  23.681  25.788  1.00  0.00     0.061 A 
ATOM      6  C   UNL A   1      30.317  24.707  25.443  1.00  0.00     0.046 C 
ATOM      7  C   UNL A   1      31.800  24.514  25.589  1.00  0.00    -0.031 A 
ATOM      8  C   UNL A   1      32.254  23.743  26.683  1.00  0.00     0.006 A 
ATOM      9  C   UNL A   1      32.758  24.977  24.676  1.00  0.00     0.086 A 
ATOM     10  C   UNL A   1      33.597  23.345  26.797  1.00  0.00     0.016 A 
ATOM     11  C   UNL A   1      34.085  24.540  24.774  1.00  0.00     0.037 A 
BRANCH   9  12
ATOM     12  S   UNL A   1      32.430  25.952  23.229  1.00  0.00     0.243 S 
ATOM     13  O   UNL A   1      33.695  26.423  22.722  1.00  0.00    -0.207 OA
ATOM     14  O   UNL A   1      31.581  25.113  22.396  1.00  0.00    -0.207 OA
BRANCH  12  15
ATOM     15  N   UNL A   1      31.553  27.334  23.649  1.00  0.00    -0.195 NA
BRANCH  15  16
ATOM     16  C   UNL A   1      32.177  28.558  24.193  1.00  0.00     0.106 C 
BRANCH  16  17
ATOM     17  C   UNL A   1      32.125  28.798  25.671  1.00  0.00     0.004 C 
ATOM     18  C   UNL A   1      31.496  27.897  26.706  1.00  0.00     0.005 C 
ATOM     19  C   UNL A   1      32.987  27.920  26.557  1.00  0.00     0.005 C 
ENDBRANCH  16  17
ENDBRANCH  15  16
BRANCH  15  20
ATOM     20  C   UNL A   1      30.260  27.585  22.911  1.00  0.00     0.067 C 
ATOM     21  C   UNL A   1      29.042  27.101  23.697  1.00  0.00     0.025 C 
ATOM     22  C   UNL A   1      30.047  29.041  22.497  1.00  0.00     0.025 C 
ENDBRANCH  15  20
ENDBRANCH  12  15
ENDBRANCH   9  12
ENDBRANCH   3   5
ENDBRANCH   2   3
ENDBRANCH   1   2
BRANCH   1  23
ATOM     23  C   UNL A   1      36.922  19.860  24.971  1.00  0.00     0.275 C 
BRANCH  23  24
ATOM     24  O   UNL A   1      38.243  20.440  24.864  1.00  0.00    -0.458 OA
BRANCH  24  25
ATOM     25  C   UNL A   1      39.248  19.948  25.632  1.00  0.00     0.338 C 
ATOM     26  O   UNL A   1      39.715  18.827  25.505  1.00  0.00    -0.246 OA
BRANCH  25  27
ATOM     27  C   UNL A   1      39.846  21.024  26.465  1.00  0.00     0.060 A 
ATOM     28  C   UNL A   1      40.897  20.714  27.341  1.00  0.00     0.016 A 
ATOM     29  C   UNL A   1      39.535  22.355  26.180  1.00  0.00     0.016 A 
ATOM     30  C   UNL A   1      41.720  21.726  27.830  1.00  0.00     0.010 A 
ATOM     31  C   UNL A   1      40.397  23.347  26.580  1.00  0.00     0.010 A 
ATOM     32  C   UNL A   1      41.474  23.039  27.421  1.00  0.00    -0.014 A 
BRANCH  32  33
ATOM     33  C   UNL A   1      42.009  24.199  28.116  1.00  0.00     0.031 A 
ATOM     34  C   UNL A   1      41.243  25.420  28.406  1.00  0.00     0.074 A 
ATOM     35  C   UNL A   1      43.266  23.993  28.567  1.00  0.00     0.049 A 
ATOM     36  N   UNL A   1      41.787  26.571  28.618  1.00  0.00    -0.248 NA
ATOM     37  C   UNL A   1      39.785  25.456  28.468  1.00  0.00     0.031 C 
ATOM     38  C   UNL A   1      44.068  24.766  29.494  1.00  0.00     0.029 A 
ATOM     39  N   UNL A   1      44.162  23.042  28.064  1.00  0.00    -0.354 N 
ATOM     40  C   UNL A   1      40.822  27.381  29.179  1.00  0.00     0.074 A 
ATOM     41  C   UNL A   1      39.573  26.690  28.948  1.00  0.00     0.031 C 
ATOM     42  C   UNL A   1      45.364  24.494  29.241  1.00  0.00     0.029 A 
ATOM     43  C   UNL A   1      45.398  23.670  28.034  1.00  0.00     0.049 A 
ATOM     44  H   UNL A   1      43.957  22.119  27.788  1.00  0.00     0.167 HD
ATOM     45  C   UNL A   1      41.208  28.438  29.954  1.00  0.00     0.034 A 
ATOM     46  C   UNL A   1      46.004  23.997  26.853  1.00  0.00     0.034 A 
ATOM     47  C   UNL A   1      42.666  28.542  30.000  1.00  0.00     0.049 A 
ATOM     48  C   UNL A   1      46.280  25.480  26.815  1.00  0.00     0.074 A 
ATOM     49  C   UNL A   1      43.586  28.097  30.934  1.00  0.00     0.029 A 
ATOM     50  N   UNL A   1      43.382  28.849  28.847  1.00  0.00    -0.354 N 
ATOM     51  N   UNL A   1      45.507  26.382  27.357  1.00  0.00    -0.248 NA
ATOM     52  C   UNL A   1      47.484  26.039  26.217  1.00  0.00     0.031 C 
ATOM     53  C   UNL A   1      44.851  28.039  30.302  1.00  0.00     0.029 A 
ATOM     54  C   UNL A   1      44.706  28.484  29.000  1.00  0.00     0.049 A 
ATOM     55  H   UNL A   1      43.002  29.266  28.042  1.00  0.00     0.167 HD
ATOM     56  C   UNL A   1      46.146  27.596  27.307  1.00  0.00     0.074 A 
ATOM     57  C   UNL A   1      47.359  27.335  26.548  1.00  0.00     0.031 C 
ATOM     58  C   UNL A   1      45.677  28.711  27.945  1.00  0.00     0.034 A 
BRANCH  45  59
ATOM     59  C   UNL A   1      40.310  29.107  30.975  1.00  0.00     0.023 A 
ATOM     60  C   UNL A   1      39.470  30.167  30.561  1.00  0.00     0.031 A 
ATOM     61  C   UNL A   1      40.263  28.806  32.346  1.00  0.00     0.131 A 
ATOM     62  C   UNL A   1      38.742  30.943  31.478  1.00  0.00     0.055 A 
ATOM     63  C   UNL A   1      39.558  29.594  33.271  1.00  0.00     0.041 A 
ATOM     64  F   UNL A   1      40.872  27.718  32.842  1.00  0.00    -0.206 F 
ATOM     65  C   UNL A   1      38.807  30.684  32.842  1.00  0.00     0.022 A 
BRANCH  62  66
ATOM     66  S   UNL A   1      37.723  32.310  30.854  1.00  0.00     0.124 S 
ATOM     67  O   UNL A   1      37.722  32.067  29.416  1.00  0.00    -0.237 OA
ATOM     68  O   UNL A   1      36.456  32.094  31.545  1.00  0.00    -0.237 OA
ATOM     69  O   UNL A   1      38.456  33.502  31.276  1.00  0.00    -0.744 OA
ENDBRANCH  62  66
ENDBRANCH  45  59
BRANCH  46  70
ATOM     70  C   UNL A   1      45.654  23.169  25.649  1.00  0.00     0.023 A 
ATOM     71  C   UNL A   1      46.078  21.820  25.595  1.00  0.00     0.031 A 
ATOM     72  C   UNL A   1      44.728  23.583  24.680  1.00  0.00     0.131 A 
ATOM     73  C   UNL A   1      45.500  20.917  24.687  1.00  0.00     0.055 A 
ATOM     74  C   UNL A   1      44.192  22.689  23.738  1.00  0.00     0.041 A 
ATOM     75  F   UNL A   1      44.262  24.839  24.667  1.00  0.00    -0.206 F 
ATOM     76  C   UNL A   1      44.556  21.344  23.755  1.00  0.00     0.022 A 
BRANCH  73  77
ATOM     77  S   UNL A   1      45.835  19.141  24.890  1.00  0.00     0.124 S 
ATOM     78  O   UNL A   1      45.810  18.666  23.512  1.00  0.00    -0.237 OA
ATOM     79  O   UNL A   1      47.140  19.144  25.546  1.00  0.00    -0.237 OA
ATOM     80  O   UNL A   1      44.733  18.686  25.732  1.00  0.00    -0.744 OA
ENDBRANCH  73  77
ENDBRANCH  46  70
BRANCH  58  81
ATOM     81  C   UNL A   1      46.208  30.108  27.748  1.00  0.00     0.023 A 
ATOM     82  C   UNL A   1      45.481  31.101  27.083  1.00  0.00     0.031 A 
ATOM     83  C   UNL A   1      47.437  30.518  28.322  1.00  0.00     0.131 A 
ATOM     84  C   UNL A   1      46.008  32.388  26.910  1.00  0.00     0.055 A 
ATOM     85  C   UNL A   1      47.917  31.826  28.229  1.00  0.00     0.041 A 
ATOM     86  F   UNL A   1      48.221  29.672  29.006  1.00  0.00    -0.206 F 
ATOM     87  C   UNL A   1      47.210  32.770  27.500  1.00  0.00     0.022 A 
BRANCH  84  88
ATOM     88  S   UNL A   1      45.118  33.525  25.821  1.00  0.00     0.124 S 
ATOM     89  O   UNL A   1      44.231  34.207  26.762  1.00  0.00    -0.237 OA
ATOM     90  O   UNL A   1      46.196  34.339  25.266  1.00  0.00    -0.237 OA
ATOM     91  O   UNL A   1      44.452  32.641  24.868  1.00  0.00    -0.744 OA
ENDBRANCH  84  88
ENDBRANCH  58  81
ENDBRANCH  32  33
ENDBRANCH  25  27
ENDBRANCH  24  25
ENDBRANCH  23  24
ENDBRANCH   1  23
TORSDOF 19
ENDMDL
