MODEL 1
REMARK VINA RESULT:     -10.1      0.000      0.000
REMARK SMILES CCCCCCCCNC(=O)Oc1cccc(-c2ccc([C@@H](C)C(=O)OCCOC(=O)c3ccc(-c4c5nc(c(-c6cc(S(=O)(=O)[O-])ccc6F)c6ccc([nH]6)c(-c6cc(S(=O)(=O)[O-])ccc6F)c6nc(c(-c7cc(S(=O)(=O)[O-])ccc7F)c7ccc4[nH]7)C=C6)C=C5)cc3)cc2F)c1
REMARK SMILES IDX 18 1 19 2 20 3 21 4 95 5 96 6 97 7 17 8 13 9 14 10 98 11
REMARK SMILES IDX 15 12 16 13 12 14 10 15 9 16 11 18 8 19 7 20 6 21 5 22 4 23
REMARK SMILES IDX 3 24 2 25 1 26 22 27 23 28 24 29 25 30 26 31 27 32 28 33
REMARK SMILES IDX 29 34 30 35 31 36 32 37 33 38 94 39 34 40 93 41 35 42 36 43
REMARK SMILES IDX 37 44 87 45 38 46 92 47 86 48 88 49 39 50 91 51 85 52 84 53
REMARK SMILES IDX 40 55 72 56 52 57 71 58 53 59 56 60 70 61 89 62 54 63 55 64
REMARK SMILES IDX 69 66 90 67 57 68 41 69 42 70 50 71 43 72 49 73 51 74 48 75
REMARK SMILES IDX 44 76 45 77 46 78 47 79 73 80 74 81 82 82 75 83 81 84 83 85
REMARK SMILES IDX 80 86 76 87 77 88 78 89 79 90 58 91 59 92 67 93 60 94 66 95
REMARK SMILES IDX 68 96 65 97 61 98 62 99 63 100 64 101
REMARK H PARENT 9 17 88 54 56 65
REMARK Flexibility Score: inf
ROOT
ATOM      1  C   UNL A   1      38.094  21.469  25.444  1.00  0.00     0.018 A 
ATOM      2  C   UNL A   1      38.566  20.162  25.234  1.00  0.00     0.012 A 
ATOM      3  C   UNL A   1      39.823  19.758  25.697  1.00  0.00     0.005 A 
ATOM      4  C   UNL A   1      40.661  20.654  26.375  1.00  0.00    -0.031 A 
ATOM      5  C   UNL A   1      40.208  21.967  26.567  1.00  0.00     0.044 A 
ATOM      6  C   UNL A   1      38.949  22.360  26.107  1.00  0.00     0.131 A 
ATOM      7  F   UNL A   1      38.553  23.619  26.354  1.00  0.00    -0.206 F 
ENDROOT
BRANCH   1   8
ATOM      8  C   UNL A   1      36.741  21.857  25.011  1.00  0.00    -0.012 A 
ATOM      9  C   UNL A   1      34.334  21.891  25.305  1.00  0.00     0.133 A 
ATOM     10  C   UNL A   1      34.166  22.595  24.116  1.00  0.00     0.047 A 
ATOM     11  C   UNL A   1      35.601  21.508  25.752  1.00  0.00     0.056 A 
ATOM     12  C   UNL A   1      35.286  22.948  23.371  1.00  0.00     0.004 A 
ATOM     13  C   UNL A   1      36.559  22.582  23.816  1.00  0.00     0.009 A 
BRANCH   9  14
ATOM     14  O   UNL A   1      33.167  21.465  25.957  1.00  0.00    -0.410 OA
BRANCH  14  15
ATOM     15  C   UNL A   1      32.754  22.173  27.074  1.00  0.00     0.412 C 
ATOM     16  N   UNL A   1      31.580  22.848  26.872  1.00  0.00    -0.321 N 
ATOM     17  H   UNL A   1      31.221  23.352  27.638  1.00  0.00     0.167 HD
ATOM     18  O   UNL A   1      33.349  22.253  28.142  1.00  0.00    -0.224 OA
BRANCH  16  19
ATOM     19  C   UNL A   1      30.810  22.896  25.645  1.00  0.00     0.119 C 
BRANCH  19  20
ATOM     20  C   UNL A   1      30.838  24.277  24.991  1.00  0.00     0.021 C 
BRANCH  20  21
ATOM     21  C   UNL A   1      30.655  24.278  23.468  1.00  0.00     0.002 C 
BRANCH  21  22
ATOM     22  C   UNL A   1      31.764  24.974  22.670  1.00  0.00     0.000 C 
BRANCH  22  23
ATOM     23  C   UNL A   1      32.584  26.006  23.453  1.00  0.00    -0.000 C 
BRANCH  23  24
ATOM     24  C   UNL A   1      33.614  26.784  22.627  1.00  0.00    -0.000 C 
BRANCH  24  25
ATOM     25  C   UNL A   1      33.309  28.271  22.428  1.00  0.00    -0.003 C 
ATOM     26  C   UNL A   1      31.930  28.680  22.925  1.00  0.00     0.004 C 
ENDBRANCH  24  25
ENDBRANCH  23  24
ENDBRANCH  22  23
ENDBRANCH  21  22
ENDBRANCH  20  21
ENDBRANCH  19  20
ENDBRANCH  16  19
ENDBRANCH  14  15
ENDBRANCH   9  14
ENDBRANCH   1   8
BRANCH   4  27
ATOM     27  C   UNL A   1      42.022  20.232  26.908  1.00  0.00     0.126 C 
ATOM     28  C   UNL A   1      41.935  18.999  27.804  1.00  0.00     0.025 C 
BRANCH  27  29
ATOM     29  C   UNL A   1      43.120  20.039  25.867  1.00  0.00     0.313 C 
ATOM     30  O   UNL A   1      43.652  18.951  25.674  1.00  0.00    -0.252 OA
BRANCH  29  31
ATOM     31  O   UNL A   1      43.411  21.165  25.163  1.00  0.00    -0.462 OA
BRANCH  31  32
ATOM     32  C   UNL A   1      44.803  21.506  25.023  1.00  0.00     0.274 C 
BRANCH  32  33
ATOM     33  C   UNL A   1      44.962  22.982  24.660  1.00  0.00     0.275 C 
BRANCH  33  34
ATOM     34  O   UNL A   1      44.184  23.812  25.540  1.00  0.00    -0.458 OA
BRANCH  34  35
ATOM     35  C   UNL A   1      44.334  25.146  25.364  1.00  0.00     0.338 C 
ATOM     36  O   UNL A   1      44.798  25.720  24.396  1.00  0.00    -0.246 OA
BRANCH  35  37
ATOM     37  C   UNL A   1      43.735  25.840  26.511  1.00  0.00     0.060 A 
ATOM     38  C   UNL A   1      42.831  25.142  27.313  1.00  0.00     0.016 A 
ATOM     39  C   UNL A   1      44.028  27.178  26.769  1.00  0.00     0.016 A 
ATOM     40  C   UNL A   1      42.215  25.775  28.387  1.00  0.00     0.010 A 
ATOM     41  C   UNL A   1      43.426  27.809  27.862  1.00  0.00     0.010 A 
ATOM     42  C   UNL A   1      42.518  27.110  28.680  1.00  0.00    -0.014 A 
BRANCH  42  43
ATOM     43  C   UNL A   1      41.897  27.773  29.852  1.00  0.00     0.031 A 
ATOM     44  C   UNL A   1      40.641  28.576  29.683  1.00  0.00     0.074 A 
ATOM     45  C   UNL A   1      42.478  27.655  31.062  1.00  0.00     0.049 A 
ATOM     46  N   UNL A   1      40.028  29.341  30.547  1.00  0.00    -0.248 NA
ATOM     47  C   UNL A   1      39.993  28.508  28.366  1.00  0.00     0.031 C 
ATOM     48  C   UNL A   1      43.671  26.856  31.349  1.00  0.00     0.029 A 
ATOM     49  N   UNL A   1      42.154  28.215  32.271  1.00  0.00    -0.354 N 
ATOM     50  C   UNL A   1      38.929  29.866  29.876  1.00  0.00     0.074 A 
ATOM     51  C   UNL A   1      38.975  29.343  28.525  1.00  0.00     0.031 C 
ATOM     52  C   UNL A   1      43.982  26.983  32.648  1.00  0.00     0.029 A 
ATOM     53  C   UNL A   1      43.054  27.923  33.269  1.00  0.00     0.049 A 
ATOM     54  H   UNL A   1      41.353  28.771  32.411  1.00  0.00     0.167 HD
ATOM     55  C   UNL A   1      37.978  30.709  30.347  1.00  0.00     0.034 A 
ATOM     56  C   UNL A   1      43.153  28.401  34.525  1.00  0.00     0.034 A 
ATOM     57  C   UNL A   1      37.957  31.217  31.699  1.00  0.00     0.049 A 
ATOM     58  C   UNL A   1      42.142  29.414  34.995  1.00  0.00     0.074 A 
ATOM     59  C   UNL A   1      37.026  32.052  32.293  1.00  0.00     0.029 A 
ATOM     60  N   UNL A   1      38.921  30.951  32.665  1.00  0.00    -0.354 N 
ATOM     61  N   UNL A   1      41.116  29.917  34.347  1.00  0.00    -0.248 NA
ATOM     62  C   UNL A   1      42.310  29.934  36.357  1.00  0.00     0.031 C 
ATOM     63  C   UNL A   1      37.463  32.344  33.591  1.00  0.00     0.029 A 
ATOM     64  C   UNL A   1      38.631  31.639  33.833  1.00  0.00     0.049 A 
ATOM     65  H   UNL A   1      39.697  30.360  32.537  1.00  0.00     0.167 HD
ATOM     66  C   UNL A   1      40.510  30.807  35.229  1.00  0.00     0.074 A 
ATOM     67  C   UNL A   1      41.273  30.753  36.460  1.00  0.00     0.031 C 
ATOM     68  C   UNL A   1      39.422  31.596  35.040  1.00  0.00     0.034 A 
BRANCH  55  69
ATOM     69  C   UNL A   1      36.925  31.183  29.376  1.00  0.00     0.023 A 
ATOM     70  C   UNL A   1      35.905  30.335  28.909  1.00  0.00     0.031 A 
ATOM     71  C   UNL A   1      36.958  32.503  28.892  1.00  0.00     0.131 A 
ATOM     72  C   UNL A   1      34.997  30.800  27.943  1.00  0.00     0.055 A 
ATOM     73  C   UNL A   1      36.011  32.980  27.984  1.00  0.00     0.041 A 
ATOM     74  F   UNL A   1      37.921  33.351  29.287  1.00  0.00    -0.206 F 
ATOM     75  C   UNL A   1      35.031  32.122  27.494  1.00  0.00     0.022 A 
BRANCH  72  76
ATOM     76  S   UNL A   1      33.848  29.618  27.187  1.00  0.00     0.124 S 
ATOM     77  O   UNL A   1      33.964  28.473  28.087  1.00  0.00    -0.237 OA
ATOM     78  O   UNL A   1      32.581  30.339  27.230  1.00  0.00    -0.237 OA
ATOM     79  O   UNL A   1      34.400  29.407  25.850  1.00  0.00    -0.744 OA
ENDBRANCH  72  76
ENDBRANCH  55  69
BRANCH  56  80
ATOM     80  C   UNL A   1      44.292  27.995  35.398  1.00  0.00     0.023 A 
ATOM     81  C   UNL A   1      44.106  27.113  36.473  1.00  0.00     0.031 A 
ATOM     82  C   UNL A   1      45.580  28.520  35.189  1.00  0.00     0.131 A 
ATOM     83  C   UNL A   1      45.184  26.808  37.320  1.00  0.00     0.055 A 
ATOM     84  C   UNL A   1      46.660  28.173  36.002  1.00  0.00     0.041 A 
ATOM     85  F   UNL A   1      45.811  29.371  34.176  1.00  0.00    -0.206 F 
ATOM     86  C   UNL A   1      46.462  27.321  37.083  1.00  0.00     0.022 A 
BRANCH  83  87
ATOM     87  S   UNL A   1      44.875  25.789  38.788  1.00  0.00     0.124 S 
ATOM     88  O   UNL A   1      43.509  26.167  39.132  1.00  0.00    -0.237 OA
ATOM     89  O   UNL A   1      45.054  24.440  38.264  1.00  0.00    -0.237 OA
ATOM     90  O   UNL A   1      45.901  26.231  39.731  1.00  0.00    -0.744 OA
ENDBRANCH  83  87
ENDBRANCH  56  80
BRANCH  68  91
ATOM     91  C   UNL A   1      38.996  32.449  36.208  1.00  0.00     0.023 A 
ATOM     92  C   UNL A   1      38.177  31.938  37.229  1.00  0.00     0.031 A 
ATOM     93  C   UNL A   1      39.399  33.793  36.289  1.00  0.00     0.131 A 
ATOM     94  C   UNL A   1      37.745  32.781  38.264  1.00  0.00     0.055 A 
ATOM     95  C   UNL A   1      39.009  34.612  37.350  1.00  0.00     0.041 A 
ATOM     96  F   UNL A   1      40.178  34.332  35.337  1.00  0.00    -0.206 F 
ATOM     97  C   UNL A   1      38.168  34.110  38.339  1.00  0.00     0.022 A 
BRANCH  94  98
ATOM     98  S   UNL A   1      36.556  32.137  39.474  1.00  0.00     0.124 S 
ATOM     99  O   UNL A   1      37.205  32.461  40.740  1.00  0.00    -0.237 OA
ATOM    100  O   UNL A   1      35.349  32.898  39.163  1.00  0.00    -0.237 OA
ATOM    101  O   UNL A   1      36.485  30.711  39.159  1.00  0.00    -0.744 OA
ENDBRANCH  94  98
ENDBRANCH  68  91
ENDBRANCH  42  43
ENDBRANCH  35  37
ENDBRANCH  34  35
ENDBRANCH  33  34
ENDBRANCH  32  33
ENDBRANCH  31  32
ENDBRANCH  29  31
ENDBRANCH  27  29
ENDBRANCH   4  27
TORSDOF 25
ENDMDL
MODEL 2
REMARK VINA RESULT:      -9.9      5.028     11.847
REMARK SMILES CCCCCCCCNC(=O)Oc1cccc(-c2ccc([C@@H](C)C(=O)OCCOC(=O)c3ccc(-c4c5nc(c(-c6cc(S(=O)(=O)[O-])ccc6F)c6ccc([nH]6)c(-c6cc(S(=O)(=O)[O-])ccc6F)c6nc(c(-c7cc(S(=O)(=O)[O-])ccc7F)c7ccc4[nH]7)C=C6)C=C5)cc3)cc2F)c1
REMARK SMILES IDX 18 1 19 2 20 3 21 4 95 5 96 6 97 7 17 8 13 9 14 10 98 11
REMARK SMILES IDX 15 12 16 13 12 14 10 15 9 16 11 18 8 19 7 20 6 21 5 22 4 23
REMARK SMILES IDX 3 24 2 25 1 26 22 27 23 28 24 29 25 30 26 31 27 32 28 33
REMARK SMILES IDX 29 34 30 35 31 36 32 37 33 38 94 39 34 40 93 41 35 42 36 43
REMARK SMILES IDX 37 44 87 45 38 46 92 47 86 48 88 49 39 50 91 51 85 52 84 53
REMARK SMILES IDX 40 55 72 56 52 57 71 58 53 59 56 60 70 61 89 62 54 63 55 64
REMARK SMILES IDX 69 66 90 67 57 68 41 69 42 70 50 71 43 72 49 73 51 74 48 75
REMARK SMILES IDX 44 76 45 77 46 78 47 79 73 80 74 81 82 82 75 83 81 84 83 85
REMARK SMILES IDX 80 86 76 87 77 88 78 89 79 90 58 91 59 92 67 93 60 94 66 95
REMARK SMILES IDX 68 96 65 97 61 98 62 99 63 100 64 101
REMARK H PARENT 9 17 88 54 56 65
REMARK Flexibility Score: inf
ROOT
ATOM      1  C   UNL A   1      33.390  30.521  27.384  1.00  0.00     0.018 A 
ATOM      2  C   UNL A   1      32.487  31.557  27.094  1.00  0.00     0.012 A 
ATOM      3  C   UNL A   1      32.726  32.871  27.513  1.00  0.00     0.005 A 
ATOM      4  C   UNL A   1      33.871  33.192  28.254  1.00  0.00    -0.031 A 
ATOM      5  C   UNL A   1      34.765  32.159  28.569  1.00  0.00     0.044 A 
ATOM      6  C   UNL A   1      34.522  30.852  28.141  1.00  0.00     0.131 A 
ATOM      7  F   UNL A   1      35.433  29.912  28.440  1.00  0.00    -0.206 F 
ENDROOT
BRANCH   1   8
ATOM      8  C   UNL A   1      33.159  29.159  26.876  1.00  0.00    -0.012 A 
ATOM      9  C   UNL A   1      31.746  27.215  26.547  1.00  0.00     0.133 A 
ATOM     10  C   UNL A   1      32.780  26.530  25.915  1.00  0.00     0.047 A 
ATOM     11  C   UNL A   1      31.924  28.511  27.038  1.00  0.00     0.056 A 
ATOM     12  C   UNL A   1      34.009  27.159  25.747  1.00  0.00     0.004 A 
ATOM     13  C   UNL A   1      34.194  28.459  26.224  1.00  0.00     0.009 A 
BRANCH   9  14
ATOM     14  O   UNL A   1      30.566  26.496  26.788  1.00  0.00    -0.410 OA
BRANCH  14  15
ATOM     15  C   UNL A   1      30.508  25.182  26.351  1.00  0.00     0.412 C 
ATOM     16  N   UNL A   1      30.065  25.070  25.060  1.00  0.00    -0.321 N 
ATOM     17  H   UNL A   1      30.024  24.161  24.684  1.00  0.00     0.167 HD
ATOM     18  O   UNL A   1      30.777  24.186  27.012  1.00  0.00    -0.224 OA
BRANCH  16  19
ATOM     19  C   UNL A   1      29.650  26.153  24.191  1.00  0.00     0.119 C 
BRANCH  19  20
ATOM     20  C   UNL A   1      30.614  26.368  23.024  1.00  0.00     0.021 C 
BRANCH  20  21
ATOM     21  C   UNL A   1      30.519  27.742  22.349  1.00  0.00     0.002 C 
BRANCH  21  22
ATOM     22  C   UNL A   1      31.136  28.907  23.132  1.00  0.00     0.000 C 
BRANCH  22  23
ATOM     23  C   UNL A   1      30.158  29.693  24.012  1.00  0.00    -0.000 C 
BRANCH  23  24
ATOM     24  C   UNL A   1      28.939  30.268  23.281  1.00  0.00    -0.000 C 
BRANCH  24  25
ATOM     25  C   UNL A   1      29.255  31.185  22.097  1.00  0.00    -0.003 C 
ATOM     26  C   UNL A   1      28.028  31.568  21.282  1.00  0.00     0.004 C 
ENDBRANCH  24  25
ENDBRANCH  23  24
ENDBRANCH  22  23
ENDBRANCH  21  22
ENDBRANCH  20  21
ENDBRANCH  19  20
ENDBRANCH  16  19
ENDBRANCH  14  15
ENDBRANCH   9  14
ENDBRANCH   1   8
BRANCH   4  27
ATOM     27  C   UNL A   1      34.164  34.616  28.701  1.00  0.00     0.126 C 
ATOM     28  C   UNL A   1      34.509  35.531  27.529  1.00  0.00     0.025 C 
BRANCH  27  29
ATOM     29  C   UNL A   1      33.105  35.275  29.579  1.00  0.00     0.313 C 
ATOM     30  O   UNL A   1      32.182  35.931  29.106  1.00  0.00    -0.252 OA
BRANCH  29  31
ATOM     31  O   UNL A   1      33.265  35.030  30.906  1.00  0.00    -0.462 OA
BRANCH  31  32
ATOM     32  C   UNL A   1      34.610  35.067  31.419  1.00  0.00     0.274 C 
BRANCH  32  33
ATOM     33  C   UNL A   1      34.935  33.775  32.169  1.00  0.00     0.275 C 
BRANCH  33  34
ATOM     34  O   UNL A   1      36.319  33.744  32.560  1.00  0.00    -0.458 OA
BRANCH  34  35
ATOM     35  C   UNL A   1      36.702  32.645  33.252  1.00  0.00     0.338 C 
ATOM     36  O   UNL A   1      36.158  32.149  34.221  1.00  0.00    -0.246 OA
BRANCH  35  37
ATOM     37  C   UNL A   1      37.859  32.046  32.574  1.00  0.00     0.060 A 
ATOM     38  C   UNL A   1      37.995  32.233  31.198  1.00  0.00     0.016 A 
ATOM     39  C   UNL A   1      38.780  31.273  33.281  1.00  0.00     0.016 A 
ATOM     40  C   UNL A   1      39.057  31.651  30.514  1.00  0.00     0.010 A 
ATOM     41  C   UNL A   1      39.860  30.707  32.598  1.00  0.00     0.010 A 
ATOM     42  C   UNL A   1      40.008  30.895  31.211  1.00  0.00    -0.014 A 
BRANCH  42  43
ATOM     43  C   UNL A   1      41.166  30.313  30.491  1.00  0.00     0.031 A 
ATOM     44  C   UNL A   1      42.433  31.102  30.344  1.00  0.00     0.074 A 
ATOM     45  C   UNL A   1      41.062  29.078  29.963  1.00  0.00     0.049 A 
ATOM     46  N   UNL A   1      43.498  30.831  29.636  1.00  0.00    -0.248 NA
ATOM     47  C   UNL A   1      42.509  32.365  31.093  1.00  0.00     0.031 C 
ATOM     48  C   UNL A   1      39.895  28.203  30.091  1.00  0.00     0.029 A 
ATOM     49  N   UNL A   1      41.943  28.350  29.204  1.00  0.00    -0.354 N 
ATOM     50  C   UNL A   1      44.367  31.898  29.834  1.00  0.00     0.074 A 
ATOM     51  C   UNL A   1      43.693  32.828  30.717  1.00  0.00     0.031 C 
ATOM     52  C   UNL A   1      40.130  27.060  29.428  1.00  0.00     0.029 A 
ATOM     53  C   UNL A   1      41.430  27.149  28.773  1.00  0.00     0.049 A 
ATOM     54  H   UNL A   1      42.853  28.658  28.989  1.00  0.00     0.167 HD
ATOM     55  C   UNL A   1      45.609  32.079  29.321  1.00  0.00     0.034 A 
ATOM     56  C   UNL A   1      41.929  26.247  27.904  1.00  0.00     0.034 A 
ATOM     57  C   UNL A   1      46.257  31.135  28.441  1.00  0.00     0.049 A 
ATOM     58  C   UNL A   1      43.267  26.518  27.268  1.00  0.00     0.074 A 
ATOM     59  C   UNL A   1      47.524  31.202  27.886  1.00  0.00     0.029 A 
ATOM     60  N   UNL A   1      45.683  29.958  27.974  1.00  0.00    -0.354 N 
ATOM     61  N   UNL A   1      44.075  27.538  27.450  1.00  0.00    -0.248 NA
ATOM     62  C   UNL A   1      43.755  25.527  26.302  1.00  0.00     0.031 C 
ATOM     63  C   UNL A   1      47.688  30.104  27.032  1.00  0.00     0.029 A 
ATOM     64  C   UNL A   1      46.551  29.314  27.105  1.00  0.00     0.049 A 
ATOM     65  H   UNL A   1      44.790  29.630  28.224  1.00  0.00     0.167 HD
ATOM     66  C   UNL A   1      45.171  27.305  26.626  1.00  0.00     0.074 A 
ATOM     67  C   UNL A   1      44.930  26.037  25.965  1.00  0.00     0.031 C 
ATOM     68  C   UNL A   1      46.278  28.066  26.432  1.00  0.00     0.034 A 
BRANCH  55  69
ATOM     69  C   UNL A   1      46.314  33.373  29.646  1.00  0.00     0.023 A 
ATOM     70  C   UNL A   1      46.209  34.508  28.823  1.00  0.00     0.031 A 
ATOM     71  C   UNL A   1      47.123  33.462  30.794  1.00  0.00     0.131 A 
ATOM     72  C   UNL A   1      46.950  35.662  29.127  1.00  0.00     0.055 A 
ATOM     73  C   UNL A   1      47.802  34.635  31.127  1.00  0.00     0.041 A 
ATOM     74  F   UNL A   1      47.277  32.405  31.605  1.00  0.00    -0.206 F 
ATOM     75  C   UNL A   1      47.728  35.740  30.284  1.00  0.00     0.022 A 
BRANCH  72  76
ATOM     76  S   UNL A   1      46.981  37.019  27.924  1.00  0.00     0.124 S 
ATOM     77  O   UNL A   1      48.052  36.594  27.024  1.00  0.00    -0.237 OA
ATOM     78  O   UNL A   1      45.631  36.983  27.373  1.00  0.00    -0.237 OA
ATOM     79  O   UNL A   1      47.292  38.193  28.737  1.00  0.00    -0.744 OA
ENDBRANCH  72  76
ENDBRANCH  55  69
BRANCH  56  80
ATOM     80  C   UNL A   1      41.129  25.049  27.520  1.00  0.00     0.023 A 
ATOM     81  C   UNL A   1      41.651  23.753  27.649  1.00  0.00     0.031 A 
ATOM     82  C   UNL A   1      39.838  25.190  26.979  1.00  0.00     0.131 A 
ATOM     83  C   UNL A   1      40.899  22.651  27.210  1.00  0.00     0.055 A 
ATOM     84  C   UNL A   1      39.074  24.088  26.593  1.00  0.00     0.041 A 
ATOM     85  F   UNL A   1      39.293  26.408  26.831  1.00  0.00    -0.206 F 
ATOM     86  C   UNL A   1      39.610  22.809  26.697  1.00  0.00     0.022 A 
BRANCH  83  87
ATOM     87  S   UNL A   1      41.664  21.006  27.248  1.00  0.00     0.124 S 
ATOM     88  O   UNL A   1      42.779  21.216  28.165  1.00  0.00    -0.237 OA
ATOM     89  O   UNL A   1      40.572  20.176  27.745  1.00  0.00    -0.237 OA
ATOM     90  O   UNL A   1      42.037  20.773  25.854  1.00  0.00    -0.744 OA
ENDBRANCH  83  87
ENDBRANCH  56  80
BRANCH  68  91
ATOM     91  C   UNL A   1      47.310  27.527  25.474  1.00  0.00     0.023 A 
ATOM     92  C   UNL A   1      47.379  27.974  24.143  1.00  0.00     0.031 A 
ATOM     93  C   UNL A   1      48.221  26.542  25.893  1.00  0.00     0.131 A 
ATOM     94  C   UNL A   1      48.308  27.399  23.262  1.00  0.00     0.055 A 
ATOM     95  C   UNL A   1      49.178  26.012  25.026  1.00  0.00     0.041 A 
ATOM     96  F   UNL A   1      48.194  26.077  27.153  1.00  0.00    -0.206 F 
ATOM     97  C   UNL A   1      49.217  26.432  23.700  1.00  0.00     0.022 A 
BRANCH  94  98
ATOM     98  S   UNL A   1      48.261  27.876  21.513  1.00  0.00     0.124 S 
ATOM     99  O   UNL A   1      49.259  28.939  21.461  1.00  0.00    -0.237 OA
ATOM    100  O   UNL A   1      48.619  26.632  20.838  1.00  0.00    -0.237 OA
ATOM    101  O   UNL A   1      46.880  28.312  21.313  1.00  0.00    -0.744 OA
ENDBRANCH  94  98
ENDBRANCH  68  91
ENDBRANCH  42  43
ENDBRANCH  35  37
ENDBRANCH  34  35
ENDBRANCH  33  34
ENDBRANCH  32  33
ENDBRANCH  31  32
ENDBRANCH  29  31
ENDBRANCH  27  29
ENDBRANCH   4  27
TORSDOF 25
ENDMDL
MODEL 3
REMARK VINA RESULT:      -9.8      6.658     11.739
REMARK SMILES CCCCCCCCNC(=O)Oc1cccc(-c2ccc([C@@H](C)C(=O)OCCOC(=O)c3ccc(-c4c5nc(c(-c6cc(S(=O)(=O)[O-])ccc6F)c6ccc([nH]6)c(-c6cc(S(=O)(=O)[O-])ccc6F)c6nc(c(-c7cc(S(=O)(=O)[O-])ccc7F)c7ccc4[nH]7)C=C6)C=C5)cc3)cc2F)c1
REMARK SMILES IDX 18 1 19 2 20 3 21 4 95 5 96 6 97 7 17 8 13 9 14 10 98 11
REMARK SMILES IDX 15 12 16 13 12 14 10 15 9 16 11 18 8 19 7 20 6 21 5 22 4 23
REMARK SMILES IDX 3 24 2 25 1 26 22 27 23 28 24 29 25 30 26 31 27 32 28 33
REMARK SMILES IDX 29 34 30 35 31 36 32 37 33 38 94 39 34 40 93 41 35 42 36 43
REMARK SMILES IDX 37 44 87 45 38 46 92 47 86 48 88 49 39 50 91 51 85 52 84 53
REMARK SMILES IDX 40 55 72 56 52 57 71 58 53 59 56 60 70 61 89 62 54 63 55 64
REMARK SMILES IDX 69 66 90 67 57 68 41 69 42 70 50 71 43 72 49 73 51 74 48 75
REMARK SMILES IDX 44 76 45 77 46 78 47 79 73 80 74 81 82 82 75 83 81 84 83 85
REMARK SMILES IDX 80 86 76 87 77 88 78 89 79 90 58 91 59 92 67 93 60 94 66 95
REMARK SMILES IDX 68 96 65 97 61 98 62 99 63 100 64 101
REMARK H PARENT 9 17 88 54 56 65
REMARK Flexibility Score: inf
ROOT
ATOM      1  C   UNL A   1      33.837  29.813  27.135  1.00  0.00     0.018 A 
ATOM      2  C   UNL A   1      32.950  30.898  27.243  1.00  0.00     0.012 A 
ATOM      3  C   UNL A   1      33.320  32.078  27.898  1.00  0.00     0.005 A 
ATOM      4  C   UNL A   1      34.586  32.208  28.484  1.00  0.00    -0.031 A 
ATOM      5  C   UNL A   1      35.467  31.120  28.402  1.00  0.00     0.044 A 
ATOM      6  C   UNL A   1      35.092  29.949  27.741  1.00  0.00     0.131 A 
ATOM      7  F   UNL A   1      35.992  28.956  27.662  1.00  0.00    -0.206 F 
ENDROOT
BRANCH   1   8
ATOM      8  C   UNL A   1      33.457  28.605  26.383  1.00  0.00    -0.012 A 
ATOM      9  C   UNL A   1      32.175  26.562  26.132  1.00  0.00     0.133 A 
ATOM     10  C   UNL A   1      32.793  26.285  24.916  1.00  0.00     0.047 A 
ATOM     11  C   UNL A   1      32.504  27.699  26.874  1.00  0.00     0.056 A 
ATOM     12  C   UNL A   1      33.739  27.174  24.416  1.00  0.00     0.004 A 
ATOM     13  C   UNL A   1      34.066  28.320  25.144  1.00  0.00     0.009 A 
BRANCH   9  14
ATOM     14  O   UNL A   1      31.314  25.579  26.640  1.00  0.00    -0.410 OA
BRANCH  14  15
ATOM     15  C   UNL A   1      30.269  25.154  25.835  1.00  0.00     0.412 C 
ATOM     16  N   UNL A   1      30.127  23.792  25.824  1.00  0.00    -0.321 N 
ATOM     17  H   UNL A   1      29.385  23.428  25.288  1.00  0.00     0.167 HD
ATOM     18  O   UNL A   1      29.540  25.867  25.157  1.00  0.00    -0.224 OA
BRANCH  16  19
ATOM     19  C   UNL A   1      30.957  22.829  26.521  1.00  0.00     0.119 C 
BRANCH  19  20
ATOM     20  C   UNL A   1      32.103  22.309  25.654  1.00  0.00     0.021 C 
BRANCH  20  21
ATOM     21  C   UNL A   1      33.034  21.305  26.343  1.00  0.00     0.002 C 
BRANCH  21  22
ATOM     22  C   UNL A   1      34.492  21.753  26.499  1.00  0.00     0.000 C 
BRANCH  22  23
ATOM     23  C   UNL A   1      34.711  23.270  26.504  1.00  0.00    -0.000 C 
BRANCH  23  24
ATOM     24  C   UNL A   1      35.464  23.825  25.290  1.00  0.00    -0.000 C 
BRANCH  24  25
ATOM     25  C   UNL A   1      36.988  23.693  25.344  1.00  0.00    -0.003 C 
ATOM     26  C   UNL A   1      37.496  22.331  24.891  1.00  0.00     0.004 C 
ENDBRANCH  24  25
ENDBRANCH  23  24
ENDBRANCH  22  23
ENDBRANCH  21  22
ENDBRANCH  20  21
ENDBRANCH  19  20
ENDBRANCH  16  19
ENDBRANCH  14  15
ENDBRANCH   9  14
ENDBRANCH   1   8
BRANCH   4  27
ATOM     27  C   UNL A   1      35.020  33.489  29.182  1.00  0.00     0.126 C 
ATOM     28  C   UNL A   1      34.867  34.716  28.285  1.00  0.00     0.025 C 
BRANCH  27  29
ATOM     29  C   UNL A   1      34.386  33.759  30.542  1.00  0.00     0.313 C 
ATOM     30  O   UNL A   1      33.650  34.721  30.739  1.00  0.00    -0.252 OA
BRANCH  29  31
ATOM     31  O   UNL A   1      34.682  32.822  31.480  1.00  0.00    -0.462 OA
BRANCH  31  32
ATOM     32  C   UNL A   1      36.014  32.844  32.028  1.00  0.00     0.274 C 
BRANCH  32  33
ATOM     33  C   UNL A   1      36.225  31.667  32.980  1.00  0.00     0.275 C 
BRANCH  33  34
ATOM     34  O   UNL A   1      36.321  30.430  32.251  1.00  0.00    -0.458 OA
BRANCH  34  35
ATOM     35  C   UNL A   1      37.389  29.657  32.558  1.00  0.00     0.338 C 
ATOM     36  O   UNL A   1      37.408  28.656  33.249  1.00  0.00    -0.246 OA
BRANCH  35  37
ATOM     37  C   UNL A   1      38.557  30.158  31.821  1.00  0.00     0.060 A 
ATOM     38  C   UNL A   1      39.693  30.524  32.544  1.00  0.00     0.016 A 
ATOM     39  C   UNL A   1      38.517  30.307  30.435  1.00  0.00     0.016 A 
ATOM     40  C   UNL A   1      40.806  31.037  31.886  1.00  0.00     0.010 A 
ATOM     41  C   UNL A   1      39.643  30.802  29.771  1.00  0.00     0.010 A 
ATOM     42  C   UNL A   1      40.796  31.166  30.492  1.00  0.00    -0.014 A 
BRANCH  42  43
ATOM     43  C   UNL A   1      41.998  31.670  29.785  1.00  0.00     0.031 A 
ATOM     44  C   UNL A   1      43.082  30.718  29.374  1.00  0.00     0.074 A 
ATOM     45  C   UNL A   1      42.109  32.988  29.528  1.00  0.00     0.049 A 
ATOM     46  N   UNL A   1      44.263  30.976  28.878  1.00  0.00    -0.248 NA
ATOM     47  C   UNL A   1      42.796  29.287  29.546  1.00  0.00     0.031 C 
ATOM     48  C   UNL A   1      41.092  33.995  29.837  1.00  0.00     0.029 A 
ATOM     49  N   UNL A   1      43.130  33.709  28.962  1.00  0.00    -0.354 N 
ATOM     50  C   UNL A   1      44.877  29.741  28.696  1.00  0.00     0.074 A 
ATOM     51  C   UNL A   1      43.937  28.737  29.153  1.00  0.00     0.031 C 
ATOM     52  C   UNL A   1      41.543  35.203  29.464  1.00  0.00     0.029 A 
ATOM     53  C   UNL A   1      42.903  35.065  28.954  1.00  0.00     0.049 A 
ATOM     54  H   UNL A   1      43.945  33.295  28.597  1.00  0.00     0.167 HD
ATOM     55  C   UNL A   1      46.109  29.478  28.197  1.00  0.00     0.034 A 
ATOM     56  C   UNL A   1      43.718  36.086  28.624  1.00  0.00     0.034 A 
ATOM     57  C   UNL A   1      47.027  30.500  27.749  1.00  0.00     0.049 A 
ATOM     58  C   UNL A   1      45.119  35.774  28.168  1.00  0.00     0.074 A 
ATOM     59  C   UNL A   1      48.288  30.347  27.198  1.00  0.00     0.029 A 
ATOM     60  N   UNL A   1      46.788  31.868  27.815  1.00  0.00    -0.354 N 
ATOM     61  N   UNL A   1      45.695  34.603  28.014  1.00  0.00    -0.248 NA
ATOM     62  C   UNL A   1      45.984  36.918  27.854  1.00  0.00     0.031 C 
ATOM     63  C   UNL A   1      48.837  31.619  26.996  1.00  0.00     0.029 A 
ATOM     64  C   UNL A   1      47.894  32.569  27.356  1.00  0.00     0.049 A 
ATOM     65  H   UNL A   1      45.955  32.279  28.139  1.00  0.00     0.167 HD
ATOM     66  C   UNL A   1      46.988  34.872  27.576  1.00  0.00     0.074 A 
ATOM     67  C   UNL A   1      47.098  36.313  27.469  1.00  0.00     0.031 C 
ATOM     68  C   UNL A   1      47.994  34.008  27.287  1.00  0.00     0.034 A 
BRANCH  55  69
ATOM     69  C   UNL A   1      46.557  28.038  28.173  1.00  0.00     0.023 A 
ATOM     70  C   UNL A   1      46.292  27.192  27.082  1.00  0.00     0.031 A 
ATOM     71  C   UNL A   1      47.243  27.497  29.276  1.00  0.00     0.131 A 
ATOM     72  C   UNL A   1      46.658  25.837  27.143  1.00  0.00     0.055 A 
ATOM     73  C   UNL A   1      47.665  26.167  29.302  1.00  0.00     0.041 A 
ATOM     74  F   UNL A   1      47.505  28.251  30.355  1.00  0.00    -0.206 F 
ATOM     75  C   UNL A   1      47.362  25.325  28.236  1.00  0.00     0.022 A 
BRANCH  72  76
ATOM     76  S   UNL A   1      46.094  24.721  25.829  1.00  0.00     0.124 S 
ATOM     77  O   UNL A   1      46.571  25.409  24.631  1.00  0.00    -0.237 OA
ATOM     78  O   UNL A   1      46.771  23.473  26.162  1.00  0.00    -0.237 OA
ATOM     79  O   UNL A   1      44.642  24.705  25.991  1.00  0.00    -0.744 OA
ENDBRANCH  72  76
ENDBRANCH  55  69
BRANCH  56  80
ATOM     80  C   UNL A   1      43.265  37.497  28.792  1.00  0.00     0.023 A 
ATOM     81  C   UNL A   1      43.692  38.274  29.879  1.00  0.00     0.031 A 
ATOM     82  C   UNL A   1      42.361  38.074  27.881  1.00  0.00     0.131 A 
ATOM     83  C   UNL A   1      43.188  39.574  30.047  1.00  0.00     0.055 A 
ATOM     84  C   UNL A   1      41.904  39.385  28.024  1.00  0.00     0.041 A 
ATOM     85  F   UNL A   1      41.918  37.372  26.826  1.00  0.00    -0.206 F 
ATOM     86  C   UNL A   1      42.310  40.139  29.120  1.00  0.00     0.022 A 
BRANCH  83  87
ATOM     87  S   UNL A   1      43.640  40.494  31.544  1.00  0.00     0.124 S 
ATOM     88  O   UNL A   1      45.004  40.034  31.777  1.00  0.00    -0.237 OA
ATOM     89  O   UNL A   1      43.496  41.878  31.104  1.00  0.00    -0.237 OA
ATOM     90  O   UNL A   1      42.654  40.050  32.527  1.00  0.00    -0.744 OA
ENDBRANCH  83  87
ENDBRANCH  56  80
BRANCH  68  91
ATOM     91  C   UNL A   1      49.291  34.614  26.814  1.00  0.00     0.023 A 
ATOM     92  C   UNL A   1      50.394  34.750  27.675  1.00  0.00     0.031 A 
ATOM     93  C   UNL A   1      49.417  35.079  25.494  1.00  0.00     0.131 A 
ATOM     94  C   UNL A   1      51.561  35.382  27.219  1.00  0.00     0.055 A 
ATOM     95  C   UNL A   1      50.600  35.658  25.031  1.00  0.00     0.041 A 
ATOM     96  F   UNL A   1      48.392  34.977  24.632  1.00  0.00    -0.206 F 
ATOM     97  C   UNL A   1      51.676  35.823  25.898  1.00  0.00     0.022 A 
BRANCH  94  98
ATOM     98  S   UNL A   1      52.903  35.692  28.400  1.00  0.00     0.124 S 
ATOM     99  O   UNL A   1      53.501  36.911  27.867  1.00  0.00    -0.237 OA
ATOM    100  O   UNL A   1      52.184  35.833  29.662  1.00  0.00    -0.237 OA
ATOM    101  O   UNL A   1      53.736  34.494  28.294  1.00  0.00    -0.744 OA
ENDBRANCH  94  98
ENDBRANCH  68  91
ENDBRANCH  42  43
ENDBRANCH  35  37
ENDBRANCH  34  35
ENDBRANCH  33  34
ENDBRANCH  32  33
ENDBRANCH  31  32
ENDBRANCH  29  31
ENDBRANCH  27  29
ENDBRANCH   4  27
TORSDOF 25
ENDMDL
