MODEL 1
REMARK VINA RESULT:     -10.8      0.000      0.000
REMARK SMILES Cc1cc(CS(=O)(=O)NC[C@@H]2CC[C@H](C(=O)OCCOC(=O)c3ccc(-c4c5nc(c(-c6cc(S(=O)(=O)[O-])ccc6F)c6ccc([nH]6)c(-c6cc(S(=O)(=O)[O-])ccc6F)c6nc(c(-c7cc(S(=O)(=O)[O-])ccc7F)c7ccc4[nH]7)C=C6)C=C5)cc3)O2)no1
REMARK SMILES IDX 18 1 17 2 15 3 16 4 14 5 11 6 12 7 86 8 13 9 10 10 9 11 6 13
REMARK SMILES IDX 7 14 8 15 5 16 4 17 1 18 2 19 3 20 88 21 87 22 19 23 20 24
REMARK SMILES IDX 21 25 22 26 23 27 24 28 85 29 25 30 84 31 26 32 27 33 28 34
REMARK SMILES IDX 78 35 29 36 83 37 77 38 79 39 30 40 82 41 76 42 75 43 31 45
REMARK SMILES IDX 63 46 43 47 62 48 44 49 47 50 61 51 80 52 45 53 46 54 60 56
REMARK SMILES IDX 81 57 48 58 32 59 33 60 41 61 34 62 40 63 42 64 39 65 35 66
REMARK SMILES IDX 36 67 37 68 38 69 64 70 65 71 73 72 66 73 72 74 74 75 71 76
REMARK SMILES IDX 67 77 68 78 69 79 70 80 49 81 50 82 58 83 51 84 57 85 59 86
REMARK SMILES IDX 56 87 52 88 53 89 54 90 55 91
REMARK H PARENT 9 12 79 44 47 55
REMARK Flexibility Score: inf
ROOT
ATOM      1  C   UNL A   1      36.271  20.117  24.938  1.00  0.00     0.274 C 
ENDROOT
BRANCH   1   2
ATOM      2  O   UNL A   1      35.925  21.287  25.704  1.00  0.00    -0.460 OA
BRANCH   2   3
ATOM      3  C   UNL A   1      35.067  22.165  25.107  1.00  0.00     0.335 C 
ATOM      4  O   UNL A   1      35.254  23.375  25.039  1.00  0.00    -0.249 OA
BRANCH   3   5
ATOM      5  C   UNL A   1      33.817  21.469  24.541  1.00  0.00     0.228 C 
ATOM      6  C   UNL A   1      31.788  22.349  23.766  1.00  0.00     0.134 C 
ATOM      7  C   UNL A   1      31.737  22.299  25.282  1.00  0.00     0.037 C 
ATOM      8  O   UNL A   1      33.204  22.213  23.476  1.00  0.00    -0.362 OA
ATOM      9  C   UNL A   1      32.732  21.209  25.578  1.00  0.00     0.047 C 
BRANCH   6  10
ATOM     10  C   UNL A   1      31.307  23.655  23.134  1.00  0.00     0.130 C 
BRANCH  10  11
ATOM     11  N   UNL A   1      32.113  24.871  23.359  1.00  0.00    -0.212 NA
ATOM     12  H   UNL A   1      33.046  24.537  23.600  1.00  0.00     0.141 HD
BRANCH  11  13
ATOM     13  S   UNL A   1      31.770  26.066  24.473  1.00  0.00     0.217 S 
ATOM     14  O   UNL A   1      32.592  25.862  25.639  1.00  0.00    -0.212 OA
ATOM     15  O   UNL A   1      30.326  25.993  24.604  1.00  0.00    -0.212 OA
BRANCH  13  16
ATOM     16  C   UNL A   1      32.123  27.646  23.686  1.00  0.00     0.213 C 
BRANCH  16  17
ATOM     17  C   UNL A   1      30.949  28.444  23.274  1.00  0.00     0.100 A 
ATOM     18  C   UNL A   1      28.305  30.987  23.187  1.00  0.00     0.091 C 
ATOM     19  C   UNL A   1      29.349  29.951  23.098  1.00  0.00     0.133 A 
ATOM     20  C   UNL A   1      30.474  29.659  23.828  1.00  0.00     0.073 A 
ATOM     21  O   UNL A   1      29.206  29.026  22.113  1.00  0.00    -0.361 OA
ATOM     22  N   UNL A   1      30.224  28.095  22.204  1.00  0.00    -0.084 NA
ENDBRANCH  16  17
ENDBRANCH  13  16
ENDBRANCH  11  13
ENDBRANCH  10  11
ENDBRANCH   6  10
ENDBRANCH   3   5
ENDBRANCH   2   3
ENDBRANCH   1   2
BRANCH   1  23
ATOM     23  C   UNL A   1      37.779  19.863  24.984  1.00  0.00     0.275 C 
BRANCH  23  24
ATOM     24  O   UNL A   1      38.487  21.054  25.377  1.00  0.00    -0.458 OA
BRANCH  24  25
ATOM     25  C   UNL A   1      39.529  20.856  26.220  1.00  0.00     0.338 C 
ATOM     26  O   UNL A   1      40.083  19.800  26.474  1.00  0.00    -0.246 OA
BRANCH  25  27
ATOM     27  C   UNL A   1      40.018  22.155  26.706  1.00  0.00     0.060 A 
ATOM     28  C   UNL A   1      39.450  23.310  26.165  1.00  0.00     0.016 A 
ATOM     29  C   UNL A   1      41.078  22.246  27.607  1.00  0.00     0.016 A 
ATOM     30  C   UNL A   1      39.932  24.563  26.522  1.00  0.00     0.010 A 
ATOM     31  C   UNL A   1      41.564  23.509  27.968  1.00  0.00     0.010 A 
ATOM     32  C   UNL A   1      40.997  24.675  27.421  1.00  0.00    -0.014 A 
BRANCH  32  33
ATOM     33  C   UNL A   1      41.545  26.021  27.720  1.00  0.00     0.031 A 
ATOM     34  C   UNL A   1      42.902  26.405  27.203  1.00  0.00     0.074 A 
ATOM     35  C   UNL A   1      40.791  26.915  28.388  1.00  0.00     0.049 A 
ATOM     36  N   UNL A   1      43.572  27.514  27.379  1.00  0.00    -0.248 NA
ATOM     37  C   UNL A   1      43.595  25.406  26.376  1.00  0.00     0.031 C 
ATOM     38  C   UNL A   1      39.432  26.672  28.878  1.00  0.00     0.029 A 
ATOM     39  N   UNL A   1      41.053  28.209  28.760  1.00  0.00    -0.354 N 
ATOM     40  C   UNL A   1      44.769  27.349  26.691  1.00  0.00     0.074 A 
ATOM     41  C   UNL A   1      44.742  26.019  26.117  1.00  0.00     0.031 C 
ATOM     42  C   UNL A   1      38.979  27.786  29.477  1.00  0.00     0.029 A 
ATOM     43  C   UNL A   1      40.027  28.801  29.460  1.00  0.00     0.049 A 
ATOM     44  H   UNL A   1      41.896  28.670  28.546  1.00  0.00     0.167 HD
ATOM     45  C   UNL A   1      45.791  28.228  26.548  1.00  0.00     0.034 A 
ATOM     46  C   UNL A   1      39.953  30.015  30.042  1.00  0.00     0.034 A 
ATOM     47  C   UNL A   1      45.803  29.549  27.130  1.00  0.00     0.049 A 
ATOM     48  C   UNL A   1      41.139  30.942  29.934  1.00  0.00     0.074 A 
ATOM     49  C   UNL A   1      46.799  30.510  27.072  1.00  0.00     0.029 A 
ATOM     50  N   UNL A   1      44.771  30.096  27.881  1.00  0.00    -0.354 N 
ATOM     51  N   UNL A   1      42.282  30.756  29.314  1.00  0.00    -0.248 NA
ATOM     52  C   UNL A   1      41.022  32.244  30.603  1.00  0.00     0.031 C 
ATOM     53  C   UNL A   1      46.390  31.614  27.830  1.00  0.00     0.029 A 
ATOM     54  C   UNL A   1      45.113  31.371  28.308  1.00  0.00     0.049 A 
ATOM     55  H   UNL A   1      43.919  29.646  28.080  1.00  0.00     0.167 HD
ATOM     56  C   UNL A   1      43.010  31.928  29.503  1.00  0.00     0.074 A 
ATOM     57  C   UNL A   1      42.165  32.822  30.269  1.00  0.00     0.031 C 
ATOM     58  C   UNL A   1      44.264  32.241  29.085  1.00  0.00     0.034 A 
BRANCH  45  59
ATOM     59  C   UNL A   1      47.001  27.762  25.776  1.00  0.00     0.023 A 
ATOM     60  C   UNL A   1      47.165  28.046  24.410  1.00  0.00     0.031 A 
ATOM     61  C   UNL A   1      47.997  27.002  26.417  1.00  0.00     0.131 A 
ATOM     62  C   UNL A   1      48.269  27.529  23.716  1.00  0.00     0.055 A 
ATOM     63  C   UNL A   1      49.127  26.548  25.737  1.00  0.00     0.041 A 
ATOM     64  F   UNL A   1      47.881  26.681  27.716  1.00  0.00    -0.206 F 
ATOM     65  C   UNL A   1      49.264  26.800  24.376  1.00  0.00     0.022 A 
BRANCH  62  66
ATOM     66  S   UNL A   1      48.337  27.723  21.914  1.00  0.00     0.124 S 
ATOM     67  O   UNL A   1      46.985  28.191  21.618  1.00  0.00    -0.237 OA
ATOM     68  O   UNL A   1      49.405  28.702  21.741  1.00  0.00    -0.237 OA
ATOM     69  O   UNL A   1      48.642  26.376  21.435  1.00  0.00    -0.744 OA
ENDBRANCH  62  66
ENDBRANCH  45  59
BRANCH  46  70
ATOM     70  C   UNL A   1      38.749  30.414  30.826  1.00  0.00     0.023 A 
ATOM     71  C   UNL A   1      37.662  31.057  30.214  1.00  0.00     0.031 A 
ATOM     72  C   UNL A   1      38.703  30.225  32.219  1.00  0.00     0.131 A 
ATOM     73  C   UNL A   1      36.601  31.537  30.998  1.00  0.00     0.055 A 
ATOM     74  C   UNL A   1      37.620  30.653  32.988  1.00  0.00     0.041 A 
ATOM     75  F   UNL A   1      39.718  29.620  32.857  1.00  0.00    -0.206 F 
ATOM     76  C   UNL A   1      36.567  31.329  32.379  1.00  0.00     0.022 A 
BRANCH  73  77
ATOM     77  S   UNL A   1      35.316  32.540  30.202  1.00  0.00     0.124 S 
ATOM     78  O   UNL A   1      34.329  32.661  31.268  1.00  0.00    -0.237 OA
ATOM     79  O   UNL A   1      36.049  33.755  29.864  1.00  0.00    -0.237 OA
ATOM     80  O   UNL A   1      34.905  31.723  29.061  1.00  0.00    -0.744 OA
ENDBRANCH  73  77
ENDBRANCH  46  70
BRANCH  58  81
ATOM     81  C   UNL A   1      44.764  33.621  29.429  1.00  0.00     0.023 A 
ATOM     82  C   UNL A   1      44.441  34.739  28.640  1.00  0.00     0.031 A 
ATOM     83  C   UNL A   1      45.610  33.813  30.535  1.00  0.00     0.131 A 
ATOM     84  C   UNL A   1      45.016  35.986  28.927  1.00  0.00     0.055 A 
ATOM     85  C   UNL A   1      46.132  35.068  30.852  1.00  0.00     0.041 A 
ATOM     86  F   UNL A   1      45.951  32.781  31.323  1.00  0.00    -0.206 F 
ATOM     87  C   UNL A   1      45.850  36.161  30.035  1.00  0.00     0.022 A 
BRANCH  84  88
ATOM     88  S   UNL A   1      44.746  37.356  27.768  1.00  0.00     0.124 S 
ATOM     89  O   UNL A   1      43.596  36.886  27.004  1.00  0.00    -0.237 OA
ATOM     90  O   UNL A   1      44.499  38.479  28.667  1.00  0.00    -0.237 OA
ATOM     91  O   UNL A   1      46.000  37.426  27.020  1.00  0.00    -0.744 OA
ENDBRANCH  84  88
ENDBRANCH  58  81
ENDBRANCH  32  33
ENDBRANCH  25  27
ENDBRANCH  24  25
ENDBRANCH  23  24
ENDBRANCH   1  23
TORSDOF 19
ENDMDL
MODEL 2
REMARK VINA RESULT:     -10.8      1.828      2.106
REMARK SMILES Cc1cc(CS(=O)(=O)NC[C@@H]2CC[C@H](C(=O)OCCOC(=O)c3ccc(-c4c5nc(c(-c6cc(S(=O)(=O)[O-])ccc6F)c6ccc([nH]6)c(-c6cc(S(=O)(=O)[O-])ccc6F)c6nc(c(-c7cc(S(=O)(=O)[O-])ccc7F)c7ccc4[nH]7)C=C6)C=C5)cc3)O2)no1
REMARK SMILES IDX 18 1 17 2 15 3 16 4 14 5 11 6 12 7 86 8 13 9 10 10 9 11 6 13
REMARK SMILES IDX 7 14 8 15 5 16 4 17 1 18 2 19 3 20 88 21 87 22 19 23 20 24
REMARK SMILES IDX 21 25 22 26 23 27 24 28 85 29 25 30 84 31 26 32 27 33 28 34
REMARK SMILES IDX 78 35 29 36 83 37 77 38 79 39 30 40 82 41 76 42 75 43 31 45
REMARK SMILES IDX 63 46 43 47 62 48 44 49 47 50 61 51 80 52 45 53 46 54 60 56
REMARK SMILES IDX 81 57 48 58 32 59 33 60 41 61 34 62 40 63 42 64 39 65 35 66
REMARK SMILES IDX 36 67 37 68 38 69 64 70 65 71 73 72 66 73 72 74 74 75 71 76
REMARK SMILES IDX 67 77 68 78 69 79 70 80 49 81 50 82 58 83 51 84 57 85 59 86
REMARK SMILES IDX 56 87 52 88 53 89 54 90 55 91
REMARK H PARENT 9 12 79 44 47 55
REMARK Flexibility Score: inf
ROOT
ATOM      1  C   UNL A   1      36.114  19.998  24.870  1.00  0.00     0.274 C 
ENDROOT
BRANCH   1   2
ATOM      2  O   UNL A   1      35.735  21.260  25.450  1.00  0.00    -0.460 OA
BRANCH   2   3
ATOM      3  C   UNL A   1      34.931  22.056  24.687  1.00  0.00     0.335 C 
ATOM      4  O   UNL A   1      35.342  22.910  23.909  1.00  0.00    -0.249 OA
BRANCH   3   5
ATOM      5  C   UNL A   1      33.437  21.778  24.924  1.00  0.00     0.228 C 
ATOM      6  C   UNL A   1      31.535  23.038  24.385  1.00  0.00     0.134 C 
ATOM      7  C   UNL A   1      32.139  23.608  25.656  1.00  0.00     0.037 C 
ATOM      8  O   UNL A   1      32.611  22.231  23.839  1.00  0.00    -0.362 OA
ATOM      9  C   UNL A   1      32.883  22.415  26.192  1.00  0.00     0.047 C 
BRANCH   6  10
ATOM     10  C   UNL A   1      31.143  24.068  23.325  1.00  0.00     0.130 C 
BRANCH  10  11
ATOM     11  N   UNL A   1      31.966  24.152  22.103  1.00  0.00    -0.212 NA
ATOM     12  H   UNL A   1      32.657  23.407  22.190  1.00  0.00     0.141 HD
BRANCH  11  13
ATOM     13  S   UNL A   1      32.823  25.495  21.605  1.00  0.00     0.217 S 
ATOM     14  O   UNL A   1      32.933  25.467  20.168  1.00  0.00    -0.212 OA
ATOM     15  O   UNL A   1      34.032  25.433  22.407  1.00  0.00    -0.212 OA
BRANCH  13  16
ATOM     16  C   UNL A   1      31.919  26.945  22.169  1.00  0.00     0.213 C 
BRANCH  16  17
ATOM     17  C   UNL A   1      32.481  27.644  23.344  1.00  0.00     0.100 A 
ATOM     18  C   UNL A   1      33.543  28.432  26.768  1.00  0.00     0.091 C 
ATOM     19  C   UNL A   1      33.201  28.201  25.353  1.00  0.00     0.133 A 
ATOM     20  C   UNL A   1      32.684  27.140  24.653  1.00  0.00     0.073 A 
ATOM     21  O   UNL A   1      33.382  29.247  24.505  1.00  0.00    -0.361 OA
ATOM     22  N   UNL A   1      32.958  28.891  23.238  1.00  0.00    -0.084 NA
ENDBRANCH  16  17
ENDBRANCH  13  16
ENDBRANCH  11  13
ENDBRANCH  10  11
ENDBRANCH   6  10
ENDBRANCH   3   5
ENDBRANCH   2   3
ENDBRANCH   1   2
BRANCH   1  23
ATOM     23  C   UNL A   1      37.619  19.762  25.016  1.00  0.00     0.275 C 
BRANCH  23  24
ATOM     24  O   UNL A   1      38.284  20.958  25.464  1.00  0.00    -0.458 OA
BRANCH  24  25
ATOM     25  C   UNL A   1      39.437  20.759  26.147  1.00  0.00     0.338 C 
ATOM     26  O   UNL A   1      40.058  19.716  26.258  1.00  0.00    -0.246 OA
BRANCH  25  27
ATOM     27  C   UNL A   1      39.938  22.049  26.645  1.00  0.00     0.060 A 
ATOM     28  C   UNL A   1      39.351  23.214  26.148  1.00  0.00     0.016 A 
ATOM     29  C   UNL A   1      41.026  22.122  27.515  1.00  0.00     0.016 A 
ATOM     30  C   UNL A   1      39.842  24.460  26.517  1.00  0.00     0.010 A 
ATOM     31  C   UNL A   1      41.520  23.379  27.888  1.00  0.00     0.010 A 
ATOM     32  C   UNL A   1      40.935  24.555  27.384  1.00  0.00    -0.014 A 
BRANCH  32  33
ATOM     33  C   UNL A   1      41.489  25.895  27.695  1.00  0.00     0.031 A 
ATOM     34  C   UNL A   1      42.847  26.278  27.178  1.00  0.00     0.074 A 
ATOM     35  C   UNL A   1      40.741  26.786  28.374  1.00  0.00     0.049 A 
ATOM     36  N   UNL A   1      43.522  27.383  27.363  1.00  0.00    -0.248 NA
ATOM     37  C   UNL A   1      43.533  25.285  26.339  1.00  0.00     0.031 C 
ATOM     38  C   UNL A   1      39.382  26.544  28.865  1.00  0.00     0.029 A 
ATOM     39  N   UNL A   1      41.010  28.074  28.758  1.00  0.00    -0.354 N 
ATOM     40  C   UNL A   1      44.716  27.220  26.670  1.00  0.00     0.074 A 
ATOM     41  C   UNL A   1      44.681  25.895  26.083  1.00  0.00     0.031 C 
ATOM     42  C   UNL A   1      38.936  27.653  29.477  1.00  0.00     0.029 A 
ATOM     43  C   UNL A   1      39.988  28.664  29.467  1.00  0.00     0.049 A 
ATOM     44  H   UNL A   1      41.854  28.535  28.546  1.00  0.00     0.167 HD
ATOM     45  C   UNL A   1      45.742  28.096  26.533  1.00  0.00     0.034 A 
ATOM     46  C   UNL A   1      39.921  29.872  30.062  1.00  0.00     0.034 A 
ATOM     47  C   UNL A   1      45.761  29.411  27.129  1.00  0.00     0.049 A 
ATOM     48  C   UNL A   1      41.111  30.796  29.960  1.00  0.00     0.074 A 
ATOM     49  C   UNL A   1      46.761  30.368  27.077  1.00  0.00     0.029 A 
ATOM     50  N   UNL A   1      44.733  29.955  27.888  1.00  0.00    -0.354 N 
ATOM     51  N   UNL A   1      42.251  30.611  29.334  1.00  0.00    -0.248 NA
ATOM     52  C   UNL A   1      41.001  32.091  30.643  1.00  0.00     0.031 C 
ATOM     53  C   UNL A   1      46.359  31.466  27.848  1.00  0.00     0.029 A 
ATOM     54  C   UNL A   1      45.082  31.224  28.327  1.00  0.00     0.049 A 
ATOM     55  H   UNL A   1      43.880  29.506  28.085  1.00  0.00     0.167 HD
ATOM     56  C   UNL A   1      42.984  31.778  29.533  1.00  0.00     0.074 A 
ATOM     57  C   UNL A   1      42.146  32.667  30.311  1.00  0.00     0.031 C 
ATOM     58  C   UNL A   1      44.238  32.089  29.115  1.00  0.00     0.034 A 
BRANCH  45  59
ATOM     59  C   UNL A   1      46.947  27.632  25.754  1.00  0.00     0.023 A 
ATOM     60  C   UNL A   1      47.130  27.967  24.401  1.00  0.00     0.031 A 
ATOM     61  C   UNL A   1      47.919  26.824  26.371  1.00  0.00     0.131 A 
ATOM     62  C   UNL A   1      48.229  27.452  23.696  1.00  0.00     0.055 A 
ATOM     63  C   UNL A   1      49.044  26.370  25.683  1.00  0.00     0.041 A 
ATOM     64  F   UNL A   1      47.783  26.454  27.655  1.00  0.00    -0.206 F 
ATOM     65  C   UNL A   1      49.200  26.674  24.334  1.00  0.00     0.022 A 
BRANCH  62  66
ATOM     66  S   UNL A   1      48.318  27.717  21.904  1.00  0.00     0.124 S 
ATOM     67  O   UNL A   1      46.981  28.230  21.616  1.00  0.00    -0.237 OA
ATOM     68  O   UNL A   1      49.411  28.674  21.779  1.00  0.00    -0.237 OA
ATOM     69  O   UNL A   1      48.594  26.383  21.373  1.00  0.00    -0.744 OA
ENDBRANCH  62  66
ENDBRANCH  45  59
BRANCH  46  70
ATOM     70  C   UNL A   1      38.721  30.268  30.853  1.00  0.00     0.023 A 
ATOM     71  C   UNL A   1      37.653  30.958  30.260  1.00  0.00     0.031 A 
ATOM     72  C   UNL A   1      38.662  30.028  32.238  1.00  0.00     0.131 A 
ATOM     73  C   UNL A   1      36.598  31.432  31.055  1.00  0.00     0.055 A 
ATOM     74  C   UNL A   1      37.583  30.451  33.016  1.00  0.00     0.041 A 
ATOM     75  F   UNL A   1      39.658  29.377  32.859  1.00  0.00    -0.206 F 
ATOM     76  C   UNL A   1      36.550  31.173  32.427  1.00  0.00     0.022 A 
BRANCH  73  77
ATOM     77  S   UNL A   1      35.341  32.494  30.289  1.00  0.00     0.124 S 
ATOM     78  O   UNL A   1      34.368  32.629  31.368  1.00  0.00    -0.237 OA
ATOM     79  O   UNL A   1      36.112  33.689  29.967  1.00  0.00    -0.237 OA
ATOM     80  O   UNL A   1      34.892  31.713  29.138  1.00  0.00    -0.744 OA
ENDBRANCH  73  77
ENDBRANCH  46  70
BRANCH  58  81
ATOM     81  C   UNL A   1      44.746  33.464  29.472  1.00  0.00     0.023 A 
ATOM     82  C   UNL A   1      45.455  33.701  30.663  1.00  0.00     0.031 A 
ATOM     83  C   UNL A   1      44.481  34.558  28.630  1.00  0.00     0.131 A 
ATOM     84  C   UNL A   1      45.813  35.011  31.013  1.00  0.00     0.055 A 
ATOM     85  C   UNL A   1      44.893  35.851  28.955  1.00  0.00     0.041 A 
ATOM     86  F   UNL A   1      43.809  34.388  27.480  1.00  0.00    -0.206 F 
ATOM     87  C   UNL A   1      45.548  36.086  30.161  1.00  0.00     0.022 A 
BRANCH  84  88
ATOM     88  S   UNL A   1      46.537  35.308  32.651  1.00  0.00     0.124 S 
ATOM     89  O   UNL A   1      47.362  36.487  32.410  1.00  0.00    -0.237 OA
ATOM     90  O   UNL A   1      45.354  35.516  33.480  1.00  0.00    -0.237 OA
ATOM     91  O   UNL A   1      47.278  34.078  32.927  1.00  0.00    -0.744 OA
ENDBRANCH  84  88
ENDBRANCH  58  81
ENDBRANCH  32  33
ENDBRANCH  25  27
ENDBRANCH  24  25
ENDBRANCH  23  24
ENDBRANCH   1  23
TORSDOF 19
ENDMDL
MODEL 3
REMARK VINA RESULT:     -10.8      1.671      2.058
REMARK SMILES Cc1cc(CS(=O)(=O)NC[C@@H]2CC[C@H](C(=O)OCCOC(=O)c3ccc(-c4c5nc(c(-c6cc(S(=O)(=O)[O-])ccc6F)c6ccc([nH]6)c(-c6cc(S(=O)(=O)[O-])ccc6F)c6nc(c(-c7cc(S(=O)(=O)[O-])ccc7F)c7ccc4[nH]7)C=C6)C=C5)cc3)O2)no1
REMARK SMILES IDX 18 1 17 2 15 3 16 4 14 5 11 6 12 7 86 8 13 9 10 10 9 11 6 13
REMARK SMILES IDX 7 14 8 15 5 16 4 17 1 18 2 19 3 20 88 21 87 22 19 23 20 24
REMARK SMILES IDX 21 25 22 26 23 27 24 28 85 29 25 30 84 31 26 32 27 33 28 34
REMARK SMILES IDX 78 35 29 36 83 37 77 38 79 39 30 40 82 41 76 42 75 43 31 45
REMARK SMILES IDX 63 46 43 47 62 48 44 49 47 50 61 51 80 52 45 53 46 54 60 56
REMARK SMILES IDX 81 57 48 58 32 59 33 60 41 61 34 62 40 63 42 64 39 65 35 66
REMARK SMILES IDX 36 67 37 68 38 69 64 70 65 71 73 72 66 73 72 74 74 75 71 76
REMARK SMILES IDX 67 77 68 78 69 79 70 80 49 81 50 82 58 83 51 84 57 85 59 86
REMARK SMILES IDX 56 87 52 88 53 89 54 90 55 91
REMARK H PARENT 9 12 79 44 47 55
REMARK Flexibility Score: inf
ROOT
ATOM      1  C   UNL A   1      35.985  20.067  25.005  1.00  0.00     0.274 C 
ENDROOT
BRANCH   1   2
ATOM      2  O   UNL A   1      35.498  21.153  25.815  1.00  0.00    -0.460 OA
BRANCH   2   3
ATOM      3  C   UNL A   1      34.467  21.878  25.293  1.00  0.00     0.335 C 
ATOM      4  O   UNL A   1      33.286  21.557  25.370  1.00  0.00    -0.249 OA
BRANCH   3   5
ATOM      5  C   UNL A   1      34.952  23.147  24.569  1.00  0.00     0.228 C 
ATOM      6  C   UNL A   1      33.792  24.708  23.261  1.00  0.00     0.134 C 
ATOM      7  C   UNL A   1      34.100  23.498  22.397  1.00  0.00     0.037 C 
ATOM      8  O   UNL A   1      33.987  24.211  24.611  1.00  0.00    -0.362 OA
ATOM      9  C   UNL A   1      35.300  22.927  23.103  1.00  0.00     0.047 C 
BRANCH   6  10
ATOM     10  C   UNL A   1      32.362  25.238  23.163  1.00  0.00     0.130 C 
BRANCH  10  11
ATOM     11  N   UNL A   1      32.058  26.534  23.800  1.00  0.00    -0.212 NA
ATOM     12  H   UNL A   1      32.894  26.777  24.332  1.00  0.00     0.141 HD
BRANCH  11  13
ATOM     13  S   UNL A   1      30.778  26.830  24.829  1.00  0.00     0.217 S 
ATOM     14  O   UNL A   1      31.067  28.014  25.599  1.00  0.00    -0.212 OA
ATOM     15  O   UNL A   1      30.606  25.564  25.518  1.00  0.00    -0.212 OA
BRANCH  13  16
ATOM     16  C   UNL A   1      29.312  27.049  23.808  1.00  0.00     0.213 C 
BRANCH  16  17
ATOM     17  C   UNL A   1      29.277  28.268  22.974  1.00  0.00     0.100 A 
ATOM     18  C   UNL A   1      28.188  31.401  21.404  1.00  0.00     0.091 C 
ATOM     19  C   UNL A   1      28.744  30.177  22.007  1.00  0.00     0.133 A 
ATOM     20  C   UNL A   1      28.323  29.316  22.990  1.00  0.00     0.073 A 
ATOM     21  O   UNL A   1      29.919  29.726  21.495  1.00  0.00    -0.361 OA
ATOM     22  N   UNL A   1      30.270  28.544  22.120  1.00  0.00    -0.084 NA
ENDBRANCH  16  17
ENDBRANCH  13  16
ENDBRANCH  11  13
ENDBRANCH  10  11
ENDBRANCH   6  10
ENDBRANCH   3   5
ENDBRANCH   2   3
ENDBRANCH   1   2
BRANCH   1  23
ATOM     23  C   UNL A   1      37.508  20.131  24.867  1.00  0.00     0.275 C 
BRANCH  23  24
ATOM     24  O   UNL A   1      38.045  21.229  25.628  1.00  0.00    -0.458 OA
BRANCH  24  25
ATOM     25  C   UNL A   1      39.252  21.001  26.200  1.00  0.00     0.338 C 
ATOM     26  O   UNL A   1      39.864  19.948  26.237  1.00  0.00    -0.246 OA
BRANCH  25  27
ATOM     27  C   UNL A   1      39.818  22.275  26.670  1.00  0.00     0.060 A 
ATOM     28  C   UNL A   1      39.312  23.456  26.123  1.00  0.00     0.016 A 
ATOM     29  C   UNL A   1      40.888  22.313  27.563  1.00  0.00     0.016 A 
ATOM     30  C   UNL A   1      39.867  24.682  26.465  1.00  0.00     0.010 A 
ATOM     31  C   UNL A   1      41.448  23.549  27.909  1.00  0.00     0.010 A 
ATOM     32  C   UNL A   1      40.944  24.741  27.355  1.00  0.00    -0.014 A 
BRANCH  32  33
ATOM     33  C   UNL A   1      41.569  26.056  27.638  1.00  0.00     0.031 A 
ATOM     34  C   UNL A   1      42.968  26.333  27.163  1.00  0.00     0.074 A 
ATOM     35  C   UNL A   1      40.854  27.018  28.252  1.00  0.00     0.049 A 
ATOM     36  N   UNL A   1      43.704  27.401  27.334  1.00  0.00    -0.248 NA
ATOM     37  C   UNL A   1      43.622  25.267  26.391  1.00  0.00     0.031 C 
ATOM     38  C   UNL A   1      39.465  26.880  28.696  1.00  0.00     0.029 A 
ATOM     39  N   UNL A   1      41.188  28.301  28.598  1.00  0.00    -0.354 N 
ATOM     40  C   UNL A   1      44.911  27.137  26.697  1.00  0.00     0.074 A 
ATOM     41  C   UNL A   1      44.815  25.794  26.160  1.00  0.00     0.031 C 
ATOM     42  C   UNL A   1      39.066  28.038  29.247  1.00  0.00     0.029 A 
ATOM     43  C   UNL A   1      40.179  28.981  29.242  1.00  0.00     0.049 A 
ATOM     44  H   UNL A   1      42.068  28.700  28.404  1.00  0.00     0.167 HD
ATOM     45  C   UNL A   1      45.995  27.942  26.570  1.00  0.00     0.034 A 
ATOM     46  C   UNL A   1      40.167  30.214  29.787  1.00  0.00     0.034 A 
ATOM     47  C   UNL A   1      46.074  29.276  27.116  1.00  0.00     0.049 A 
ATOM     48  C   UNL A   1      41.416  31.057  29.700  1.00  0.00     0.074 A 
ATOM     49  C   UNL A   1      47.134  30.167  27.069  1.00  0.00     0.029 A 
ATOM     50  N   UNL A   1      45.054  29.912  27.811  1.00  0.00    -0.354 N 
ATOM     51  N   UNL A   1      42.565  30.778  29.129  1.00  0.00    -0.248 NA
ATOM     52  C   UNL A   1      41.361  32.383  30.328  1.00  0.00     0.031 C 
ATOM     53  C   UNL A   1      46.773  31.317  27.781  1.00  0.00     0.029 A 
ATOM     54  C   UNL A   1      45.466  31.174  28.216  1.00  0.00     0.049 A 
ATOM     55  H   UNL A   1      44.167  29.525  27.990  1.00  0.00     0.167 HD
ATOM     56  C   UNL A   1      43.362  31.904  29.313  1.00  0.00     0.074 A 
ATOM     57  C   UNL A   1      42.553  32.874  30.022  1.00  0.00     0.031 C 
ATOM     58  C   UNL A   1      44.649  32.120  28.936  1.00  0.00     0.034 A 
BRANCH  45  59
ATOM     59  C   UNL A   1      47.197  27.374  25.858  1.00  0.00     0.023 A 
ATOM     60  C   UNL A   1      48.214  26.692  26.548  1.00  0.00     0.031 A 
ATOM     61  C   UNL A   1      47.337  27.537  24.468  1.00  0.00     0.131 A 
ATOM     62  C   UNL A   1      49.351  26.245  25.855  1.00  0.00     0.055 A 
ATOM     63  C   UNL A   1      48.437  27.032  23.774  1.00  0.00     0.041 A 
ATOM     64  F   UNL A   1      46.408  28.201  23.761  1.00  0.00    -0.206 F 
ATOM     65  C   UNL A   1      49.458  26.390  24.469  1.00  0.00     0.022 A 
BRANCH  62  66
ATOM     66  S   UNL A   1      50.741  25.571  26.803  1.00  0.00     0.124 S 
ATOM     67  O   UNL A   1      51.106  26.710  27.641  1.00  0.00    -0.237 OA
ATOM     68  O   UNL A   1      50.134  24.438  27.493  1.00  0.00    -0.237 OA
ATOM     69  O   UNL A   1      51.721  25.222  25.775  1.00  0.00    -0.744 OA
ENDBRANCH  62  66
ENDBRANCH  45  59
BRANCH  46  70
ATOM     70  C   UNL A   1      38.964  30.715  30.513  1.00  0.00     0.023 A 
ATOM     71  C   UNL A   1      37.890  31.300  29.826  1.00  0.00     0.031 A 
ATOM     72  C   UNL A   1      38.908  30.684  31.919  1.00  0.00     0.131 A 
ATOM     73  C   UNL A   1      36.832  31.879  30.543  1.00  0.00     0.055 A 
ATOM     74  C   UNL A   1      37.827  31.211  32.627  1.00  0.00     0.041 A 
ATOM     75  F   UNL A   1      39.911  30.141  32.628  1.00  0.00    -0.206 F 
ATOM     76  C   UNL A   1      36.788  31.828  31.939  1.00  0.00     0.022 A 
BRANCH  73  77
ATOM     77  S   UNL A   1      35.565  32.804  29.631  1.00  0.00     0.124 S 
ATOM     78  O   UNL A   1      35.478  32.045  28.389  1.00  0.00    -0.237 OA
ATOM     79  O   UNL A   1      34.417  32.705  30.526  1.00  0.00    -0.237 OA
ATOM     80  O   UNL A   1      36.144  34.141  29.506  1.00  0.00    -0.744 OA
ENDBRANCH  73  77
ENDBRANCH  46  70
BRANCH  58  81
ATOM     81  C   UNL A   1      45.228  33.474  29.261  1.00  0.00     0.023 A 
ATOM     82  C   UNL A   1      45.119  34.555  28.368  1.00  0.00     0.031 A 
ATOM     83  C   UNL A   1      45.935  33.674  30.460  1.00  0.00     0.131 A 
ATOM     84  C   UNL A   1      45.767  35.766  28.655  1.00  0.00     0.055 A 
ATOM     85  C   UNL A   1      46.527  34.899  30.768  1.00  0.00     0.041 A 
ATOM     86  F   UNL A   1      46.070  32.676  31.348  1.00  0.00    -0.206 F 
ATOM     87  C   UNL A   1      46.460  35.949  29.855  1.00  0.00     0.022 A 
BRANCH  84  88
ATOM     88  S   UNL A   1      45.783  37.066  27.389  1.00  0.00     0.124 S 
ATOM     89  O   UNL A   1      46.220  38.230  28.154  1.00  0.00    -0.237 OA
ATOM     90  O   UNL A   1      46.742  36.545  26.420  1.00  0.00    -0.237 OA
ATOM     91  O   UNL A   1      44.398  37.112  26.926  1.00  0.00    -0.744 OA
ENDBRANCH  84  88
ENDBRANCH  58  81
ENDBRANCH  32  33
ENDBRANCH  25  27
ENDBRANCH  24  25
ENDBRANCH  23  24
ENDBRANCH   1  23
TORSDOF 19
ENDMDL
