MODEL 1
REMARK VINA RESULT:     -11.8      0.000      0.000
REMARK SMILES Cc1ncc(-c2cccc(C(=O)OCCOC(=O)c3ccc(-c4c5nc(c(-c6cc(S(=O)(=O)[O-])ccc6F)c6ccc([nH]6)c(-c6cc(S(=O)(=O)[O-])ccc6F)c6nc(c(-c7cc(S(=O)(=O)[O-])ccc7F)c7ccc4[nH]7)C=C6)C=C5)cc3)c2)[nH]1
REMARK SMILES IDX 15 1 14 2 13 3 11 4 12 5 10 6 6 7 7 8 82 9 8 10 9 11 5 12
REMARK SMILES IDX 1 13 2 14 3 15 83 16 4 17 16 19 17 20 18 21 19 22 20 23
REMARK SMILES IDX 81 24 21 25 80 26 22 27 23 28 24 29 74 30 25 31 79 32 73 33
REMARK SMILES IDX 75 34 26 35 78 36 72 37 71 38 27 40 59 41 39 42 58 43 40 44
REMARK SMILES IDX 43 45 57 46 76 47 41 48 42 49 56 51 77 52 44 53 28 54 29 55
REMARK SMILES IDX 37 56 30 57 36 58 38 59 35 60 31 61 32 62 33 63 34 64 60 65
REMARK SMILES IDX 61 66 69 67 62 68 68 69 70 70 67 71 63 72 64 73 65 74 66 75
REMARK SMILES IDX 45 76 46 77 54 78 47 79 53 80 55 81 52 82 48 83 49 84 50 85
REMARK SMILES IDX 51 86
REMARK H PARENT 83 18 75 39 43 50
REMARK Flexibility Score: inf
ROOT
ATOM      1  C   UNL A   1      36.935  21.471  24.322  1.00  0.00     0.275 C 
ENDROOT
BRANCH   1   2
ATOM      2  C   UNL A   1      35.817  22.499  24.146  1.00  0.00     0.275 C 
BRANCH   2   3
ATOM      3  O   UNL A   1      34.898  22.464  25.257  1.00  0.00    -0.458 OA
BRANCH   3   4
ATOM      4  C   UNL A   1      33.587  22.623  24.951  1.00  0.00     0.338 C 
ATOM      5  O   UNL A   1      32.892  23.592  25.228  1.00  0.00    -0.246 OA
BRANCH   4   6
ATOM      6  C   UNL A   1      33.094  21.486  24.135  1.00  0.00     0.060 A 
ATOM      7  C   UNL A   1      32.909  19.115  23.647  1.00  0.00     0.000 A 
ATOM      8  C   UNL A   1      32.211  19.421  22.471  1.00  0.00     0.010 A 
ATOM      9  C   UNL A   1      33.374  20.155  24.466  1.00  0.00     0.026 A 
ATOM     10  C   UNL A   1      31.912  20.744  22.151  1.00  0.00     0.002 A 
ATOM     11  C   UNL A   1      32.320  21.769  23.002  1.00  0.00     0.016 A 
BRANCH   7  12
ATOM     12  C   UNL A   1      33.080  17.731  24.058  1.00  0.00     0.065 A 
ATOM     13  C   UNL A   1      32.093  14.794  25.972  1.00  0.00     0.087 C 
ATOM     14  C   UNL A   1      32.751  15.793  25.099  1.00  0.00     0.103 A 
ATOM     15  N   UNL A   1      33.871  15.633  24.428  1.00  0.00    -0.242 NA
ATOM     16  N   UNL A   1      32.232  17.050  24.897  1.00  0.00    -0.342 N 
ATOM     17  C   UNL A   1      34.084  16.824  23.785  1.00  0.00     0.139 A 
ATOM     18  H   UNL A   1      31.398  17.400  25.285  1.00  0.00     0.168 HD
ENDBRANCH   7  12
ENDBRANCH   4   6
ENDBRANCH   3   4
ENDBRANCH   2   3
ENDBRANCH   1   2
BRANCH   1  19
ATOM     19  O   UNL A   1      37.332  21.394  25.703  1.00  0.00    -0.458 OA
BRANCH  19  20
ATOM     20  C   UNL A   1      38.645  21.174  25.921  1.00  0.00     0.338 C 
ATOM     21  O   UNL A   1      39.308  20.210  25.556  1.00  0.00    -0.246 OA
BRANCH  20  22
ATOM     22  C   UNL A   1      39.237  22.339  26.590  1.00  0.00     0.060 A 
ATOM     23  C   UNL A   1      38.692  23.588  26.307  1.00  0.00     0.016 A 
ATOM     24  C   UNL A   1      40.397  22.234  27.356  1.00  0.00     0.016 A 
ATOM     25  C   UNL A   1      39.320  24.750  26.747  1.00  0.00     0.010 A 
ATOM     26  C   UNL A   1      41.015  23.403  27.826  1.00  0.00     0.010 A 
ATOM     27  C   UNL A   1      40.504  24.673  27.492  1.00  0.00    -0.014 A 
BRANCH  27  28
ATOM     28  C   UNL A   1      41.266  25.922  27.779  1.00  0.00     0.031 A 
ATOM     29  C   UNL A   1      40.632  26.996  28.629  1.00  0.00     0.074 A 
ATOM     30  C   UNL A   1      42.542  26.067  27.369  1.00  0.00     0.049 A 
ATOM     31  N   UNL A   1      41.079  28.186  28.939  1.00  0.00    -0.248 NA
ATOM     32  C   UNL A   1      39.314  26.684  29.201  1.00  0.00     0.031 C 
ATOM     33  C   UNL A   1      43.302  25.079  26.603  1.00  0.00     0.029 A 
ATOM     34  N   UNL A   1      43.433  27.096  27.557  1.00  0.00    -0.354 N 
ATOM     35  C   UNL A   1      40.085  28.780  29.709  1.00  0.00     0.074 A 
ATOM     36  C   UNL A   1      39.000  27.824  29.796  1.00  0.00     0.031 C 
ATOM     37  C   UNL A   1      44.552  25.533  26.417  1.00  0.00     0.029 A 
ATOM     38  C   UNL A   1      44.667  26.872  26.991  1.00  0.00     0.049 A 
ATOM     39  H   UNL A   1      43.210  27.918  28.051  1.00  0.00     0.167 HD
ATOM     40  C   UNL A   1      40.075  30.003  30.297  1.00  0.00     0.034 A 
ATOM     41  C   UNL A   1      45.758  27.663  26.919  1.00  0.00     0.034 A 
ATOM     42  C   UNL A   1      41.174  30.937  30.234  1.00  0.00     0.049 A 
ATOM     43  C   UNL A   1      45.704  29.041  27.534  1.00  0.00     0.074 A 
ATOM     44  C   UNL A   1      41.261  32.208  30.776  1.00  0.00     0.029 A 
ATOM     45  N   UNL A   1      42.386  30.695  29.601  1.00  0.00    -0.354 N 
ATOM     46  N   UNL A   1      44.725  29.615  28.194  1.00  0.00    -0.248 NA
ATOM     47  C   UNL A   1      46.901  29.879  27.383  1.00  0.00     0.031 C 
ATOM     48  C   UNL A   1      42.505  32.751  30.432  1.00  0.00     0.029 A 
ATOM     49  C   UNL A   1      43.220  31.796  29.728  1.00  0.00     0.049 A 
ATOM     50  H   UNL A   1      42.621  29.862  29.131  1.00  0.00     0.167 HD
ATOM     51  C   UNL A   1      45.199  30.876  28.550  1.00  0.00     0.074 A 
ATOM     52  C   UNL A   1      46.557  30.966  28.056  1.00  0.00     0.031 C 
ATOM     53  C   UNL A   1      44.567  31.876  29.218  1.00  0.00     0.034 A 
BRANCH  40  54
ATOM     54  C   UNL A   1      38.809  30.416  31.009  1.00  0.00     0.023 A 
ATOM     55  C   UNL A   1      37.744  31.035  30.333  1.00  0.00     0.031 A 
ATOM     56  C   UNL A   1      38.688  30.227  32.397  1.00  0.00     0.131 A 
ATOM     57  C   UNL A   1      36.639  31.509  31.056  1.00  0.00     0.055 A 
ATOM     58  C   UNL A   1      37.551  30.629  33.100  1.00  0.00     0.041 A 
ATOM     59  F   UNL A   1      39.682  29.659  33.099  1.00  0.00    -0.206 F 
ATOM     60  C   UNL A   1      36.524  31.289  32.431  1.00  0.00     0.022 A 
BRANCH  57  61
ATOM     61  S   UNL A   1      35.419  32.542  30.199  1.00  0.00     0.124 S 
ATOM     62  O   UNL A   1      34.392  32.701  31.226  1.00  0.00    -0.237 OA
ATOM     63  O   UNL A   1      36.188  33.739  29.876  1.00  0.00    -0.237 OA
ATOM     64  O   UNL A   1      35.023  31.726  29.053  1.00  0.00    -0.744 OA
ENDBRANCH  57  61
ENDBRANCH  40  54
BRANCH  41  65
ATOM     65  C   UNL A   1      46.982  27.212  26.193  1.00  0.00     0.023 A 
ATOM     66  C   UNL A   1      47.988  26.484  26.849  1.00  0.00     0.031 A 
ATOM     67  C   UNL A   1      47.198  27.573  24.851  1.00  0.00     0.131 A 
ATOM     68  C   UNL A   1      49.183  26.181  26.177  1.00  0.00     0.055 A 
ATOM     69  C   UNL A   1      48.364  27.221  24.170  1.00  0.00     0.041 A 
ATOM     70  F   UNL A   1      46.272  28.277  24.179  1.00  0.00    -0.206 F 
ATOM     71  C   UNL A   1      49.372  26.533  24.839  1.00  0.00     0.022 A 
BRANCH  68  72
ATOM     72  S   UNL A   1      50.533  25.407  27.109  1.00  0.00     0.124 S 
ATOM     73  O   UNL A   1      49.830  24.354  27.833  1.00  0.00    -0.237 OA
ATOM     74  O   UNL A   1      51.425  24.967  26.041  1.00  0.00    -0.237 OA
ATOM     75  O   UNL A   1      51.045  26.498  27.936  1.00  0.00    -0.744 OA
ENDBRANCH  68  72
ENDBRANCH  41  65
BRANCH  53  76
ATOM     76  C   UNL A   1      45.365  33.130  29.476  1.00  0.00     0.023 A 
ATOM     77  C   UNL A   1      45.370  34.200  28.564  1.00  0.00     0.031 A 
ATOM     78  C   UNL A   1      46.159  33.240  30.630  1.00  0.00     0.131 A 
ATOM     79  C   UNL A   1      46.201  35.307  28.790  1.00  0.00     0.055 A 
ATOM     80  C   UNL A   1      46.941  34.369  30.878  1.00  0.00     0.041 A 
ATOM     81  F   UNL A   1      46.191  32.248  31.534  1.00  0.00    -0.206 F 
ATOM     82  C   UNL A   1      46.977  35.404  29.947  1.00  0.00     0.022 A 
BRANCH  79  83
ATOM     83  S   UNL A   1      46.332  36.576  27.500  1.00  0.00     0.124 S 
ATOM     84  O   UNL A   1      46.611  35.776  26.312  1.00  0.00    -0.237 OA
ATOM     85  O   UNL A   1      45.016  37.206  27.549  1.00  0.00    -0.237 OA
ATOM     86  O   UNL A   1      47.438  37.417  27.955  1.00  0.00    -0.744 OA
ENDBRANCH  79  83
ENDBRANCH  53  76
ENDBRANCH  27  28
ENDBRANCH  20  22
ENDBRANCH  19  20
ENDBRANCH   1  19
TORSDOF 15
ENDMDL
MODEL 2
REMARK VINA RESULT:     -11.8      2.711      3.939
REMARK SMILES Cc1ncc(-c2cccc(C(=O)OCCOC(=O)c3ccc(-c4c5nc(c(-c6cc(S(=O)(=O)[O-])ccc6F)c6ccc([nH]6)c(-c6cc(S(=O)(=O)[O-])ccc6F)c6nc(c(-c7cc(S(=O)(=O)[O-])ccc7F)c7ccc4[nH]7)C=C6)C=C5)cc3)c2)[nH]1
REMARK SMILES IDX 15 1 14 2 13 3 11 4 12 5 10 6 6 7 7 8 82 9 8 10 9 11 5 12
REMARK SMILES IDX 1 13 2 14 3 15 83 16 4 17 16 19 17 20 18 21 19 22 20 23
REMARK SMILES IDX 81 24 21 25 80 26 22 27 23 28 24 29 74 30 25 31 79 32 73 33
REMARK SMILES IDX 75 34 26 35 78 36 72 37 71 38 27 40 59 41 39 42 58 43 40 44
REMARK SMILES IDX 43 45 57 46 76 47 41 48 42 49 56 51 77 52 44 53 28 54 29 55
REMARK SMILES IDX 37 56 30 57 36 58 38 59 35 60 31 61 32 62 33 63 34 64 60 65
REMARK SMILES IDX 61 66 69 67 62 68 68 69 70 70 67 71 63 72 64 73 65 74 66 75
REMARK SMILES IDX 45 76 46 77 54 78 47 79 53 80 55 81 52 82 48 83 49 84 50 85
REMARK SMILES IDX 51 86
REMARK H PARENT 83 18 75 39 43 50
REMARK Flexibility Score: inf
ROOT
ATOM      1  C   UNL A   1      36.676  20.314  24.940  1.00  0.00     0.275 C 
ENDROOT
BRANCH   1   2
ATOM      2  C   UNL A   1      35.210  20.734  25.051  1.00  0.00     0.275 C 
BRANCH   2   3
ATOM      3  O   UNL A   1      35.084  22.031  25.667  1.00  0.00    -0.458 OA
BRANCH   3   4
ATOM      4  C   UNL A   1      34.250  22.107  26.733  1.00  0.00     0.338 C 
ATOM      5  O   UNL A   1      34.367  21.498  27.788  1.00  0.00    -0.246 OA
BRANCH   4   6
ATOM      6  C   UNL A   1      33.188  23.117  26.499  1.00  0.00     0.060 A 
ATOM      7  C   UNL A   1      32.437  25.332  25.850  1.00  0.00     0.000 A 
ATOM      8  C   UNL A   1      31.126  24.980  26.197  1.00  0.00     0.010 A 
ATOM      9  C   UNL A   1      33.473  24.403  26.028  1.00  0.00     0.026 A 
ATOM     10  C   UNL A   1      30.836  23.692  26.646  1.00  0.00     0.002 A 
ATOM     11  C   UNL A   1      31.859  22.754  26.760  1.00  0.00     0.016 A 
BRANCH   7  12
ATOM     12  C   UNL A   1      32.709  26.620  25.234  1.00  0.00     0.065 A 
ATOM     13  C   UNL A   1      34.243  28.705  22.671  1.00  0.00     0.087 C 
ATOM     14  C   UNL A   1      33.520  28.152  23.839  1.00  0.00     0.103 A 
ATOM     15  N   UNL A   1      32.904  28.838  24.778  1.00  0.00    -0.242 NA
ATOM     16  N   UNL A   1      33.421  26.801  24.072  1.00  0.00    -0.342 N 
ATOM     17  C   UNL A   1      32.403  27.902  25.644  1.00  0.00     0.139 A 
ATOM     18  H   UNL A   1      33.793  26.088  23.505  1.00  0.00     0.168 HD
ENDBRANCH   7  12
ENDBRANCH   4   6
ENDBRANCH   3   4
ENDBRANCH   2   3
ENDBRANCH   1   2
BRANCH   1  19
ATOM     19  O   UNL A   1      37.539  21.432  25.220  1.00  0.00    -0.458 OA
BRANCH  19  20
ATOM     20  C   UNL A   1      38.726  21.124  25.784  1.00  0.00     0.338 C 
ATOM     21  O   UNL A   1      39.325  20.057  25.720  1.00  0.00    -0.246 OA
BRANCH  20  22
ATOM     22  C   UNL A   1      39.289  22.316  26.430  1.00  0.00     0.060 A 
ATOM     23  C   UNL A   1      38.723  23.547  26.112  1.00  0.00     0.016 A 
ATOM     24  C   UNL A   1      40.445  22.252  27.207  1.00  0.00     0.016 A 
ATOM     25  C   UNL A   1      39.325  24.731  26.530  1.00  0.00     0.010 A 
ATOM     26  C   UNL A   1      41.037  23.443  27.654  1.00  0.00     0.010 A 
ATOM     27  C   UNL A   1      40.504  24.695  27.285  1.00  0.00    -0.014 A 
BRANCH  27  28
ATOM     28  C   UNL A   1      41.239  25.965  27.549  1.00  0.00     0.031 A 
ATOM     29  C   UNL A   1      40.603  27.020  28.420  1.00  0.00     0.074 A 
ATOM     30  C   UNL A   1      42.496  26.146  27.097  1.00  0.00     0.049 A 
ATOM     31  N   UNL A   1      41.027  28.223  28.715  1.00  0.00    -0.248 NA
ATOM     32  C   UNL A   1      39.314  26.671  29.034  1.00  0.00     0.031 C 
ATOM     33  C   UNL A   1      43.258  25.180  26.305  1.00  0.00     0.029 A 
ATOM     34  N   UNL A   1      43.364  27.200  27.256  1.00  0.00    -0.354 N 
ATOM     35  C   UNL A   1      40.041  28.788  29.518  1.00  0.00     0.074 A 
ATOM     36  C   UNL A   1      38.987  27.802  29.640  1.00  0.00     0.031 C 
ATOM     37  C   UNL A   1      44.488  25.669  26.079  1.00  0.00     0.029 A 
ATOM     38  C   UNL A   1      44.584  27.010  26.650  1.00  0.00     0.049 A 
ATOM     39  H   UNL A   1      43.133  28.015  27.758  1.00  0.00     0.167 HD
ATOM     40  C   UNL A   1      40.016  30.010  30.107  1.00  0.00     0.034 A 
ATOM     41  C   UNL A   1      45.649  27.832  26.543  1.00  0.00     0.034 A 
ATOM     42  C   UNL A   1      41.086  30.975  30.010  1.00  0.00     0.049 A 
ATOM     43  C   UNL A   1      45.576  29.208  27.159  1.00  0.00     0.074 A 
ATOM     44  C   UNL A   1      41.155  32.249  30.549  1.00  0.00     0.029 A 
ATOM     45  N   UNL A   1      42.283  30.768  29.336  1.00  0.00    -0.354 N 
ATOM     46  N   UNL A   1      44.604  29.755  27.852  1.00  0.00    -0.248 NA
ATOM     47  C   UNL A   1      46.744  30.080  26.971  1.00  0.00     0.031 C 
ATOM     48  C   UNL A   1      42.370  32.827  30.164  1.00  0.00     0.029 A 
ATOM     49  C   UNL A   1      43.089  31.892  29.437  1.00  0.00     0.049 A 
ATOM     50  H   UNL A   1      42.525  29.942  28.858  1.00  0.00     0.167 HD
ATOM     51  C   UNL A   1      45.053  31.029  28.194  1.00  0.00     0.074 A 
ATOM     52  C   UNL A   1      46.391  31.157  27.655  1.00  0.00     0.031 C 
ATOM     53  C   UNL A   1      44.416  32.010  28.883  1.00  0.00     0.034 A 
BRANCH  40  54
ATOM     54  C   UNL A   1      38.764  30.388  30.861  1.00  0.00     0.023 A 
ATOM     55  C   UNL A   1      37.674  31.010  30.228  1.00  0.00     0.031 A 
ATOM     56  C   UNL A   1      38.679  30.160  32.246  1.00  0.00     0.131 A 
ATOM     57  C   UNL A   1      36.581  31.450  30.991  1.00  0.00     0.055 A 
ATOM     58  C   UNL A   1      37.554  30.529  32.987  1.00  0.00     0.041 A 
ATOM     59  F   UNL A   1      39.697  29.588  32.908  1.00  0.00    -0.206 F 
ATOM     60  C   UNL A   1      36.503  31.192  32.361  1.00  0.00     0.022 A 
BRANCH  57  61
ATOM     61  S   UNL A   1      35.327  32.489  30.191  1.00  0.00     0.124 S 
ATOM     62  O   UNL A   1      34.932  31.655  29.058  1.00  0.00    -0.237 OA
ATOM     63  O   UNL A   1      34.330  32.648  31.244  1.00  0.00    -0.237 OA
ATOM     64  O   UNL A   1      36.060  33.702  29.838  1.00  0.00    -0.744 OA
ENDBRANCH  57  61
ENDBRANCH  40  54
BRANCH  41  65
ATOM     65  C   UNL A   1      46.861  27.417  25.776  1.00  0.00     0.023 A 
ATOM     66  C   UNL A   1      47.059  27.835  24.450  1.00  0.00     0.031 A 
ATOM     67  C   UNL A   1      47.799  26.531  26.334  1.00  0.00     0.131 A 
ATOM     68  C   UNL A   1      48.141  27.329  23.711  1.00  0.00     0.055 A 
ATOM     69  C   UNL A   1      48.904  26.075  25.614  1.00  0.00     0.041 A 
ATOM     70  F   UNL A   1      47.653  26.093  27.596  1.00  0.00    -0.206 F 
ATOM     71  C   UNL A   1      49.071  26.463  24.289  1.00  0.00     0.022 A 
BRANCH  68  72
ATOM     72  S   UNL A   1      48.259  27.741  21.949  1.00  0.00     0.124 S 
ATOM     73  O   UNL A   1      49.405  28.644  21.929  1.00  0.00    -0.237 OA
ATOM     74  O   UNL A   1      48.464  26.429  21.344  1.00  0.00    -0.237 OA
ATOM     75  O   UNL A   1      46.969  28.364  21.657  1.00  0.00    -0.744 OA
ENDBRANCH  68  72
ENDBRANCH  41  65
BRANCH  53  76
ATOM     76  C   UNL A   1      45.186  33.286  29.115  1.00  0.00     0.023 A 
ATOM     77  C   UNL A   1      45.006  34.415  28.296  1.00  0.00     0.031 A 
ATOM     78  C   UNL A   1      46.137  33.362  30.147  1.00  0.00     0.131 A 
ATOM     79  C   UNL A   1      45.811  35.549  28.481  1.00  0.00     0.055 A 
ATOM     80  C   UNL A   1      46.897  34.513  30.362  1.00  0.00     0.041 A 
ATOM     81  F   UNL A   1      46.349  32.314  30.959  1.00  0.00    -0.206 F 
ATOM     82  C   UNL A   1      46.746  35.609  29.517  1.00  0.00     0.022 A 
BRANCH  79  83
ATOM     83  S   UNL A   1      45.690  36.907  27.286  1.00  0.00     0.124 S 
ATOM     84  O   UNL A   1      46.681  36.524  26.286  1.00  0.00    -0.237 OA
ATOM     85  O   UNL A   1      44.295  36.826  26.862  1.00  0.00    -0.237 OA
ATOM     86  O   UNL A   1      46.029  38.091  28.074  1.00  0.00    -0.744 OA
ENDBRANCH  79  83
ENDBRANCH  53  76
ENDBRANCH  27  28
ENDBRANCH  20  22
ENDBRANCH  19  20
ENDBRANCH   1  19
TORSDOF 15
ENDMDL
MODEL 3
REMARK VINA RESULT:     -11.7      2.105      3.160
REMARK SMILES Cc1ncc(-c2cccc(C(=O)OCCOC(=O)c3ccc(-c4c5nc(c(-c6cc(S(=O)(=O)[O-])ccc6F)c6ccc([nH]6)c(-c6cc(S(=O)(=O)[O-])ccc6F)c6nc(c(-c7cc(S(=O)(=O)[O-])ccc7F)c7ccc4[nH]7)C=C6)C=C5)cc3)c2)[nH]1
REMARK SMILES IDX 15 1 14 2 13 3 11 4 12 5 10 6 6 7 7 8 82 9 8 10 9 11 5 12
REMARK SMILES IDX 1 13 2 14 3 15 83 16 4 17 16 19 17 20 18 21 19 22 20 23
REMARK SMILES IDX 81 24 21 25 80 26 22 27 23 28 24 29 74 30 25 31 79 32 73 33
REMARK SMILES IDX 75 34 26 35 78 36 72 37 71 38 27 40 59 41 39 42 58 43 40 44
REMARK SMILES IDX 43 45 57 46 76 47 41 48 42 49 56 51 77 52 44 53 28 54 29 55
REMARK SMILES IDX 37 56 30 57 36 58 38 59 35 60 31 61 32 62 33 63 34 64 60 65
REMARK SMILES IDX 61 66 69 67 62 68 68 69 70 70 67 71 63 72 64 73 65 74 66 75
REMARK SMILES IDX 45 76 46 77 54 78 47 79 53 80 55 81 52 82 48 83 49 84 50 85
REMARK SMILES IDX 51 86
REMARK H PARENT 83 18 75 39 43 50
REMARK Flexibility Score: inf
ROOT
ATOM      1  C   UNL A   1      36.732  20.104  24.985  1.00  0.00     0.275 C 
ENDROOT
BRANCH   1   2
ATOM      2  C   UNL A   1      35.343  20.745  25.002  1.00  0.00     0.275 C 
BRANCH   2   3
ATOM      3  O   UNL A   1      35.305  21.884  25.885  1.00  0.00    -0.458 OA
BRANCH   3   4
ATOM      4  C   UNL A   1      34.193  22.007  26.652  1.00  0.00     0.338 C 
ATOM      5  O   UNL A   1      33.947  21.382  27.675  1.00  0.00    -0.246 OA
BRANCH   4   6
ATOM      6  C   UNL A   1      33.316  23.089  26.138  1.00  0.00     0.060 A 
ATOM      7  C   UNL A   1      32.720  24.769  24.490  1.00  0.00     0.000 A 
ATOM      8  C   UNL A   1      31.667  25.189  25.313  1.00  0.00     0.010 A 
ATOM      9  C   UNL A   1      33.563  23.732  24.920  1.00  0.00     0.026 A 
ATOM     10  C   UNL A   1      31.406  24.535  26.516  1.00  0.00     0.002 A 
ATOM     11  C   UNL A   1      32.206  23.464  26.907  1.00  0.00     0.016 A 
BRANCH   7  12
ATOM     12  C   UNL A   1      32.891  25.347  23.168  1.00  0.00     0.065 A 
ATOM     13  C   UNL A   1      32.370  25.352  19.563  1.00  0.00     0.087 C 
ATOM     14  C   UNL A   1      32.767  25.622  20.964  1.00  0.00     0.103 A 
ATOM     15  N   UNL A   1      33.554  26.589  21.384  1.00  0.00    -0.242 NA
ATOM     16  N   UNL A   1      32.335  24.849  22.015  1.00  0.00    -0.342 N 
ATOM     17  C   UNL A   1      33.639  26.426  22.742  1.00  0.00     0.139 A 
ATOM     18  H   UNL A   1      31.732  24.073  21.952  1.00  0.00     0.168 HD
ENDBRANCH   7  12
ENDBRANCH   4   6
ENDBRANCH   3   4
ENDBRANCH   2   3
ENDBRANCH   1   2
BRANCH   1  19
ATOM     19  O   UNL A   1      37.751  21.118  25.060  1.00  0.00    -0.458 OA
BRANCH  19  20
ATOM     20  C   UNL A   1      38.847  20.791  25.777  1.00  0.00     0.338 C 
ATOM     21  O   UNL A   1      39.398  19.698  25.834  1.00  0.00    -0.246 OA
BRANCH  20  22
ATOM     22  C   UNL A   1      39.386  21.990  26.430  1.00  0.00     0.060 A 
ATOM     23  C   UNL A   1      38.837  23.218  26.072  1.00  0.00     0.016 A 
ATOM     24  C   UNL A   1      40.507  21.933  27.256  1.00  0.00     0.016 A 
ATOM     25  C   UNL A   1      39.425  24.406  26.499  1.00  0.00     0.010 A 
ATOM     26  C   UNL A   1      41.083  23.129  27.712  1.00  0.00     0.010 A 
ATOM     27  C   UNL A   1      40.570  24.377  27.304  1.00  0.00    -0.014 A 
BRANCH  27  28
ATOM     28  C   UNL A   1      41.298  25.649  27.582  1.00  0.00     0.031 A 
ATOM     29  C   UNL A   1      40.632  26.714  28.418  1.00  0.00     0.074 A 
ATOM     30  C   UNL A   1      42.571  25.823  27.175  1.00  0.00     0.049 A 
ATOM     31  N   UNL A   1      41.047  27.919  28.716  1.00  0.00    -0.248 NA
ATOM     32  C   UNL A   1      39.320  26.373  28.988  1.00  0.00     0.031 C 
ATOM     33  C   UNL A   1      43.360  24.847  26.422  1.00  0.00     0.029 A 
ATOM     34  N   UNL A   1      43.434  26.877  27.356  1.00  0.00    -0.354 N 
ATOM     35  C   UNL A   1      40.033  28.494  29.477  1.00  0.00     0.074 A 
ATOM     36  C   UNL A   1      38.973  27.511  29.570  1.00  0.00     0.031 C 
ATOM     37  C   UNL A   1      44.599  25.333  26.237  1.00  0.00     0.029 A 
ATOM     38  C   UNL A   1      44.676  26.679  26.797  1.00  0.00     0.049 A 
ATOM     39  H   UNL A   1      43.187  27.698  27.840  1.00  0.00     0.167 HD
ATOM     40  C   UNL A   1      39.989  29.722  30.051  1.00  0.00     0.034 A 
ATOM     41  C   UNL A   1      45.746  27.499  26.721  1.00  0.00     0.034 A 
ATOM     42  C   UNL A   1      41.063  30.684  29.984  1.00  0.00     0.049 A 
ATOM     43  C   UNL A   1      45.653  28.881  27.321  1.00  0.00     0.074 A 
ATOM     44  C   UNL A   1      41.115  31.963  30.513  1.00  0.00     0.029 A 
ATOM     45  N   UNL A   1      42.284  30.468  29.358  1.00  0.00    -0.354 N 
ATOM     46  N   UNL A   1      44.657  29.436  27.971  1.00  0.00    -0.248 NA
ATOM     47  C   UNL A   1      46.828  29.748  27.167  1.00  0.00     0.031 C 
ATOM     48  C   UNL A   1      42.345  32.535  30.167  1.00  0.00     0.029 A 
ATOM     49  C   UNL A   1      43.088  31.592  29.476  1.00  0.00     0.049 A 
ATOM     50  H   UNL A   1      42.542  29.637  28.898  1.00  0.00     0.167 HD
ATOM     51  C   UNL A   1      45.095  30.713  28.316  1.00  0.00     0.074 A 
ATOM     52  C   UNL A   1      46.453  30.833  27.827  1.00  0.00     0.031 C 
ATOM     53  C   UNL A   1      44.435  31.702  28.971  1.00  0.00     0.034 A 
BRANCH  40  54
ATOM     54  C   UNL A   1      38.710  30.109  30.754  1.00  0.00     0.023 A 
ATOM     55  C   UNL A   1      37.671  30.782  30.089  1.00  0.00     0.031 A 
ATOM     56  C   UNL A   1      38.549  29.838  32.125  1.00  0.00     0.131 A 
ATOM     57  C   UNL A   1      36.552  31.227  30.811  1.00  0.00     0.055 A 
ATOM     58  C   UNL A   1      37.398  30.213  32.820  1.00  0.00     0.041 A 
ATOM     59  F   UNL A   1      39.517  29.216  32.817  1.00  0.00    -0.206 F 
ATOM     60  C   UNL A   1      36.398  30.926  32.166  1.00  0.00     0.022 A 
BRANCH  57  61
ATOM     61  S   UNL A   1      35.368  32.327  29.986  1.00  0.00     0.124 S 
ATOM     62  O   UNL A   1      34.942  31.506  28.855  1.00  0.00    -0.237 OA
ATOM     63  O   UNL A   1      34.368  32.550  31.024  1.00  0.00    -0.237 OA
ATOM     64  O   UNL A   1      36.172  33.494  29.633  1.00  0.00    -0.744 OA
ENDBRANCH  57  61
ENDBRANCH  40  54
BRANCH  41  65
ATOM     65  C   UNL A   1      46.984  27.073  26.004  1.00  0.00     0.023 A 
ATOM     66  C   UNL A   1      48.026  26.418  26.682  1.00  0.00     0.031 A 
ATOM     67  C   UNL A   1      47.176  27.387  24.647  1.00  0.00     0.131 A 
ATOM     68  C   UNL A   1      49.230  26.141  26.014  1.00  0.00     0.055 A 
ATOM     69  C   UNL A   1      48.352  27.059  23.973  1.00  0.00     0.041 A 
ATOM     70  F   UNL A   1      46.216  28.020  23.954  1.00  0.00    -0.206 F 
ATOM     71  C   UNL A   1      49.394  26.445  24.661  1.00  0.00     0.022 A 
BRANCH  68  72
ATOM     72  S   UNL A   1      50.618  25.467  26.966  1.00  0.00     0.124 S 
ATOM     73  O   UNL A   1      49.995  24.336  27.644  1.00  0.00    -0.237 OA
ATOM     74  O   UNL A   1      51.575  25.138  25.915  1.00  0.00    -0.237 OA
ATOM     75  O   UNL A   1      51.006  26.578  27.835  1.00  0.00    -0.744 OA
ENDBRANCH  68  72
ENDBRANCH  41  65
BRANCH  53  76
ATOM     76  C   UNL A   1      45.198  32.979  29.218  1.00  0.00     0.023 A 
ATOM     77  C   UNL A   1      45.167  34.046  28.302  1.00  0.00     0.031 A 
ATOM     78  C   UNL A   1      45.995  33.117  30.368  1.00  0.00     0.131 A 
ATOM     79  C   UNL A   1      45.968  35.177  28.519  1.00  0.00     0.055 A 
ATOM     80  C   UNL A   1      46.747  34.269  30.606  1.00  0.00     0.041 A 
ATOM     81  F   UNL A   1      46.061  32.130  31.276  1.00  0.00    -0.206 F 
ATOM     82  C   UNL A   1      46.747  35.300  29.671  1.00  0.00     0.022 A 
BRANCH  79  83
ATOM     83  S   UNL A   1      46.055  36.443  27.223  1.00  0.00     0.124 S 
ATOM     84  O   UNL A   1      44.666  36.881  27.131  1.00  0.00    -0.237 OA
ATOM     85  O   UNL A   1      46.990  37.409  27.794  1.00  0.00    -0.237 OA
ATOM     86  O   UNL A   1      46.554  35.712  26.060  1.00  0.00    -0.744 OA
ENDBRANCH  79  83
ENDBRANCH  53  76
ENDBRANCH  27  28
ENDBRANCH  20  22
ENDBRANCH  19  20
ENDBRANCH   1  19
TORSDOF 15
ENDMDL
