MODEL 1
REMARK VINA RESULT:     -13.2      0.000      0.000
REMARK SMILES Cc1ccc(-c2cc(C(=O)OCCOC(=O)c3ccc(-c4c5nc(c(-c6cc(S(=O)(=O)[O-])ccc6F)c6ccc([nH]6)c(-c6cc(S(=O)(=O)[O-])ccc6F)c6nc(c(-c7cc(S(=O)(=O)[O-])ccc7F)c7ccc4[nH]7)C=C6)C=C5)cc3)c3cc(C)ccc3n2)c(C)c1
REMARK SMILES IDX 13 1 12 2 11 3 9 4 10 5 8 6 6 7 7 8 87 9 86 10 80 11 85 12
REMARK SMILES IDX 81 13 84 14 82 15 83 16 5 17 1 18 2 19 3 20 90 21 4 22 88 23
REMARK SMILES IDX 89 24 14 25 15 26 16 27 17 28 18 29 79 30 19 31 78 32 20 33
REMARK SMILES IDX 21 34 22 35 72 36 23 37 77 38 71 39 73 40 24 41 76 42 70 43
REMARK SMILES IDX 69 44 25 46 57 47 37 48 56 49 38 50 41 51 55 52 74 53 39 54
REMARK SMILES IDX 40 55 54 57 75 58 42 59 26 60 27 61 35 62 28 63 34 64 36 65
REMARK SMILES IDX 33 66 29 67 30 68 31 69 32 70 58 71 59 72 67 73 60 74 66 75
REMARK SMILES IDX 68 76 65 77 61 78 62 79 63 80 64 81 43 82 44 83 52 84 45 85
REMARK SMILES IDX 51 86 53 87 50 88 46 89 47 90 48 91 49 92
REMARK H PARENT 73 45 41 56
REMARK Flexibility Score: inf
ROOT
ATOM      1  C   UNL A   1      36.205  21.088  25.370  1.00  0.00     0.275 C 
ENDROOT
BRANCH   1   2
ATOM      2  C   UNL A   1      35.391  22.134  26.130  1.00  0.00     0.275 C 
BRANCH   2   3
ATOM      3  O   UNL A   1      34.401  21.502  26.969  1.00  0.00    -0.458 OA
BRANCH   3   4
ATOM      4  C   UNL A   1      33.164  22.062  26.981  1.00  0.00     0.339 C 
ATOM      5  O   UNL A   1      32.541  22.416  27.963  1.00  0.00    -0.246 OA
BRANCH   4   6
ATOM      6  C   UNL A   1      32.679  22.297  25.598  1.00  0.00     0.071 A 
ATOM      7  C   UNL A   1      31.800  23.889  24.037  1.00  0.00     0.072 A 
ATOM      8  C   UNL A   1      32.234  23.587  25.313  1.00  0.00     0.045 A 
ATOM      9  N   UNL A   1      31.707  22.944  23.076  1.00  0.00    -0.248 NA
ATOM     10  C   UNL A   1      32.062  21.680  23.370  1.00  0.00     0.072 A 
ATOM     11  C   UNL A   1      32.577  21.287  24.624  1.00  0.00     0.015 A 
ATOM     12  C   UNL A   1      31.887  20.709  22.396  1.00  0.00     0.029 A 
ATOM     13  C   UNL A   1      32.905  19.923  24.837  1.00  0.00     0.014 A 
ATOM     14  C   UNL A   1      32.206  19.364  22.615  1.00  0.00     0.005 A 
ATOM     15  C   UNL A   1      32.722  18.961  23.842  1.00  0.00    -0.050 A 
ATOM     16  C   UNL A   1      33.105  17.538  24.109  1.00  0.00     0.044 C 
BRANCH   7  17
ATOM     17  C   UNL A   1      31.379  25.258  23.704  1.00  0.00     0.003 A 
ATOM     18  C   UNL A   1      29.901  29.153  22.491  1.00  0.00     0.044 C 
ATOM     19  C   UNL A   1      30.402  27.806  22.924  1.00  0.00    -0.051 A 
ATOM     20  C   UNL A   1      29.589  26.931  23.645  1.00  0.00     0.004 A 
ATOM     21  C   UNL A   1      31.707  27.410  22.610  1.00  0.00     0.007 A 
ATOM     22  C   UNL A   1      30.072  25.676  24.031  1.00  0.00     0.011 A 
ATOM     23  C   UNL A   1      32.203  26.144  22.979  1.00  0.00    -0.041 A 
ATOM     24  C   UNL A   1      33.614  25.804  22.585  1.00  0.00     0.045 C 
ENDBRANCH   7  17
ENDBRANCH   4   6
ENDBRANCH   3   4
ENDBRANCH   2   3
ENDBRANCH   1   2
BRANCH   1  25
ATOM     25  O   UNL A   1      37.465  21.649  24.964  1.00  0.00    -0.458 OA
BRANCH  25  26
ATOM     26  C   UNL A   1      38.532  21.204  25.666  1.00  0.00     0.338 C 
ATOM     27  O   UNL A   1      39.009  20.082  25.660  1.00  0.00    -0.246 OA
BRANCH  26  28
ATOM     28  C   UNL A   1      39.151  22.326  26.382  1.00  0.00     0.060 A 
ATOM     29  C   UNL A   1      38.683  23.602  26.098  1.00  0.00     0.016 A 
ATOM     30  C   UNL A   1      40.281  22.153  27.171  1.00  0.00     0.016 A 
ATOM     31  C   UNL A   1      39.419  24.721  26.476  1.00  0.00     0.010 A 
ATOM     32  C   UNL A   1      40.944  23.283  27.668  1.00  0.00     0.010 A 
ATOM     33  C   UNL A   1      40.551  24.584  27.289  1.00  0.00    -0.014 A 
BRANCH  33  34
ATOM     34  C   UNL A   1      41.338  25.783  27.708  1.00  0.00     0.031 A 
ATOM     35  C   UNL A   1      40.686  26.858  28.545  1.00  0.00     0.074 A 
ATOM     36  C   UNL A   1      42.637  25.917  27.359  1.00  0.00     0.049 A 
ATOM     37  N   UNL A   1      41.104  28.068  28.816  1.00  0.00    -0.248 NA
ATOM     38  C   UNL A   1      39.381  26.530  29.142  1.00  0.00     0.031 C 
ATOM     39  C   UNL A   1      43.424  24.930  26.614  1.00  0.00     0.029 A 
ATOM     40  N   UNL A   1      43.529  26.939  27.584  1.00  0.00    -0.354 N 
ATOM     41  C   UNL A   1      40.094  28.664  29.568  1.00  0.00     0.074 A 
ATOM     42  C   UNL A   1      39.034  27.686  29.690  1.00  0.00     0.031 C 
ATOM     43  C   UNL A   1      44.684  25.372  26.485  1.00  0.00     0.029 A 
ATOM     44  C   UNL A   1      44.769  26.723  27.021  1.00  0.00     0.049 A 
ATOM     45  H   UNL A   1      43.305  27.748  28.098  1.00  0.00     0.167 HD
ATOM     46  C   UNL A   1      40.060  29.908  30.108  1.00  0.00     0.034 A 
ATOM     47  C   UNL A   1      45.836  27.538  26.891  1.00  0.00     0.034 A 
ATOM     48  C   UNL A   1      41.143  30.856  30.011  1.00  0.00     0.049 A 
ATOM     49  C   UNL A   1      45.739  28.945  27.423  1.00  0.00     0.074 A 
ATOM     50  C   UNL A   1      41.208  32.149  30.506  1.00  0.00     0.029 A 
ATOM     51  N   UNL A   1      42.362  30.612  29.391  1.00  0.00    -0.354 N 
ATOM     52  N   UNL A   1      44.744  29.522  28.059  1.00  0.00    -0.248 NA
ATOM     53  C   UNL A   1      46.902  29.816  27.212  1.00  0.00     0.031 C 
ATOM     54  C   UNL A   1      42.437  32.702  30.138  1.00  0.00     0.029 A 
ATOM     55  C   UNL A   1      43.175  31.731  29.481  1.00  0.00     0.049 A 
ATOM     56  H   UNL A   1      42.612  29.767  28.952  1.00  0.00     0.167 HD
ATOM     57  C   UNL A   1      45.182  30.811  28.352  1.00  0.00     0.074 A 
ATOM     58  C   UNL A   1      46.533  30.918  27.845  1.00  0.00     0.031 C 
ATOM     59  C   UNL A   1      44.524  31.819  28.980  1.00  0.00     0.034 A 
BRANCH  46  60
ATOM     60  C   UNL A   1      38.795  30.334  30.817  1.00  0.00     0.023 A 
ATOM     61  C   UNL A   1      37.735  30.957  30.136  1.00  0.00     0.031 A 
ATOM     62  C   UNL A   1      38.645  30.106  32.197  1.00  0.00     0.131 A 
ATOM     63  C   UNL A   1      36.599  31.379  30.845  1.00  0.00     0.055 A 
ATOM     64  C   UNL A   1      37.481  30.458  32.882  1.00  0.00     0.041 A 
ATOM     65  F   UNL A   1      39.632  29.533  32.906  1.00  0.00    -0.206 F 
ATOM     66  C   UNL A   1      36.453  31.109  32.208  1.00  0.00     0.022 A 
BRANCH  63  67
ATOM     67  S   UNL A   1      35.365  32.391  29.984  1.00  0.00     0.124 S 
ATOM     68  O   UNL A   1      36.153  33.567  29.622  1.00  0.00    -0.237 OA
ATOM     69  O   UNL A   1      34.962  31.527  28.881  1.00  0.00    -0.237 OA
ATOM     70  O   UNL A   1      34.342  32.624  31.001  1.00  0.00    -0.744 OA
ENDBRANCH  63  67
ENDBRANCH  46  60
BRANCH  47  71
ATOM     71  C   UNL A   1      47.063  27.090  26.164  1.00  0.00     0.023 A 
ATOM     72  C   UNL A   1      48.058  26.346  26.818  1.00  0.00     0.031 A 
ATOM     73  C   UNL A   1      47.304  27.475  24.832  1.00  0.00     0.131 A 
ATOM     74  C   UNL A   1      49.272  26.074  26.167  1.00  0.00     0.055 A 
ATOM     75  C   UNL A   1      48.479  27.131  24.162  1.00  0.00     0.041 A 
ATOM     76  F   UNL A   1      46.396  28.197  24.155  1.00  0.00    -0.206 F 
ATOM     77  C   UNL A   1      49.481  26.444  24.838  1.00  0.00     0.022 A 
BRANCH  74  78
ATOM     78  S   UNL A   1      50.630  25.362  27.136  1.00  0.00     0.124 S 
ATOM     79  O   UNL A   1      49.946  24.301  27.867  1.00  0.00    -0.237 OA
ATOM     80  O   UNL A   1      51.553  24.930  26.091  1.00  0.00    -0.237 OA
ATOM     81  O   UNL A   1      51.091  26.485  27.949  1.00  0.00    -0.744 OA
ENDBRANCH  74  78
ENDBRANCH  47  71
BRANCH  59  82
ATOM     82  C   UNL A   1      45.296  33.093  29.216  1.00  0.00     0.023 A 
ATOM     83  C   UNL A   1      45.224  34.180  28.328  1.00  0.00     0.031 A 
ATOM     84  C   UNL A   1      46.138  33.209  30.337  1.00  0.00     0.131 A 
ATOM     85  C   UNL A   1      46.028  35.310  28.541  1.00  0.00     0.055 A 
ATOM     86  C   UNL A   1      46.885  34.361  30.579  1.00  0.00     0.041 A 
ATOM     87  F   UNL A   1      46.247  32.200  31.216  1.00  0.00    -0.206 F 
ATOM     88  C   UNL A   1      46.844  35.415  29.669  1.00  0.00     0.022 A 
BRANCH  85  89
ATOM     89  S   UNL A   1      46.070  36.600  27.266  1.00  0.00     0.124 S 
ATOM     90  O   UNL A   1      46.768  37.683  27.952  1.00  0.00    -0.237 OA
ATOM     91  O   UNL A   1      46.807  35.950  26.188  1.00  0.00    -0.237 OA
ATOM     92  O   UNL A   1      44.658  36.851  26.986  1.00  0.00    -0.744 OA
ENDBRANCH  85  89
ENDBRANCH  59  82
ENDBRANCH  33  34
ENDBRANCH  26  28
ENDBRANCH  25  26
ENDBRANCH   1  25
TORSDOF 15
ENDMDL
MODEL 2
REMARK VINA RESULT:     -13.0      5.038     10.038
REMARK SMILES Cc1ccc(-c2cc(C(=O)OCCOC(=O)c3ccc(-c4c5nc(c(-c6cc(S(=O)(=O)[O-])ccc6F)c6ccc([nH]6)c(-c6cc(S(=O)(=O)[O-])ccc6F)c6nc(c(-c7cc(S(=O)(=O)[O-])ccc7F)c7ccc4[nH]7)C=C6)C=C5)cc3)c3cc(C)ccc3n2)c(C)c1
REMARK SMILES IDX 13 1 12 2 11 3 9 4 10 5 8 6 6 7 7 8 87 9 86 10 80 11 85 12
REMARK SMILES IDX 81 13 84 14 82 15 83 16 5 17 1 18 2 19 3 20 90 21 4 22 88 23
REMARK SMILES IDX 89 24 14 25 15 26 16 27 17 28 18 29 79 30 19 31 78 32 20 33
REMARK SMILES IDX 21 34 22 35 72 36 23 37 77 38 71 39 73 40 24 41 76 42 70 43
REMARK SMILES IDX 69 44 25 46 57 47 37 48 56 49 38 50 41 51 55 52 74 53 39 54
REMARK SMILES IDX 40 55 54 57 75 58 42 59 26 60 27 61 35 62 28 63 34 64 36 65
REMARK SMILES IDX 33 66 29 67 30 68 31 69 32 70 58 71 59 72 67 73 60 74 66 75
REMARK SMILES IDX 68 76 65 77 61 78 62 79 63 80 64 81 43 82 44 83 52 84 45 85
REMARK SMILES IDX 51 86 53 87 50 88 46 89 47 90 48 91 49 92
REMARK H PARENT 73 45 41 56
REMARK Flexibility Score: inf
ROOT
ATOM      1  C   UNL A   1      32.266  30.020  25.618  1.00  0.00     0.275 C 
ENDROOT
BRANCH   1   2
ATOM      2  C   UNL A   1      33.112  28.972  24.896  1.00  0.00     0.275 C 
BRANCH   2   3
ATOM      3  O   UNL A   1      33.272  29.314  23.504  1.00  0.00    -0.458 OA
BRANCH   3   4
ATOM      4  C   UNL A   1      33.238  28.288  22.615  1.00  0.00     0.339 C 
ATOM      5  O   UNL A   1      33.931  28.167  21.624  1.00  0.00    -0.246 OA
BRANCH   4   6
ATOM      6  C   UNL A   1      32.292  27.236  23.063  1.00  0.00     0.071 A 
ATOM      7  C   UNL A   1      32.013  24.939  23.688  1.00  0.00     0.072 A 
ATOM      8  C   UNL A   1      32.827  25.961  23.240  1.00  0.00     0.045 A 
ATOM      9  N   UNL A   1      30.687  25.115  23.873  1.00  0.00    -0.248 NA
ATOM     10  C   UNL A   1      30.152  26.326  23.628  1.00  0.00     0.072 A 
ATOM     11  C   UNL A   1      30.911  27.447  23.230  1.00  0.00     0.015 A 
ATOM     12  C   UNL A   1      28.778  26.469  23.749  1.00  0.00     0.029 A 
ATOM     13  C   UNL A   1      30.245  28.675  22.979  1.00  0.00     0.014 A 
ATOM     14  C   UNL A   1      28.127  27.681  23.494  1.00  0.00     0.005 A 
ATOM     15  C   UNL A   1      28.861  28.798  23.108  1.00  0.00    -0.050 A 
ATOM     16  C   UNL A   1      28.208  30.122  22.855  1.00  0.00     0.044 C 
BRANCH   7  17
ATOM     17  C   UNL A   1      32.574  23.602  23.932  1.00  0.00     0.003 A 
ATOM     18  C   UNL A   1      33.901  19.556  24.773  1.00  0.00     0.044 C 
ATOM     19  C   UNL A   1      33.439  20.952  24.466  1.00  0.00    -0.051 A 
ATOM     20  C   UNL A   1      32.528  21.201  23.440  1.00  0.00     0.004 A 
ATOM     21  C   UNL A   1      33.928  22.031  25.211  1.00  0.00     0.007 A 
ATOM     22  C   UNL A   1      32.103  22.507  23.177  1.00  0.00     0.011 A 
ATOM     23  C   UNL A   1      33.499  23.350  24.967  1.00  0.00    -0.041 A 
ATOM     24  C   UNL A   1      34.071  24.442  25.829  1.00  0.00     0.045 C 
ENDBRANCH   7  17
ENDBRANCH   4   6
ENDBRANCH   3   4
ENDBRANCH   2   3
ENDBRANCH   1   2
BRANCH   1  25
ATOM     25  O   UNL A   1      32.704  30.148  26.982  1.00  0.00    -0.458 OA
BRANCH  25  26
ATOM     26  C   UNL A   1      33.327  31.314  27.267  1.00  0.00     0.338 C 
ATOM     27  O   UNL A   1      32.839  32.431  27.289  1.00  0.00    -0.246 OA
BRANCH  26  28
ATOM     28  C   UNL A   1      34.707  31.043  27.687  1.00  0.00     0.060 A 
ATOM     29  C   UNL A   1      35.034  29.731  28.004  1.00  0.00     0.016 A 
ATOM     30  C   UNL A   1      35.608  32.070  27.939  1.00  0.00     0.016 A 
ATOM     31  C   UNL A   1      36.199  29.448  28.709  1.00  0.00     0.010 A 
ATOM     32  C   UNL A   1      36.843  31.763  28.525  1.00  0.00     0.010 A 
ATOM     33  C   UNL A   1      37.138  30.456  28.963  1.00  0.00    -0.014 A 
BRANCH  33  34
ATOM     34  C   UNL A   1      38.397  30.154  29.709  1.00  0.00     0.031 A 
ATOM     35  C   UNL A   1      39.418  29.211  29.116  1.00  0.00     0.074 A 
ATOM     36  C   UNL A   1      38.646  30.725  30.908  1.00  0.00     0.049 A 
ATOM     37  N   UNL A   1      40.447  28.637  29.684  1.00  0.00    -0.248 NA
ATOM     38  C   UNL A   1      39.243  28.854  27.699  1.00  0.00     0.031 C 
ATOM     39  C   UNL A   1      37.791  31.710  31.575  1.00  0.00     0.029 A 
ATOM     40  N   UNL A   1      39.694  30.561  31.783  1.00  0.00    -0.354 N 
ATOM     41  C   UNL A   1      41.012  27.813  28.712  1.00  0.00     0.074 A 
ATOM     42  C   UNL A   1      40.194  27.947  27.526  1.00  0.00     0.031 C 
ATOM     43  C   UNL A   1      38.367  32.093  32.725  1.00  0.00     0.029 A 
ATOM     44  C   UNL A   1      39.565  31.295  32.943  1.00  0.00     0.049 A 
ATOM     45  H   UNL A   1      40.465  29.976  31.599  1.00  0.00     0.167 HD
ATOM     46  C   UNL A   1      42.112  27.025  28.804  1.00  0.00     0.034 A 
ATOM     47  C   UNL A   1      40.287  31.285  34.082  1.00  0.00     0.034 A 
ATOM     48  C   UNL A   1      42.940  26.935  29.983  1.00  0.00     0.049 A 
ATOM     49  C   UNL A   1      41.452  30.334  34.189  1.00  0.00     0.074 A 
ATOM     50  C   UNL A   1      44.067  26.155  30.190  1.00  0.00     0.029 A 
ATOM     51  N   UNL A   1      42.744  27.660  31.151  1.00  0.00    -0.354 N 
ATOM     52  N   UNL A   1      41.924  29.499  33.291  1.00  0.00    -0.248 NA
ATOM     53  C   UNL A   1      42.177  30.315  35.466  1.00  0.00     0.031 C 
ATOM     54  C   UNL A   1      44.516  26.367  31.497  1.00  0.00     0.029 A 
ATOM     55  C   UNL A   1      43.719  27.336  32.082  1.00  0.00     0.049 A 
ATOM     56  H   UNL A   1      42.019  28.309  31.297  1.00  0.00     0.167 HD
ATOM     57  C   UNL A   1      43.022  28.885  33.889  1.00  0.00     0.074 A 
ATOM     58  C   UNL A   1      43.155  29.461  35.209  1.00  0.00     0.031 C 
ATOM     59  C   UNL A   1      43.845  27.927  33.391  1.00  0.00     0.034 A 
BRANCH  46  60
ATOM     60  C   UNL A   1      42.463  26.163  27.614  1.00  0.00     0.023 A 
ATOM     61  C   UNL A   1      42.011  24.837  27.498  1.00  0.00     0.031 A 
ATOM     62  C   UNL A   1      43.257  26.680  26.574  1.00  0.00     0.131 A 
ATOM     63  C   UNL A   1      42.401  24.059  26.396  1.00  0.00     0.055 A 
ATOM     64  C   UNL A   1      43.578  25.925  25.444  1.00  0.00     0.041 A 
ATOM     65  F   UNL A   1      43.735  27.933  26.638  1.00  0.00    -0.206 F 
ATOM     66  C   UNL A   1      43.158  24.601  25.356  1.00  0.00     0.022 A 
BRANCH  63  67
ATOM     67  S   UNL A   1      42.003  22.289  26.400  1.00  0.00     0.124 S 
ATOM     68  O   UNL A   1      42.616  21.855  27.653  1.00  0.00    -0.237 OA
ATOM     69  O   UNL A   1      40.546  22.293  26.368  1.00  0.00    -0.237 OA
ATOM     70  O   UNL A   1      42.654  21.789  25.191  1.00  0.00    -0.744 OA
ENDBRANCH  63  67
ENDBRANCH  46  60
BRANCH  47  71
ATOM     71  C   UNL A   1      39.898  32.135  35.248  1.00  0.00     0.023 A 
ATOM     72  C   UNL A   1      39.122  31.613  36.295  1.00  0.00     0.031 A 
ATOM     73  C   UNL A   1      40.215  33.506  35.290  1.00  0.00     0.131 A 
ATOM     74  C   UNL A   1      38.632  32.466  37.297  1.00  0.00     0.055 A 
ATOM     75  C   UNL A   1      39.794  34.333  36.333  1.00  0.00     0.041 A 
ATOM     76  F   UNL A   1      40.944  34.068  34.312  1.00  0.00    -0.206 F 
ATOM     77  C   UNL A   1      38.978  33.817  37.334  1.00  0.00     0.022 A 
BRANCH  74  78
ATOM     78  S   UNL A   1      37.410  31.810  38.466  1.00  0.00     0.124 S 
ATOM     79  O   UNL A   1      38.109  31.959  39.738  1.00  0.00    -0.237 OA
ATOM     80  O   UNL A   1      36.275  32.702  38.249  1.00  0.00    -0.237 OA
ATOM     81  O   UNL A   1      37.215  30.434  38.017  1.00  0.00    -0.744 OA
ENDBRANCH  74  78
ENDBRANCH  47  71
BRANCH  59  82
ATOM     82  C   UNL A   1      45.004  27.506  34.261  1.00  0.00     0.023 A 
ATOM     83  C   UNL A   1      44.920  26.403  35.127  1.00  0.00     0.031 A 
ATOM     84  C   UNL A   1      46.204  28.240  34.237  1.00  0.00     0.131 A 
ATOM     85  C   UNL A   1      45.992  26.104  35.982  1.00  0.00     0.055 A 
ATOM     86  C   UNL A   1      47.291  27.897  35.041  1.00  0.00     0.041 A 
ATOM     87  F   UNL A   1      46.338  29.304  33.429  1.00  0.00    -0.206 F 
ATOM     88  C   UNL A   1      47.182  26.832  35.932  1.00  0.00     0.022 A 
BRANCH  85  89
ATOM     89  S   UNL A   1      45.770  24.811  37.235  1.00  0.00     0.124 S 
ATOM     90  O   UNL A   1      44.693  24.012  36.659  1.00  0.00    -0.237 OA
ATOM     91  O   UNL A   1      47.085  24.179  37.268  1.00  0.00    -0.237 OA
ATOM     92  O   UNL A   1      45.413  25.558  38.439  1.00  0.00    -0.744 OA
ENDBRANCH  85  89
ENDBRANCH  59  82
ENDBRANCH  33  34
ENDBRANCH  26  28
ENDBRANCH  25  26
ENDBRANCH   1  25
TORSDOF 15
ENDMDL
MODEL 3
REMARK VINA RESULT:     -13.0      1.772      2.199
REMARK SMILES Cc1ccc(-c2cc(C(=O)OCCOC(=O)c3ccc(-c4c5nc(c(-c6cc(S(=O)(=O)[O-])ccc6F)c6ccc([nH]6)c(-c6cc(S(=O)(=O)[O-])ccc6F)c6nc(c(-c7cc(S(=O)(=O)[O-])ccc7F)c7ccc4[nH]7)C=C6)C=C5)cc3)c3cc(C)ccc3n2)c(C)c1
REMARK SMILES IDX 13 1 12 2 11 3 9 4 10 5 8 6 6 7 7 8 87 9 86 10 80 11 85 12
REMARK SMILES IDX 81 13 84 14 82 15 83 16 5 17 1 18 2 19 3 20 90 21 4 22 88 23
REMARK SMILES IDX 89 24 14 25 15 26 16 27 17 28 18 29 79 30 19 31 78 32 20 33
REMARK SMILES IDX 21 34 22 35 72 36 23 37 77 38 71 39 73 40 24 41 76 42 70 43
REMARK SMILES IDX 69 44 25 46 57 47 37 48 56 49 38 50 41 51 55 52 74 53 39 54
REMARK SMILES IDX 40 55 54 57 75 58 42 59 26 60 27 61 35 62 28 63 34 64 36 65
REMARK SMILES IDX 33 66 29 67 30 68 31 69 32 70 58 71 59 72 67 73 60 74 66 75
REMARK SMILES IDX 68 76 65 77 61 78 62 79 63 80 64 81 43 82 44 83 52 84 45 85
REMARK SMILES IDX 51 86 53 87 50 88 46 89 47 90 48 91 49 92
REMARK H PARENT 73 45 41 56
REMARK Flexibility Score: inf
ROOT
ATOM      1  C   UNL A   1      37.378  20.946  24.732  1.00  0.00     0.275 C 
ENDROOT
BRANCH   1   2
ATOM      2  C   UNL A   1      36.052  20.504  25.349  1.00  0.00     0.275 C 
BRANCH   2   3
ATOM      3  O   UNL A   1      35.591  21.469  26.318  1.00  0.00    -0.458 OA
BRANCH   3   4
ATOM      4  C   UNL A   1      34.255  21.507  26.553  1.00  0.00     0.339 C 
ATOM      5  O   UNL A   1      33.681  21.075  27.535  1.00  0.00    -0.246 OA
BRANCH   4   6
ATOM      6  C   UNL A   1      33.552  22.256  25.482  1.00  0.00     0.071 A 
ATOM      7  C   UNL A   1      32.754  24.389  24.733  1.00  0.00     0.072 A 
ATOM      8  C   UNL A   1      33.370  23.620  25.702  1.00  0.00     0.045 A 
ATOM      9  N   UNL A   1      32.239  23.840  23.612  1.00  0.00    -0.248 NA
ATOM     10  C   UNL A   1      32.345  22.510  23.432  1.00  0.00     0.072 A 
ATOM     11  C   UNL A   1      33.011  21.652  24.332  1.00  0.00     0.015 A 
ATOM     12  C   UNL A   1      31.743  21.953  22.313  1.00  0.00     0.029 A 
ATOM     13  C   UNL A   1      33.049  20.261  24.057  1.00  0.00     0.014 A 
ATOM     14  C   UNL A   1      31.779  20.579  22.051  1.00  0.00     0.005 A 
ATOM     15  C   UNL A   1      32.438  19.720  22.924  1.00  0.00    -0.050 A 
ATOM     16  C   UNL A   1      32.527  18.248  22.666  1.00  0.00     0.044 C 
BRANCH   7  17
ATOM     17  C   UNL A   1      32.603  25.839  24.926  1.00  0.00     0.003 A 
ATOM     18  C   UNL A   1      32.410  30.094  25.756  1.00  0.00     0.044 C 
ATOM     19  C   UNL A   1      32.488  28.625  25.455  1.00  0.00    -0.051 A 
ATOM     20  C   UNL A   1      33.629  28.064  24.883  1.00  0.00     0.004 A 
ATOM     21  C   UNL A   1      31.401  27.792  25.746  1.00  0.00     0.007 A 
ATOM     22  C   UNL A   1      33.684  26.692  24.621  1.00  0.00     0.011 A 
ATOM     23  C   UNL A   1      31.447  26.406  25.502  1.00  0.00    -0.041 A 
ATOM     24  C   UNL A   1      30.234  25.591  25.861  1.00  0.00     0.045 C 
ENDBRANCH   7  17
ENDBRANCH   4   6
ENDBRANCH   3   4
ENDBRANCH   2   3
ENDBRANCH   1   2
BRANCH   1  25
ATOM     25  O   UNL A   1      37.936  22.030  25.494  1.00  0.00    -0.458 OA
BRANCH  25  26
ATOM     26  C   UNL A   1      39.074  21.726  26.158  1.00  0.00     0.338 C 
ATOM     27  O   UNL A   1      39.691  20.674  26.130  1.00  0.00    -0.246 OA
BRANCH  26  28
ATOM     28  C   UNL A   1      39.566  22.916  26.861  1.00  0.00     0.060 A 
ATOM     29  C   UNL A   1      39.024  24.142  26.499  1.00  0.00     0.016 A 
ATOM     30  C   UNL A   1      40.657  22.858  27.719  1.00  0.00     0.016 A 
ATOM     31  C   UNL A   1      39.653  25.326  26.871  1.00  0.00     0.010 A 
ATOM     32  C   UNL A   1      41.205  24.053  28.205  1.00  0.00     0.010 A 
ATOM     33  C   UNL A   1      40.742  25.305  27.751  1.00  0.00    -0.014 A 
BRANCH  33  34
ATOM     34  C   UNL A   1      41.414  26.575  28.163  1.00  0.00     0.031 A 
ATOM     35  C   UNL A   1      40.640  27.624  28.927  1.00  0.00     0.074 A 
ATOM     36  C   UNL A   1      42.715  26.797  27.874  1.00  0.00     0.049 A 
ATOM     37  N   UNL A   1      40.950  28.871  29.172  1.00  0.00    -0.248 NA
ATOM     38  C   UNL A   1      39.334  27.216  29.470  1.00  0.00     0.031 C 
ATOM     39  C   UNL A   1      43.612  25.849  27.207  1.00  0.00     0.029 A 
ATOM     40  N   UNL A   1      43.515  27.891  28.105  1.00  0.00    -0.354 N 
ATOM     41  C   UNL A   1      39.860  29.411  29.851  1.00  0.00     0.074 A 
ATOM     42  C   UNL A   1      38.872  28.360  29.957  1.00  0.00     0.031 C 
ATOM     43  C   UNL A   1      44.840  26.383  27.124  1.00  0.00     0.029 A 
ATOM     44  C   UNL A   1      44.795  27.753  27.613  1.00  0.00     0.049 A 
ATOM     45  H   UNL A   1      43.204  28.697  28.577  1.00  0.00     0.167 HD
ATOM     46  C   UNL A   1      39.704  30.666  30.342  1.00  0.00     0.034 A 
ATOM     47  C   UNL A   1      45.803  28.643  27.506  1.00  0.00     0.034 A 
ATOM     48  C   UNL A   1      40.717  31.692  30.264  1.00  0.00     0.049 A 
ATOM     49  C   UNL A   1      45.572  30.056  27.980  1.00  0.00     0.074 A 
ATOM     50  C   UNL A   1      40.658  33.001  30.713  1.00  0.00     0.029 A 
ATOM     51  N   UNL A   1      41.981  31.521  29.715  1.00  0.00    -0.354 N 
ATOM     52  N   UNL A   1      44.505  30.574  28.544  1.00  0.00    -0.248 NA
ATOM     53  C   UNL A   1      46.676  31.006  27.794  1.00  0.00     0.031 C 
ATOM     54  C   UNL A   1      41.860  33.635  30.386  1.00  0.00     0.029 A 
ATOM     55  C   UNL A   1      42.703  32.702  29.803  1.00  0.00     0.049 A 
ATOM     56  H   UNL A   1      42.317  30.684  29.320  1.00  0.00     0.167 HD
ATOM     57  C   UNL A   1      44.829  31.903  28.810  1.00  0.00     0.074 A 
ATOM     58  C   UNL A   1      46.193  32.096  28.367  1.00  0.00     0.031 C 
ATOM     59  C   UNL A   1      44.066  32.877  29.367  1.00  0.00     0.034 A 
BRANCH  46  60
ATOM     60  C   UNL A   1      38.376  31.017  30.971  1.00  0.00     0.023 A 
ATOM     61  C   UNL A   1      37.340  31.616  30.234  1.00  0.00     0.031 A 
ATOM     62  C   UNL A   1      38.141  30.740  32.330  1.00  0.00     0.131 A 
ATOM     63  C   UNL A   1      36.140  31.968  30.873  1.00  0.00     0.055 A 
ATOM     64  C   UNL A   1      36.917  31.022  32.941  1.00  0.00     0.041 A 
ATOM     65  F   UNL A   1      39.099  30.187  33.091  1.00  0.00    -0.206 F 
ATOM     66  C   UNL A   1      35.911  31.650  32.213  1.00  0.00     0.022 A 
BRANCH  63  67
ATOM     67  S   UNL A   1      34.926  32.954  29.955  1.00  0.00     0.124 S 
ATOM     68  O   UNL A   1      34.383  31.963  29.030  1.00  0.00    -0.237 OA
ATOM     69  O   UNL A   1      34.026  33.408  31.008  1.00  0.00    -0.237 OA
ATOM     70  O   UNL A   1      35.735  34.000  29.331  1.00  0.00    -0.744 OA
ENDBRANCH  63  67
ENDBRANCH  46  60
BRANCH  47  71
ATOM     71  C   UNL A   1      47.096  28.267  26.858  1.00  0.00     0.023 A 
ATOM     72  C   UNL A   1      47.222  28.240  25.460  1.00  0.00     0.031 A 
ATOM     73  C   UNL A   1      48.199  27.839  27.622  1.00  0.00     0.131 A 
ATOM     74  C   UNL A   1      48.390  27.731  24.870  1.00  0.00     0.055 A 
ATOM     75  C   UNL A   1      49.389  27.410  27.031  1.00  0.00     0.041 A 
ATOM     76  F   UNL A   1      48.137  27.829  28.963  1.00  0.00    -0.206 F 
ATOM     77  C   UNL A   1      49.481  27.334  25.645  1.00  0.00     0.022 A 
BRANCH  74  78
ATOM     78  S   UNL A   1      48.401  27.452  23.079  1.00  0.00     0.124 S 
ATOM     79  O   UNL A   1      49.684  28.034  22.697  1.00  0.00    -0.237 OA
ATOM     80  O   UNL A   1      48.308  25.998  22.998  1.00  0.00    -0.237 OA
ATOM     81  O   UNL A   1      47.222  28.179  22.615  1.00  0.00    -0.744 OA
ENDBRANCH  74  78
ENDBRANCH  47  71
BRANCH  59  82
ATOM     82  C   UNL A   1      44.726  34.215  29.592  1.00  0.00     0.023 A 
ATOM     83  C   UNL A   1      44.515  35.303  28.729  1.00  0.00     0.031 A 
ATOM     84  C   UNL A   1      45.601  34.392  30.679  1.00  0.00     0.131 A 
ATOM     85  C   UNL A   1      45.220  36.499  28.927  1.00  0.00     0.055 A 
ATOM     86  C   UNL A   1      46.249  35.605  30.910  1.00  0.00     0.041 A 
ATOM     87  F   UNL A   1      45.841  33.385  31.534  1.00  0.00    -0.206 F 
ATOM     88  C   UNL A   1      46.071  36.663  30.022  1.00  0.00     0.022 A 
BRANCH  85  89
ATOM     89  S   UNL A   1      45.087  37.805  27.676  1.00  0.00     0.124 S 
ATOM     90  O   UNL A   1      43.956  37.346  26.876  1.00  0.00    -0.237 OA
ATOM     91  O   UNL A   1      44.852  38.994  28.489  1.00  0.00    -0.237 OA
ATOM     92  O   UNL A   1      46.383  37.766  27.001  1.00  0.00    -0.744 OA
ENDBRANCH  85  89
ENDBRANCH  59  82
ENDBRANCH  33  34
ENDBRANCH  26  28
ENDBRANCH  25  26
ENDBRANCH   1  25
TORSDOF 15
ENDMDL
