MODEL 1
REMARK VINA RESULT:     -12.2      0.000      0.000
REMARK SMILES CS(=O)(=O)c1ccc(/C=C(/C(=O)OCCOC(=O)c2ccc(-c3c4nc(c(-c5cc(S(=O)(=O)[O-])ccc5F)c5ccc([nH]5)c(-c5cc(S(=O)(=O)[O-])ccc5F)c5nc(c(-c6cc(S(=O)(=O)[O-])ccc6F)c6ccc3[nH]6)C=C5)C=C4)cc2)c2ccc(F)cc2)cc1
REMARK SMILES IDX 15 1 14 2 13 3 11 4 12 5 10 6 9 7 8 8 5 9 6 10 90 11 7 12
REMARK SMILES IDX 89 13 2 14 1 15 3 16 4 17 82 18 83 19 88 20 84 21 87 22
REMARK SMILES IDX 85 23 86 24 16 25 17 26 18 27 19 28 20 29 81 30 21 31 80 32
REMARK SMILES IDX 22 33 23 34 24 35 74 36 25 37 79 38 73 39 75 40 26 41 78 42
REMARK SMILES IDX 72 43 71 44 27 46 59 47 39 48 58 49 40 50 43 51 57 52 76 53
REMARK SMILES IDX 41 54 42 55 56 57 77 58 44 59 28 60 29 61 37 62 30 63 36 64
REMARK SMILES IDX 38 65 35 66 31 67 32 68 33 69 34 70 60 71 61 72 69 73 62 74
REMARK SMILES IDX 68 75 70 76 67 77 63 78 64 79 65 80 66 81 45 82 46 83 54 84
REMARK SMILES IDX 47 85 53 86 55 87 52 88 48 89 49 90 50 91 51 92
REMARK H PARENT 75 45 43 56
REMARK Flexibility Score: inf
ROOT
ATOM      1  C   UNL A   1      31.425  30.741  25.908  1.00  0.00     0.275 C 
ENDROOT
BRANCH   1   2
ATOM      2  C   UNL A   1      31.455  29.396  25.186  1.00  0.00     0.275 C 
BRANCH   2   3
ATOM      3  O   UNL A   1      32.377  28.491  25.827  1.00  0.00    -0.458 OA
BRANCH   3   4
ATOM      4  C   UNL A   1      31.804  27.438  26.467  1.00  0.00     0.338 C 
ATOM      5  O   UNL A   1      31.003  27.518  27.388  1.00  0.00    -0.246 OA
BRANCH   4   6
ATOM      6  C   UNL A   1      32.245  26.129  25.897  1.00  0.00     0.067 C 
ATOM      7  C   UNL A   1      32.335  25.066  26.729  1.00  0.00     0.024 C 
BRANCH   7   8
ATOM      8  C   UNL A   1      32.454  23.634  26.363  1.00  0.00    -0.025 A 
ATOM      9  C   UNL A   1      32.583  21.032  25.312  1.00  0.00     0.067 A 
ATOM     10  C   UNL A   1      33.735  21.631  25.810  1.00  0.00     0.021 A 
ATOM     11  C   UNL A   1      31.348  21.669  25.430  1.00  0.00     0.021 A 
ATOM     12  C   UNL A   1      33.655  22.912  26.359  1.00  0.00     0.009 A 
ATOM     13  C   UNL A   1      31.290  22.968  25.946  1.00  0.00     0.009 A 
BRANCH   9  14
ATOM     14  S   UNL A   1      32.700  19.455  24.510  1.00  0.00     0.175 S 
ATOM     15  C   UNL A   1      34.437  19.094  24.600  1.00  0.00     0.163 C 
ATOM     16  O   UNL A   1      32.351  19.642  23.116  1.00  0.00    -0.224 OA
ATOM     17  O   UNL A   1      31.988  18.489  25.329  1.00  0.00    -0.224 OA
ENDBRANCH   9  14
ENDBRANCH   7   8
BRANCH   6  18
ATOM     18  C   UNL A   1      32.374  26.020  24.433  1.00  0.00    -0.011 A 
ATOM     19  C   UNL A   1      33.657  25.924  23.860  1.00  0.00     0.012 A 
ATOM     20  C   UNL A   1      31.244  25.938  23.609  1.00  0.00     0.012 A 
ATOM     21  C   UNL A   1      33.801  25.689  22.491  1.00  0.00     0.040 A 
ATOM     22  C   UNL A   1      31.393  25.723  22.237  1.00  0.00     0.040 A 
ATOM     23  C   UNL A   1      32.667  25.586  21.694  1.00  0.00     0.123 A 
ATOM     24  F   UNL A   1      32.802  25.350  20.385  1.00  0.00    -0.207 F 
ENDBRANCH   6  18
ENDBRANCH   4   6
ENDBRANCH   3   4
ENDBRANCH   2   3
ENDBRANCH   1   2
BRANCH   1  25
ATOM     25  O   UNL A   1      32.274  30.691  27.068  1.00  0.00    -0.458 OA
BRANCH  25  26
ATOM     26  C   UNL A   1      33.003  31.804  27.312  1.00  0.00     0.338 C 
ATOM     27  O   UNL A   1      32.617  32.961  27.248  1.00  0.00    -0.246 OA
BRANCH  26  28
ATOM     28  C   UNL A   1      34.380  31.445  27.702  1.00  0.00     0.060 A 
ATOM     29  C   UNL A   1      34.715  30.117  27.945  1.00  0.00     0.016 A 
ATOM     30  C   UNL A   1      35.302  32.452  27.988  1.00  0.00     0.016 A 
ATOM     31  C   UNL A   1      35.907  29.813  28.603  1.00  0.00     0.010 A 
ATOM     32  C   UNL A   1      36.549  32.126  28.539  1.00  0.00     0.010 A 
ATOM     33  C   UNL A   1      36.850  30.806  28.919  1.00  0.00    -0.014 A 
BRANCH  33  34
ATOM     34  C   UNL A   1      38.092  30.479  29.696  1.00  0.00     0.031 A 
ATOM     35  C   UNL A   1      39.169  29.602  29.088  1.00  0.00     0.074 A 
ATOM     36  C   UNL A   1      38.299  30.977  30.935  1.00  0.00     0.049 A 
ATOM     37  N   UNL A   1      40.181  29.003  29.667  1.00  0.00    -0.248 NA
ATOM     38  C   UNL A   1      39.080  29.348  27.643  1.00  0.00     0.031 C 
ATOM     39  C   UNL A   1      37.400  31.886  31.648  1.00  0.00     0.029 A 
ATOM     40  N   UNL A   1      39.344  30.802  31.812  1.00  0.00    -0.354 N 
ATOM     41  C   UNL A   1      40.792  28.234  28.679  1.00  0.00     0.074 A 
ATOM     42  C   UNL A   1      40.037  28.448  27.462  1.00  0.00     0.031 C 
ATOM     43  C   UNL A   1      37.962  32.246  32.810  1.00  0.00     0.029 A 
ATOM     44  C   UNL A   1      39.193  31.489  32.996  1.00  0.00     0.049 A 
ATOM     45  H   UNL A   1      40.126  30.239  31.613  1.00  0.00     0.167 HD
ATOM     46  C   UNL A   1      41.875  27.419  28.781  1.00  0.00     0.034 A 
ATOM     47  C   UNL A   1      39.915  31.472  34.134  1.00  0.00     0.034 A 
ATOM     48  C   UNL A   1      42.673  27.283  29.978  1.00  0.00     0.049 A 
ATOM     49  C   UNL A   1      41.098  30.549  34.237  1.00  0.00     0.074 A 
ATOM     50  C   UNL A   1      43.802  26.504  30.179  1.00  0.00     0.029 A 
ATOM     51  N   UNL A   1      42.446  27.958  31.170  1.00  0.00    -0.354 N 
ATOM     52  N   UNL A   1      41.586  29.730  33.336  1.00  0.00    -0.248 NA
ATOM     53  C   UNL A   1      41.808  30.526  35.522  1.00  0.00     0.031 C 
ATOM     54  C   UNL A   1      44.222  26.665  31.505  1.00  0.00     0.029 A 
ATOM     55  C   UNL A   1      43.399  27.598  32.113  1.00  0.00     0.049 A 
ATOM     56  H   UNL A   1      41.715  28.599  31.325  1.00  0.00     0.167 HD
ATOM     57  C   UNL A   1      42.660  29.092  33.947  1.00  0.00     0.074 A 
ATOM     58  C   UNL A   1      42.767  29.644  35.282  1.00  0.00     0.031 C 
ATOM     59  C   UNL A   1      43.480  28.131  33.452  1.00  0.00     0.034 A 
BRANCH  46  60
ATOM     60  C   UNL A   1      42.224  26.557  27.588  1.00  0.00     0.023 A 
ATOM     61  C   UNL A   1      41.805  25.222  27.466  1.00  0.00     0.031 A 
ATOM     62  C   UNL A   1      43.008  27.094  26.548  1.00  0.00     0.131 A 
ATOM     63  C   UNL A   1      42.225  24.453  26.368  1.00  0.00     0.055 A 
ATOM     64  C   UNL A   1      43.356  26.349  25.420  1.00  0.00     0.041 A 
ATOM     65  F   UNL A   1      43.455  28.359  26.613  1.00  0.00    -0.206 F 
ATOM     66  C   UNL A   1      42.977  25.014  25.333  1.00  0.00     0.022 A 
BRANCH  63  67
ATOM     67  S   UNL A   1      41.896  22.669  26.378  1.00  0.00     0.124 S 
ATOM     68  O   UNL A   1      42.550  22.241  25.144  1.00  0.00    -0.237 OA
ATOM     69  O   UNL A   1      42.529  22.239  27.619  1.00  0.00    -0.237 OA
ATOM     70  O   UNL A   1      40.436  22.589  26.361  1.00  0.00    -0.744 OA
ENDBRANCH  63  67
ENDBRANCH  46  60
BRANCH  47  71
ATOM     71  C   UNL A   1      39.480  32.284  35.308  1.00  0.00     0.023 A 
ATOM     72  C   UNL A   1      39.892  33.617  35.466  1.00  0.00     0.031 A 
ATOM     73  C   UNL A   1      38.656  31.726  36.305  1.00  0.00     0.131 A 
ATOM     74  C   UNL A   1      39.497  34.339  36.604  1.00  0.00     0.055 A 
ATOM     75  C   UNL A   1      38.217  32.467  37.402  1.00  0.00     0.041 A 
ATOM     76  F   UNL A   1      38.239  30.453  36.207  1.00  0.00    -0.206 F 
ATOM     77  C   UNL A   1      38.646  33.780  37.560  1.00  0.00     0.022 A 
BRANCH  74  78
ATOM     78  S   UNL A   1      40.165  36.007  36.852  1.00  0.00     0.124 S 
ATOM     79  O   UNL A   1      41.569  35.727  37.131  1.00  0.00    -0.237 OA
ATOM     80  O   UNL A   1      39.879  36.644  35.571  1.00  0.00    -0.237 OA
ATOM     81  O   UNL A   1      39.393  36.517  37.984  1.00  0.00    -0.744 OA
ENDBRANCH  74  78
ENDBRANCH  47  71
BRANCH  59  82
ATOM     82  C   UNL A   1      44.581  27.645  34.361  1.00  0.00     0.023 A 
ATOM     83  C   UNL A   1      44.400  26.535  35.206  1.00  0.00     0.031 A 
ATOM     84  C   UNL A   1      45.812  28.323  34.410  1.00  0.00     0.131 A 
ATOM     85  C   UNL A   1      45.413  26.172  36.106  1.00  0.00     0.055 A 
ATOM     86  C   UNL A   1      46.835  27.923  35.269  1.00  0.00     0.041 A 
ATOM     87  F   UNL A   1      46.035  29.390  33.626  1.00  0.00    -0.206 F 
ATOM     88  C   UNL A   1      46.634  26.850  36.133  1.00  0.00     0.022 A 
BRANCH  85  89
ATOM     89  S   UNL A   1      45.079  24.857  37.311  1.00  0.00     0.124 S 
ATOM     90  O   UNL A   1      43.708  25.154  37.713  1.00  0.00    -0.237 OA
ATOM     91  O   UNL A   1      45.262  23.648  36.513  1.00  0.00    -0.237 OA
ATOM     92  O   UNL A   1      46.088  25.073  38.345  1.00  0.00    -0.744 OA
ENDBRANCH  85  89
ENDBRANCH  59  82
ENDBRANCH  33  34
ENDBRANCH  26  28
ENDBRANCH  25  26
ENDBRANCH   1  25
TORSDOF 17
ENDMDL
MODEL 2
REMARK VINA RESULT:     -12.1      1.666      2.315
REMARK SMILES CS(=O)(=O)c1ccc(/C=C(/C(=O)OCCOC(=O)c2ccc(-c3c4nc(c(-c5cc(S(=O)(=O)[O-])ccc5F)c5ccc([nH]5)c(-c5cc(S(=O)(=O)[O-])ccc5F)c5nc(c(-c6cc(S(=O)(=O)[O-])ccc6F)c6ccc3[nH]6)C=C5)C=C4)cc2)c2ccc(F)cc2)cc1
REMARK SMILES IDX 15 1 14 2 13 3 11 4 12 5 10 6 9 7 8 8 5 9 6 10 90 11 7 12
REMARK SMILES IDX 89 13 2 14 1 15 3 16 4 17 82 18 83 19 88 20 84 21 87 22
REMARK SMILES IDX 85 23 86 24 16 25 17 26 18 27 19 28 20 29 81 30 21 31 80 32
REMARK SMILES IDX 22 33 23 34 24 35 74 36 25 37 79 38 73 39 75 40 26 41 78 42
REMARK SMILES IDX 72 43 71 44 27 46 59 47 39 48 58 49 40 50 43 51 57 52 76 53
REMARK SMILES IDX 41 54 42 55 56 57 77 58 44 59 28 60 29 61 37 62 30 63 36 64
REMARK SMILES IDX 38 65 35 66 31 67 32 68 33 69 34 70 60 71 61 72 69 73 62 74
REMARK SMILES IDX 68 75 70 76 67 77 63 78 64 79 65 80 66 81 45 82 46 83 54 84
REMARK SMILES IDX 47 85 53 86 55 87 52 88 48 89 49 90 50 91 51 92
REMARK H PARENT 75 45 43 56
REMARK Flexibility Score: inf
ROOT
ATOM      1  C   UNL A   1      32.901  28.666  25.162  1.00  0.00     0.275 C 
ENDROOT
BRANCH   1   2
ATOM      2  C   UNL A   1      33.497  27.982  23.933  1.00  0.00     0.275 C 
BRANCH   2   3
ATOM      3  O   UNL A   1      32.683  26.862  23.526  1.00  0.00    -0.458 OA
BRANCH   3   4
ATOM      4  C   UNL A   1      33.297  25.967  22.709  1.00  0.00     0.338 C 
ATOM      5  O   UNL A   1      33.757  26.216  21.602  1.00  0.00    -0.246 OA
BRANCH   4   6
ATOM      6  C   UNL A   1      33.381  24.609  23.326  1.00  0.00     0.067 C 
ATOM      7  C   UNL A   1      32.305  23.794  23.231  1.00  0.00     0.024 C 
BRANCH   7   8
ATOM      8  C   UNL A   1      32.245  22.335  23.488  1.00  0.00    -0.025 A 
ATOM      9  C   UNL A   1      32.468  19.551  23.786  1.00  0.00     0.067 A 
ATOM     10  C   UNL A   1      32.495  20.367  24.911  1.00  0.00     0.021 A 
ATOM     11  C   UNL A   1      32.223  20.094  22.525  1.00  0.00     0.021 A 
ATOM     12  C   UNL A   1      32.352  21.748  24.756  1.00  0.00     0.009 A 
ATOM     13  C   UNL A   1      32.121  21.481  22.381  1.00  0.00     0.009 A 
BRANCH   9  14
ATOM     14  S   UNL A   1      32.765  17.812  23.966  1.00  0.00     0.175 S 
ATOM     15  C   UNL A   1      34.471  17.751  24.459  1.00  0.00     0.163 C 
ATOM     16  O   UNL A   1      32.654  17.207  22.653  1.00  0.00    -0.224 OA
ATOM     17  O   UNL A   1      31.951  17.337  25.072  1.00  0.00    -0.224 OA
ENDBRANCH   9  14
ENDBRANCH   7   8
BRANCH   6  18
ATOM     18  C   UNL A   1      34.689  24.161  23.838  1.00  0.00    -0.011 A 
ATOM     19  C   UNL A   1      35.069  24.504  25.149  1.00  0.00     0.012 A 
ATOM     20  C   UNL A   1      35.526  23.341  23.069  1.00  0.00     0.012 A 
ATOM     21  C   UNL A   1      36.242  23.985  25.700  1.00  0.00     0.040 A 
ATOM     22  C   UNL A   1      36.708  22.839  23.619  1.00  0.00     0.040 A 
ATOM     23  C   UNL A   1      37.047  23.153  24.931  1.00  0.00     0.123 A 
ATOM     24  F   UNL A   1      38.164  22.644  25.462  1.00  0.00    -0.207 F 
ENDBRANCH   6  18
ENDBRANCH   4   6
ENDBRANCH   3   4
ENDBRANCH   2   3
ENDBRANCH   1   2
BRANCH   1  25
ATOM     25  O   UNL A   1      33.592  29.902  25.415  1.00  0.00    -0.458 OA
BRANCH  25  26
ATOM     26  C   UNL A   1      33.210  30.572  26.525  1.00  0.00     0.338 C 
ATOM     27  O   UNL A   1      32.126  31.097  26.729  1.00  0.00    -0.246 OA
BRANCH  26  28
ATOM     28  C   UNL A   1      34.298  30.582  27.522  1.00  0.00     0.060 A 
ATOM     29  C   UNL A   1      35.102  31.707  27.671  1.00  0.00     0.016 A 
ATOM     30  C   UNL A   1      34.626  29.406  28.198  1.00  0.00     0.016 A 
ATOM     31  C   UNL A   1      36.303  31.612  28.376  1.00  0.00     0.010 A 
ATOM     32  C   UNL A   1      35.773  29.356  29.003  1.00  0.00     0.010 A 
ATOM     33  C   UNL A   1      36.669  30.438  29.054  1.00  0.00    -0.014 A 
BRANCH  33  34
ATOM     34  C   UNL A   1      37.998  30.322  29.743  1.00  0.00     0.031 A 
ATOM     35  C   UNL A   1      39.152  29.605  29.069  1.00  0.00     0.074 A 
ATOM     36  C   UNL A   1      38.212  30.873  30.958  1.00  0.00     0.049 A 
ATOM     37  N   UNL A   1      40.282  29.179  29.580  1.00  0.00    -0.248 NA
ATOM     38  C   UNL A   1      39.003  29.307  27.637  1.00  0.00     0.031 C 
ATOM     39  C   UNL A   1      37.237  31.650  31.724  1.00  0.00     0.029 A 
ATOM     40  N   UNL A   1      39.330  30.879  31.759  1.00  0.00    -0.354 N 
ATOM     41  C   UNL A   1      40.933  28.490  28.560  1.00  0.00     0.074 A 
ATOM     42  C   UNL A   1      40.071  28.560  27.398  1.00  0.00     0.031 C 
ATOM     43  C   UNL A   1      37.817  32.118  32.837  1.00  0.00     0.029 A 
ATOM     44  C   UNL A   1      39.159  31.561  32.943  1.00  0.00     0.049 A 
ATOM     45  H   UNL A   1      40.173  30.437  31.510  1.00  0.00     0.167 HD
ATOM     46  C   UNL A   1      42.132  27.852  28.592  1.00  0.00     0.034 A 
ATOM     47  C   UNL A   1      39.953  31.680  34.026  1.00  0.00     0.034 A 
ATOM     48  C   UNL A   1      43.023  27.866  29.731  1.00  0.00     0.049 A 
ATOM     49  C   UNL A   1      41.268  30.950  34.054  1.00  0.00     0.074 A 
ATOM     50  C   UNL A   1      44.269  27.272  29.858  1.00  0.00     0.029 A 
ATOM     51  N   UNL A   1      42.779  28.525  30.928  1.00  0.00    -0.354 N 
ATOM     52  N   UNL A   1      41.811  30.194  33.129  1.00  0.00    -0.248 NA
ATOM     53  C   UNL A   1      42.060  31.064  35.284  1.00  0.00     0.031 C 
ATOM     54  C   UNL A   1      44.751  27.525  31.148  1.00  0.00     0.029 A 
ATOM     55  C   UNL A   1      43.840  28.335  31.803  1.00  0.00     0.049 A 
ATOM     56  H   UNL A   1      41.971  29.051  31.127  1.00  0.00     0.167 HD
ATOM     57  C   UNL A   1      43.010  29.741  33.668  1.00  0.00     0.074 A 
ATOM     58  C   UNL A   1      43.124  30.333  34.986  1.00  0.00     0.031 C 
ATOM     59  C   UNL A   1      43.931  28.905  33.126  1.00  0.00     0.034 A 
BRANCH  46  60
ATOM     60  C   UNL A   1      42.525  27.026  27.387  1.00  0.00     0.023 A 
ATOM     61  C   UNL A   1      42.219  25.661  27.269  1.00  0.00     0.031 A 
ATOM     62  C   UNL A   1      43.235  27.631  26.332  1.00  0.00     0.131 A 
ATOM     63  C   UNL A   1      42.677  24.933  26.158  1.00  0.00     0.055 A 
ATOM     64  C   UNL A   1      43.618  26.921  25.192  1.00  0.00     0.041 A 
ATOM     65  F   UNL A   1      43.573  28.930  26.392  1.00  0.00    -0.206 F 
ATOM     66  C   UNL A   1      43.353  25.560  25.108  1.00  0.00     0.022 A 
BRANCH  63  67
ATOM     67  S   UNL A   1      42.502  23.127  26.168  1.00  0.00     0.124 S 
ATOM     68  O   UNL A   1      42.892  22.785  24.802  1.00  0.00    -0.237 OA
ATOM     69  O   UNL A   1      43.432  22.727  27.216  1.00  0.00    -0.237 OA
ATOM     70  O   UNL A   1      41.088  22.921  26.474  1.00  0.00    -0.744 OA
ENDBRANCH  63  67
ENDBRANCH  46  60
BRANCH  47  71
ATOM     71  C   UNL A   1      39.482  32.443  35.219  1.00  0.00     0.023 A 
ATOM     72  C   UNL A   1      39.879  33.771  35.438  1.00  0.00     0.031 A 
ATOM     73  C   UNL A   1      38.637  31.841  36.171  1.00  0.00     0.131 A 
ATOM     74  C   UNL A   1      39.449  34.446  36.592  1.00  0.00     0.055 A 
ATOM     75  C   UNL A   1      38.164  32.536  37.284  1.00  0.00     0.041 A 
ATOM     76  F   UNL A   1      38.233  30.570  36.014  1.00  0.00    -0.206 F 
ATOM     77  C   UNL A   1      38.578  33.844  37.504  1.00  0.00     0.022 A 
BRANCH  74  78
ATOM     78  S   UNL A   1      40.097  36.108  36.922  1.00  0.00     0.124 S 
ATOM     79  O   UNL A   1      39.291  36.521  38.065  1.00  0.00    -0.237 OA
ATOM     80  O   UNL A   1      41.506  35.837  37.195  1.00  0.00    -0.237 OA
ATOM     81  O   UNL A   1      39.834  36.829  35.678  1.00  0.00    -0.744 OA
ENDBRANCH  74  78
ENDBRANCH  47  71
BRANCH  59  82
ATOM     82  C   UNL A   1      45.154  28.612  33.959  1.00  0.00     0.023 A 
ATOM     83  C   UNL A   1      45.199  27.516  34.839  1.00  0.00     0.031 A 
ATOM     84  C   UNL A   1      46.273  29.462  33.899  1.00  0.00     0.131 A 
ATOM     85  C   UNL A   1      46.317  27.332  35.667  1.00  0.00     0.055 A 
ATOM     86  C   UNL A   1      47.403  29.241  34.686  1.00  0.00     0.041 A 
ATOM     87  F   UNL A   1      46.280  30.524  33.078  1.00  0.00    -0.206 F 
ATOM     88  C   UNL A   1      47.425  28.180  35.586  1.00  0.00     0.022 A 
BRANCH  85  89
ATOM     89  S   UNL A   1      46.266  26.023  36.922  1.00  0.00     0.124 S 
ATOM     90  O   UNL A   1      47.534  26.219  37.618  1.00  0.00    -0.237 OA
ATOM     91  O   UNL A   1      45.064  26.361  37.678  1.00  0.00    -0.237 OA
ATOM     92  O   UNL A   1      46.176  24.795  36.134  1.00  0.00    -0.744 OA
ENDBRANCH  85  89
ENDBRANCH  59  82
ENDBRANCH  33  34
ENDBRANCH  26  28
ENDBRANCH  25  26
ENDBRANCH   1  25
TORSDOF 17
ENDMDL
MODEL 3
REMARK VINA RESULT:     -12.1      5.202     10.062
REMARK SMILES CS(=O)(=O)c1ccc(/C=C(/C(=O)OCCOC(=O)c2ccc(-c3c4nc(c(-c5cc(S(=O)(=O)[O-])ccc5F)c5ccc([nH]5)c(-c5cc(S(=O)(=O)[O-])ccc5F)c5nc(c(-c6cc(S(=O)(=O)[O-])ccc6F)c6ccc3[nH]6)C=C5)C=C4)cc2)c2ccc(F)cc2)cc1
REMARK SMILES IDX 15 1 14 2 13 3 11 4 12 5 10 6 9 7 8 8 5 9 6 10 90 11 7 12
REMARK SMILES IDX 89 13 2 14 1 15 3 16 4 17 82 18 83 19 88 20 84 21 87 22
REMARK SMILES IDX 85 23 86 24 16 25 17 26 18 27 19 28 20 29 81 30 21 31 80 32
REMARK SMILES IDX 22 33 23 34 24 35 74 36 25 37 79 38 73 39 75 40 26 41 78 42
REMARK SMILES IDX 72 43 71 44 27 46 59 47 39 48 58 49 40 50 43 51 57 52 76 53
REMARK SMILES IDX 41 54 42 55 56 57 77 58 44 59 28 60 29 61 37 62 30 63 36 64
REMARK SMILES IDX 38 65 35 66 31 67 32 68 33 69 34 70 60 71 61 72 69 73 62 74
REMARK SMILES IDX 68 75 70 76 67 77 63 78 64 79 65 80 66 81 45 82 46 83 54 84
REMARK SMILES IDX 47 85 53 86 55 87 52 88 48 89 49 90 50 91 51 92
REMARK H PARENT 75 45 43 56
REMARK Flexibility Score: inf
ROOT
ATOM      1  C   UNL A   1      35.173  21.965  25.239  1.00  0.00     0.275 C 
ENDROOT
BRANCH   1   2
ATOM      2  C   UNL A   1      34.693  23.396  25.008  1.00  0.00     0.275 C 
BRANCH   2   3
ATOM      3  O   UNL A   1      33.947  23.875  26.147  1.00  0.00    -0.458 OA
BRANCH   3   4
ATOM      4  C   UNL A   1      32.599  23.918  25.980  1.00  0.00     0.338 C 
ATOM      5  O   UNL A   1      31.814  23.040  26.313  1.00  0.00    -0.246 OA
BRANCH   4   6
ATOM      6  C   UNL A   1      32.154  25.198  25.351  1.00  0.00     0.067 C 
ATOM      7  C   UNL A   1      31.352  25.133  24.263  1.00  0.00     0.024 C 
BRANCH   7   8
ATOM      8  C   UNL A   1      30.554  26.225  23.656  1.00  0.00    -0.025 A 
ATOM      9  C   UNL A   1      28.995  28.424  22.868  1.00  0.00     0.067 A 
ATOM     10  C   UNL A   1      30.319  28.336  22.453  1.00  0.00     0.021 A 
ATOM     11  C   UNL A   1      28.405  27.379  23.578  1.00  0.00     0.021 A 
ATOM     12  C   UNL A   1      31.077  27.224  22.824  1.00  0.00     0.009 A 
ATOM     13  C   UNL A   1      29.188  26.290  23.975  1.00  0.00     0.009 A 
BRANCH   9  14
ATOM     14  S   UNL A   1      28.063  29.887  22.498  1.00  0.00     0.175 S 
ATOM     15  C   UNL A   1      29.071  31.180  23.183  1.00  0.00     0.163 C 
ATOM     16  O   UNL A   1      26.830  29.828  23.256  1.00  0.00    -0.224 OA
ATOM     17  O   UNL A   1      28.039  30.042  21.053  1.00  0.00    -0.224 OA
ENDBRANCH   9  14
ENDBRANCH   7   8
BRANCH   6  18
ATOM     18  C   UNL A   1      32.453  26.457  26.057  1.00  0.00    -0.011 A 
ATOM     19  C   UNL A   1      33.654  27.135  25.777  1.00  0.00     0.012 A 
ATOM     20  C   UNL A   1      31.531  27.026  26.946  1.00  0.00     0.012 A 
ATOM     21  C   UNL A   1      33.900  28.391  26.334  1.00  0.00     0.040 A 
ATOM     22  C   UNL A   1      31.791  28.275  27.516  1.00  0.00     0.040 A 
ATOM     23  C   UNL A   1      32.963  28.951  27.194  1.00  0.00     0.123 A 
ATOM     24  F   UNL A   1      33.192  30.159  27.719  1.00  0.00    -0.207 F 
ENDBRANCH   6  18
ENDBRANCH   4   6
ENDBRANCH   3   4
ENDBRANCH   2   3
ENDBRANCH   1   2
BRANCH   1  25
ATOM     25  O   UNL A   1      36.243  21.959  26.201  1.00  0.00    -0.458 OA
BRANCH  25  26
ATOM     26  C   UNL A   1      37.432  21.493  25.755  1.00  0.00     0.338 C 
ATOM     27  O   UNL A   1      37.650  20.402  25.252  1.00  0.00    -0.246 OA
BRANCH  26  28
ATOM     28  C   UNL A   1      38.485  22.511  25.936  1.00  0.00     0.060 A 
ATOM     29  C   UNL A   1      39.605  22.230  26.710  1.00  0.00     0.016 A 
ATOM     30  C   UNL A   1      38.278  23.809  25.468  1.00  0.00     0.016 A 
ATOM     31  C   UNL A   1      40.434  23.271  27.132  1.00  0.00     0.010 A 
ATOM     32  C   UNL A   1      39.185  24.827  25.798  1.00  0.00     0.010 A 
ATOM     33  C   UNL A   1      40.244  24.590  26.691  1.00  0.00    -0.014 A 
BRANCH  33  34
ATOM     34  C   UNL A   1      41.093  25.713  27.213  1.00  0.00     0.031 A 
ATOM     35  C   UNL A   1      40.541  26.680  28.242  1.00  0.00     0.074 A 
ATOM     36  C   UNL A   1      42.372  25.876  26.808  1.00  0.00     0.049 A 
ATOM     37  N   UNL A   1      41.006  27.843  28.628  1.00  0.00    -0.248 NA
ATOM     38  C   UNL A   1      39.285  26.297  28.905  1.00  0.00     0.031 C 
ATOM     39  C   UNL A   1      43.086  25.005  25.872  1.00  0.00     0.029 A 
ATOM     40  N   UNL A   1      43.309  26.825  27.145  1.00  0.00    -0.354 N 
ATOM     41  C   UNL A   1      40.060  28.366  29.507  1.00  0.00     0.074 A 
ATOM     42  C   UNL A   1      38.996  27.388  29.599  1.00  0.00     0.031 C 
ATOM     43  C   UNL A   1      44.359  25.411  25.771  1.00  0.00     0.029 A 
ATOM     44  C   UNL A   1      44.523  26.652  26.517  1.00  0.00     0.049 A 
ATOM     45  H   UNL A   1      43.129  27.559  27.775  1.00  0.00     0.167 HD
ATOM     46  C   UNL A   1      40.075  29.554  30.167  1.00  0.00     0.034 A 
ATOM     47  C   UNL A   1      45.626  27.425  26.481  1.00  0.00     0.034 A 
ATOM     48  C   UNL A   1      41.184  30.481  30.137  1.00  0.00     0.049 A 
ATOM     49  C   UNL A   1      45.617  28.746  27.200  1.00  0.00     0.074 A 
ATOM     50  C   UNL A   1      41.309  31.698  30.787  1.00  0.00     0.029 A 
ATOM     51  N   UNL A   1      42.369  30.285  29.439  1.00  0.00    -0.354 N 
ATOM     52  N   UNL A   1      44.664  29.287  27.921  1.00  0.00    -0.248 NA
ATOM     53  C   UNL A   1      46.823  29.575  27.073  1.00  0.00     0.031 C 
ATOM     54  C   UNL A   1      42.543  32.262  30.440  1.00  0.00     0.029 A 
ATOM     55  C   UNL A   1      43.219  31.367  29.629  1.00  0.00     0.049 A 
ATOM     56  H   UNL A   1      42.576  29.494  28.891  1.00  0.00     0.167 HD
ATOM     57  C   UNL A   1      45.155  30.521  28.333  1.00  0.00     0.074 A 
ATOM     58  C   UNL A   1      46.500  30.631  27.805  1.00  0.00     0.031 C 
ATOM     59  C   UNL A   1      44.547  31.481  29.075  1.00  0.00     0.034 A 
BRANCH  46  60
ATOM     60  C   UNL A   1      38.829  29.955  30.925  1.00  0.00     0.023 A 
ATOM     61  C   UNL A   1      37.831  30.772  30.370  1.00  0.00     0.031 A 
ATOM     62  C   UNL A   1      38.647  29.508  32.249  1.00  0.00     0.131 A 
ATOM     63  C   UNL A   1      36.734  31.170  31.152  1.00  0.00     0.055 A 
ATOM     64  C   UNL A   1      37.515  29.841  32.995  1.00  0.00     0.041 A 
ATOM     65  F   UNL A   1      39.574  28.739  32.843  1.00  0.00    -0.206 F 
ATOM     66  C   UNL A   1      36.557  30.689  32.452  1.00  0.00     0.022 A 
BRANCH  63  67
ATOM     67  S   UNL A   1      35.612  32.436  30.498  1.00  0.00     0.124 S 
ATOM     68  O   UNL A   1      34.493  32.352  31.435  1.00  0.00    -0.237 OA
ATOM     69  O   UNL A   1      36.422  33.645  30.577  1.00  0.00    -0.237 OA
ATOM     70  O   UNL A   1      35.317  31.968  29.145  1.00  0.00    -0.744 OA
ENDBRANCH  63  67
ENDBRANCH  46  60
BRANCH  47  71
ATOM     71  C   UNL A   1      46.798  27.018  25.653  1.00  0.00     0.023 A 
ATOM     72  C   UNL A   1      47.016  27.564  24.378  1.00  0.00     0.031 A 
ATOM     73  C   UNL A   1      47.713  26.055  26.122  1.00  0.00     0.131 A 
ATOM     74  C   UNL A   1      48.107  27.129  23.609  1.00  0.00     0.055 A 
ATOM     75  C   UNL A   1      48.828  25.670  25.379  1.00  0.00     0.041 A 
ATOM     76  F   UNL A   1      47.548  25.495  27.332  1.00  0.00    -0.206 F 
ATOM     77  C   UNL A   1      49.025  26.202  24.110  1.00  0.00     0.022 A 
BRANCH  74  78
ATOM     78  S   UNL A   1      48.277  27.742  21.911  1.00  0.00     0.124 S 
ATOM     79  O   UNL A   1      49.421  28.638  22.031  1.00  0.00    -0.237 OA
ATOM     80  O   UNL A   1      48.501  26.510  21.162  1.00  0.00    -0.237 OA
ATOM     81  O   UNL A   1      46.995  28.397  21.656  1.00  0.00    -0.744 OA
ENDBRANCH  74  78
ENDBRANCH  47  71
BRANCH  59  82
ATOM     82  C   UNL A   1      45.354  32.718  29.376  1.00  0.00     0.023 A 
ATOM     83  C   UNL A   1      45.415  33.795  28.473  1.00  0.00     0.031 A 
ATOM     84  C   UNL A   1      46.103  32.804  30.563  1.00  0.00     0.131 A 
ATOM     85  C   UNL A   1      46.253  34.887  28.745  1.00  0.00     0.055 A 
ATOM     86  C   UNL A   1      46.891  33.918  30.853  1.00  0.00     0.041 A 
ATOM     87  F   UNL A   1      46.083  31.803  31.457  1.00  0.00    -0.206 F 
ATOM     88  C   UNL A   1      46.981  34.961  29.936  1.00  0.00     0.022 A 
BRANCH  85  89
ATOM     89  S   UNL A   1      46.453  36.170  27.478  1.00  0.00     0.124 S 
ATOM     90  O   UNL A   1      47.867  36.044  27.139  1.00  0.00    -0.237 OA
ATOM     91  O   UNL A   1      45.510  35.742  26.449  1.00  0.00    -0.237 OA
ATOM     92  O   UNL A   1      46.090  37.402  28.175  1.00  0.00    -0.744 OA
ENDBRANCH  85  89
ENDBRANCH  59  82
ENDBRANCH  33  34
ENDBRANCH  26  28
ENDBRANCH  25  26
ENDBRANCH   1  25
TORSDOF 17
ENDMDL
