MODEL 1
REMARK VINA RESULT:     -12.3      0.000      0.000
REMARK SMILES O=C(OCCOC(=O)c1cc(NC(=O)c2cc([N+](=O)[O-])ccc2N2CCCC2)ccc1Cl)c1ccc(-c2c3nc(c(-c4cc(S(=O)(=O)[O-])ccc4F)c4ccc([nH]4)c(-c4cc(S(=O)(=O)[O-])ccc4F)c4nc(c(-c5cc(S(=O)(=O)[O-])ccc5F)c5ccc2[nH]5)C=C4)C=C3)cc1
REMARK SMILES IDX 4 1 3 2 2 3 1 4 33 5 34 6 95 7 35 8 94 9 36 10 37 11 38 12
REMARK SMILES IDX 88 13 39 14 93 15 87 16 89 17 40 18 92 19 86 20 85 21 41 23
REMARK SMILES IDX 73 24 53 25 72 26 54 27 57 28 71 29 90 30 55 31 56 32 70 34
REMARK SMILES IDX 91 35 58 36 42 37 43 38 51 39 44 40 50 41 52 42 49 43 45 44
REMARK SMILES IDX 46 45 47 46 48 47 74 48 75 49 83 50 76 51 82 52 84 53 81 54
REMARK SMILES IDX 77 55 78 56 79 57 80 58 59 59 60 60 68 61 61 62 67 63 69 64
REMARK SMILES IDX 66 65 62 66 63 67 64 68 65 69 5 70 6 71 7 72 8 73 9 74 10 75
REMARK SMILES IDX 31 76 11 77 30 78 32 79 29 80 12 81 13 82 14 84 15 85 16 86
REMARK SMILES IDX 23 87 17 88 22 89 21 90 24 91 25 92 28 93 26 94 27 95 18 96
REMARK SMILES IDX 19 97 20 98
REMARK H PARENT 89 22 57 33 12 83
REMARK Flexibility Score: inf
ROOT
ATOM      1  C   UNL A   1      31.852  29.650  27.246  1.00  0.00     0.275 C 
ENDROOT
BRANCH   1   2
ATOM      2  O   UNL A   1      32.879  30.400  26.588  1.00  0.00    -0.458 OA
BRANCH   2   3
ATOM      3  C   UNL A   1      33.565  31.311  27.308  1.00  0.00     0.338 C 
ATOM      4  O   UNL A   1      32.999  32.202  27.927  1.00  0.00    -0.246 OA
BRANCH   3   5
ATOM      5  C   UNL A   1      35.024  31.073  27.477  1.00  0.00     0.060 A 
ATOM      6  C   UNL A   1      35.899  31.976  28.087  1.00  0.00     0.016 A 
ATOM      7  C   UNL A   1      35.454  29.771  27.257  1.00  0.00     0.016 A 
ATOM      8  C   UNL A   1      37.143  31.546  28.575  1.00  0.00     0.010 A 
ATOM      9  C   UNL A   1      36.640  29.328  27.846  1.00  0.00     0.010 A 
ATOM     10  C   UNL A   1      37.465  30.185  28.597  1.00  0.00    -0.014 A 
BRANCH  10  11
ATOM     11  C   UNL A   1      38.539  29.638  29.505  1.00  0.00     0.031 A 
ATOM     12  C   UNL A   1      38.645  30.102  30.942  1.00  0.00     0.074 A 
ATOM     13  C   UNL A   1      39.553  28.882  29.010  1.00  0.00     0.049 A 
ATOM     14  N   UNL A   1      39.628  29.944  31.795  1.00  0.00    -0.248 NA
ATOM     15  C   UNL A   1      37.558  30.950  31.446  1.00  0.00     0.031 C 
ATOM     16  C   UNL A   1      39.729  28.482  27.608  1.00  0.00     0.029 A 
ATOM     17  N   UNL A   1      40.658  28.332  29.627  1.00  0.00    -0.354 N 
ATOM     18  C   UNL A   1      39.306  30.741  32.888  1.00  0.00     0.074 A 
ATOM     19  C   UNL A   1      38.120  31.482  32.520  1.00  0.00     0.031 C 
ATOM     20  C   UNL A   1      40.831  27.725  27.487  1.00  0.00     0.029 A 
ATOM     21  C   UNL A   1      41.486  27.621  28.782  1.00  0.00     0.049 A 
ATOM     22  H   UNL A   1      40.840  28.439  30.590  1.00  0.00     0.167 HD
ATOM     23  C   UNL A   1      39.876  30.789  34.119  1.00  0.00     0.034 A 
ATOM     24  C   UNL A   1      42.643  26.962  29.010  1.00  0.00     0.034 A 
ATOM     25  C   UNL A   1      40.947  29.923  34.534  1.00  0.00     0.049 A 
ATOM     26  C   UNL A   1      43.200  26.924  30.412  1.00  0.00     0.074 A 
ATOM     27  C   UNL A   1      41.432  29.705  35.811  1.00  0.00     0.029 A 
ATOM     28  N   UNL A   1      41.680  29.112  33.682  1.00  0.00    -0.354 N 
ATOM     29  N   UNL A   1      42.763  27.539  31.486  1.00  0.00    -0.248 NA
ATOM     30  C   UNL A   1      44.388  26.087  30.642  1.00  0.00     0.031 C 
ATOM     31  C   UNL A   1      42.479  28.781  35.729  1.00  0.00     0.029 A 
ATOM     32  C   UNL A   1      42.620  28.398  34.406  1.00  0.00     0.049 A 
ATOM     33  H   UNL A   1      41.552  29.052  32.709  1.00  0.00     0.167 HD
ATOM     34  C   UNL A   1      43.591  27.119  32.524  1.00  0.00     0.074 A 
ATOM     35  C   UNL A   1      44.552  26.202  31.952  1.00  0.00     0.031 C 
ATOM     36  C   UNL A   1      43.551  27.458  33.835  1.00  0.00     0.034 A 
BRANCH  23  37
ATOM     37  C   UNL A   1      39.283  31.744  35.127  1.00  0.00     0.023 A 
ATOM     38  C   UNL A   1      39.718  33.078  35.199  1.00  0.00     0.031 A 
ATOM     39  C   UNL A   1      38.312  31.323  36.051  1.00  0.00     0.131 A 
ATOM     40  C   UNL A   1      39.303  33.897  36.255  1.00  0.00     0.055 A 
ATOM     41  C   UNL A   1      37.812  32.183  37.034  1.00  0.00     0.041 A 
ATOM     42  F   UNL A   1      37.849  30.063  36.031  1.00  0.00    -0.206 F 
ATOM     43  C   UNL A   1      38.329  33.471  37.159  1.00  0.00     0.022 A 
BRANCH  40  44
ATOM     44  S   UNL A   1      40.202  35.447  36.527  1.00  0.00     0.124 S 
ATOM     45  O   UNL A   1      41.583  35.020  36.315  1.00  0.00    -0.237 OA
ATOM     46  O   UNL A   1      39.644  36.322  35.503  1.00  0.00    -0.237 OA
ATOM     47  O   UNL A   1      39.867  35.800  37.904  1.00  0.00    -0.744 OA
ENDBRANCH  40  44
ENDBRANCH  23  37
BRANCH  24  48
ATOM     48  C   UNL A   1      43.371  26.268  27.903  1.00  0.00     0.023 A 
ATOM     49  C   UNL A   1      43.013  24.966  27.514  1.00  0.00     0.031 A 
ATOM     50  C   UNL A   1      44.491  26.853  27.288  1.00  0.00     0.131 A 
ATOM     51  C   UNL A   1      43.815  24.259  26.603  1.00  0.00     0.055 A 
ATOM     52  C   UNL A   1      45.256  26.164  26.342  1.00  0.00     0.041 A 
ATOM     53  F   UNL A   1      44.863  28.104  27.601  1.00  0.00    -0.206 F 
ATOM     54  C   UNL A   1      44.931  24.852  26.011  1.00  0.00     0.022 A 
BRANCH  51  55
ATOM     55  S   UNL A   1      43.446  22.507  26.302  1.00  0.00     0.124 S 
ATOM     56  O   UNL A   1      44.784  21.939  26.187  1.00  0.00    -0.237 OA
ATOM     57  O   UNL A   1      42.697  22.150  27.502  1.00  0.00    -0.237 OA
ATOM     58  O   UNL A   1      42.668  22.533  25.065  1.00  0.00    -0.744 OA
ENDBRANCH  51  55
ENDBRANCH  24  48
BRANCH  36  59
ATOM     59  C   UNL A   1      44.520  26.773  34.760  1.00  0.00     0.023 A 
ATOM     60  C   UNL A   1      45.759  27.345  35.087  1.00  0.00     0.031 A 
ATOM     61  C   UNL A   1      44.178  25.540  35.345  1.00  0.00     0.131 A 
ATOM     62  C   UNL A   1      46.629  26.669  35.955  1.00  0.00     0.055 A 
ATOM     63  C   UNL A   1      45.026  24.897  36.247  1.00  0.00     0.041 A 
ATOM     64  F   UNL A   1      43.004  24.952  35.063  1.00  0.00    -0.206 F 
ATOM     65  C   UNL A   1      46.262  25.459  36.551  1.00  0.00     0.022 A 
BRANCH  62  66
ATOM     66  S   UNL A   1      48.270  27.375  36.265  1.00  0.00     0.124 S 
ATOM     67  O   UNL A   1      49.150  26.302  35.812  1.00  0.00    -0.237 OA
ATOM     68  O   UNL A   1      48.256  28.578  35.441  1.00  0.00    -0.237 OA
ATOM     69  O   UNL A   1      48.273  27.613  37.708  1.00  0.00    -0.744 OA
ENDBRANCH  62  66
ENDBRANCH  36  59
ENDBRANCH  10  11
ENDBRANCH   3   5
ENDBRANCH   2   3
ENDBRANCH   1   2
BRANCH   1  70
ATOM     70  C   UNL A   1      31.904  28.124  27.056  1.00  0.00     0.275 C 
BRANCH  70  71
ATOM     71  O   UNL A   1      31.921  27.717  25.673  1.00  0.00    -0.458 OA
BRANCH  71  72
ATOM     72  C   UNL A   1      33.075  27.145  25.234  1.00  0.00     0.339 C 
ATOM     73  O   UNL A   1      34.120  27.040  25.861  1.00  0.00    -0.246 OA
BRANCH  72  74
ATOM     74  C   UNL A   1      32.932  26.600  23.867  1.00  0.00     0.080 A 
ATOM     75  C   UNL A   1      32.765  25.202  23.738  1.00  0.00     0.043 A 
ATOM     76  C   UNL A   1      33.057  27.398  22.724  1.00  0.00     0.055 A 
ATOM     77  C   UNL A   1      32.727  24.606  22.476  1.00  0.00     0.042 A 
ATOM     78  C   UNL A   1      33.038  26.798  21.464  1.00  0.00     0.023 A 
ATOM     79  Cl  UNL A   1      33.292  29.107  22.784  1.00  0.00    -0.083 Cl
ATOM     80  C   UNL A   1      32.901  25.414  21.343  1.00  0.00     0.028 A 
BRANCH  77  81
ATOM     81  N   UNL A   1      32.422  23.255  22.211  1.00  0.00    -0.322 N 
ATOM     82  C   UNL A   1      32.210  22.164  23.023  1.00  0.00     0.258 C 
ATOM     83  H   UNL A   1      32.348  23.051  21.251  1.00  0.00     0.170 HD
ATOM     84  O   UNL A   1      31.929  21.076  22.517  1.00  0.00    -0.269 OA
BRANCH  82  85
ATOM     85  C   UNL A   1      32.304  22.222  24.487  1.00  0.00     0.070 A 
ATOM     86  C   UNL A   1      31.136  22.674  25.126  1.00  0.00     0.101 A 
ATOM     87  C   UNL A   1      33.513  22.036  25.194  1.00  0.00     0.050 A 
ATOM     88  C   UNL A   1      31.141  22.883  26.504  1.00  0.00     0.270 A 
ATOM     89  C   UNL A   1      33.479  22.295  26.579  1.00  0.00     0.034 A 
ATOM     90  C   UNL A   1      32.308  22.688  27.241  1.00  0.00     0.088 A 
BRANCH  87  91
ATOM     91  N   UNL A   1      34.726  21.665  24.645  1.00  0.00    -0.371 N 
ATOM     92  C   UNL A   1      35.319  20.373  25.000  1.00  0.00     0.116 C 
ATOM     93  C   UNL A   1      35.776  22.632  24.342  1.00  0.00     0.116 C 
ATOM     94  C   UNL A   1      36.809  20.691  25.159  1.00  0.00     0.023 C 
ATOM     95  C   UNL A   1      37.029  21.797  24.142  1.00  0.00     0.023 C 
ENDBRANCH  87  91
BRANCH  88  96
ATOM     96  N   UNL A   1      29.921  23.342  27.170  1.00  0.00     0.062 N 
ATOM     97  O   UNL A   1      29.398  22.584  28.001  1.00  0.00    -0.258 OA
ATOM     98  O   UNL A   1      29.472  24.456  26.861  1.00  0.00    -0.258 OA
ENDBRANCH  88  96
ENDBRANCH  82  85
ENDBRANCH  77  81
ENDBRANCH  72  74
ENDBRANCH  71  72
ENDBRANCH  70  71
ENDBRANCH   1  70
TORSDOF 18
ENDMDL
MODEL 2
REMARK VINA RESULT:     -12.2      4.616      9.970
REMARK SMILES O=C(OCCOC(=O)c1cc(NC(=O)c2cc([N+](=O)[O-])ccc2N2CCCC2)ccc1Cl)c1ccc(-c2c3nc(c(-c4cc(S(=O)(=O)[O-])ccc4F)c4ccc([nH]4)c(-c4cc(S(=O)(=O)[O-])ccc4F)c4nc(c(-c5cc(S(=O)(=O)[O-])ccc5F)c5ccc2[nH]5)C=C4)C=C3)cc1
REMARK SMILES IDX 4 1 3 2 2 3 1 4 33 5 34 6 95 7 35 8 94 9 36 10 37 11 38 12
REMARK SMILES IDX 88 13 39 14 93 15 87 16 89 17 40 18 92 19 86 20 85 21 41 23
REMARK SMILES IDX 73 24 53 25 72 26 54 27 57 28 71 29 90 30 55 31 56 32 70 34
REMARK SMILES IDX 91 35 58 36 42 37 43 38 51 39 44 40 50 41 52 42 49 43 45 44
REMARK SMILES IDX 46 45 47 46 48 47 74 48 75 49 83 50 76 51 82 52 84 53 81 54
REMARK SMILES IDX 77 55 78 56 79 57 80 58 59 59 60 60 68 61 61 62 67 63 69 64
REMARK SMILES IDX 66 65 62 66 63 67 64 68 65 69 5 70 6 71 7 72 8 73 9 74 10 75
REMARK SMILES IDX 31 76 11 77 30 78 32 79 29 80 12 81 13 82 14 84 15 85 16 86
REMARK SMILES IDX 23 87 17 88 22 89 21 90 24 91 25 92 28 93 26 94 27 95 18 96
REMARK SMILES IDX 19 97 20 98
REMARK H PARENT 89 22 57 33 12 83
REMARK Flexibility Score: inf
ROOT
ATOM      1  C   UNL A   1      38.516  20.846  25.335  1.00  0.00     0.275 C 
ENDROOT
BRANCH   1   2
ATOM      2  O   UNL A   1      39.433  20.852  26.435  1.00  0.00    -0.458 OA
BRANCH   2   3
ATOM      3  C   UNL A   1      40.497  21.678  26.376  1.00  0.00     0.338 C 
ATOM      4  O   UNL A   1      41.346  21.575  25.501  1.00  0.00    -0.246 OA
BRANCH   3   5
ATOM      5  C   UNL A   1      40.494  22.844  27.301  1.00  0.00     0.060 A 
ATOM      6  C   UNL A   1      41.509  23.114  28.223  1.00  0.00     0.016 A 
ATOM      7  C   UNL A   1      39.564  23.837  27.020  1.00  0.00     0.016 A 
ATOM      8  C   UNL A   1      41.657  24.400  28.764  1.00  0.00     0.010 A 
ATOM      9  C   UNL A   1      39.788  25.138  27.474  1.00  0.00     0.010 A 
ATOM     10  C   UNL A   1      40.892  25.467  28.281  1.00  0.00    -0.014 A 
BRANCH  10  11
ATOM     11  C   UNL A   1      41.318  26.902  28.475  1.00  0.00     0.031 A 
ATOM     12  C   UNL A   1      42.689  27.368  28.035  1.00  0.00     0.074 A 
ATOM     13  C   UNL A   1      40.574  27.754  29.228  1.00  0.00     0.049 A 
ATOM     14  N   UNL A   1      43.326  28.474  28.333  1.00  0.00    -0.248 NA
ATOM     15  C   UNL A   1      43.492  26.416  27.255  1.00  0.00     0.031 C 
ATOM     16  C   UNL A   1      39.307  27.436  29.898  1.00  0.00     0.029 A 
ATOM     17  N   UNL A   1      40.791  29.069  29.588  1.00  0.00    -0.354 N 
ATOM     18  C   UNL A   1      44.618  28.304  27.848  1.00  0.00     0.074 A 
ATOM     19  C   UNL A   1      44.702  26.939  27.375  1.00  0.00     0.031 C 
ATOM     20  C   UNL A   1      38.846  28.523  30.537  1.00  0.00     0.029 A 
ATOM     21  C   UNL A   1      39.800  29.611  30.382  1.00  0.00     0.049 A 
ATOM     22  H   UNL A   1      41.585  29.577  29.303  1.00  0.00     0.167 HD
ATOM     23  C   UNL A   1      45.617  29.213  27.715  1.00  0.00     0.034 A 
ATOM     24  C   UNL A   1      39.665  30.837  30.932  1.00  0.00     0.034 A 
ATOM     25  C   UNL A   1      45.468  30.609  28.027  1.00  0.00     0.049 A 
ATOM     26  C   UNL A   1      40.729  31.876  30.672  1.00  0.00     0.074 A 
ATOM     27  C   UNL A   1      46.310  31.658  27.704  1.00  0.00     0.029 A 
ATOM     28  N   UNL A   1      44.393  31.154  28.712  1.00  0.00    -0.354 N 
ATOM     29  N   UNL A   1      41.870  31.742  30.038  1.00  0.00    -0.248 NA
ATOM     30  C   UNL A   1      40.480  33.235  31.177  1.00  0.00     0.031 C 
ATOM     31  C   UNL A   1      45.758  32.836  28.217  1.00  0.00     0.029 A 
ATOM     32  C   UNL A   1      44.555  32.524  28.828  1.00  0.00     0.049 A 
ATOM     33  H   UNL A   1      43.629  30.644  29.063  1.00  0.00     0.167 HD
ATOM     34  C   UNL A   1      42.445  33.010  30.024  1.00  0.00     0.074 A 
ATOM     35  C   UNL A   1      41.531  33.896  30.711  1.00  0.00     0.031 C 
ATOM     36  C   UNL A   1      43.622  33.406  29.482  1.00  0.00     0.034 A 
BRANCH  23  37
ATOM     37  C   UNL A   1      46.921  28.737  27.119  1.00  0.00     0.023 A 
ATOM     38  C   UNL A   1      47.061  28.568  25.732  1.00  0.00     0.031 A 
ATOM     39  C   UNL A   1      48.019  28.408  27.932  1.00  0.00     0.131 A 
ATOM     40  C   UNL A   1      48.202  27.948  25.211  1.00  0.00     0.055 A 
ATOM     41  C   UNL A   1      49.203  27.898  27.393  1.00  0.00     0.041 A 
ATOM     42  F   UNL A   1      47.952  28.553  29.265  1.00  0.00    -0.206 F 
ATOM     43  C   UNL A   1      49.290  27.638  26.027  1.00  0.00     0.022 A 
BRANCH  40  44
ATOM     44  S   UNL A   1      48.149  27.389  23.488  1.00  0.00     0.124 S 
ATOM     45  O   UNL A   1      47.014  28.152  22.972  1.00  0.00    -0.237 OA
ATOM     46  O   UNL A   1      49.459  27.784  22.985  1.00  0.00    -0.237 OA
ATOM     47  O   UNL A   1      47.929  25.950  23.602  1.00  0.00    -0.744 OA
ENDBRANCH  40  44
ENDBRANCH  23  37
BRANCH  24  48
ATOM     48  C   UNL A   1      38.483  31.182  31.780  1.00  0.00     0.023 A 
ATOM     49  C   UNL A   1      37.296  31.658  31.199  1.00  0.00     0.031 A 
ATOM     50  C   UNL A   1      38.554  31.134  33.184  1.00  0.00     0.131 A 
ATOM     51  C   UNL A   1      36.262  32.147  32.013  1.00  0.00     0.055 A 
ATOM     52  C   UNL A   1      37.501  31.573  33.990  1.00  0.00     0.041 A 
ATOM     53  F   UNL A   1      39.654  30.663  33.793  1.00  0.00    -0.206 F 
ATOM     54  C   UNL A   1      36.354  32.103  33.405  1.00  0.00     0.022 A 
BRANCH  51  55
ATOM     55  S   UNL A   1      34.845  32.959  31.220  1.00  0.00     0.124 S 
ATOM     56  O   UNL A   1      34.686  32.159  30.010  1.00  0.00    -0.237 OA
ATOM     57  O   UNL A   1      33.806  32.802  32.232  1.00  0.00    -0.237 OA
ATOM     58  O   UNL A   1      35.312  34.327  31.010  1.00  0.00    -0.744 OA
ENDBRANCH  51  55
ENDBRANCH  24  48
BRANCH  36  59
ATOM     59  C   UNL A   1      43.954  34.872  29.534  1.00  0.00     0.023 A 
ATOM     60  C   UNL A   1      43.449  35.777  28.587  1.00  0.00     0.031 A 
ATOM     61  C   UNL A   1      44.766  35.371  30.568  1.00  0.00     0.131 A 
ATOM     62  C   UNL A   1      43.786  37.136  28.677  1.00  0.00     0.055 A 
ATOM     63  C   UNL A   1      45.056  36.732  30.681  1.00  0.00     0.041 A 
ATOM     64  F   UNL A   1      45.274  34.545  31.497  1.00  0.00    -0.206 F 
ATOM     65  C   UNL A   1      44.569  37.621  29.727  1.00  0.00     0.022 A 
BRANCH  62  66
ATOM     66  S   UNL A   1      43.216  38.261  27.373  1.00  0.00     0.124 S 
ATOM     67  O   UNL A   1      42.519  39.286  28.143  1.00  0.00    -0.237 OA
ATOM     68  O   UNL A   1      44.466  38.674  26.747  1.00  0.00    -0.237 OA
ATOM     69  O   UNL A   1      42.358  37.416  26.543  1.00  0.00    -0.744 OA
ENDBRANCH  62  66
ENDBRANCH  36  59
ENDBRANCH  10  11
ENDBRANCH   3   5
ENDBRANCH   2   3
ENDBRANCH   1   2
BRANCH   1  70
ATOM     70  C   UNL A   1      37.611  22.083  25.205  1.00  0.00     0.275 C 
BRANCH  70  71
ATOM     71  O   UNL A   1      36.226  21.817  25.499  1.00  0.00    -0.458 OA
BRANCH  71  72
ATOM     72  C   UNL A   1      35.411  22.904  25.573  1.00  0.00     0.339 C 
ATOM     73  O   UNL A   1      35.757  24.059  25.779  1.00  0.00    -0.246 OA
BRANCH  72  74
ATOM     74  C   UNL A   1      33.996  22.548  25.332  1.00  0.00     0.080 A 
ATOM     75  C   UNL A   1      33.034  23.574  25.475  1.00  0.00     0.043 A 
ATOM     76  C   UNL A   1      33.587  21.235  25.075  1.00  0.00     0.055 A 
ATOM     77  C   UNL A   1      31.672  23.288  25.364  1.00  0.00     0.042 A 
ATOM     78  C   UNL A   1      32.224  20.948  24.983  1.00  0.00     0.023 A 
ATOM     79  Cl  UNL A   1      34.687  19.914  24.914  1.00  0.00    -0.083 Cl
ATOM     80  C   UNL A   1      31.276  21.959  25.153  1.00  0.00     0.028 A 
BRANCH  77  81
ATOM     81  N   UNL A   1      30.630  24.238  25.341  1.00  0.00    -0.322 N 
ATOM     82  C   UNL A   1      30.471  25.441  24.693  1.00  0.00     0.258 C 
ATOM     83  H   UNL A   1      29.862  23.989  25.904  1.00  0.00     0.170 HD
ATOM     84  O   UNL A   1      29.422  26.073  24.835  1.00  0.00    -0.269 OA
BRANCH  82  85
ATOM     85  C   UNL A   1      31.501  26.030  23.828  1.00  0.00     0.070 A 
ATOM     86  C   UNL A   1      31.732  25.320  22.636  1.00  0.00     0.101 A 
ATOM     87  C   UNL A   1      32.334  27.097  24.231  1.00  0.00     0.050 A 
ATOM     88  C   UNL A   1      32.767  25.715  21.789  1.00  0.00     0.270 A 
ATOM     89  C   UNL A   1      33.390  27.436  23.361  1.00  0.00     0.034 A 
ATOM     90  C   UNL A   1      33.597  26.778  22.140  1.00  0.00     0.088 A 
BRANCH  87  91
ATOM     91  N   UNL A   1      32.231  27.806  25.413  1.00  0.00    -0.371 N 
ATOM     92  C   UNL A   1      31.493  29.071  25.440  1.00  0.00     0.116 C 
ATOM     93  C   UNL A   1      33.300  27.829  26.407  1.00  0.00     0.116 C 
ATOM     94  C   UNL A   1      32.354  29.974  26.329  1.00  0.00     0.023 C 
ATOM     95  C   UNL A   1      32.959  28.995  27.319  1.00  0.00     0.023 C 
ENDBRANCH  87  91
BRANCH  88  96
ATOM     96  N   UNL A   1      33.000  24.983  20.543  1.00  0.00     0.062 N 
ATOM     97  O   UNL A   1      32.895  25.612  19.478  1.00  0.00    -0.258 OA
ATOM     98  O   UNL A   1      33.276  23.777  20.618  1.00  0.00    -0.258 OA
ENDBRANCH  88  96
ENDBRANCH  82  85
ENDBRANCH  77  81
ENDBRANCH  72  74
ENDBRANCH  71  72
ENDBRANCH  70  71
ENDBRANCH   1  70
TORSDOF 18
ENDMDL
MODEL 3
REMARK VINA RESULT:     -12.2      4.280      9.675
REMARK SMILES O=C(OCCOC(=O)c1cc(NC(=O)c2cc([N+](=O)[O-])ccc2N2CCCC2)ccc1Cl)c1ccc(-c2c3nc(c(-c4cc(S(=O)(=O)[O-])ccc4F)c4ccc([nH]4)c(-c4cc(S(=O)(=O)[O-])ccc4F)c4nc(c(-c5cc(S(=O)(=O)[O-])ccc5F)c5ccc2[nH]5)C=C4)C=C3)cc1
REMARK SMILES IDX 4 1 3 2 2 3 1 4 33 5 34 6 95 7 35 8 94 9 36 10 37 11 38 12
REMARK SMILES IDX 88 13 39 14 93 15 87 16 89 17 40 18 92 19 86 20 85 21 41 23
REMARK SMILES IDX 73 24 53 25 72 26 54 27 57 28 71 29 90 30 55 31 56 32 70 34
REMARK SMILES IDX 91 35 58 36 42 37 43 38 51 39 44 40 50 41 52 42 49 43 45 44
REMARK SMILES IDX 46 45 47 46 48 47 74 48 75 49 83 50 76 51 82 52 84 53 81 54
REMARK SMILES IDX 77 55 78 56 79 57 80 58 59 59 60 60 68 61 61 62 67 63 69 64
REMARK SMILES IDX 66 65 62 66 63 67 64 68 65 69 5 70 6 71 7 72 8 73 9 74 10 75
REMARK SMILES IDX 31 76 11 77 30 78 32 79 29 80 12 81 13 82 14 84 15 85 16 86
REMARK SMILES IDX 23 87 17 88 22 89 21 90 24 91 25 92 28 93 26 94 27 95 18 96
REMARK SMILES IDX 19 97 20 98
REMARK H PARENT 89 22 57 33 12 83
REMARK Flexibility Score: inf
ROOT
ATOM      1  C   UNL A   1      36.759  21.465  24.879  1.00  0.00     0.275 C 
ENDROOT
BRANCH   1   2
ATOM      2  O   UNL A   1      38.154  21.758  24.737  1.00  0.00    -0.458 OA
BRANCH   2   3
ATOM      3  C   UNL A   1      38.974  21.477  25.770  1.00  0.00     0.338 C 
ATOM      4  O   UNL A   1      39.568  20.409  25.849  1.00  0.00    -0.246 OA
BRANCH   3   5
ATOM      5  C   UNL A   1      39.279  22.591  26.707  1.00  0.00     0.060 A 
ATOM      6  C   UNL A   1      40.420  22.646  27.512  1.00  0.00     0.016 A 
ATOM      7  C   UNL A   1      38.517  23.741  26.549  1.00  0.00     0.016 A 
ATOM      8  C   UNL A   1      40.854  23.866  28.054  1.00  0.00     0.010 A 
ATOM      9  C   UNL A   1      39.017  24.966  26.995  1.00  0.00     0.010 A 
ATOM     10  C   UNL A   1      40.243  25.067  27.676  1.00  0.00    -0.014 A 
BRANCH  10  11
ATOM     11  C   UNL A   1      40.937  26.397  27.844  1.00  0.00     0.031 A 
ATOM     12  C   UNL A   1      42.344  26.605  27.327  1.00  0.00     0.074 A 
ATOM     13  C   UNL A   1      40.406  27.366  28.635  1.00  0.00     0.049 A 
ATOM     14  N   UNL A   1      43.189  27.572  27.587  1.00  0.00    -0.248 NA
ATOM     15  C   UNL A   1      42.913  25.528  26.507  1.00  0.00     0.031 C 
ATOM     16  C   UNL A   1      39.140  27.282  29.375  1.00  0.00     0.029 A 
ATOM     17  N   UNL A   1      40.880  28.615  28.980  1.00  0.00    -0.354 N 
ATOM     18  C   UNL A   1      44.399  27.170  27.032  1.00  0.00     0.074 A 
ATOM     19  C   UNL A   1      44.204  25.817  26.558  1.00  0.00     0.031 C 
ATOM     20  C   UNL A   1      38.924  28.430  30.036  1.00  0.00     0.029 A 
ATOM     21  C   UNL A   1      40.052  29.324  29.826  1.00  0.00     0.049 A 
ATOM     22  H   UNL A   1      41.738  28.970  28.650  1.00  0.00     0.167 HD
ATOM     23  C   UNL A   1      45.540  27.881  26.842  1.00  0.00     0.034 A 
ATOM     24  C   UNL A   1      40.176  30.550  30.380  1.00  0.00     0.034 A 
ATOM     25  C   UNL A   1      45.669  29.277  27.159  1.00  0.00     0.049 A 
ATOM     26  C   UNL A   1      41.398  31.376  30.059  1.00  0.00     0.074 A 
ATOM     27  C   UNL A   1      46.671  30.156  26.787  1.00  0.00     0.029 A 
ATOM     28  N   UNL A   1      44.753  30.006  27.901  1.00  0.00    -0.354 N 
ATOM     29  N   UNL A   1      42.458  31.039  29.364  1.00  0.00    -0.248 NA
ATOM     30  C   UNL A   1      41.432  32.754  30.574  1.00  0.00     0.031 C 
ATOM     31  C   UNL A   1      46.376  31.412  27.328  1.00  0.00     0.029 A 
ATOM     32  C   UNL A   1      45.171  31.322  28.005  1.00  0.00     0.049 A 
ATOM     33  H   UNL A   1      43.928  29.643  28.294  1.00  0.00     0.167 HD
ATOM     34  C   UNL A   1      43.256  32.179  29.315  1.00  0.00     0.074 A 
ATOM     35  C   UNL A   1      42.560  33.213  30.050  1.00  0.00     0.031 C 
ATOM     36  C   UNL A   1      44.454  32.355  28.708  1.00  0.00     0.034 A 
BRANCH  23  37
ATOM     37  C   UNL A   1      46.699  27.177  26.176  1.00  0.00     0.023 A 
ATOM     38  C   UNL A   1      47.651  26.477  26.936  1.00  0.00     0.031 A 
ATOM     39  C   UNL A   1      46.888  27.234  24.785  1.00  0.00     0.131 A 
ATOM     40  C   UNL A   1      48.817  25.995  26.332  1.00  0.00     0.055 A 
ATOM     41  C   UNL A   1      47.998  26.648  24.170  1.00  0.00     0.041 A 
ATOM     42  F   UNL A   1      46.011  27.882  24.001  1.00  0.00    -0.206 F 
ATOM     43  C   UNL A   1      48.986  26.047  24.948  1.00  0.00     0.022 A 
BRANCH  40  44
ATOM     44  S   UNL A   1      50.177  25.477  27.411  1.00  0.00     0.124 S 
ATOM     45  O   UNL A   1      51.319  25.581  26.506  1.00  0.00    -0.237 OA
ATOM     46  O   UNL A   1      50.125  26.464  28.483  1.00  0.00    -0.237 OA
ATOM     47  O   UNL A   1      49.811  24.116  27.793  1.00  0.00    -0.744 OA
ENDBRANCH  40  44
ENDBRANCH  23  37
BRANCH  24  48
ATOM     48  C   UNL A   1      39.127  31.100  31.292  1.00  0.00     0.023 A 
ATOM     49  C   UNL A   1      37.987  31.737  30.773  1.00  0.00     0.031 A 
ATOM     50  C   UNL A   1      39.292  31.083  32.688  1.00  0.00     0.131 A 
ATOM     51  C   UNL A   1      37.103  32.406  31.635  1.00  0.00     0.055 A 
ATOM     52  C   UNL A   1      38.380  31.705  33.545  1.00  0.00     0.041 A 
ATOM     53  F   UNL A   1      40.348  30.464  33.240  1.00  0.00    -0.206 F 
ATOM     54  C   UNL A   1      37.289  32.390  33.018  1.00  0.00     0.022 A 
BRANCH  51  55
ATOM     55  S   UNL A   1      35.773  33.405  30.907  1.00  0.00     0.124 S 
ATOM     56  O   UNL A   1      34.707  32.419  30.766  1.00  0.00    -0.237 OA
ATOM     57  O   UNL A   1      35.572  34.425  31.930  1.00  0.00    -0.237 OA
ATOM     58  O   UNL A   1      36.355  33.881  29.654  1.00  0.00    -0.744 OA
ENDBRANCH  51  55
ENDBRANCH  24  48
BRANCH  36  59
ATOM     59  C   UNL A   1      45.053  33.735  28.738  1.00  0.00     0.023 A 
ATOM     60  C   UNL A   1      45.940  34.134  29.750  1.00  0.00     0.031 A 
ATOM     61  C   UNL A   1      44.751  34.653  27.716  1.00  0.00     0.131 A 
ATOM     62  C   UNL A   1      46.474  35.430  29.736  1.00  0.00     0.055 A 
ATOM     63  C   UNL A   1      45.324  35.924  27.679  1.00  0.00     0.041 A 
ATOM     64  F   UNL A   1      43.907  34.319  26.726  1.00  0.00    -0.206 F 
ATOM     65  C   UNL A   1      46.187  36.320  28.697  1.00  0.00     0.022 A 
BRANCH  62  66
ATOM     66  S   UNL A   1      47.522  35.955  31.119  1.00  0.00     0.124 S 
ATOM     67  O   UNL A   1      48.825  35.429  30.727  1.00  0.00    -0.237 OA
ATOM     68  O   UNL A   1      47.383  37.407  31.085  1.00  0.00    -0.237 OA
ATOM     69  O   UNL A   1      46.911  35.303  32.277  1.00  0.00    -0.744 OA
ENDBRANCH  62  66
ENDBRANCH  36  59
ENDBRANCH  10  11
ENDBRANCH   3   5
ENDBRANCH   2   3
ENDBRANCH   1   2
BRANCH   1  70
ATOM     70  C   UNL A   1      35.795  22.394  24.121  1.00  0.00     0.275 C 
BRANCH  70  71
ATOM     71  O   UNL A   1      35.376  23.540  24.889  1.00  0.00    -0.458 OA
BRANCH  71  72
ATOM     72  C   UNL A   1      34.693  23.274  26.035  1.00  0.00     0.339 C 
ATOM     73  O   UNL A   1      35.146  23.288  27.171  1.00  0.00    -0.246 OA
BRANCH  72  74
ATOM     74  C   UNL A   1      33.267  22.985  25.771  1.00  0.00     0.080 A 
ATOM     75  C   UNL A   1      32.397  24.089  25.625  1.00  0.00     0.043 A 
ATOM     76  C   UNL A   1      32.755  21.683  25.765  1.00  0.00     0.055 A 
ATOM     77  C   UNL A   1      31.022  23.892  25.476  1.00  0.00     0.042 A 
ATOM     78  C   UNL A   1      31.379  21.489  25.636  1.00  0.00     0.023 A 
ATOM     79  Cl  UNL A   1      33.737  20.278  25.965  1.00  0.00    -0.083 Cl
ATOM     80  C   UNL A   1      30.519  22.583  25.519  1.00  0.00     0.028 A 
BRANCH  77  81
ATOM     81  N   UNL A   1      30.074  24.892  25.178  1.00  0.00    -0.322 N 
ATOM     82  C   UNL A   1      30.112  26.015  24.384  1.00  0.00     0.258 C 
ATOM     83  H   UNL A   1      29.210  24.760  25.632  1.00  0.00     0.170 HD
ATOM     84  O   UNL A   1      29.107  26.721  24.281  1.00  0.00    -0.269 OA
BRANCH  82  85
ATOM     85  C   UNL A   1      31.307  26.432  23.639  1.00  0.00     0.070 A 
ATOM     86  C   UNL A   1      31.579  25.656  22.498  1.00  0.00     0.101 A 
ATOM     87  C   UNL A   1      32.223  27.394  24.119  1.00  0.00     0.050 A 
ATOM     88  C   UNL A   1      32.750  25.880  21.775  1.00  0.00     0.270 A 
ATOM     89  C   UNL A   1      33.410  27.559  23.377  1.00  0.00     0.034 A 
ATOM     90  C   UNL A   1      33.669  26.837  22.204  1.00  0.00     0.088 A 
BRANCH  87  91
ATOM     91  N   UNL A   1      32.079  28.151  25.266  1.00  0.00    -0.371 N 
ATOM     92  C   UNL A   1      31.435  29.465  25.192  1.00  0.00     0.116 C 
ATOM     93  C   UNL A   1      33.064  28.136  26.343  1.00  0.00     0.116 C 
ATOM     94  C   UNL A   1      32.286  30.338  26.120  1.00  0.00     0.023 C 
ATOM     95  C   UNL A   1      32.737  29.356  27.186  1.00  0.00     0.023 C 
ENDBRANCH  87  91
BRANCH  88  96
ATOM     96  N   UNL A   1      33.027  25.080  20.581  1.00  0.00     0.062 N 
ATOM     97  O   UNL A   1      33.319  23.886  20.743  1.00  0.00    -0.258 OA
ATOM     98  O   UNL A   1      32.965  25.641  19.477  1.00  0.00    -0.258 OA
ENDBRANCH  88  96
ENDBRANCH  82  85
ENDBRANCH  77  81
ENDBRANCH  72  74
ENDBRANCH  71  72
ENDBRANCH  70  71
ENDBRANCH   1  70
TORSDOF 18
ENDMDL
