MODEL 1
REMARK VINA RESULT:     -11.6      0.000      0.000
REMARK SMILES CC(C)C[NH+]1CC[NH+]([C@@H]2CC[C@]([NH3+])(C(=O)OCCOC(=O)c3ccc(-c4c5nc(c(-c6cc(S(=O)(=O)[O-])ccc6F)c6ccc([nH]6)c(-c6cc(S(=O)(=O)[O-])ccc6F)c6nc(c(-c7cc(S(=O)(=O)[O-])ccc7F)c7ccc4[nH]7)C=C6)C=C5)cc3)C2)CC1
REMARK SMILES IDX 17 1 16 2 14 3 15 4 12 5 9 6 10 7 85 8 11 9 8 10 5 11 6 12
REMARK SMILES IDX 87 13 7 15 86 16 4 18 2 19 1 20 3 21 13 22 18 26 19 27 20 28
REMARK SMILES IDX 21 29 22 30 23 31 84 32 24 33 83 34 25 35 26 36 27 37 77 38
REMARK SMILES IDX 28 39 82 40 76 41 78 42 29 43 81 44 75 45 74 46 30 48 62 49
REMARK SMILES IDX 42 50 61 51 43 52 46 53 60 54 79 55 44 56 45 57 59 59 80 60
REMARK SMILES IDX 47 61 31 62 32 63 40 64 33 65 39 66 41 67 38 68 34 69 35 70
REMARK SMILES IDX 36 71 37 72 63 73 64 74 72 75 65 76 71 77 73 78 70 79 66 80
REMARK SMILES IDX 67 81 68 82 69 83 48 84 49 85 57 86 50 87 56 88 58 89 55 90
REMARK SMILES IDX 51 91 52 92 53 93 54 94
REMARK H PARENT 5 14 8 17 13 23 13 24 13 25 78 47 46 58
REMARK Flexibility Score: inf
ROOT
ATOM      1  C   UNL A   1      31.234  29.435  24.402  1.00  0.00     0.274 C 
ENDROOT
BRANCH   1   2
ATOM      2  O   UNL A   1      32.103  28.300  24.560  1.00  0.00    -0.457 OA
BRANCH   2   3
ATOM      3  C   UNL A   1      31.512  27.073  24.483  1.00  0.00     0.368 C 
ATOM      4  O   UNL A   1      30.310  26.870  24.616  1.00  0.00    -0.245 OA
BRANCH   3   5
ATOM      5  C   UNL A   1      32.557  25.950  24.285  1.00  0.00     0.198 C 
ATOM      6  C   UNL A   1      33.247  23.758  25.075  1.00  0.00     0.191 C 
ATOM      7  C   UNL A   1      34.138  24.769  25.796  1.00  0.00     0.072 C 
ATOM      8  C   UNL A   1      32.003  24.575  24.696  1.00  0.00     0.145 C 
ATOM      9  C   UNL A   1      33.764  26.144  25.233  1.00  0.00     0.087 C 
BRANCH   6  10
ATOM     10  N   UNL A   1      33.017  22.457  25.699  1.00  0.00    -0.323 N 
ATOM     11  N   UNL A   1      33.760  19.861  24.373  1.00  0.00    -0.325 N 
ATOM     12  C   UNL A   1      32.537  20.561  24.006  1.00  0.00     0.324 C 
ATOM     13  C   UNL A   1      34.747  20.706  25.022  1.00  0.00     0.324 C 
ATOM     14  H   UNL A   1      34.164  19.654  23.459  1.00  0.00     0.348 HD
ATOM     15  C   UNL A   1      32.015  21.623  25.005  1.00  0.00     0.324 C 
ATOM     16  C   UNL A   1      34.184  21.653  26.096  1.00  0.00     0.324 C 
ATOM     17  H   UNL A   1      32.632  22.769  26.590  1.00  0.00     0.348 HD
BRANCH  11  18
ATOM     18  C   UNL A   1      33.664  18.482  24.838  1.00  0.00     0.265 C 
BRANCH  18  19
ATOM     19  C   UNL A   1      34.599  17.407  24.241  1.00  0.00     0.038 C 
ATOM     20  C   UNL A   1      34.779  16.180  25.130  1.00  0.00     0.013 C 
ATOM     21  C   UNL A   1      34.041  16.951  22.892  1.00  0.00     0.013 C 
ENDBRANCH  18  19
ENDBRANCH  11  18
ENDBRANCH   6  10
BRANCH   5  22
ATOM     22  N   UNL A   1      33.008  25.954  22.872  1.00  0.00    -0.343 N 
ATOM     23  H   UNL A   1      32.341  25.435  22.301  1.00  0.00     0.345 HD
ATOM     24  H   UNL A   1      33.926  25.514  22.807  1.00  0.00     0.345 HD
ATOM     25  H   UNL A   1      33.066  26.915  22.536  1.00  0.00     0.345 HD
ENDBRANCH   5  22
ENDBRANCH   3   5
ENDBRANCH   2   3
ENDBRANCH   1   2
BRANCH   1  26
ATOM     26  C   UNL A   1      31.360  30.342  25.619  1.00  0.00     0.275 C 
BRANCH  26  27
ATOM     27  O   UNL A   1      32.695  30.237  26.146  1.00  0.00    -0.458 OA
BRANCH  27  28
ATOM     28  C   UNL A   1      33.073  31.233  26.978  1.00  0.00     0.338 C 
ATOM     29  O   UNL A   1      32.455  32.254  27.241  1.00  0.00    -0.246 OA
BRANCH  28  30
ATOM     30  C   UNL A   1      34.404  30.936  27.530  1.00  0.00     0.060 A 
ATOM     31  C   UNL A   1      34.804  29.618  27.752  1.00  0.00     0.016 A 
ATOM     32  C   UNL A   1      35.223  31.994  27.924  1.00  0.00     0.016 A 
ATOM     33  C   UNL A   1      35.992  29.365  28.442  1.00  0.00     0.010 A 
ATOM     34  C   UNL A   1      36.448  31.731  28.546  1.00  0.00     0.010 A 
ATOM     35  C   UNL A   1      36.830  30.414  28.858  1.00  0.00    -0.014 A 
BRANCH  35  36
ATOM     36  C   UNL A   1      38.069  30.150  29.651  1.00  0.00     0.031 A 
ATOM     37  C   UNL A   1      39.137  29.220  29.113  1.00  0.00     0.074 A 
ATOM     38  C   UNL A   1      38.247  30.729  30.857  1.00  0.00     0.049 A 
ATOM     39  N   UNL A   1      40.187  28.723  29.718  1.00  0.00    -0.248 NA
ATOM     40  C   UNL A   1      38.991  28.778  27.718  1.00  0.00     0.031 C 
ATOM     41  C   UNL A   1      37.327  31.679  31.487  1.00  0.00     0.029 A 
ATOM     42  N   UNL A   1      39.262  30.601  31.775  1.00  0.00    -0.354 N 
ATOM     43  C   UNL A   1      40.796  27.872  28.797  1.00  0.00     0.074 A 
ATOM     44  C   UNL A   1      39.995  27.920  27.594  1.00  0.00     0.031 C 
ATOM     45  C   UNL A   1      37.832  32.068  32.667  1.00  0.00     0.029 A 
ATOM     46  C   UNL A   1      39.060  31.326  32.927  1.00  0.00     0.049 A 
ATOM     47  H   UNL A   1      40.060  30.043  31.622  1.00  0.00     0.167 HD
ATOM     48  C   UNL A   1      41.911  27.112  28.947  1.00  0.00     0.034 A 
ATOM     49  C   UNL A   1      39.745  31.355  34.089  1.00  0.00     0.034 A 
ATOM     50  C   UNL A   1      42.724  27.100  30.139  1.00  0.00     0.049 A 
ATOM     51  C   UNL A   1      40.954  30.471  34.246  1.00  0.00     0.074 A 
ATOM     52  C   UNL A   1      43.891  26.392  30.378  1.00  0.00     0.029 A 
ATOM     53  N   UNL A   1      42.458  27.823  31.294  1.00  0.00    -0.354 N 
ATOM     54  N   UNL A   1      41.488  29.640  33.381  1.00  0.00    -0.248 NA
ATOM     55  C   UNL A   1      41.642  30.515  35.543  1.00  0.00     0.031 C 
ATOM     56  C   UNL A   1      44.293  26.637  31.696  1.00  0.00     0.029 A 
ATOM     57  C   UNL A   1      43.418  27.552  32.258  1.00  0.00     0.049 A 
ATOM     58  H   UNL A   1      41.700  28.439  31.412  1.00  0.00     0.167 HD
ATOM     59  C   UNL A   1      42.582  29.074  34.028  1.00  0.00     0.074 A 
ATOM     60  C   UNL A   1      42.644  29.672  35.345  1.00  0.00     0.031 C 
ATOM     61  C   UNL A   1      43.457  28.140  33.575  1.00  0.00     0.034 A 
BRANCH  48  62
ATOM     62  C   UNL A   1      42.275  26.168  27.826  1.00  0.00     0.023 A 
ATOM     63  C   UNL A   1      41.782  24.854  27.752  1.00  0.00     0.031 A 
ATOM     64  C   UNL A   1      43.141  26.605  26.805  1.00  0.00     0.131 A 
ATOM     65  C   UNL A   1      42.214  24.004  26.720  1.00  0.00     0.055 A 
ATOM     66  C   UNL A   1      43.502  25.781  25.739  1.00  0.00     0.041 A 
ATOM     67  F   UNL A   1      43.653  27.846  26.830  1.00  0.00    -0.206 F 
ATOM     68  C   UNL A   1      43.047  24.468  25.698  1.00  0.00     0.022 A 
BRANCH  65  69
ATOM     69  S   UNL A   1      41.747  22.252  26.737  1.00  0.00     0.124 S 
ATOM     70  O   UNL A   1      42.099  21.850  25.378  1.00  0.00    -0.237 OA
ATOM     71  O   UNL A   1      42.576  21.698  27.801  1.00  0.00    -0.237 OA
ATOM     72  O   UNL A   1      40.315  22.286  27.024  1.00  0.00    -0.744 OA
ENDBRANCH  65  69
ENDBRANCH  48  62
BRANCH  49  73
ATOM     73  C   UNL A   1      39.259  32.185  35.229  1.00  0.00     0.023 A 
ATOM     74  C   UNL A   1      39.712  33.501  35.416  1.00  0.00     0.031 A 
ATOM     75  C   UNL A   1      38.364  31.654  36.176  1.00  0.00     0.131 A 
ATOM     76  C   UNL A   1      39.295  34.228  36.542  1.00  0.00     0.055 A 
ATOM     77  C   UNL A   1      37.909  32.401  37.263  1.00  0.00     0.041 A 
ATOM     78  F   UNL A   1      37.904  30.399  36.048  1.00  0.00    -0.206 F 
ATOM     79  C   UNL A   1      38.385  33.694  37.458  1.00  0.00     0.022 A 
BRANCH  76  80
ATOM     80  S   UNL A   1      40.026  35.861  36.842  1.00  0.00     0.124 S 
ATOM     81  O   UNL A   1      41.439  35.532  36.993  1.00  0.00    -0.237 OA
ATOM     82  O   UNL A   1      39.661  36.584  35.629  1.00  0.00    -0.237 OA
ATOM     83  O   UNL A   1      39.357  36.315  38.060  1.00  0.00    -0.744 OA
ENDBRANCH  76  80
ENDBRANCH  49  73
BRANCH  61  84
ATOM     84  C   UNL A   1      44.574  27.744  34.506  1.00  0.00     0.023 A 
ATOM     85  C   UNL A   1      44.452  26.647  35.378  1.00  0.00     0.031 A 
ATOM     86  C   UNL A   1      45.766  28.488  34.539  1.00  0.00     0.131 A 
ATOM     87  C   UNL A   1      45.484  26.357  36.283  1.00  0.00     0.055 A 
ATOM     88  C   UNL A   1      46.811  28.163  35.403  1.00  0.00     0.041 A 
ATOM     89  F   UNL A   1      45.932  29.547  33.729  1.00  0.00    -0.206 F 
ATOM     90  C   UNL A   1      46.669  27.100  36.291  1.00  0.00     0.022 A 
BRANCH  87  91
ATOM     91  S   UNL A   1      45.227  25.047  37.510  1.00  0.00     0.124 S 
ATOM     92  O   UNL A   1      46.440  25.142  38.315  1.00  0.00    -0.237 OA
ATOM     93  O   UNL A   1      43.992  25.469  38.164  1.00  0.00    -0.237 OA
ATOM     94  O   UNL A   1      45.115  23.835  36.700  1.00  0.00    -0.744 OA
ENDBRANCH  87  91
ENDBRANCH  61  84
ENDBRANCH  35  36
ENDBRANCH  28  30
ENDBRANCH  27  28
ENDBRANCH  26  27
ENDBRANCH   1  26
TORSDOF 18
ENDMDL
MODEL 2
REMARK VINA RESULT:     -11.6      5.144     10.440
REMARK SMILES CC(C)C[NH+]1CC[NH+]([C@@H]2CC[C@]([NH3+])(C(=O)OCCOC(=O)c3ccc(-c4c5nc(c(-c6cc(S(=O)(=O)[O-])ccc6F)c6ccc([nH]6)c(-c6cc(S(=O)(=O)[O-])ccc6F)c6nc(c(-c7cc(S(=O)(=O)[O-])ccc7F)c7ccc4[nH]7)C=C6)C=C5)cc3)C2)CC1
REMARK SMILES IDX 17 1 16 2 14 3 15 4 12 5 9 6 10 7 85 8 11 9 8 10 5 11 6 12
REMARK SMILES IDX 87 13 7 15 86 16 4 18 2 19 1 20 3 21 13 22 18 26 19 27 20 28
REMARK SMILES IDX 21 29 22 30 23 31 84 32 24 33 83 34 25 35 26 36 27 37 77 38
REMARK SMILES IDX 28 39 82 40 76 41 78 42 29 43 81 44 75 45 74 46 30 48 62 49
REMARK SMILES IDX 42 50 61 51 43 52 46 53 60 54 79 55 44 56 45 57 59 59 80 60
REMARK SMILES IDX 47 61 31 62 32 63 40 64 33 65 39 66 41 67 38 68 34 69 35 70
REMARK SMILES IDX 36 71 37 72 63 73 64 74 72 75 65 76 71 77 73 78 70 79 66 80
REMARK SMILES IDX 67 81 68 82 69 83 48 84 49 85 57 86 50 87 56 88 58 89 55 90
REMARK SMILES IDX 51 91 52 92 53 93 54 94
REMARK H PARENT 5 14 8 17 13 23 13 24 13 25 78 47 46 58
REMARK Flexibility Score: inf
ROOT
ATOM      1  C   UNL A   1      35.028  20.602  25.028  1.00  0.00     0.274 C 
ENDROOT
BRANCH   1   2
ATOM      2  O   UNL A   1      34.807  21.998  24.759  1.00  0.00    -0.457 OA
BRANCH   2   3
ATOM      3  C   UNL A   1      33.537  22.351  24.408  1.00  0.00     0.368 C 
ATOM      4  O   UNL A   1      32.822  21.709  23.645  1.00  0.00    -0.245 OA
BRANCH   3   5
ATOM      5  C   UNL A   1      33.131  23.708  25.028  1.00  0.00     0.198 C 
ATOM      6  C   UNL A   1      33.008  26.097  24.600  1.00  0.00     0.191 C 
ATOM      7  C   UNL A   1      34.303  25.872  25.379  1.00  0.00     0.072 C 
ATOM      8  C   UNL A   1      32.732  24.732  23.952  1.00  0.00     0.145 C 
ATOM      9  C   UNL A   1      34.337  24.380  25.727  1.00  0.00     0.087 C 
BRANCH   6  10
ATOM     10  N   UNL A   1      32.906  27.271  23.735  1.00  0.00    -0.323 N 
ATOM     11  N   UNL A   1      30.289  28.619  23.121  1.00  0.00    -0.325 N 
ATOM     12  C   UNL A   1      30.683  27.406  22.420  1.00  0.00     0.324 C 
ATOM     13  C   UNL A   1      30.985  28.822  24.380  1.00  0.00     0.324 C 
ATOM     14  H   UNL A   1      29.330  28.401  23.393  1.00  0.00     0.348 HD
ATOM     15  C   UNL A   1      32.184  27.028  22.470  1.00  0.00     0.324 C 
ATOM     16  C   UNL A   1      32.499  28.551  24.335  1.00  0.00     0.324 C 
ATOM     17  H   UNL A   1      33.896  27.410  23.532  1.00  0.00     0.348 HD
BRANCH  11  18
ATOM     18  C   UNL A   1      29.982  29.811  22.338  1.00  0.00     0.265 C 
BRANCH  18  19
ATOM     19  C   UNL A   1      28.617  30.512  22.517  1.00  0.00     0.038 C 
ATOM     20  C   UNL A   1      28.682  31.790  23.348  1.00  0.00     0.013 C 
ATOM     21  C   UNL A   1      28.046  30.857  21.140  1.00  0.00     0.013 C 
ENDBRANCH  18  19
ENDBRANCH  11  18
ENDBRANCH   6  10
BRANCH   5  22
ATOM     22  N   UNL A   1      32.034  23.486  26.000  1.00  0.00    -0.343 N 
ATOM     23  H   UNL A   1      31.308  24.188  25.860  1.00  0.00     0.345 HD
ATOM     24  H   UNL A   1      32.399  23.560  26.950  1.00  0.00     0.345 HD
ATOM     25  H   UNL A   1      31.638  22.556  25.860  1.00  0.00     0.345 HD
ENDBRANCH   5  22
ENDBRANCH   3   5
ENDBRANCH   2   3
ENDBRANCH   1   2
BRANCH   1  26
ATOM     26  C   UNL A   1      36.521  20.308  24.978  1.00  0.00     0.275 C 
BRANCH  26  27
ATOM     27  O   UNL A   1      37.236  21.408  25.568  1.00  0.00    -0.458 OA
BRANCH  27  28
ATOM     28  C   UNL A   1      38.544  21.184  25.825  1.00  0.00     0.338 C 
ATOM     29  O   UNL A   1      39.170  20.153  25.631  1.00  0.00    -0.246 OA
BRANCH  28  30
ATOM     30  C   UNL A   1      39.142  22.385  26.428  1.00  0.00     0.060 A 
ATOM     31  C   UNL A   1      38.627  23.651  26.151  1.00  0.00     0.016 A 
ATOM     32  C   UNL A   1      40.296  22.250  27.201  1.00  0.00     0.016 A 
ATOM     33  C   UNL A   1      39.317  24.786  26.585  1.00  0.00     0.010 A 
ATOM     34  C   UNL A   1      40.938  23.389  27.696  1.00  0.00     0.010 A 
ATOM     35  C   UNL A   1      40.487  24.676  27.356  1.00  0.00    -0.014 A 
BRANCH  35  36
ATOM     36  C   UNL A   1      41.261  25.886  27.769  1.00  0.00     0.031 A 
ATOM     37  C   UNL A   1      40.607  26.962  28.611  1.00  0.00     0.074 A 
ATOM     38  C   UNL A   1      42.547  26.039  27.388  1.00  0.00     0.049 A 
ATOM     39  N   UNL A   1      41.045  28.158  28.917  1.00  0.00    -0.248 NA
ATOM     40  C   UNL A   1      39.280  26.656  29.165  1.00  0.00     0.031 C 
ATOM     41  C   UNL A   1      43.324  25.070  26.612  1.00  0.00     0.029 A 
ATOM     42  N   UNL A   1      43.431  27.071  27.599  1.00  0.00    -0.354 N 
ATOM     43  C   UNL A   1      40.027  28.765  29.652  1.00  0.00     0.074 A 
ATOM     44  C   UNL A   1      38.951  27.803  29.744  1.00  0.00     0.031 C 
ATOM     45  C   UNL A   1      44.569  25.536  26.440  1.00  0.00     0.029 A 
ATOM     46  C   UNL A   1      44.657  26.878  27.004  1.00  0.00     0.049 A 
ATOM     47  H   UNL A   1      43.208  27.872  28.127  1.00  0.00     0.167 HD
ATOM     48  C   UNL A   1      39.991  30.011  30.188  1.00  0.00     0.034 A 
ATOM     49  C   UNL A   1      45.717  27.702  26.871  1.00  0.00     0.034 A 
ATOM     50  C   UNL A   1      41.085  30.950  30.123  1.00  0.00     0.049 A 
ATOM     51  C   UNL A   1      45.636  29.095  27.436  1.00  0.00     0.074 A 
ATOM     52  C   UNL A   1      41.161  32.223  30.663  1.00  0.00     0.029 A 
ATOM     53  N   UNL A   1      42.293  30.723  29.477  1.00  0.00    -0.354 N 
ATOM     54  N   UNL A   1      44.649  29.665  28.089  1.00  0.00    -0.248 NA
ATOM     55  C   UNL A   1      46.804  29.961  27.232  1.00  0.00     0.031 C 
ATOM     56  C   UNL A   1      42.385  32.789  30.290  1.00  0.00     0.029 A 
ATOM     57  C   UNL A   1      43.104  31.844  29.576  1.00  0.00     0.049 A 
ATOM     58  H   UNL A   1      42.538  29.889  29.016  1.00  0.00     0.167 HD
ATOM     59  C   UNL A   1      45.087  30.953  28.384  1.00  0.00     0.074 A 
ATOM     60  C   UNL A   1      46.431  31.068  27.857  1.00  0.00     0.031 C 
ATOM     61  C   UNL A   1      44.435  31.953  29.029  1.00  0.00     0.034 A 
BRANCH  48  62
ATOM     62  C   UNL A   1      38.698  30.466  30.824  1.00  0.00     0.023 A 
ATOM     63  C   UNL A   1      37.678  31.101  30.094  1.00  0.00     0.031 A 
ATOM     64  C   UNL A   1      38.490  30.254  32.200  1.00  0.00     0.131 A 
ATOM     65  C   UNL A   1      36.529  31.561  30.758  1.00  0.00     0.055 A 
ATOM     66  C   UNL A   1      37.311  30.643  32.838  1.00  0.00     0.041 A 
ATOM     67  F   UNL A   1      39.435  29.665  32.950  1.00  0.00    -0.206 F 
ATOM     68  C   UNL A   1      36.327  31.311  32.118  1.00  0.00     0.022 A 
BRANCH  65  69
ATOM     69  S   UNL A   1      35.308  32.561  29.864  1.00  0.00     0.124 S 
ATOM     70  O   UNL A   1      36.097  33.744  29.531  1.00  0.00    -0.237 OA
ATOM     71  O   UNL A   1      34.937  31.706  28.742  1.00  0.00    -0.237 OA
ATOM     72  O   UNL A   1      34.255  32.775  30.854  1.00  0.00    -0.744 OA
ENDBRANCH  65  69
ENDBRANCH  48  62
BRANCH  49  73
ATOM     73  C   UNL A   1      46.916  27.266  26.097  1.00  0.00     0.023 A 
ATOM     74  C   UNL A   1      47.126  27.697  24.777  1.00  0.00     0.031 A 
ATOM     75  C   UNL A   1      47.849  26.374  26.657  1.00  0.00     0.131 A 
ATOM     76  C   UNL A   1      48.223  27.208  24.050  1.00  0.00     0.055 A 
ATOM     77  C   UNL A   1      48.968  25.935  25.948  1.00  0.00     0.041 A 
ATOM     78  F   UNL A   1      47.692  25.927  27.912  1.00  0.00    -0.206 F 
ATOM     79  C   UNL A   1      49.154  26.343  24.632  1.00  0.00     0.022 A 
BRANCH  76  80
ATOM     80  S   UNL A   1      48.373  27.653  22.299  1.00  0.00     0.124 S 
ATOM     81  O   UNL A   1      48.409  26.342  21.660  1.00  0.00    -0.237 OA
ATOM     82  O   UNL A   1      47.164  28.440  22.081  1.00  0.00    -0.237 OA
ATOM     83  O   UNL A   1      49.624  28.408  22.244  1.00  0.00    -0.744 OA
ENDBRANCH  76  80
ENDBRANCH  49  73
BRANCH  61  84
ATOM     84  C   UNL A   1      45.191  33.241  29.229  1.00  0.00     0.023 A 
ATOM     85  C   UNL A   1      45.130  34.285  28.287  1.00  0.00     0.031 A 
ATOM     86  C   UNL A   1      46.001  33.418  30.364  1.00  0.00     0.131 A 
ATOM     87  C   UNL A   1      45.908  35.438  28.473  1.00  0.00     0.055 A 
ATOM     88  C   UNL A   1      46.730  34.589  30.570  1.00  0.00     0.041 A 
ATOM     89  F   UNL A   1      46.095  32.452  31.292  1.00  0.00    -0.206 F 
ATOM     90  C   UNL A   1      46.697  35.602  29.615  1.00  0.00     0.022 A 
BRANCH  87  91
ATOM     91  S   UNL A   1      45.942  36.688  27.160  1.00  0.00     0.124 S 
ATOM     92  O   UNL A   1      46.404  35.912  26.014  1.00  0.00    -0.237 OA
ATOM     93  O   UNL A   1      44.552  37.130  27.112  1.00  0.00    -0.237 OA
ATOM     94  O   UNL A   1      46.891  37.683  27.657  1.00  0.00    -0.744 OA
ENDBRANCH  87  91
ENDBRANCH  61  84
ENDBRANCH  35  36
ENDBRANCH  28  30
ENDBRANCH  27  28
ENDBRANCH  26  27
ENDBRANCH   1  26
TORSDOF 18
ENDMDL
MODEL 3
REMARK VINA RESULT:     -11.4      4.743     10.290
REMARK SMILES CC(C)C[NH+]1CC[NH+]([C@@H]2CC[C@]([NH3+])(C(=O)OCCOC(=O)c3ccc(-c4c5nc(c(-c6cc(S(=O)(=O)[O-])ccc6F)c6ccc([nH]6)c(-c6cc(S(=O)(=O)[O-])ccc6F)c6nc(c(-c7cc(S(=O)(=O)[O-])ccc7F)c7ccc4[nH]7)C=C6)C=C5)cc3)C2)CC1
REMARK SMILES IDX 17 1 16 2 14 3 15 4 12 5 9 6 10 7 85 8 11 9 8 10 5 11 6 12
REMARK SMILES IDX 87 13 7 15 86 16 4 18 2 19 1 20 3 21 13 22 18 26 19 27 20 28
REMARK SMILES IDX 21 29 22 30 23 31 84 32 24 33 83 34 25 35 26 36 27 37 77 38
REMARK SMILES IDX 28 39 82 40 76 41 78 42 29 43 81 44 75 45 74 46 30 48 62 49
REMARK SMILES IDX 42 50 61 51 43 52 46 53 60 54 79 55 44 56 45 57 59 59 80 60
REMARK SMILES IDX 47 61 31 62 32 63 40 64 33 65 39 66 41 67 38 68 34 69 35 70
REMARK SMILES IDX 36 71 37 72 63 73 64 74 72 75 65 76 71 77 73 78 70 79 66 80
REMARK SMILES IDX 67 81 68 82 69 83 48 84 49 85 57 86 50 87 56 88 58 89 55 90
REMARK SMILES IDX 51 91 52 92 53 93 54 94
REMARK H PARENT 5 14 8 17 13 23 13 24 13 25 78 47 46 58
REMARK Flexibility Score: inf
ROOT
ATOM      1  C   UNL A   1      34.765  20.791  24.942  1.00  0.00     0.274 C 
ENDROOT
BRANCH   1   2
ATOM      2  O   UNL A   1      33.988  21.945  24.574  1.00  0.00    -0.457 OA
BRANCH   2   3
ATOM      3  C   UNL A   1      32.788  22.091  25.207  1.00  0.00     0.368 C 
ATOM      4  O   UNL A   1      31.984  21.183  25.392  1.00  0.00    -0.245 OA
BRANCH   3   5
ATOM      5  C   UNL A   1      32.525  23.564  25.596  1.00  0.00     0.198 C 
ATOM      6  C   UNL A   1      32.537  25.843  24.752  1.00  0.00     0.191 C 
ATOM      7  C   UNL A   1      33.867  25.653  25.479  1.00  0.00     0.072 C 
ATOM      8  C   UNL A   1      32.119  24.413  24.379  1.00  0.00     0.145 C 
ATOM      9  C   UNL A   1      33.823  24.247  26.087  1.00  0.00     0.087 C 
BRANCH   6  10
ATOM     10  N   UNL A   1      32.452  26.851  23.697  1.00  0.00    -0.323 N 
ATOM     11  N   UNL A   1      30.139  28.757  23.448  1.00  0.00    -0.325 N 
ATOM     12  C   UNL A   1      30.031  27.389  22.962  1.00  0.00     0.324 C 
ATOM     13  C   UNL A   1      31.197  28.952  24.424  1.00  0.00     0.324 C 
ATOM     14  H   UNL A   1      29.276  28.856  23.985  1.00  0.00     0.348 HD
ATOM     15  C   UNL A   1      31.358  26.625  22.731  1.00  0.00     0.324 C 
ATOM     16  C   UNL A   1      32.532  28.271  24.076  1.00  0.00     0.324 C 
ATOM     17  H   UNL A   1      33.346  26.680  23.236  1.00  0.00     0.348 HD
BRANCH  11  18
ATOM     18  C   UNL A   1      29.890  29.852  22.516  1.00  0.00     0.265 C 
BRANCH  18  19
ATOM     19  C   UNL A   1      28.533  30.589  22.547  1.00  0.00     0.038 C 
ATOM     20  C   UNL A   1      27.382  29.744  23.086  1.00  0.00     0.013 C 
ATOM     21  C   UNL A   1      28.663  31.842  23.414  1.00  0.00     0.013 C 
ENDBRANCH  18  19
ENDBRANCH  11  18
ENDBRANCH   6  10
BRANCH   5  22
ATOM     22  N   UNL A   1      31.491  23.605  26.657  1.00  0.00    -0.343 N 
ATOM     23  H   UNL A   1      31.102  24.547  26.717  1.00  0.00     0.345 HD
ATOM     24  H   UNL A   1      31.911  23.354  27.552  1.00  0.00     0.345 HD
ATOM     25  H   UNL A   1      30.746  22.945  26.433  1.00  0.00     0.345 HD
ENDBRANCH   5  22
ENDBRANCH   3   5
ENDBRANCH   2   3
ENDBRANCH   1   2
BRANCH   1  26
ATOM     26  C   UNL A   1      36.231  21.045  24.615  1.00  0.00     0.275 C 
BRANCH  26  27
ATOM     27  O   UNL A   1      36.921  21.418  25.821  1.00  0.00    -0.458 OA
BRANCH  27  28
ATOM     28  C   UNL A   1      38.265  21.275  25.791  1.00  0.00     0.338 C 
ATOM     29  O   UNL A   1      38.900  20.329  25.349  1.00  0.00    -0.246 OA
BRANCH  28  30
ATOM     30  C   UNL A   1      38.900  22.444  26.420  1.00  0.00     0.060 A 
ATOM     31  C   UNL A   1      38.402  23.727  26.198  1.00  0.00     0.016 A 
ATOM     32  C   UNL A   1      40.070  22.261  27.158  1.00  0.00     0.016 A 
ATOM     33  C   UNL A   1      39.124  24.834  26.653  1.00  0.00     0.010 A 
ATOM     34  C   UNL A   1      40.745  23.371  27.676  1.00  0.00     0.010 A 
ATOM     35  C   UNL A   1      40.310  24.677  27.391  1.00  0.00    -0.014 A 
BRANCH  35  36
ATOM     36  C   UNL A   1      41.116  25.859  27.825  1.00  0.00     0.031 A 
ATOM     37  C   UNL A   1      40.483  26.951  28.662  1.00  0.00     0.074 A 
ATOM     38  C   UNL A   1      42.413  25.970  27.470  1.00  0.00     0.049 A 
ATOM     39  N   UNL A   1      40.955  28.130  28.983  1.00  0.00    -0.248 NA
ATOM     40  C   UNL A   1      39.136  26.687  29.190  1.00  0.00     0.031 C 
ATOM     41  C   UNL A   1      43.171  24.980  26.702  1.00  0.00     0.029 A 
ATOM     42  N   UNL A   1      43.327  26.971  27.703  1.00  0.00    -0.354 N 
ATOM     43  C   UNL A   1      39.945  28.767  29.703  1.00  0.00     0.074 A 
ATOM     44  C   UNL A   1      38.835  27.841  29.769  1.00  0.00     0.031 C 
ATOM     45  C   UNL A   1      44.435  25.405  26.555  1.00  0.00     0.029 A 
ATOM     46  C   UNL A   1      44.557  26.740  27.129  1.00  0.00     0.049 A 
ATOM     47  H   UNL A   1      43.121  27.776  28.232  1.00  0.00     0.167 HD
ATOM     48  C   UNL A   1      39.940  30.011  30.246  1.00  0.00     0.034 A 
ATOM     49  C   UNL A   1      45.646  27.529  27.020  1.00  0.00     0.034 A 
ATOM     50  C   UNL A   1      41.066  30.912  30.206  1.00  0.00     0.049 A 
ATOM     51  C   UNL A   1      45.601  28.920  27.593  1.00  0.00     0.074 A 
ATOM     52  C   UNL A   1      41.174  32.179  30.756  1.00  0.00     0.029 A 
ATOM     53  N   UNL A   1      42.277  30.649  29.581  1.00  0.00    -0.354 N 
ATOM     54  N   UNL A   1      44.622  29.520  28.231  1.00  0.00    -0.248 NA
ATOM     55  C   UNL A   1      46.801  29.748  27.415  1.00  0.00     0.031 C 
ATOM     56  C   UNL A   1      42.423  32.706  30.408  1.00  0.00     0.029 A 
ATOM     57  C   UNL A   1      43.124  31.741  29.702  1.00  0.00     0.049 A 
ATOM     58  H   UNL A   1      42.503  29.809  29.120  1.00  0.00     0.167 HD
ATOM     59  C   UNL A   1      45.097  30.791  28.541  1.00  0.00     0.074 A 
ATOM     60  C   UNL A   1      46.454  30.864  28.039  1.00  0.00     0.031 C 
ATOM     61  C   UNL A   1      44.467  31.809  29.180  1.00  0.00     0.034 A 
BRANCH  48  62
ATOM     62  C   UNL A   1      38.652  30.505  30.860  1.00  0.00     0.023 A 
ATOM     63  C   UNL A   1      37.640  31.121  30.104  1.00  0.00     0.031 A 
ATOM     64  C   UNL A   1      38.439  30.351  32.243  1.00  0.00     0.131 A 
ATOM     65  C   UNL A   1      36.495  31.621  30.747  1.00  0.00     0.055 A 
ATOM     66  C   UNL A   1      37.264  30.778  32.863  1.00  0.00     0.041 A 
ATOM     67  F   UNL A   1      39.377  29.782  33.018  1.00  0.00    -0.206 F 
ATOM     68  C   UNL A   1      36.288  31.428  32.115  1.00  0.00     0.022 A 
BRANCH  65  69
ATOM     69  S   UNL A   1      35.287  32.598  29.811  1.00  0.00     0.124 S 
ATOM     70  O   UNL A   1      34.332  32.949  30.859  1.00  0.00    -0.237 OA
ATOM     71  O   UNL A   1      36.087  33.697  29.283  1.00  0.00    -0.237 OA
ATOM     72  O   UNL A   1      34.792  31.656  28.810  1.00  0.00    -0.744 OA
ENDBRANCH  65  69
ENDBRANCH  48  62
BRANCH  49  73
ATOM     73  C   UNL A   1      46.844  27.057  26.266  1.00  0.00     0.023 A 
ATOM     74  C   UNL A   1      47.905  26.407  26.918  1.00  0.00     0.031 A 
ATOM     75  C   UNL A   1      46.962  27.292  24.884  1.00  0.00     0.131 A 
ATOM     76  C   UNL A   1      49.051  26.045  26.193  1.00  0.00     0.055 A 
ATOM     77  C   UNL A   1      48.081  26.879  24.158  1.00  0.00     0.041 A 
ATOM     78  F   UNL A   1      45.980  27.913  24.213  1.00  0.00    -0.206 F 
ATOM     79  C   UNL A   1      49.140  26.263  24.815  1.00  0.00     0.022 A 
BRANCH  76  80
ATOM     80  S   UNL A   1      50.468  25.360  27.093  1.00  0.00     0.124 S 
ATOM     81  O   UNL A   1      51.362  24.987  26.003  1.00  0.00    -0.237 OA
ATOM     82  O   UNL A   1      50.889  26.496  27.907  1.00  0.00    -0.237 OA
ATOM     83  O   UNL A   1      49.891  24.242  27.838  1.00  0.00    -0.744 OA
ENDBRANCH  76  80
ENDBRANCH  49  73
BRANCH  61  84
ATOM     84  C   UNL A   1      45.262  33.070  29.402  1.00  0.00     0.023 A 
ATOM     85  C   UNL A   1      45.243  34.125  28.472  1.00  0.00     0.031 A 
ATOM     86  C   UNL A   1      46.067  33.208  30.546  1.00  0.00     0.131 A 
ATOM     87  C   UNL A   1      46.056  35.251  28.678  1.00  0.00     0.055 A 
ATOM     88  C   UNL A   1      46.831  34.352  30.772  1.00  0.00     0.041 A 
ATOM     89  F   UNL A   1      46.122  32.228  31.463  1.00  0.00    -0.206 F 
ATOM     90  C   UNL A   1      46.839  35.376  29.829  1.00  0.00     0.022 A 
BRANCH  87  91
ATOM     91  S   UNL A   1      46.142  36.514  27.380  1.00  0.00     0.124 S 
ATOM     92  O   UNL A   1      47.506  37.011  27.530  1.00  0.00    -0.237 OA
ATOM     93  O   UNL A   1      45.874  35.740  26.171  1.00  0.00    -0.237 OA
ATOM     94  O   UNL A   1      45.093  37.461  27.752  1.00  0.00    -0.744 OA
ENDBRANCH  87  91
ENDBRANCH  61  84
ENDBRANCH  35  36
ENDBRANCH  28  30
ENDBRANCH  27  28
ENDBRANCH  26  27
ENDBRANCH   1  26
TORSDOF 18
ENDMDL
