MODEL 1
REMARK VINA RESULT:     -11.5      0.000      0.000
REMARK SMILES COc1cccc(CC(=O)N[C@@](C)(C(=O)OCCOC(=O)c2ccc(-c3c4nc(c(-c5cc(S(=O)(=O)[O-])ccc5F)c5ccc([nH]5)c(-c5cc(S(=O)(=O)[O-])ccc5F)c5nc(c(-c6cc(S(=O)(=O)[O-])ccc6F)c6ccc3[nH]6)C=C5)C=C4)cc2)C(F)(F)F)c1
REMARK SMILES IDX 17 1 16 2 14 3 15 4 12 5 13 6 11 7 9 8 10 9 8 11 7 12 3 13
REMARK SMILES IDX 4 14 89 15 5 16 6 17 2 18 1 19 85 20 86 21 87 22 88 23 18 24
REMARK SMILES IDX 19 25 20 26 21 27 22 28 23 29 84 30 24 31 83 32 25 33 26 34
REMARK SMILES IDX 27 35 77 36 28 37 82 38 76 39 78 40 29 41 81 42 75 43 74 44
REMARK SMILES IDX 30 46 62 47 42 48 61 49 43 50 46 51 60 52 79 53 44 54 45 55
REMARK SMILES IDX 59 57 80 58 47 59 31 60 32 61 40 62 33 63 39 64 41 65 38 66
REMARK SMILES IDX 34 67 35 68 36 69 37 70 63 71 64 72 72 73 65 74 71 75 73 76
REMARK SMILES IDX 70 77 66 78 67 79 68 80 69 81 48 82 49 83 57 84 50 85 56 86
REMARK SMILES IDX 58 87 55 88 51 89 52 90 53 91 54 92
REMARK H PARENT 11 10 78 45 46 56
REMARK Flexibility Score: inf
ROOT
ATOM      1  C   UNL A   1      36.080  19.817  24.975  1.00  0.00     0.274 C 
ENDROOT
BRANCH   1   2
ATOM      2  O   UNL A   1      35.500  21.097  24.645  1.00  0.00    -0.460 OA
BRANCH   2   3
ATOM      3  C   UNL A   1      34.295  21.360  25.242  1.00  0.00     0.341 C 
ATOM      4  O   UNL A   1      33.600  20.491  25.753  1.00  0.00    -0.249 OA
BRANCH   3   5
ATOM      5  C   UNL A   1      33.831  22.796  24.972  1.00  0.00     0.231 C 
ATOM      6  C   UNL A   1      32.419  22.898  25.592  1.00  0.00     0.058 C 
BRANCH   5   7
ATOM      7  N   UNL A   1      33.630  23.073  23.503  1.00  0.00    -0.333 N 
ATOM      8  C   UNL A   1      33.414  24.135  22.687  1.00  0.00     0.225 C 
ATOM      9  O   UNL A   1      33.334  23.856  21.485  1.00  0.00    -0.275 OA
ATOM     10  H   UNL A   1      33.665  22.238  22.984  1.00  0.00     0.164 HD
BRANCH   8  11
ATOM     11  C   UNL A   1      33.289  25.574  23.141  1.00  0.00     0.135 C 
BRANCH  11  12
ATOM     12  C   UNL A   1      31.887  26.123  23.220  1.00  0.00    -0.035 A 
ATOM     13  C   UNL A   1      30.309  27.847  22.525  1.00  0.00     0.119 A 
ATOM     14  C   UNL A   1      29.390  27.365  23.453  1.00  0.00     0.046 A 
ATOM     15  C   UNL A   1      31.524  27.183  22.368  1.00  0.00     0.050 A 
ATOM     16  C   UNL A   1      29.691  26.245  24.232  1.00  0.00     0.004 A 
ATOM     17  C   UNL A   1      30.937  25.625  24.119  1.00  0.00     0.004 A 
BRANCH  13  18
ATOM     18  O   UNL A   1      29.931  28.978  21.855  1.00  0.00    -0.497 OA
ATOM     19  C   UNL A   1      28.670  29.542  22.212  1.00  0.00     0.278 C 
ENDBRANCH  13  18
ENDBRANCH  11  12
ENDBRANCH   8  11
ENDBRANCH   5   7
BRANCH   5  20
ATOM     20  C   UNL A   1      34.746  23.701  25.805  1.00  0.00     0.422 C 
ATOM     21  F   UNL A   1      35.215  23.076  26.903  1.00  0.00    -0.168 F 
ATOM     22  F   UNL A   1      35.788  24.131  25.061  1.00  0.00    -0.168 F 
ATOM     23  F   UNL A   1      34.117  24.826  26.223  1.00  0.00    -0.168 F 
ENDBRANCH   5  20
ENDBRANCH   3   5
ENDBRANCH   2   3
ENDBRANCH   1   2
BRANCH   1  24
ATOM     24  C   UNL A   1      37.594  19.837  24.812  1.00  0.00     0.275 C 
BRANCH  24  25
ATOM     25  O   UNL A   1      38.116  21.070  25.329  1.00  0.00    -0.458 OA
BRANCH  25  26
ATOM     26  C   UNL A   1      39.299  20.966  25.976  1.00  0.00     0.338 C 
ATOM     27  O   UNL A   1      40.005  19.972  26.061  1.00  0.00    -0.246 OA
BRANCH  26  28
ATOM     28  C   UNL A   1      39.655  22.258  26.584  1.00  0.00     0.060 A 
ATOM     29  C   UNL A   1      38.977  23.416  26.212  1.00  0.00     0.016 A 
ATOM     30  C   UNL A   1      40.762  22.337  27.429  1.00  0.00     0.016 A 
ATOM     31  C   UNL A   1      39.471  24.662  26.596  1.00  0.00     0.010 A 
ATOM     32  C   UNL A   1      41.202  23.587  27.882  1.00  0.00     0.010 A 
ATOM     33  C   UNL A   1      40.599  24.771  27.425  1.00  0.00    -0.014 A 
BRANCH  33  34
ATOM     34  C   UNL A   1      41.196  26.111  27.719  1.00  0.00     0.031 A 
ATOM     35  C   UNL A   1      42.521  26.503  27.103  1.00  0.00     0.074 A 
ATOM     36  C   UNL A   1      40.547  27.003  28.495  1.00  0.00     0.049 A 
ATOM     37  N   UNL A   1      43.275  27.545  27.347  1.00  0.00    -0.248 NA
ATOM     38  C   UNL A   1      43.084  25.587  26.098  1.00  0.00     0.031 C 
ATOM     39  C   UNL A   1      39.253  26.782  29.143  1.00  0.00     0.029 A 
ATOM     40  N   UNL A   1      40.877  28.287  28.856  1.00  0.00    -0.354 N 
ATOM     41  C   UNL A   1      44.434  27.368  26.594  1.00  0.00     0.074 A 
ATOM     42  C   UNL A   1      44.276  26.121  25.877  1.00  0.00     0.031 C 
ATOM     43  C   UNL A   1      38.873  27.909  29.766  1.00  0.00     0.029 A 
ATOM     44  C   UNL A   1      39.929  28.906  29.638  1.00  0.00     0.049 A 
ATOM     45  H   UNL A   1      41.716  28.724  28.581  1.00  0.00     0.167 HD
ATOM     46  C   UNL A   1      45.529  28.165  26.515  1.00  0.00     0.034 A 
ATOM     47  C   UNL A   1      39.920  30.125  30.216  1.00  0.00     0.034 A 
ATOM     48  C   UNL A   1      45.644  29.449  27.162  1.00  0.00     0.049 A 
ATOM     49  C   UNL A   1      41.122  31.021  30.060  1.00  0.00     0.074 A 
ATOM     50  C   UNL A   1      46.703  30.343  27.126  1.00  0.00     0.029 A 
ATOM     51  N   UNL A   1      44.659  30.038  27.943  1.00  0.00    -0.354 N 
ATOM     52  N   UNL A   1      42.243  30.793  29.415  1.00  0.00    -0.248 NA
ATOM     53  C   UNL A   1      41.065  32.328  30.728  1.00  0.00     0.031 C 
ATOM     54  C   UNL A   1      46.374  31.450  27.918  1.00  0.00     0.029 A 
ATOM     55  C   UNL A   1      45.089  31.274  28.403  1.00  0.00     0.049 A 
ATOM     56  H   UNL A   1      43.782  29.636  28.142  1.00  0.00     0.167 HD
ATOM     57  C   UNL A   1      43.029  31.924  29.617  1.00  0.00     0.074 A 
ATOM     58  C   UNL A   1      42.236  32.851  30.399  1.00  0.00     0.031 C 
ATOM     59  C   UNL A   1      44.301  32.170  29.212  1.00  0.00     0.034 A 
BRANCH  46  60
ATOM     60  C   UNL A   1      46.722  27.637  25.756  1.00  0.00     0.023 A 
ATOM     61  C   UNL A   1      46.986  27.989  24.422  1.00  0.00     0.031 A 
ATOM     62  C   UNL A   1      47.606  26.745  26.390  1.00  0.00     0.131 A 
ATOM     63  C   UNL A   1      48.071  27.405  23.749  1.00  0.00     0.055 A 
ATOM     64  C   UNL A   1      48.723  26.221  25.738  1.00  0.00     0.041 A 
ATOM     65  F   UNL A   1      47.392  26.359  27.659  1.00  0.00    -0.206 F 
ATOM     66  C   UNL A   1      48.955  26.542  24.404  1.00  0.00     0.022 A 
BRANCH  63  67
ATOM     67  S   UNL A   1      48.252  27.695  21.967  1.00  0.00     0.124 S 
ATOM     68  O   UNL A   1      49.434  28.553  21.927  1.00  0.00    -0.237 OA
ATOM     69  O   UNL A   1      48.422  26.346  21.442  1.00  0.00    -0.237 OA
ATOM     70  O   UNL A   1      47.000  28.353  21.598  1.00  0.00    -0.744 OA
ENDBRANCH  63  67
ENDBRANCH  46  60
BRANCH  47  71
ATOM     71  C   UNL A   1      38.766  30.556  31.055  1.00  0.00     0.023 A 
ATOM     72  C   UNL A   1      37.649  31.187  30.483  1.00  0.00     0.031 A 
ATOM     73  C   UNL A   1      38.787  30.390  32.451  1.00  0.00     0.131 A 
ATOM     74  C   UNL A   1      36.618  31.664  31.308  1.00  0.00     0.055 A 
ATOM     75  C   UNL A   1      37.735  30.817  33.262  1.00  0.00     0.041 A 
ATOM     76  F   UNL A   1      39.832  29.795  33.048  1.00  0.00    -0.206 F 
ATOM     77  C   UNL A   1      36.647  31.469  32.691  1.00  0.00     0.022 A 
BRANCH  74  78
ATOM     78  S   UNL A   1      35.275  32.623  30.556  1.00  0.00     0.124 S 
ATOM     79  O   UNL A   1      35.929  33.900  30.296  1.00  0.00    -0.237 OA
ATOM     80  O   UNL A   1      34.949  31.817  29.384  1.00  0.00    -0.237 OA
ATOM     81  O   UNL A   1      34.250  32.647  31.597  1.00  0.00    -0.744 OA
ENDBRANCH  74  78
ENDBRANCH  47  71
BRANCH  59  82
ATOM     82  C   UNL A   1      44.897  33.492  29.622  1.00  0.00     0.023 A 
ATOM     83  C   UNL A   1      44.738  34.641  28.826  1.00  0.00     0.031 A 
ATOM     84  C   UNL A   1      45.663  33.597  30.794  1.00  0.00     0.131 A 
ATOM     85  C   UNL A   1      45.385  35.832  29.182  1.00  0.00     0.055 A 
ATOM     86  C   UNL A   1      46.265  34.800  31.170  1.00  0.00     0.041 A 
ATOM     87  F   UNL A   1      45.847  32.532  31.589  1.00  0.00    -0.206 F 
ATOM     88  C   UNL A   1      46.139  35.922  30.354  1.00  0.00     0.022 A 
BRANCH  85  89
ATOM     89  S   UNL A   1      45.307  37.240  28.040  1.00  0.00     0.124 S 
ATOM     90  O   UNL A   1      44.687  38.271  28.866  1.00  0.00    -0.237 OA
ATOM     91  O   UNL A   1      46.713  37.449  27.708  1.00  0.00    -0.237 OA
ATOM     92  O   UNL A   1      44.479  36.747  26.941  1.00  0.00    -0.744 OA
ENDBRANCH  85  89
ENDBRANCH  59  82
ENDBRANCH  33  34
ENDBRANCH  26  28
ENDBRANCH  25  26
ENDBRANCH  24  25
ENDBRANCH   1  24
TORSDOF 19
ENDMDL
MODEL 2
REMARK VINA RESULT:     -11.4      1.535      7.717
REMARK SMILES COc1cccc(CC(=O)N[C@@](C)(C(=O)OCCOC(=O)c2ccc(-c3c4nc(c(-c5cc(S(=O)(=O)[O-])ccc5F)c5ccc([nH]5)c(-c5cc(S(=O)(=O)[O-])ccc5F)c5nc(c(-c6cc(S(=O)(=O)[O-])ccc6F)c6ccc3[nH]6)C=C5)C=C4)cc2)C(F)(F)F)c1
REMARK SMILES IDX 17 1 16 2 14 3 15 4 12 5 13 6 11 7 9 8 10 9 8 11 7 12 3 13
REMARK SMILES IDX 4 14 89 15 5 16 6 17 2 18 1 19 85 20 86 21 87 22 88 23 18 24
REMARK SMILES IDX 19 25 20 26 21 27 22 28 23 29 84 30 24 31 83 32 25 33 26 34
REMARK SMILES IDX 27 35 77 36 28 37 82 38 76 39 78 40 29 41 81 42 75 43 74 44
REMARK SMILES IDX 30 46 62 47 42 48 61 49 43 50 46 51 60 52 79 53 44 54 45 55
REMARK SMILES IDX 59 57 80 58 47 59 31 60 32 61 40 62 33 63 39 64 41 65 38 66
REMARK SMILES IDX 34 67 35 68 36 69 37 70 63 71 64 72 72 73 65 74 71 75 73 76
REMARK SMILES IDX 70 77 66 78 67 79 68 80 69 81 48 82 49 83 57 84 50 85 56 86
REMARK SMILES IDX 58 87 55 88 51 89 52 90 53 91 54 92
REMARK H PARENT 11 10 78 45 46 56
REMARK Flexibility Score: inf
ROOT
ATOM      1  C   UNL A   1      35.103  21.115  24.598  1.00  0.00     0.274 C 
ENDROOT
BRANCH   1   2
ATOM      2  O   UNL A   1      34.352  22.315  24.887  1.00  0.00    -0.460 OA
BRANCH   2   3
ATOM      3  C   UNL A   1      34.407  23.282  23.918  1.00  0.00     0.341 C 
ATOM      4  O   UNL A   1      35.408  23.493  23.243  1.00  0.00    -0.249 OA
BRANCH   3   5
ATOM      5  C   UNL A   1      33.180  24.198  23.963  1.00  0.00     0.231 C 
ATOM      6  C   UNL A   1      33.700  25.605  23.593  1.00  0.00     0.058 C 
BRANCH   5   7
ATOM      7  N   UNL A   1      32.619  24.347  25.355  1.00  0.00    -0.333 N 
ATOM      8  C   UNL A   1      31.481  24.778  25.954  1.00  0.00     0.225 C 
ATOM      9  O   UNL A   1      31.475  24.681  27.187  1.00  0.00    -0.275 OA
ATOM     10  H   UNL A   1      33.271  24.042  26.026  1.00  0.00     0.164 HD
BRANCH   8  11
ATOM     11  C   UNL A   1      30.269  25.330  25.233  1.00  0.00     0.135 C 
BRANCH  11  12
ATOM     12  C   UNL A   1      30.413  26.719  24.663  1.00  0.00    -0.035 A 
ATOM     13  C   UNL A   1      31.263  28.986  24.955  1.00  0.00     0.119 A 
ATOM     14  C   UNL A   1      30.561  29.383  23.819  1.00  0.00     0.046 A 
ATOM     15  C   UNL A   1      31.237  27.644  25.331  1.00  0.00     0.050 A 
ATOM     16  C   UNL A   1      29.824  28.454  23.081  1.00  0.00     0.004 A 
ATOM     17  C   UNL A   1      29.747  27.124  23.501  1.00  0.00     0.004 A 
BRANCH  13  18
ATOM     18  O   UNL A   1      31.905  29.986  25.630  1.00  0.00    -0.497 OA
ATOM     19  C   UNL A   1      32.134  29.777  27.022  1.00  0.00     0.278 C 
ENDBRANCH  13  18
ENDBRANCH  11  12
ENDBRANCH   8  11
ENDBRANCH   5   7
BRANCH   5  20
ATOM     20  C   UNL A   1      32.270  23.746  22.814  1.00  0.00     0.422 C 
ATOM     21  F   UNL A   1      31.302  22.909  23.235  1.00  0.00    -0.168 F 
ATOM     22  F   UNL A   1      31.703  24.815  22.214  1.00  0.00    -0.168 F 
ATOM     23  F   UNL A   1      32.955  23.106  21.835  1.00  0.00    -0.168 F 
ENDBRANCH   5  20
ENDBRANCH   3   5
ENDBRANCH   2   3
ENDBRANCH   1   2
BRANCH   1  24
ATOM     24  C   UNL A   1      36.257  20.936  25.575  1.00  0.00     0.275 C 
BRANCH  24  25
ATOM     25  O   UNL A   1      37.472  21.406  24.971  1.00  0.00    -0.458 OA
BRANCH  25  26
ATOM     26  C   UNL A   1      38.604  21.092  25.641  1.00  0.00     0.338 C 
ATOM     27  O   UNL A   1      39.145  19.997  25.699  1.00  0.00    -0.246 OA
BRANCH  26  28
ATOM     28  C   UNL A   1      39.139  22.287  26.313  1.00  0.00     0.060 A 
ATOM     29  C   UNL A   1      38.576  23.537  26.067  1.00  0.00     0.016 A 
ATOM     30  C   UNL A   1      40.293  22.180  27.088  1.00  0.00     0.016 A 
ATOM     31  C   UNL A   1      39.229  24.689  26.504  1.00  0.00     0.010 A 
ATOM     32  C   UNL A   1      40.897  23.337  27.598  1.00  0.00     0.010 A 
ATOM     33  C   UNL A   1      40.407  24.611  27.264  1.00  0.00    -0.014 A 
BRANCH  33  34
ATOM     34  C   UNL A   1      41.167  25.852  27.611  1.00  0.00     0.031 A 
ATOM     35  C   UNL A   1      40.541  26.899  28.507  1.00  0.00     0.074 A 
ATOM     36  C   UNL A   1      42.430  26.036  27.174  1.00  0.00     0.049 A 
ATOM     37  N   UNL A   1      40.967  28.101  28.803  1.00  0.00    -0.248 NA
ATOM     38  C   UNL A   1      39.253  26.556  29.130  1.00  0.00     0.031 C 
ATOM     39  C   UNL A   1      43.179  25.110  26.323  1.00  0.00     0.029 A 
ATOM     40  N   UNL A   1      43.319  27.059  27.404  1.00  0.00    -0.354 N 
ATOM     41  C   UNL A   1      39.964  28.686  29.573  1.00  0.00     0.074 A 
ATOM     42  C   UNL A   1      38.914  27.700  29.706  1.00  0.00     0.031 C 
ATOM     43  C   UNL A   1      44.426  25.574  26.155  1.00  0.00     0.029 A 
ATOM     44  C   UNL A   1      44.547  26.871  26.812  1.00  0.00     0.049 A 
ATOM     45  H   UNL A   1      43.098  27.854  27.942  1.00  0.00     0.167 HD
ATOM     46  C   UNL A   1      39.920  29.930  30.111  1.00  0.00     0.034 A 
ATOM     47  C   UNL A   1      45.639  27.663  26.772  1.00  0.00     0.034 A 
ATOM     48  C   UNL A   1      41.007  30.878  30.051  1.00  0.00     0.049 A 
ATOM     49  C   UNL A   1      45.589  29.015  27.434  1.00  0.00     0.074 A 
ATOM     50  C   UNL A   1      41.070  32.156  30.584  1.00  0.00     0.029 A 
ATOM     51  N   UNL A   1      42.233  30.645  29.444  1.00  0.00    -0.354 N 
ATOM     52  N   UNL A   1      44.597  29.582  28.081  1.00  0.00    -0.248 NA
ATOM     53  C   UNL A   1      46.799  29.843  27.341  1.00  0.00     0.031 C 
ATOM     54  C   UNL A   1      42.315  32.709  30.262  1.00  0.00     0.029 A 
ATOM     55  C   UNL A   1      43.052  31.757  29.577  1.00  0.00     0.049 A 
ATOM     56  H   UNL A   1      42.485  29.811  28.984  1.00  0.00     0.167 HD
ATOM     57  C   UNL A   1      45.061  30.840  28.455  1.00  0.00     0.074 A 
ATOM     58  C   UNL A   1      46.436  30.928  28.007  1.00  0.00     0.031 C 
ATOM     59  C   UNL A   1      44.407  31.843  29.094  1.00  0.00     0.034 A 
BRANCH  46  60
ATOM     60  C   UNL A   1      38.625  30.368  30.752  1.00  0.00     0.023 A 
ATOM     61  C   UNL A   1      37.605  31.012  30.032  1.00  0.00     0.031 A 
ATOM     62  C   UNL A   1      38.422  30.144  32.126  1.00  0.00     0.131 A 
ATOM     63  C   UNL A   1      36.455  31.461  30.702  1.00  0.00     0.055 A 
ATOM     64  C   UNL A   1      37.247  30.530  32.772  1.00  0.00     0.041 A 
ATOM     65  F   UNL A   1      39.371  29.550  32.867  1.00  0.00    -0.206 F 
ATOM     66  C   UNL A   1      36.259  31.204  32.062  1.00  0.00     0.022 A 
BRANCH  63  67
ATOM     67  S   UNL A   1      35.265  32.490  29.799  1.00  0.00     0.124 S 
ATOM     68  O   UNL A   1      34.815  31.572  28.755  1.00  0.00    -0.237 OA
ATOM     69  O   UNL A   1      34.287  32.818  30.828  1.00  0.00    -0.237 OA
ATOM     70  O   UNL A   1      36.072  33.613  29.326  1.00  0.00    -0.744 OA
ENDBRANCH  63  67
ENDBRANCH  46  60
BRANCH  47  71
ATOM     71  C   UNL A   1      46.857  27.235  26.026  1.00  0.00     0.023 A 
ATOM     72  C   UNL A   1      47.098  27.678  24.716  1.00  0.00     0.031 A 
ATOM     73  C   UNL A   1      47.772  26.332  26.596  1.00  0.00     0.131 A 
ATOM     74  C   UNL A   1      48.204  27.188  24.005  1.00  0.00     0.055 A 
ATOM     75  C   UNL A   1      48.899  25.889  25.905  1.00  0.00     0.041 A 
ATOM     76  F   UNL A   1      47.585  25.876  27.845  1.00  0.00    -0.206 F 
ATOM     77  C   UNL A   1      49.114  26.308  24.596  1.00  0.00     0.022 A 
BRANCH  74  78
ATOM     78  S   UNL A   1      48.392  27.648  22.261  1.00  0.00     0.124 S 
ATOM     79  O   UNL A   1      47.174  28.414  22.021  1.00  0.00    -0.237 OA
ATOM     80  O   UNL A   1      49.636  28.409  22.282  1.00  0.00    -0.237 OA
ATOM     81  O   UNL A   1      48.465  26.359  21.575  1.00  0.00    -0.744 OA
ENDBRANCH  74  78
ENDBRANCH  47  71
BRANCH  59  82
ATOM     82  C   UNL A   1      45.182  33.114  29.329  1.00  0.00     0.023 A 
ATOM     83  C   UNL A   1      45.260  34.112  28.342  1.00  0.00     0.031 A 
ATOM     84  C   UNL A   1      45.881  33.312  30.532  1.00  0.00     0.131 A 
ATOM     85  C   UNL A   1      46.067  35.239  28.550  1.00  0.00     0.055 A 
ATOM     86  C   UNL A   1      46.644  34.460  30.754  1.00  0.00     0.041 A 
ATOM     87  F   UNL A   1      45.840  32.390  31.506  1.00  0.00    -0.206 F 
ATOM     88  C   UNL A   1      46.752  35.425  29.754  1.00  0.00     0.022 A 
BRANCH  85  89
ATOM     89  S   UNL A   1      46.289  36.416  27.187  1.00  0.00     0.124 S 
ATOM     90  O   UNL A   1      45.125  37.282  27.338  1.00  0.00    -0.237 OA
ATOM     91  O   UNL A   1      47.579  37.021  27.507  1.00  0.00    -0.237 OA
ATOM     92  O   UNL A   1      46.281  35.569  25.997  1.00  0.00    -0.744 OA
ENDBRANCH  85  89
ENDBRANCH  59  82
ENDBRANCH  33  34
ENDBRANCH  26  28
ENDBRANCH  25  26
ENDBRANCH  24  25
ENDBRANCH   1  24
TORSDOF 19
ENDMDL
MODEL 3
REMARK VINA RESULT:     -11.1      1.675      2.127
REMARK SMILES COc1cccc(CC(=O)N[C@@](C)(C(=O)OCCOC(=O)c2ccc(-c3c4nc(c(-c5cc(S(=O)(=O)[O-])ccc5F)c5ccc([nH]5)c(-c5cc(S(=O)(=O)[O-])ccc5F)c5nc(c(-c6cc(S(=O)(=O)[O-])ccc6F)c6ccc3[nH]6)C=C5)C=C4)cc2)C(F)(F)F)c1
REMARK SMILES IDX 17 1 16 2 14 3 15 4 12 5 13 6 11 7 9 8 10 9 8 11 7 12 3 13
REMARK SMILES IDX 4 14 89 15 5 16 6 17 2 18 1 19 85 20 86 21 87 22 88 23 18 24
REMARK SMILES IDX 19 25 20 26 21 27 22 28 23 29 84 30 24 31 83 32 25 33 26 34
REMARK SMILES IDX 27 35 77 36 28 37 82 38 76 39 78 40 29 41 81 42 75 43 74 44
REMARK SMILES IDX 30 46 62 47 42 48 61 49 43 50 46 51 60 52 79 53 44 54 45 55
REMARK SMILES IDX 59 57 80 58 47 59 31 60 32 61 40 62 33 63 39 64 41 65 38 66
REMARK SMILES IDX 34 67 35 68 36 69 37 70 63 71 64 72 72 73 65 74 71 75 73 76
REMARK SMILES IDX 70 77 66 78 67 79 68 80 69 81 48 82 49 83 57 84 50 85 56 86
REMARK SMILES IDX 58 87 55 88 51 89 52 90 53 91 54 92
REMARK H PARENT 11 10 78 45 46 56
REMARK Flexibility Score: inf
ROOT
ATOM      1  C   UNL A   1      36.019  19.972  25.005  1.00  0.00     0.274 C 
ENDROOT
BRANCH   1   2
ATOM      2  O   UNL A   1      35.500  21.236  25.474  1.00  0.00    -0.460 OA
BRANCH   2   3
ATOM      3  C   UNL A   1      34.209  21.507  25.103  1.00  0.00     0.341 C 
ATOM      4  O   UNL A   1      33.445  20.653  24.671  1.00  0.00    -0.249 OA
BRANCH   3   5
ATOM      5  C   UNL A   1      33.937  23.015  25.065  1.00  0.00     0.231 C 
ATOM      6  C   UNL A   1      35.105  23.666  25.840  1.00  0.00     0.058 C 
BRANCH   5   7
ATOM      7  N   UNL A   1      32.699  23.400  25.837  1.00  0.00    -0.333 N 
ATOM      8  C   UNL A   1      32.116  24.519  26.334  1.00  0.00     0.225 C 
ATOM      9  O   UNL A   1      31.034  24.329  26.903  1.00  0.00    -0.275 OA
ATOM     10  H   UNL A   1      32.156  22.605  26.040  1.00  0.00     0.164 HD
BRANCH   8  11
ATOM     11  C   UNL A   1      32.677  25.921  26.222  1.00  0.00     0.135 C 
BRANCH  11  12
ATOM     12  C   UNL A   1      32.014  26.820  25.210  1.00  0.00    -0.035 A 
ATOM     13  C   UNL A   1      31.235  27.119  22.919  1.00  0.00     0.119 A 
ATOM     14  C   UNL A   1      30.998  28.465  23.187  1.00  0.00     0.046 A 
ATOM     15  C   UNL A   1      31.678  26.292  23.950  1.00  0.00     0.050 A 
ATOM     16  C   UNL A   1      31.222  28.983  24.464  1.00  0.00     0.004 A 
ATOM     17  C   UNL A   1      31.731  28.165  25.475  1.00  0.00     0.004 A 
BRANCH  13  18
ATOM     18  O   UNL A   1      31.031  26.732  21.623  1.00  0.00    -0.497 OA
ATOM     19  C   UNL A   1      32.066  25.963  21.014  1.00  0.00     0.278 C 
ENDBRANCH  13  18
ENDBRANCH  11  12
ENDBRANCH   8  11
ENDBRANCH   5   7
BRANCH   5  20
ATOM     20  C   UNL A   1      34.088  23.438  23.600  1.00  0.00     0.422 C 
ATOM     21  F   UNL A   1      32.933  23.319  22.916  1.00  0.00    -0.168 F 
ATOM     22  F   UNL A   1      34.522  24.713  23.519  1.00  0.00    -0.168 F 
ATOM     23  F   UNL A   1      35.018  22.701  22.943  1.00  0.00    -0.168 F 
ENDBRANCH   5  20
ENDBRANCH   3   5
ENDBRANCH   2   3
ENDBRANCH   1   2
BRANCH   1  24
ATOM     24  C   UNL A   1      37.538  19.998  24.913  1.00  0.00     0.275 C 
BRANCH  24  25
ATOM     25  O   UNL A   1      38.033  21.216  25.489  1.00  0.00    -0.458 OA
BRANCH  25  26
ATOM     26  C   UNL A   1      39.237  21.116  26.096  1.00  0.00     0.338 C 
ATOM     27  O   UNL A   1      39.939  20.119  26.177  1.00  0.00    -0.246 OA
BRANCH  26  28
ATOM     28  C   UNL A   1      39.623  22.418  26.665  1.00  0.00     0.060 A 
ATOM     29  C   UNL A   1      38.955  23.576  26.276  1.00  0.00     0.016 A 
ATOM     30  C   UNL A   1      40.745  22.501  27.488  1.00  0.00     0.016 A 
ATOM     31  C   UNL A   1      39.475  24.824  26.619  1.00  0.00     0.010 A 
ATOM     32  C   UNL A   1      41.212  23.755  27.902  1.00  0.00     0.010 A 
ATOM     33  C   UNL A   1      40.619  24.936  27.425  1.00  0.00    -0.014 A 
BRANCH  33  34
ATOM     34  C   UNL A   1      41.240  26.274  27.675  1.00  0.00     0.031 A 
ATOM     35  C   UNL A   1      42.543  26.643  27.000  1.00  0.00     0.074 A 
ATOM     36  C   UNL A   1      40.632  27.184  28.464  1.00  0.00     0.049 A 
ATOM     37  N   UNL A   1      43.317  27.681  27.198  1.00  0.00    -0.248 NA
ATOM     38  C   UNL A   1      43.055  25.707  25.986  1.00  0.00     0.031 C 
ATOM     39  C   UNL A   1      39.364  26.986  29.167  1.00  0.00     0.029 A 
ATOM     40  N   UNL A   1      40.990  28.470  28.792  1.00  0.00    -0.354 N 
ATOM     41  C   UNL A   1      44.441  27.481  26.400  1.00  0.00     0.074 A 
ATOM     42  C   UNL A   1      44.242  26.225  25.709  1.00  0.00     0.031 C 
ATOM     43  C   UNL A   1      39.021  28.126  29.788  1.00  0.00     0.029 A 
ATOM     44  C   UNL A   1      40.081  29.110  29.603  1.00  0.00     0.049 A 
ATOM     45  H   UNL A   1      41.821  28.894  28.476  1.00  0.00     0.167 HD
ATOM     46  C   UNL A   1      45.540  28.265  26.265  1.00  0.00     0.034 A 
ATOM     47  C   UNL A   1      40.107  30.337  30.162  1.00  0.00     0.034 A 
ATOM     48  C   UNL A   1      45.694  29.557  26.888  1.00  0.00     0.049 A 
ATOM     49  C   UNL A   1      41.311  31.218  29.944  1.00  0.00     0.074 A 
ATOM     50  C   UNL A   1      46.760  30.440  26.795  1.00  0.00     0.029 A 
ATOM     51  N   UNL A   1      44.748  30.168  27.699  1.00  0.00    -0.354 N 
ATOM     52  N   UNL A   1      42.402  30.969  29.257  1.00  0.00    -0.248 NA
ATOM     53  C   UNL A   1      41.294  32.535  30.594  1.00  0.00     0.031 C 
ATOM     54  C   UNL A   1      46.475  31.561  27.583  1.00  0.00     0.029 A 
ATOM     55  C   UNL A   1      45.209  31.406  28.123  1.00  0.00     0.049 A 
ATOM     56  H   UNL A   1      43.876  29.778  27.940  1.00  0.00     0.167 HD
ATOM     57  C   UNL A   1      43.207  32.095  29.410  1.00  0.00     0.074 A 
ATOM     58  C   UNL A   1      42.456  33.041  30.209  1.00  0.00     0.031 C 
ATOM     59  C   UNL A   1      44.463  32.322  28.950  1.00  0.00     0.034 A 
BRANCH  46  60
ATOM     60  C   UNL A   1      46.696  27.714  25.466  1.00  0.00     0.023 A 
ATOM     61  C   UNL A   1      46.947  28.095  24.137  1.00  0.00     0.031 A 
ATOM     62  C   UNL A   1      47.556  26.769  26.055  1.00  0.00     0.131 A 
ATOM     63  C   UNL A   1      47.995  27.489  23.425  1.00  0.00     0.055 A 
ATOM     64  C   UNL A   1      48.638  26.222  25.364  1.00  0.00     0.041 A 
ATOM     65  F   UNL A   1      47.352  26.353  27.316  1.00  0.00    -0.206 F 
ATOM     66  C   UNL A   1      48.856  26.573  24.036  1.00  0.00     0.022 A 
BRANCH  63  67
ATOM     67  S   UNL A   1      48.151  27.826  21.649  1.00  0.00     0.124 S 
ATOM     68  O   UNL A   1      46.844  28.404  21.344  1.00  0.00    -0.237 OA
ATOM     69  O   UNL A   1      49.284  28.743  21.600  1.00  0.00    -0.237 OA
ATOM     70  O   UNL A   1      48.392  26.507  21.069  1.00  0.00    -0.744 OA
ENDBRANCH  63  67
ENDBRANCH  46  60
BRANCH  47  71
ATOM     71  C   UNL A   1      38.992  30.792  31.041  1.00  0.00     0.023 A 
ATOM     72  C   UNL A   1      37.816  31.332  30.498  1.00  0.00     0.031 A 
ATOM     73  C   UNL A   1      39.111  30.742  32.441  1.00  0.00     0.131 A 
ATOM     74  C   UNL A   1      36.821  31.837  31.351  1.00  0.00     0.055 A 
ATOM     75  C   UNL A   1      38.097  31.195  33.285  1.00  0.00     0.041 A 
ATOM     76  F   UNL A   1      40.217  30.237  33.010  1.00  0.00    -0.206 F 
ATOM     77  C   UNL A   1      36.947  31.757  32.739  1.00  0.00     0.022 A 
BRANCH  74  78
ATOM     78  S   UNL A   1      35.392  32.680  30.618  1.00  0.00     0.124 S 
ATOM     79  O   UNL A   1      35.849  34.065  30.581  1.00  0.00    -0.237 OA
ATOM     80  O   UNL A   1      35.273  32.008  29.329  1.00  0.00    -0.237 OA
ATOM     81  O   UNL A   1      34.312  32.404  31.564  1.00  0.00    -0.744 OA
ENDBRANCH  74  78
ENDBRANCH  47  71
BRANCH  59  82
ATOM     82  C   UNL A   1      45.089  33.643  29.315  1.00  0.00     0.023 A 
ATOM     83  C   UNL A   1      45.933  33.763  30.434  1.00  0.00     0.031 A 
ATOM     84  C   UNL A   1      44.809  34.798  28.566  1.00  0.00     0.131 A 
ATOM     85  C   UNL A   1      46.422  35.023  30.807  1.00  0.00     0.055 A 
ATOM     86  C   UNL A   1      45.340  36.042  28.914  1.00  0.00     0.041 A 
ATOM     87  F   UNL A   1      44.009  34.738  27.491  1.00  0.00    -0.206 F 
ATOM     88  C   UNL A   1      46.140  36.162  30.048  1.00  0.00     0.022 A 
BRANCH  85  89
ATOM     89  S   UNL A   1      47.358  35.171  32.355  1.00  0.00     0.124 S 
ATOM     90  O   UNL A   1      48.733  35.256  31.875  1.00  0.00    -0.237 OA
ATOM     91  O   UNL A   1      46.807  36.393  32.934  1.00  0.00    -0.237 OA
ATOM     92  O   UNL A   1      47.028  33.942  33.074  1.00  0.00    -0.744 OA
ENDBRANCH  85  89
ENDBRANCH  59  82
ENDBRANCH  33  34
ENDBRANCH  26  28
ENDBRANCH  25  26
ENDBRANCH  24  25
ENDBRANCH   1  24
TORSDOF 19
ENDMDL
