MODEL 1
REMARK VINA RESULT:     -10.6      0.000      0.000
REMARK SMILES C[NH2+][C@](C)(C(=O)OCCOC(=O)c1ccc(-c2c3nc(c(-c4cc(S(=O)(=O)[O-])ccc4F)c4ccc([nH]4)c(-c4cc(S(=O)(=O)[O-])ccc4F)c4nc(c(-c5cc(S(=O)(=O)[O-])ccc5F)c5ccc2[nH]5)C=C4)C=C3)cc1)c1cccc(Cl)c1
REMARK SMILES IDX 9 1 8 2 7 3 5 4 6 5 3 6 4 7 2 8 1 9 76 12 77 13 82 14 78 15
REMARK SMILES IDX 80 16 79 17 81 18 10 19 11 20 12 21 13 22 14 23 75 24 15 25
REMARK SMILES IDX 74 26 16 27 17 28 18 29 68 30 19 31 73 32 67 33 69 34 20 35
REMARK SMILES IDX 72 36 66 37 65 38 21 40 53 41 33 42 52 43 34 44 37 45 51 46
REMARK SMILES IDX 70 47 35 48 36 49 50 51 71 52 38 53 22 54 23 55 31 56 24 57
REMARK SMILES IDX 30 58 32 59 29 60 25 61 26 62 27 63 28 64 54 65 55 66 63 67
REMARK SMILES IDX 56 68 62 69 64 70 61 71 57 72 58 73 59 74 60 75 39 76 40 77
REMARK SMILES IDX 48 78 41 79 47 80 49 81 46 82 42 83 43 84 44 85 45 86
REMARK H PARENT 2 10 2 11 69 39 37 50
REMARK Flexibility Score: inf
ROOT
ATOM      1  C   UNL A   1      33.164  33.808  28.050  1.00  0.00     0.275 C 
ENDROOT
BRANCH   1   2
ATOM      2  C   UNL A   1      33.263  35.219  28.630  1.00  0.00     0.274 C 
BRANCH   2   3
ATOM      3  O   UNL A   1      32.508  35.313  29.854  1.00  0.00    -0.457 OA
BRANCH   3   4
ATOM      4  C   UNL A   1      32.889  36.315  30.704  1.00  0.00     0.372 C 
ATOM      5  O   UNL A   1      32.907  37.497  30.368  1.00  0.00    -0.244 OA
BRANCH   4   6
ATOM      6  C   UNL A   1      33.348  35.766  32.118  1.00  0.00     0.216 C 
ATOM      7  C   UNL A   1      33.887  36.934  32.983  1.00  0.00     0.098 C 
BRANCH   6   8
ATOM      8  N   UNL A   1      32.167  35.151  32.801  1.00  0.00    -0.331 N 
ATOM      9  C   UNL A   1      30.992  36.000  32.904  1.00  0.00     0.332 C 
ATOM     10  H   UNL A   1      31.905  34.312  32.281  1.00  0.00     0.347 HD
ATOM     11  H   UNL A   1      32.463  34.964  33.759  1.00  0.00     0.347 HD
ENDBRANCH   6   8
BRANCH   6  12
ATOM     12  C   UNL A   1      34.398  34.629  31.980  1.00  0.00     0.025 A 
ATOM     13  C   UNL A   1      34.094  33.290  32.314  1.00  0.00     0.011 A 
ATOM     14  C   UNL A   1      35.665  34.869  31.413  1.00  0.00     0.031 A 
ATOM     15  C   UNL A   1      35.023  32.258  32.131  1.00  0.00     0.002 A 
ATOM     16  C   UNL A   1      36.591  33.834  31.233  1.00  0.00     0.041 A 
ATOM     17  C   UNL A   1      36.279  32.531  31.596  1.00  0.00     0.020 A 
ATOM     18  Cl  UNL A   1      38.125  34.186  30.536  1.00  0.00    -0.084 Cl
ENDBRANCH   6  12
ENDBRANCH   4   6
ENDBRANCH   3   4
ENDBRANCH   2   3
ENDBRANCH   1   2
BRANCH   1  19
ATOM     19  O   UNL A   1      34.269  33.012  28.515  1.00  0.00    -0.458 OA
BRANCH  19  20
ATOM     20  C   UNL A   1      34.310  31.762  27.999  1.00  0.00     0.338 C 
ATOM     21  O   UNL A   1      33.490  31.243  27.252  1.00  0.00    -0.246 OA
BRANCH  20  22
ATOM     22  C   UNL A   1      35.610  31.151  28.306  1.00  0.00     0.060 A 
ATOM     23  C   UNL A   1      35.590  29.920  28.960  1.00  0.00     0.016 A 
ATOM     24  C   UNL A   1      36.820  31.792  28.033  1.00  0.00     0.016 A 
ATOM     25  C   UNL A   1      36.780  29.325  29.360  1.00  0.00     0.010 A 
ATOM     26  C   UNL A   1      38.020  31.191  28.440  1.00  0.00     0.010 A 
ATOM     27  C   UNL A   1      38.005  29.961  29.120  1.00  0.00    -0.014 A 
BRANCH  27  28
ATOM     28  C   UNL A   1      39.238  29.350  29.678  1.00  0.00     0.031 A 
ATOM     29  C   UNL A   1      39.777  29.836  30.992  1.00  0.00     0.074 A 
ATOM     30  C   UNL A   1      39.804  28.292  29.068  1.00  0.00     0.049 A 
ATOM     31  N   UNL A   1      40.808  29.409  31.676  1.00  0.00    -0.248 NA
ATOM     32  C   UNL A   1      39.050  30.947  31.623  1.00  0.00     0.031 C 
ATOM     33  C   UNL A   1      39.327  27.687  27.826  1.00  0.00     0.029 A 
ATOM     34  N   UNL A   1      40.883  27.523  29.424  1.00  0.00    -0.354 N 
ATOM     35  C   UNL A   1      40.856  30.195  32.820  1.00  0.00     0.074 A 
ATOM     36  C   UNL A   1      39.766  31.144  32.720  1.00  0.00     0.031 C 
ATOM     37  C   UNL A   1      40.095  26.624  27.537  1.00  0.00     0.029 A 
ATOM     38  C   UNL A   1      41.145  26.499  28.544  1.00  0.00     0.049 A 
ATOM     39  H   UNL A   1      41.419  27.689  30.232  1.00  0.00     0.167 HD
ATOM     40  C   UNL A   1      41.725  30.128  33.859  1.00  0.00     0.034 A 
ATOM     41  C   UNL A   1      42.128  25.575  28.543  1.00  0.00     0.034 A 
ATOM     42  C   UNL A   1      42.825  29.197  33.937  1.00  0.00     0.049 A 
ATOM     43  C   UNL A   1      43.140  25.585  29.662  1.00  0.00     0.074 A 
ATOM     44  C   UNL A   1      43.790  29.078  34.923  1.00  0.00     0.029 A 
ATOM     45  N   UNL A   1      43.114  28.226  32.986  1.00  0.00    -0.354 N 
ATOM     46  N   UNL A   1      43.196  26.360  30.722  1.00  0.00    -0.248 NA
ATOM     47  C   UNL A   1      44.222  24.596  29.582  1.00  0.00     0.031 C 
ATOM     48  C   UNL A   1      44.694  28.079  34.539  1.00  0.00     0.029 A 
ATOM     49  C   UNL A   1      44.256  27.525  33.347  1.00  0.00     0.049 A 
ATOM     50  H   UNL A   1      42.584  28.059  32.173  1.00  0.00     0.167 HD
ATOM     51  C   UNL A   1      44.314  25.938  31.439  1.00  0.00     0.074 A 
ATOM     52  C   UNL A   1      44.881  24.824  30.708  1.00  0.00     0.031 C 
ATOM     53  C   UNL A   1      44.828  26.431  32.596  1.00  0.00     0.034 A 
BRANCH  40  54
ATOM     54  C   UNL A   1      41.551  31.152  34.954  1.00  0.00     0.023 A 
ATOM     55  C   UNL A   1      40.433  31.138  35.807  1.00  0.00     0.031 A 
ATOM     56  C   UNL A   1      42.482  32.194  35.102  1.00  0.00     0.131 A 
ATOM     57  C   UNL A   1      40.237  32.188  36.718  1.00  0.00     0.055 A 
ATOM     58  C   UNL A   1      42.321  33.194  36.062  1.00  0.00     0.041 A 
ATOM     59  F   UNL A   1      43.555  32.270  34.299  1.00  0.00    -0.206 F 
ATOM     60  C   UNL A   1      41.184  33.204  36.866  1.00  0.00     0.022 A 
BRANCH  57  61
ATOM     61  S   UNL A   1      38.655  32.289  37.601  1.00  0.00     0.124 S 
ATOM     62  O   UNL A   1      38.097  33.529  37.067  1.00  0.00    -0.237 OA
ATOM     63  O   UNL A   1      37.986  31.059  37.191  1.00  0.00    -0.237 OA
ATOM     64  O   UNL A   1      39.049  32.346  39.007  1.00  0.00    -0.744 OA
ENDBRANCH  57  61
ENDBRANCH  40  54
BRANCH  41  65
ATOM     65  C   UNL A   1      42.242  24.590  27.428  1.00  0.00     0.023 A 
ATOM     66  C   UNL A   1      41.494  23.402  27.423  1.00  0.00     0.031 A 
ATOM     67  C   UNL A   1      43.159  24.796  26.379  1.00  0.00     0.131 A 
ATOM     68  C   UNL A   1      41.706  22.446  26.418  1.00  0.00     0.055 A 
ATOM     69  C   UNL A   1      43.323  23.868  25.350  1.00  0.00     0.041 A 
ATOM     70  F   UNL A   1      43.908  25.909  26.341  1.00  0.00    -0.206 F 
ATOM     71  C   UNL A   1      42.604  22.678  25.373  1.00  0.00     0.022 A 
BRANCH  68  72
ATOM     72  S   UNL A   1      40.860  20.846  26.546  1.00  0.00     0.124 S 
ATOM     73  O   UNL A   1      41.767  19.970  25.811  1.00  0.00    -0.237 OA
ATOM     74  O   UNL A   1      40.804  20.644  27.989  1.00  0.00    -0.237 OA
ATOM     75  O   UNL A   1      39.572  21.089  25.901  1.00  0.00    -0.744 OA
ENDBRANCH  68  72
ENDBRANCH  41  65
BRANCH  53  76
ATOM     76  C   UNL A   1      46.056  25.740  33.143  1.00  0.00     0.023 A 
ATOM     77  C   UNL A   1      45.957  24.648  34.025  1.00  0.00     0.031 A 
ATOM     78  C   UNL A   1      47.340  26.202  32.805  1.00  0.00     0.131 A 
ATOM     79  C   UNL A   1      47.118  24.098  34.591  1.00  0.00     0.055 A 
ATOM     80  C   UNL A   1      48.494  25.613  33.326  1.00  0.00     0.041 A 
ATOM     81  F   UNL A   1      47.495  27.241  31.968  1.00  0.00    -0.206 F 
ATOM     82  C   UNL A   1      48.386  24.565  34.236  1.00  0.00     0.022 A 
BRANCH  79  83
ATOM     83  S   UNL A   1      46.946  22.829  35.877  1.00  0.00     0.124 S 
ATOM     84  O   UNL A   1      45.877  21.994  35.338  1.00  0.00    -0.237 OA
ATOM     85  O   UNL A   1      48.275  22.228  35.901  1.00  0.00    -0.237 OA
ATOM     86  O   UNL A   1      46.592  23.596  37.069  1.00  0.00    -0.744 OA
ENDBRANCH  79  83
ENDBRANCH  53  76
ENDBRANCH  27  28
ENDBRANCH  20  22
ENDBRANCH  19  20
ENDBRANCH   1  19
TORSDOF 16
ENDMDL
MODEL 2
REMARK VINA RESULT:     -10.5      1.505      1.771
REMARK SMILES C[NH2+][C@](C)(C(=O)OCCOC(=O)c1ccc(-c2c3nc(c(-c4cc(S(=O)(=O)[O-])ccc4F)c4ccc([nH]4)c(-c4cc(S(=O)(=O)[O-])ccc4F)c4nc(c(-c5cc(S(=O)(=O)[O-])ccc5F)c5ccc2[nH]5)C=C4)C=C3)cc1)c1cccc(Cl)c1
REMARK SMILES IDX 9 1 8 2 7 3 5 4 6 5 3 6 4 7 2 8 1 9 76 12 77 13 82 14 78 15
REMARK SMILES IDX 80 16 79 17 81 18 10 19 11 20 12 21 13 22 14 23 75 24 15 25
REMARK SMILES IDX 74 26 16 27 17 28 18 29 68 30 19 31 73 32 67 33 69 34 20 35
REMARK SMILES IDX 72 36 66 37 65 38 21 40 53 41 33 42 52 43 34 44 37 45 51 46
REMARK SMILES IDX 70 47 35 48 36 49 50 51 71 52 38 53 22 54 23 55 31 56 24 57
REMARK SMILES IDX 30 58 32 59 29 60 25 61 26 62 27 63 28 64 54 65 55 66 63 67
REMARK SMILES IDX 56 68 62 69 64 70 61 71 57 72 58 73 59 74 60 75 39 76 40 77
REMARK SMILES IDX 48 78 41 79 47 80 49 81 46 82 42 83 43 84 44 85 45 86
REMARK H PARENT 2 10 2 11 69 39 37 50
REMARK Flexibility Score: inf
ROOT
ATOM      1  C   UNL A   1      33.412  33.928  28.113  1.00  0.00     0.275 C 
ENDROOT
BRANCH   1   2
ATOM      2  C   UNL A   1      33.441  35.306  28.774  1.00  0.00     0.274 C 
BRANCH   2   3
ATOM      3  O   UNL A   1      32.683  35.292  29.999  1.00  0.00    -0.457 OA
BRANCH   3   4
ATOM      4  C   UNL A   1      32.959  36.307  30.874  1.00  0.00     0.372 C 
ATOM      5  O   UNL A   1      32.984  37.487  30.533  1.00  0.00    -0.244 OA
BRANCH   4   6
ATOM      6  C   UNL A   1      33.294  35.776  32.329  1.00  0.00     0.216 C 
ATOM      7  C   UNL A   1      33.676  36.966  33.246  1.00  0.00     0.098 C 
BRANCH   6   8
ATOM      8  N   UNL A   1      32.081  35.097  32.883  1.00  0.00    -0.331 N 
ATOM      9  C   UNL A   1      30.906  35.938  33.031  1.00  0.00     0.332 C 
ATOM     10  H   UNL A   1      31.839  34.326  32.259  1.00  0.00     0.347 HD
ATOM     11  H   UNL A   1      32.333  34.798  33.825  1.00  0.00     0.347 HD
ENDBRANCH   6   8
BRANCH   6  12
ATOM     12  C   UNL A   1      34.410  34.696  32.304  1.00  0.00     0.025 A 
ATOM     13  C   UNL A   1      34.111  33.315  32.273  1.00  0.00     0.011 A 
ATOM     14  C   UNL A   1      35.770  35.052  32.204  1.00  0.00     0.031 A 
ATOM     15  C   UNL A   1      35.119  32.346  32.190  1.00  0.00     0.002 A 
ATOM     16  C   UNL A   1      36.774  34.080  32.122  1.00  0.00     0.041 A 
ATOM     17  C   UNL A   1      36.455  32.728  32.122  1.00  0.00     0.020 A 
ATOM     18  Cl  UNL A   1      38.418  34.573  32.002  1.00  0.00    -0.084 Cl
ENDBRANCH   6  12
ENDBRANCH   4   6
ENDBRANCH   3   4
ENDBRANCH   2   3
ENDBRANCH   1   2
BRANCH   1  19
ATOM     19  O   UNL A   1      34.274  33.026  28.829  1.00  0.00    -0.458 OA
BRANCH  19  20
ATOM     20  C   UNL A   1      34.345  31.784  28.297  1.00  0.00     0.338 C 
ATOM     21  O   UNL A   1      33.517  31.240  27.577  1.00  0.00    -0.246 OA
BRANCH  20  22
ATOM     22  C   UNL A   1      35.679  31.223  28.547  1.00  0.00     0.060 A 
ATOM     23  C   UNL A   1      35.734  29.912  29.022  1.00  0.00     0.016 A 
ATOM     24  C   UNL A   1      36.846  31.974  28.396  1.00  0.00     0.016 A 
ATOM     25  C   UNL A   1      36.956  29.347  29.363  1.00  0.00     0.010 A 
ATOM     26  C   UNL A   1      38.078  31.402  28.744  1.00  0.00     0.010 A 
ATOM     27  C   UNL A   1      38.138  30.090  29.244  1.00  0.00    -0.014 A 
BRANCH  27  28
ATOM     28  C   UNL A   1      39.401  29.489  29.740  1.00  0.00     0.031 A 
ATOM     29  C   UNL A   1      40.018  30.002  31.009  1.00  0.00     0.074 A 
ATOM     30  C   UNL A   1      39.929  28.417  29.121  1.00  0.00     0.049 A 
ATOM     31  N   UNL A   1      41.088  29.588  31.639  1.00  0.00    -0.248 NA
ATOM     32  C   UNL A   1      39.332  31.128  31.658  1.00  0.00     0.031 C 
ATOM     33  C   UNL A   1      39.378  27.785  27.923  1.00  0.00     0.029 A 
ATOM     34  N   UNL A   1      41.027  27.653  29.428  1.00  0.00    -0.354 N 
ATOM     35  C   UNL A   1      41.205  30.398  32.762  1.00  0.00     0.074 A 
ATOM     36  C   UNL A   1      40.111  31.347  32.706  1.00  0.00     0.031 C 
ATOM     37  C   UNL A   1      40.127  26.715  27.612  1.00  0.00     0.029 A 
ATOM     38  C   UNL A   1      41.235  26.610  28.557  1.00  0.00     0.049 A 
ATOM     39  H   UNL A   1      41.611  27.836  30.199  1.00  0.00     0.167 HD
ATOM     40  C   UNL A   1      42.135  30.352  33.748  1.00  0.00     0.034 A 
ATOM     41  C   UNL A   1      42.216  25.684  28.518  1.00  0.00     0.034 A 
ATOM     42  C   UNL A   1      43.236  29.421  33.780  1.00  0.00     0.049 A 
ATOM     43  C   UNL A   1      43.293  25.716  29.573  1.00  0.00     0.074 A 
ATOM     44  C   UNL A   1      44.259  29.321  34.708  1.00  0.00     0.029 A 
ATOM     45  N   UNL A   1      43.467  28.429  32.835  1.00  0.00    -0.354 N 
ATOM     46  N   UNL A   1      43.413  26.513  30.611  1.00  0.00    -0.248 NA
ATOM     47  C   UNL A   1      44.368  24.723  29.451  1.00  0.00     0.031 C 
ATOM     48  C   UNL A   1      45.138  28.312  34.293  1.00  0.00     0.029 A 
ATOM     49  C   UNL A   1      44.628  27.733  33.142  1.00  0.00     0.049 A 
ATOM     50  H   UNL A   1      42.890  28.245  32.058  1.00  0.00     0.167 HD
ATOM     51  C   UNL A   1      44.571  26.106  31.269  1.00  0.00     0.074 A 
ATOM     52  C   UNL A   1      45.093  24.975  30.530  1.00  0.00     0.031 C 
ATOM     53  C   UNL A   1      45.154  26.622  32.383  1.00  0.00     0.034 A 
BRANCH  40  54
ATOM     54  C   UNL A   1      42.027  31.400  34.828  1.00  0.00     0.023 A 
ATOM     55  C   UNL A   1      40.982  31.385  35.770  1.00  0.00     0.031 A 
ATOM     56  C   UNL A   1      42.944  32.464  34.876  1.00  0.00     0.131 A 
ATOM     57  C   UNL A   1      40.837  32.454  36.669  1.00  0.00     0.055 A 
ATOM     58  C   UNL A   1      42.839  33.485  35.821  1.00  0.00     0.041 A 
ATOM     59  F   UNL A   1      43.946  32.541  33.986  1.00  0.00    -0.206 F 
ATOM     60  C   UNL A   1      41.770  33.492  36.715  1.00  0.00     0.022 A 
BRANCH  57  61
ATOM     61  S   UNL A   1      39.330  32.545  37.675  1.00  0.00     0.124 S 
ATOM     62  O   UNL A   1      39.877  32.525  39.030  1.00  0.00    -0.237 OA
ATOM     63  O   UNL A   1      38.740  33.808  37.243  1.00  0.00    -0.237 OA
ATOM     64  O   UNL A   1      38.588  31.346  37.292  1.00  0.00    -0.744 OA
ENDBRANCH  57  61
ENDBRANCH  40  54
BRANCH  41  65
ATOM     65  C   UNL A   1      42.263  24.675  27.419  1.00  0.00     0.023 A 
ATOM     66  C   UNL A   1      41.553  23.467  27.507  1.00  0.00     0.031 A 
ATOM     67  C   UNL A   1      43.078  24.880  26.290  1.00  0.00     0.131 A 
ATOM     68  C   UNL A   1      41.706  22.492  26.509  1.00  0.00     0.055 A 
ATOM     69  C   UNL A   1      43.180  23.932  25.272  1.00  0.00     0.041 A 
ATOM     70  F   UNL A   1      43.786  26.013  26.161  1.00  0.00    -0.206 F 
ATOM     71  C   UNL A   1      42.502  22.723  25.385  1.00  0.00     0.022 A 
BRANCH  68  72
ATOM     72  S   UNL A   1      40.923  20.872  26.746  1.00  0.00     0.124 S 
ATOM     73  O   UNL A   1      41.896  19.978  26.127  1.00  0.00    -0.237 OA
ATOM     74  O   UNL A   1      40.816  20.795  28.199  1.00  0.00    -0.237 OA
ATOM     75  O   UNL A   1      39.654  20.999  26.035  1.00  0.00    -0.744 OA
ENDBRANCH  68  72
ENDBRANCH  41  65
BRANCH  53  76
ATOM     76  C   UNL A   1      46.412  25.941  32.869  1.00  0.00     0.023 A 
ATOM     77  C   UNL A   1      47.662  26.184  32.271  1.00  0.00     0.031 A 
ATOM     78  C   UNL A   1      46.354  25.009  33.920  1.00  0.00     0.131 A 
ATOM     79  C   UNL A   1      48.789  25.457  32.683  1.00  0.00     0.055 A 
ATOM     80  C   UNL A   1      47.490  24.331  34.366  1.00  0.00     0.041 A 
ATOM     81  F   UNL A   1      45.188  24.736  34.529  1.00  0.00    -0.206 F 
ATOM     82  C   UNL A   1      48.713  24.542  33.736  1.00  0.00     0.022 A 
BRANCH  79  83
ATOM     83  S   UNL A   1      50.338  25.647  31.757  1.00  0.00     0.124 S 
ATOM     84  O   UNL A   1      50.727  27.013  32.093  1.00  0.00    -0.237 OA
ATOM     85  O   UNL A   1      51.170  24.590  32.321  1.00  0.00    -0.237 OA
ATOM     86  O   UNL A   1      49.934  25.442  30.368  1.00  0.00    -0.744 OA
ENDBRANCH  79  83
ENDBRANCH  53  76
ENDBRANCH  27  28
ENDBRANCH  20  22
ENDBRANCH  19  20
ENDBRANCH   1  19
TORSDOF 16
ENDMDL
MODEL 3
REMARK VINA RESULT:     -10.3      1.675      1.990
REMARK SMILES C[NH2+][C@](C)(C(=O)OCCOC(=O)c1ccc(-c2c3nc(c(-c4cc(S(=O)(=O)[O-])ccc4F)c4ccc([nH]4)c(-c4cc(S(=O)(=O)[O-])ccc4F)c4nc(c(-c5cc(S(=O)(=O)[O-])ccc5F)c5ccc2[nH]5)C=C4)C=C3)cc1)c1cccc(Cl)c1
REMARK SMILES IDX 9 1 8 2 7 3 5 4 6 5 3 6 4 7 2 8 1 9 76 12 77 13 82 14 78 15
REMARK SMILES IDX 80 16 79 17 81 18 10 19 11 20 12 21 13 22 14 23 75 24 15 25
REMARK SMILES IDX 74 26 16 27 17 28 18 29 68 30 19 31 73 32 67 33 69 34 20 35
REMARK SMILES IDX 72 36 66 37 65 38 21 40 53 41 33 42 52 43 34 44 37 45 51 46
REMARK SMILES IDX 70 47 35 48 36 49 50 51 71 52 38 53 22 54 23 55 31 56 24 57
REMARK SMILES IDX 30 58 32 59 29 60 25 61 26 62 27 63 28 64 54 65 55 66 63 67
REMARK SMILES IDX 56 68 62 69 64 70 61 71 57 72 58 73 59 74 60 75 39 76 40 77
REMARK SMILES IDX 48 78 41 79 47 80 49 81 46 82 42 83 43 84 44 85 45 86
REMARK H PARENT 2 10 2 11 69 39 37 50
REMARK Flexibility Score: inf
ROOT
ATOM      1  C   UNL A   1      33.541  33.737  28.037  1.00  0.00     0.275 C 
ENDROOT
BRANCH   1   2
ATOM      2  C   UNL A   1      33.390  35.123  28.663  1.00  0.00     0.274 C 
BRANCH   2   3
ATOM      3  O   UNL A   1      32.783  35.023  29.965  1.00  0.00    -0.457 OA
BRANCH   3   4
ATOM      4  C   UNL A   1      32.956  36.108  30.780  1.00  0.00     0.372 C 
ATOM      5  O   UNL A   1      32.868  37.264  30.372  1.00  0.00    -0.244 OA
BRANCH   4   6
ATOM      6  C   UNL A   1      33.333  35.696  32.264  1.00  0.00     0.216 C 
ATOM      7  C   UNL A   1      33.736  36.957  33.071  1.00  0.00     0.098 C 
BRANCH   6   8
ATOM      8  N   UNL A   1      32.138  35.063  32.904  1.00  0.00    -0.331 N 
ATOM      9  C   UNL A   1      30.932  35.873  32.918  1.00  0.00     0.332 C 
ATOM     10  H   UNL A   1      31.930  34.200  32.399  1.00  0.00     0.347 HD
ATOM     11  H   UNL A   1      32.389  34.915  33.882  1.00  0.00     0.347 HD
ENDBRANCH   6   8
BRANCH   6  12
ATOM     12  C   UNL A   1      34.452  34.620  32.294  1.00  0.00     0.025 A 
ATOM     13  C   UNL A   1      34.181  33.272  32.625  1.00  0.00     0.011 A 
ATOM     14  C   UNL A   1      35.767  34.920  31.889  1.00  0.00     0.031 A 
ATOM     15  C   UNL A   1      35.181  32.292  32.593  1.00  0.00     0.002 A 
ATOM     16  C   UNL A   1      36.764  33.937  31.859  1.00  0.00     0.041 A 
ATOM     17  C   UNL A   1      36.478  32.626  32.216  1.00  0.00     0.020 A 
ATOM     18  Cl  UNL A   1      38.353  34.362  31.355  1.00  0.00    -0.084 Cl
ENDBRANCH   6  12
ENDBRANCH   4   6
ENDBRANCH   3   4
ENDBRANCH   2   3
ENDBRANCH   1   2
BRANCH   1  19
ATOM     19  O   UNL A   1      34.404  32.926  28.853  1.00  0.00    -0.458 OA
BRANCH  19  20
ATOM     20  C   UNL A   1      34.606  31.675  28.378  1.00  0.00     0.338 C 
ATOM     21  O   UNL A   1      33.990  31.118  27.478  1.00  0.00    -0.246 OA
BRANCH  20  22
ATOM     22  C   UNL A   1      35.829  31.120  28.971  1.00  0.00     0.060 A 
ATOM     23  C   UNL A   1      37.024  31.782  28.691  1.00  0.00     0.016 A 
ATOM     24  C   UNL A   1      35.828  29.941  29.720  1.00  0.00     0.016 A 
ATOM     25  C   UNL A   1      38.231  31.264  29.146  1.00  0.00     0.010 A 
ATOM     26  C   UNL A   1      37.047  29.419  30.176  1.00  0.00     0.010 A 
ATOM     27  C   UNL A   1      38.257  30.069  29.878  1.00  0.00    -0.014 A 
BRANCH  27  28
ATOM     28  C   UNL A   1      39.576  29.488  30.231  1.00  0.00     0.031 A 
ATOM     29  C   UNL A   1      40.295  29.972  31.458  1.00  0.00     0.074 A 
ATOM     30  C   UNL A   1      40.072  28.456  29.524  1.00  0.00     0.049 A 
ATOM     31  N   UNL A   1      41.429  29.567  31.969  1.00  0.00    -0.248 NA
ATOM     32  C   UNL A   1      39.642  31.052  32.212  1.00  0.00     0.031 C 
ATOM     33  C   UNL A   1      39.429  27.854  28.358  1.00  0.00     0.029 A 
ATOM     34  N   UNL A   1      41.214  27.715  29.699  1.00  0.00    -0.354 N 
ATOM     35  C   UNL A   1      41.629  30.338  33.108  1.00  0.00     0.074 A 
ATOM     36  C   UNL A   1      40.510  31.256  33.191  1.00  0.00     0.031 C 
ATOM     37  C   UNL A   1      40.173  26.818  27.937  1.00  0.00     0.029 A 
ATOM     38  C   UNL A   1      41.367  26.711  28.771  1.00  0.00     0.049 A 
ATOM     39  H   UNL A   1      41.861  27.886  30.419  1.00  0.00     0.167 HD
ATOM     40  C   UNL A   1      42.647  30.284  34.002  1.00  0.00     0.034 A 
ATOM     41  C   UNL A   1      42.363  25.817  28.605  1.00  0.00     0.034 A 
ATOM     42  C   UNL A   1      43.771  29.385  33.895  1.00  0.00     0.049 A 
ATOM     43  C   UNL A   1      43.533  25.843  29.557  1.00  0.00     0.074 A 
ATOM     44  C   UNL A   1      44.878  29.281  34.721  1.00  0.00     0.029 A 
ATOM     45  N   UNL A   1      43.939  28.436  32.894  1.00  0.00    -0.354 N 
ATOM     46  N   UNL A   1      43.728  26.604  30.610  1.00  0.00    -0.248 NA
ATOM     47  C   UNL A   1      44.618  24.887  29.297  1.00  0.00     0.031 C 
ATOM     48  C   UNL A   1      45.740  28.315  34.187  1.00  0.00     0.029 A 
ATOM     49  C   UNL A   1      45.141  27.764  33.065  1.00  0.00     0.049 A 
ATOM     50  H   UNL A   1      43.297  28.264  32.168  1.00  0.00     0.167 HD
ATOM     51  C   UNL A   1      44.953  26.207  31.143  1.00  0.00     0.074 A 
ATOM     52  C   UNL A   1      45.433  25.120  30.314  1.00  0.00     0.031 C 
ATOM     53  C   UNL A   1      45.623  26.698  32.217  1.00  0.00     0.034 A 
BRANCH  40  54
ATOM     54  C   UNL A   1      42.613  31.286  35.128  1.00  0.00     0.023 A 
ATOM     55  C   UNL A   1      43.042  32.614  34.950  1.00  0.00     0.031 A 
ATOM     56  C   UNL A   1      42.207  30.891  36.415  1.00  0.00     0.131 A 
ATOM     57  C   UNL A   1      43.128  33.475  36.055  1.00  0.00     0.055 A 
ATOM     58  C   UNL A   1      42.223  31.774  37.495  1.00  0.00     0.041 A 
ATOM     59  F   UNL A   1      41.811  29.630  36.648  1.00  0.00    -0.206 F 
ATOM     60  C   UNL A   1      42.701  33.070  37.322  1.00  0.00     0.022 A 
BRANCH  57  61
ATOM     61  S   UNL A   1      43.946  35.081  35.845  1.00  0.00     0.124 S 
ATOM     62  O   UNL A   1      42.955  35.994  36.409  1.00  0.00    -0.237 OA
ATOM     63  O   UNL A   1      45.172  34.913  36.617  1.00  0.00    -0.237 OA
ATOM     64  O   UNL A   1      44.128  35.187  34.399  1.00  0.00    -0.744 OA
ENDBRANCH  57  61
ENDBRANCH  40  54
BRANCH  41  65
ATOM     65  C   UNL A   1      42.334  24.852  27.468  1.00  0.00     0.023 A 
ATOM     66  C   UNL A   1      41.578  23.670  27.532  1.00  0.00     0.031 A 
ATOM     67  C   UNL A   1      43.122  25.068  26.321  1.00  0.00     0.131 A 
ATOM     68  C   UNL A   1      41.659  22.731  26.492  1.00  0.00     0.055 A 
ATOM     69  C   UNL A   1      43.153  24.158  25.264  1.00  0.00     0.041 A 
ATOM     70  F   UNL A   1      43.873  26.176  26.213  1.00  0.00    -0.206 F 
ATOM     71  C   UNL A   1      42.429  22.974  25.353  1.00  0.00     0.022 A 
BRANCH  68  72
ATOM     72  S   UNL A   1      40.817  21.136  26.693  1.00  0.00     0.124 S 
ATOM     73  O   UNL A   1      41.746  20.224  26.033  1.00  0.00    -0.237 OA
ATOM     74  O   UNL A   1      40.727  21.018  28.144  1.00  0.00    -0.237 OA
ATOM     75  O   UNL A   1      39.544  21.333  26.005  1.00  0.00    -0.744 OA
ENDBRANCH  68  72
ENDBRANCH  41  65
BRANCH  53  76
ATOM     76  C   UNL A   1      46.938  26.037  32.559  1.00  0.00     0.023 A 
ATOM     77  C   UNL A   1      47.017  24.991  33.496  1.00  0.00     0.031 A 
ATOM     78  C   UNL A   1      48.132  26.484  31.966  1.00  0.00     0.131 A 
ATOM     79  C   UNL A   1      48.268  24.471  33.862  1.00  0.00     0.055 A 
ATOM     80  C   UNL A   1      49.369  25.923  32.292  1.00  0.00     0.041 A 
ATOM     81  F   UNL A   1      48.118  27.479  31.065  1.00  0.00    -0.206 F 
ATOM     82  C   UNL A   1      49.443  24.922  33.256  1.00  0.00     0.022 A 
BRANCH  79  83
ATOM     83  S   UNL A   1      48.351  23.268  35.218  1.00  0.00     0.124 S 
ATOM     84  O   UNL A   1      49.758  22.883  35.197  1.00  0.00    -0.237 OA
ATOM     85  O   UNL A   1      47.924  24.063  36.366  1.00  0.00    -0.237 OA
ATOM     86  O   UNL A   1      47.416  22.223  34.807  1.00  0.00    -0.744 OA
ENDBRANCH  79  83
ENDBRANCH  53  76
ENDBRANCH  27  28
ENDBRANCH  20  22
ENDBRANCH  19  20
ENDBRANCH   1  19
TORSDOF 16
ENDMDL
