MODEL 1
REMARK VINA RESULT:     -11.8      0.000      0.000
REMARK SMILES CC(C)(C)OC(=O)Nc1ccc(-c2cccc(Cl)c2C(=O)OCCOC(=O)c2ccc(-c3c4nc(c(-c5cc(S(=O)(=O)[O-])ccc5F)c5ccc([nH]5)c(-c5cc(S(=O)(=O)[O-])ccc5F)c5nc(c(-c6cc(S(=O)(=O)[O-])ccc6F)c6ccc3[nH]6)C=C5)C=C4)cc2)cc1
REMARK SMILES IDX 23 1 22 2 20 3 21 4 19 5 13 6 14 7 15 8 17 9 16 10 18 11
REMARK SMILES IDX 12 12 9 13 10 14 92 15 11 16 91 17 8 18 6 19 7 20 5 22 2 23
REMARK SMILES IDX 1 24 3 25 4 26 24 27 25 28 26 29 27 30 28 31 29 32 90 33
REMARK SMILES IDX 30 34 89 35 31 36 32 37 33 38 83 39 34 40 88 41 82 42 84 43
REMARK SMILES IDX 35 44 87 45 81 46 80 47 36 49 68 50 48 51 67 52 49 53 52 54
REMARK SMILES IDX 66 55 85 56 50 57 51 58 65 60 86 61 53 62 37 63 38 64 46 65
REMARK SMILES IDX 39 66 45 67 47 68 44 69 40 70 41 71 42 72 43 73 69 74 70 75
REMARK SMILES IDX 78 76 71 77 77 78 79 79 76 80 72 81 73 82 74 83 75 84 54 85
REMARK SMILES IDX 55 86 63 87 56 88 62 89 64 90 61 91 57 92 58 93 59 94 60 95
REMARK H PARENT 8 21 84 48 52 59
REMARK Flexibility Score: inf
ROOT
ATOM      1  C   UNL A   1      32.561  29.722  25.411  1.00  0.00     0.275 C 
ENDROOT
BRANCH   1   2
ATOM      2  O   UNL A   1      31.456  28.829  25.180  1.00  0.00    -0.458 OA
BRANCH   2   3
ATOM      3  C   UNL A   1      31.178  28.548  23.882  1.00  0.00     0.340 C 
ATOM      4  O   UNL A   1      31.982  28.462  22.970  1.00  0.00    -0.246 OA
BRANCH   3   5
ATOM      5  C   UNL A   1      29.709  28.423  23.720  1.00  0.00     0.086 A 
ATOM      6  C   UNL A   1      29.076  27.162  23.876  1.00  0.00    -0.002 A 
ATOM      7  C   UNL A   1      27.688  27.089  23.633  1.00  0.00     0.010 A 
ATOM      8  C   UNL A   1      26.951  28.214  23.269  1.00  0.00     0.002 A 
ATOM      9  C   UNL A   1      28.950  29.566  23.417  1.00  0.00     0.056 A 
ATOM     10  C   UNL A   1      27.578  29.452  23.175  1.00  0.00     0.021 A 
ATOM     11  Cl  UNL A   1      29.635  31.149  23.304  1.00  0.00    -0.083 Cl
BRANCH   6  12
ATOM     12  C   UNL A   1      29.782  25.949  24.344  1.00  0.00    -0.017 A 
ATOM     13  C   UNL A   1      31.087  23.602  25.271  1.00  0.00     0.044 A 
ATOM     14  C   UNL A   1      30.978  23.863  23.903  1.00  0.00     0.027 A 
ATOM     15  C   UNL A   1      30.575  24.536  26.168  1.00  0.00     0.027 A 
ATOM     16  C   UNL A   1      30.335  25.022  23.446  1.00  0.00     0.011 A 
ATOM     17  C   UNL A   1      29.907  25.673  25.712  1.00  0.00     0.011 A 
BRANCH  13  18
ATOM     18  N   UNL A   1      31.726  22.409  25.659  1.00  0.00    -0.291 N 
ATOM     19  C   UNL A   1      33.032  22.182  26.014  1.00  0.00     0.412 C 
ATOM     20  O   UNL A   1      33.430  21.047  26.250  1.00  0.00    -0.224 OA
ATOM     21  H   UNL A   1      31.145  21.614  25.679  1.00  0.00     0.173 HD
BRANCH  19  22
ATOM     22  O   UNL A   1      33.774  23.304  26.135  1.00  0.00    -0.444 OA
BRANCH  22  23
ATOM     23  C   UNL A   1      34.655  23.782  25.094  1.00  0.00     0.106 C 
ATOM     24  C   UNL A   1      36.062  23.678  25.708  1.00  0.00     0.056 C 
ATOM     25  C   UNL A   1      34.370  25.248  24.762  1.00  0.00     0.056 C 
ATOM     26  C   UNL A   1      34.589  22.879  23.861  1.00  0.00     0.056 C 
ENDBRANCH  22  23
ENDBRANCH  19  22
ENDBRANCH  13  18
ENDBRANCH   6  12
ENDBRANCH   3   5
ENDBRANCH   2   3
ENDBRANCH   1   2
BRANCH   1  27
ATOM     27  C   UNL A   1      32.156  30.797  26.422  1.00  0.00     0.275 C 
BRANCH  27  28
ATOM     28  O   UNL A   1      33.049  30.754  27.550  1.00  0.00    -0.458 OA
BRANCH  28  29
ATOM     29  C   UNL A   1      33.882  31.819  27.639  1.00  0.00     0.338 C 
ATOM     30  O   UNL A   1      33.587  33.001  27.572  1.00  0.00    -0.246 OA
BRANCH  29  31
ATOM     31  C   UNL A   1      35.206  31.340  28.056  1.00  0.00     0.060 A 
ATOM     32  C   UNL A   1      35.329  29.977  28.328  1.00  0.00     0.016 A 
ATOM     33  C   UNL A   1      36.287  32.201  28.233  1.00  0.00     0.016 A 
ATOM     34  C   UNL A   1      36.536  29.461  28.788  1.00  0.00     0.010 A 
ATOM     35  C   UNL A   1      37.501  31.682  28.697  1.00  0.00     0.010 A 
ATOM     36  C   UNL A   1      37.630  30.310  28.992  1.00  0.00    -0.014 A 
BRANCH  36  37
ATOM     37  C   UNL A   1      38.864  29.769  29.619  1.00  0.00     0.031 A 
ATOM     38  C   UNL A   1      39.259  30.236  30.992  1.00  0.00     0.074 A 
ATOM     39  C   UNL A   1      39.588  28.819  28.999  1.00  0.00     0.049 A 
ATOM     40  N   UNL A   1      40.319  29.942  31.701  1.00  0.00    -0.248 NA
ATOM     41  C   UNL A   1      38.332  31.167  31.650  1.00  0.00     0.031 C 
ATOM     42  C   UNL A   1      39.262  28.221  27.705  1.00  0.00     0.029 A 
ATOM     43  N   UNL A   1      40.739  28.178  29.384  1.00  0.00    -0.354 N 
ATOM     44  C   UNL A   1      40.200  30.671  32.881  1.00  0.00     0.074 A 
ATOM     45  C   UNL A   1      38.981  31.446  32.768  1.00  0.00     0.031 C 
ATOM     46  C   UNL A   1      40.177  27.281  27.416  1.00  0.00     0.029 A 
ATOM     47  C   UNL A   1      41.188  27.253  28.470  1.00  0.00     0.049 A 
ATOM     48  H   UNL A   1      41.200  28.363  30.234  1.00  0.00     0.167 HD
ATOM     49  C   UNL A   1      41.027  30.687  33.958  1.00  0.00     0.034 A 
ATOM     50  C   UNL A   1      42.299  26.491  28.471  1.00  0.00     0.034 A 
ATOM     51  C   UNL A   1      42.240  29.905  34.049  1.00  0.00     0.049 A 
ATOM     52  C   UNL A   1      43.263  26.610  29.624  1.00  0.00     0.074 A 
ATOM     53  C   UNL A   1      43.152  29.844  35.088  1.00  0.00     0.029 A 
ATOM     54  N   UNL A   1      42.717  29.055  33.057  1.00  0.00    -0.354 N 
ATOM     55  N   UNL A   1      43.166  27.332  30.717  1.00  0.00    -0.248 NA
ATOM     56  C   UNL A   1      44.493  25.812  29.536  1.00  0.00     0.031 C 
ATOM     57  C   UNL A   1      44.216  29.022  34.695  1.00  0.00     0.029 A 
ATOM     58  C   UNL A   1      43.929  28.499  33.444  1.00  0.00     0.049 A 
ATOM     59  H   UNL A   1      42.261  28.873  32.204  1.00  0.00     0.167 HD
ATOM     60  C   UNL A   1      44.313  27.057  31.458  1.00  0.00     0.074 A 
ATOM     61  C   UNL A   1      45.075  26.089  30.693  1.00  0.00     0.031 C 
ATOM     62  C   UNL A   1      44.698  27.555  32.663  1.00  0.00     0.034 A 
BRANCH  49  63
ATOM     63  C   UNL A   1      40.675  31.643  35.076  1.00  0.00     0.023 A 
ATOM     64  C   UNL A   1      39.703  31.333  36.045  1.00  0.00     0.031 A 
ATOM     65  C   UNL A   1      41.259  32.923  35.121  1.00  0.00     0.131 A 
ATOM     66  C   UNL A   1      39.267  32.322  36.940  1.00  0.00     0.055 A 
ATOM     67  C   UNL A   1      40.890  33.869  36.080  1.00  0.00     0.041 A 
ATOM     68  F   UNL A   1      42.176  33.288  34.212  1.00  0.00    -0.206 F 
ATOM     69  C   UNL A   1      39.871  33.579  36.982  1.00  0.00     0.022 A 
BRANCH  66  70
ATOM     70  S   UNL A   1      37.761  32.008  37.907  1.00  0.00     0.124 S 
ATOM     71  O   UNL A   1      38.242  32.198  39.273  1.00  0.00    -0.237 OA
ATOM     72  O   UNL A   1      36.846  33.026  37.403  1.00  0.00    -0.237 OA
ATOM     73  O   UNL A   1      37.415  30.631  37.564  1.00  0.00    -0.744 OA
ENDBRANCH  66  70
ENDBRANCH  49  63
BRANCH  50  74
ATOM     74  C   UNL A   1      42.587  25.577  27.329  1.00  0.00     0.023 A 
ATOM     75  C   UNL A   1      42.136  24.247  27.333  1.00  0.00     0.031 A 
ATOM     76  C   UNL A   1      43.352  26.009  26.231  1.00  0.00     0.131 A 
ATOM     77  C   UNL A   1      42.478  23.389  26.276  1.00  0.00     0.055 A 
ATOM     78  C   UNL A   1      43.645  25.167  25.157  1.00  0.00     0.041 A 
ATOM     79  F   UNL A   1      43.816  27.269  26.179  1.00  0.00    -0.206 F 
ATOM     80  C   UNL A   1      43.214  23.846  25.180  1.00  0.00     0.022 A 
BRANCH  77  81
ATOM     81  S   UNL A   1      41.995  21.644  26.381  1.00  0.00     0.124 S 
ATOM     82  O   UNL A   1      42.819  21.044  25.338  1.00  0.00    -0.237 OA
ATOM     83  O   UNL A   1      42.355  21.309  27.754  1.00  0.00    -0.237 OA
ATOM     84  O   UNL A   1      40.560  21.671  26.106  1.00  0.00    -0.744 OA
ENDBRANCH  77  81
ENDBRANCH  50  74
BRANCH  62  85
ATOM     85  C   UNL A   1      45.993  27.024  33.237  1.00  0.00     0.023 A 
ATOM     86  C   UNL A   1      46.041  25.830  33.979  1.00  0.00     0.031 A 
ATOM     87  C   UNL A   1      47.189  27.745  33.073  1.00  0.00     0.131 A 
ATOM     88  C   UNL A   1      47.242  25.430  34.586  1.00  0.00     0.055 A 
ATOM     89  C   UNL A   1      48.396  27.305  33.620  1.00  0.00     0.041 A 
ATOM     90  F   UNL A   1      47.205  28.895  32.379  1.00  0.00    -0.206 F 
ATOM     91  C   UNL A   1      48.423  26.151  34.395  1.00  0.00     0.022 A 
BRANCH  88  92
ATOM     92  S   UNL A   1      47.216  24.018  35.725  1.00  0.00     0.124 S 
ATOM     93  O   UNL A   1      48.506  24.145  36.396  1.00  0.00    -0.237 OA
ATOM     94  O   UNL A   1      46.040  24.297  36.543  1.00  0.00    -0.237 OA
ATOM     95  O   UNL A   1      47.092  22.863  34.836  1.00  0.00    -0.744 OA
ENDBRANCH  88  92
ENDBRANCH  62  85
ENDBRANCH  36  37
ENDBRANCH  29  31
ENDBRANCH  28  29
ENDBRANCH  27  28
ENDBRANCH   1  27
TORSDOF 18
ENDMDL
MODEL 2
REMARK VINA RESULT:     -11.8      4.933     10.092
REMARK SMILES CC(C)(C)OC(=O)Nc1ccc(-c2cccc(Cl)c2C(=O)OCCOC(=O)c2ccc(-c3c4nc(c(-c5cc(S(=O)(=O)[O-])ccc5F)c5ccc([nH]5)c(-c5cc(S(=O)(=O)[O-])ccc5F)c5nc(c(-c6cc(S(=O)(=O)[O-])ccc6F)c6ccc3[nH]6)C=C5)C=C4)cc2)cc1
REMARK SMILES IDX 23 1 22 2 20 3 21 4 19 5 13 6 14 7 15 8 17 9 16 10 18 11
REMARK SMILES IDX 12 12 9 13 10 14 92 15 11 16 91 17 8 18 6 19 7 20 5 22 2 23
REMARK SMILES IDX 1 24 3 25 4 26 24 27 25 28 26 29 27 30 28 31 29 32 90 33
REMARK SMILES IDX 30 34 89 35 31 36 32 37 33 38 83 39 34 40 88 41 82 42 84 43
REMARK SMILES IDX 35 44 87 45 81 46 80 47 36 49 68 50 48 51 67 52 49 53 52 54
REMARK SMILES IDX 66 55 85 56 50 57 51 58 65 60 86 61 53 62 37 63 38 64 46 65
REMARK SMILES IDX 39 66 45 67 47 68 44 69 40 70 41 71 42 72 43 73 69 74 70 75
REMARK SMILES IDX 78 76 71 77 77 78 79 79 76 80 72 81 73 82 74 83 75 84 54 85
REMARK SMILES IDX 55 86 63 87 56 88 62 89 64 90 61 91 57 92 58 93 59 94 60 95
REMARK H PARENT 8 21 84 48 52 59
REMARK Flexibility Score: inf
ROOT
ATOM      1  C   UNL A   1      36.884  22.406  24.638  1.00  0.00     0.275 C 
ENDROOT
BRANCH   1   2
ATOM      2  O   UNL A   1      35.738  21.630  24.243  1.00  0.00    -0.458 OA
BRANCH   2   3
ATOM      3  C   UNL A   1      35.053  21.024  25.245  1.00  0.00     0.340 C 
ATOM      4  O   UNL A   1      35.054  21.343  26.421  1.00  0.00    -0.246 OA
BRANCH   3   5
ATOM      5  C   UNL A   1      34.340  19.845  24.695  1.00  0.00     0.086 A 
ATOM      6  C   UNL A   1      32.984  19.953  24.290  1.00  0.00    -0.002 A 
ATOM      7  C   UNL A   1      32.334  18.781  23.850  1.00  0.00     0.010 A 
ATOM      8  C   UNL A   1      32.997  17.556  23.793  1.00  0.00     0.002 A 
ATOM      9  C   UNL A   1      35.022  18.622  24.575  1.00  0.00     0.056 A 
ATOM     10  C   UNL A   1      34.342  17.480  24.142  1.00  0.00     0.021 A 
ATOM     11  Cl  UNL A   1      36.697  18.436  24.960  1.00  0.00    -0.083 Cl
BRANCH   6  12
ATOM     12  C   UNL A   1      32.248  21.236  24.242  1.00  0.00    -0.017 A 
ATOM     13  C   UNL A   1      30.873  23.721  24.195  1.00  0.00     0.044 A 
ATOM     14  C   UNL A   1      31.469  23.215  23.037  1.00  0.00     0.027 A 
ATOM     15  C   UNL A   1      30.937  22.963  25.361  1.00  0.00     0.027 A 
ATOM     16  C   UNL A   1      32.146  21.988  23.061  1.00  0.00     0.011 A 
ATOM     17  C   UNL A   1      31.639  21.757  25.392  1.00  0.00     0.011 A 
BRANCH  13  18
ATOM     18  N   UNL A   1      30.229  24.970  24.105  1.00  0.00    -0.291 N 
ATOM     19  C   UNL A   1      30.748  26.238  24.174  1.00  0.00     0.412 C 
ATOM     20  O   UNL A   1      30.013  27.219  24.152  1.00  0.00    -0.224 OA
ATOM     21  H   UNL A   1      29.255  24.926  23.970  1.00  0.00     0.173 HD
BRANCH  19  22
ATOM     22  O   UNL A   1      32.098  26.281  24.199  1.00  0.00    -0.444 OA
BRANCH  22  23
ATOM     23  C   UNL A   1      32.855  26.577  25.394  1.00  0.00     0.106 C 
ATOM     24  C   UNL A   1      33.921  25.469  25.454  1.00  0.00     0.056 C 
ATOM     25  C   UNL A   1      31.974  26.482  26.641  1.00  0.00     0.056 C 
ATOM     26  C   UNL A   1      33.559  27.930  25.277  1.00  0.00     0.056 C 
ENDBRANCH  22  23
ENDBRANCH  19  22
ENDBRANCH  13  18
ENDBRANCH   6  12
ENDBRANCH   3   5
ENDBRANCH   2   3
ENDBRANCH   1   2
BRANCH   1  27
ATOM     27  C   UNL A   1      38.060  21.476  24.943  1.00  0.00     0.275 C 
BRANCH  27  28
ATOM     28  O   UNL A   1      38.427  21.606  26.328  1.00  0.00    -0.458 OA
BRANCH  28  29
ATOM     29  C   UNL A   1      39.763  21.605  26.551  1.00  0.00     0.338 C 
ATOM     30  O   UNL A   1      40.574  20.762  26.206  1.00  0.00    -0.246 OA
BRANCH  29  31
ATOM     31  C   UNL A   1      40.143  22.914  27.098  1.00  0.00     0.060 A 
ATOM     32  C   UNL A   1      39.501  24.033  26.567  1.00  0.00     0.016 A 
ATOM     33  C   UNL A   1      41.139  23.056  28.062  1.00  0.00     0.016 A 
ATOM     34  C   UNL A   1      39.854  25.310  26.991  1.00  0.00     0.010 A 
ATOM     35  C   UNL A   1      41.495  24.341  28.489  1.00  0.00     0.010 A 
ATOM     36  C   UNL A   1      40.865  25.478  27.945  1.00  0.00    -0.014 A 
BRANCH  36  37
ATOM     37  C   UNL A   1      41.328  26.850  28.279  1.00  0.00     0.031 A 
ATOM     38  C   UNL A   1      42.723  27.269  27.908  1.00  0.00     0.074 A 
ATOM     39  C   UNL A   1      40.490  27.737  28.848  1.00  0.00     0.049 A 
ATOM     40  N   UNL A   1      43.352  28.390  28.153  1.00  0.00    -0.248 NA
ATOM     41  C   UNL A   1      43.517  26.282  27.163  1.00  0.00     0.031 C 
ATOM     42  C   UNL A   1      39.089  27.480  29.178  1.00  0.00     0.029 A 
ATOM     43  N   UNL A   1      40.692  29.039  29.232  1.00  0.00    -0.354 N 
ATOM     44  C   UNL A   1      44.625  28.237  27.613  1.00  0.00     0.074 A 
ATOM     45  C   UNL A   1      44.684  26.897  27.063  1.00  0.00     0.031 C 
ATOM     46  C   UNL A   1      38.549  28.599  29.690  1.00  0.00     0.029 A 
ATOM     47  C   UNL A   1      39.580  29.630  29.785  1.00  0.00     0.049 A 
ATOM     48  H   UNL A   1      41.552  29.505  29.123  1.00  0.00     0.167 HD
ATOM     49  C   UNL A   1      45.647  29.131  27.576  1.00  0.00     0.034 A 
ATOM     50  C   UNL A   1      39.418  30.853  30.329  1.00  0.00     0.034 A 
ATOM     51  C   UNL A   1      45.567  30.463  28.133  1.00  0.00     0.049 A 
ATOM     52  C   UNL A   1      40.599  31.789  30.381  1.00  0.00     0.074 A 
ATOM     53  C   UNL A   1      46.537  31.450  28.154  1.00  0.00     0.029 A 
ATOM     54  N   UNL A   1      44.454  30.992  28.778  1.00  0.00    -0.354 N 
ATOM     55  N   UNL A   1      41.813  31.622  29.907  1.00  0.00    -0.248 NA
ATOM     56  C   UNL A   1      40.386  33.078  31.051  1.00  0.00     0.031 C 
ATOM     57  C   UNL A   1      46.041  32.542  28.877  1.00  0.00     0.029 A 
ATOM     58  C   UNL A   1      44.729  32.274  29.235  1.00  0.00     0.049 A 
ATOM     59  H   UNL A   1      43.595  30.526  28.893  1.00  0.00     0.167 HD
ATOM     60  C   UNL A   1      42.501  32.797  30.202  1.00  0.00     0.074 A 
ATOM     61  C   UNL A   1      41.559  33.667  30.878  1.00  0.00     0.031 C 
ATOM     62  C   UNL A   1      43.792  33.127  29.934  1.00  0.00     0.034 A 
BRANCH  49  63
ATOM     63  C   UNL A   1      46.953  28.652  26.983  1.00  0.00     0.023 A 
ATOM     64  C   UNL A   1      47.145  28.540  25.593  1.00  0.00     0.031 A 
ATOM     65  C   UNL A   1      47.993  28.216  27.824  1.00  0.00     0.131 A 
ATOM     66  C   UNL A   1      48.294  27.906  25.094  1.00  0.00     0.055 A 
ATOM     67  C   UNL A   1      49.178  27.678  27.316  1.00  0.00     0.041 A 
ATOM     68  F   UNL A   1      47.864  28.276  29.159  1.00  0.00    -0.206 F 
ATOM     69  C   UNL A   1      49.323  27.497  25.944  1.00  0.00     0.022 A 
BRANCH  66  70
ATOM     70  S   UNL A   1      48.329  27.438  23.340  1.00  0.00     0.124 S 
ATOM     71  O   UNL A   1      48.189  25.985  23.419  1.00  0.00    -0.237 OA
ATOM     72  O   UNL A   1      47.185  28.162  22.798  1.00  0.00    -0.237 OA
ATOM     73  O   UNL A   1      49.637  27.905  22.887  1.00  0.00    -0.744 OA
ENDBRANCH  66  70
ENDBRANCH  49  63
BRANCH  50  74
ATOM     74  C   UNL A   1      38.103  31.255  30.904  1.00  0.00     0.023 A 
ATOM     75  C   UNL A   1      37.143  31.918  30.124  1.00  0.00     0.031 A 
ATOM     76  C   UNL A   1      37.801  31.013  32.256  1.00  0.00     0.131 A 
ATOM     77  C   UNL A   1      35.939  32.342  30.708  1.00  0.00     0.055 A 
ATOM     78  C   UNL A   1      36.582  31.392  32.820  1.00  0.00     0.041 A 
ATOM     79  F   UNL A   1      38.688  30.390  33.050  1.00  0.00    -0.206 F 
ATOM     80  C   UNL A   1      35.645  32.069  32.046  1.00  0.00     0.022 A 
BRANCH  77  81
ATOM     81  S   UNL A   1      34.782  33.317  29.707  1.00  0.00     0.124 S 
ATOM     82  O   UNL A   1      33.912  33.888  30.728  1.00  0.00    -0.237 OA
ATOM     83  O   UNL A   1      35.675  34.250  29.029  1.00  0.00    -0.237 OA
ATOM     84  O   UNL A   1      34.157  32.317  28.842  1.00  0.00    -0.744 OA
ENDBRANCH  77  81
ENDBRANCH  50  74
BRANCH  62  85
ATOM     85  C   UNL A   1      44.242  34.510  30.347  1.00  0.00     0.023 A 
ATOM     86  C   UNL A   1      44.085  35.625  29.503  1.00  0.00     0.031 A 
ATOM     87  C   UNL A   1      44.873  34.709  31.588  1.00  0.00     0.131 A 
ATOM     88  C   UNL A   1      44.614  36.869  29.881  1.00  0.00     0.055 A 
ATOM     89  C   UNL A   1      45.334  35.964  31.989  1.00  0.00     0.041 A 
ATOM     90  F   UNL A   1      45.055  33.682  32.435  1.00  0.00    -0.206 F 
ATOM     91  C   UNL A   1      45.220  37.049  31.126  1.00  0.00     0.022 A 
BRANCH  88  92
ATOM     92  S   UNL A   1      44.602  38.224  28.674  1.00  0.00     0.124 S 
ATOM     93  O   UNL A   1      45.146  37.574  27.485  1.00  0.00    -0.237 OA
ATOM     94  O   UNL A   1      43.189  38.581  28.617  1.00  0.00    -0.237 OA
ATOM     95  O   UNL A   1      45.472  39.231  29.280  1.00  0.00    -0.744 OA
ENDBRANCH  88  92
ENDBRANCH  62  85
ENDBRANCH  36  37
ENDBRANCH  29  31
ENDBRANCH  28  29
ENDBRANCH  27  28
ENDBRANCH   1  27
TORSDOF 18
ENDMDL
MODEL 3
REMARK VINA RESULT:     -11.8      5.112      7.805
REMARK SMILES CC(C)(C)OC(=O)Nc1ccc(-c2cccc(Cl)c2C(=O)OCCOC(=O)c2ccc(-c3c4nc(c(-c5cc(S(=O)(=O)[O-])ccc5F)c5ccc([nH]5)c(-c5cc(S(=O)(=O)[O-])ccc5F)c5nc(c(-c6cc(S(=O)(=O)[O-])ccc6F)c6ccc3[nH]6)C=C5)C=C4)cc2)cc1
REMARK SMILES IDX 23 1 22 2 20 3 21 4 19 5 13 6 14 7 15 8 17 9 16 10 18 11
REMARK SMILES IDX 12 12 9 13 10 14 92 15 11 16 91 17 8 18 6 19 7 20 5 22 2 23
REMARK SMILES IDX 1 24 3 25 4 26 24 27 25 28 26 29 27 30 28 31 29 32 90 33
REMARK SMILES IDX 30 34 89 35 31 36 32 37 33 38 83 39 34 40 88 41 82 42 84 43
REMARK SMILES IDX 35 44 87 45 81 46 80 47 36 49 68 50 48 51 67 52 49 53 52 54
REMARK SMILES IDX 66 55 85 56 50 57 51 58 65 60 86 61 53 62 37 63 38 64 46 65
REMARK SMILES IDX 39 66 45 67 47 68 44 69 40 70 41 71 42 72 43 73 69 74 70 75
REMARK SMILES IDX 78 76 71 77 77 78 79 79 76 80 72 81 73 82 74 83 75 84 54 85
REMARK SMILES IDX 55 86 63 87 56 88 62 89 64 90 61 91 57 92 58 93 59 94 60 95
REMARK H PARENT 8 21 84 48 52 59
REMARK Flexibility Score: inf
ROOT
ATOM      1  C   UNL A   1      34.961  21.620  25.208  1.00  0.00     0.275 C 
ENDROOT
BRANCH   1   2
ATOM      2  O   UNL A   1      33.915  21.097  26.048  1.00  0.00    -0.458 OA
BRANCH   2   3
ATOM      3  C   UNL A   1      32.648  21.250  25.588  1.00  0.00     0.340 C 
ATOM      4  O   UNL A   1      31.750  21.872  26.128  1.00  0.00    -0.246 OA
BRANCH   3   5
ATOM      5  C   UNL A   1      32.495  20.474  24.333  1.00  0.00     0.086 A 
ATOM      6  C   UNL A   1      32.214  21.138  23.110  1.00  0.00    -0.002 A 
ATOM      7  C   UNL A   1      31.999  20.343  21.965  1.00  0.00     0.010 A 
ATOM      8  C   UNL A   1      32.078  18.952  22.017  1.00  0.00     0.002 A 
ATOM      9  C   UNL A   1      32.636  19.077  24.366  1.00  0.00     0.056 A 
ATOM     10  C   UNL A   1      32.409  18.322  23.212  1.00  0.00     0.021 A 
ATOM     11  Cl  UNL A   1      33.070  18.208  25.796  1.00  0.00    -0.083 Cl
BRANCH   6  12
ATOM     12  C   UNL A   1      32.202  22.611  22.967  1.00  0.00    -0.017 A 
ATOM     13  C   UNL A   1      32.190  25.432  22.632  1.00  0.00     0.044 A 
ATOM     14  C   UNL A   1      31.091  24.776  23.193  1.00  0.00     0.027 A 
ATOM     15  C   UNL A   1      33.304  24.675  22.277  1.00  0.00     0.027 A 
ATOM     16  C   UNL A   1      31.099  23.384  23.360  1.00  0.00     0.011 A 
ATOM     17  C   UNL A   1      33.298  23.287  22.413  1.00  0.00     0.011 A 
BRANCH  13  18
ATOM     18  N   UNL A   1      32.106  26.828  22.475  1.00  0.00    -0.291 N 
ATOM     19  C   UNL A   1      32.652  27.836  23.229  1.00  0.00     0.412 C 
ATOM     20  O   UNL A   1      32.404  29.011  22.981  1.00  0.00    -0.224 OA
ATOM     21  H   UNL A   1      31.573  27.128  21.703  1.00  0.00     0.173 HD
BRANCH  19  22
ATOM     22  O   UNL A   1      33.507  27.410  24.185  1.00  0.00    -0.444 OA
BRANCH  22  23
ATOM     23  C   UNL A   1      33.160  27.361  25.587  1.00  0.00     0.106 C 
ATOM     24  C   UNL A   1      31.725  27.909  25.643  1.00  0.00     0.056 C 
ATOM     25  C   UNL A   1      34.070  28.274  26.410  1.00  0.00     0.056 C 
ATOM     26  C   UNL A   1      33.157  25.920  26.101  1.00  0.00     0.056 C 
ENDBRANCH  22  23
ENDBRANCH  19  22
ENDBRANCH  13  18
ENDBRANCH   6  12
ENDBRANCH   3   5
ENDBRANCH   2   3
ENDBRANCH   1   2
BRANCH   1  27
ATOM     27  C   UNL A   1      36.186  20.705  25.275  1.00  0.00     0.275 C 
BRANCH  27  28
ATOM     28  O   UNL A   1      37.374  21.476  25.022  1.00  0.00    -0.458 OA
BRANCH  28  29
ATOM     29  C   UNL A   1      38.466  21.051  25.701  1.00  0.00     0.338 C 
ATOM     30  O   UNL A   1      38.930  19.923  25.732  1.00  0.00    -0.246 OA
BRANCH  29  31
ATOM     31  C   UNL A   1      39.162  22.225  26.243  1.00  0.00     0.060 A 
ATOM     32  C   UNL A   1      38.612  23.475  25.959  1.00  0.00     0.016 A 
ATOM     33  C   UNL A   1      40.352  22.118  26.961  1.00  0.00     0.016 A 
ATOM     34  C   UNL A   1      39.250  24.634  26.385  1.00  0.00     0.010 A 
ATOM     35  C   UNL A   1      40.994  23.286  27.390  1.00  0.00     0.010 A 
ATOM     36  C   UNL A   1      40.456  24.553  27.092  1.00  0.00    -0.014 A 
BRANCH  36  37
ATOM     37  C   UNL A   1      41.196  25.801  27.413  1.00  0.00     0.031 A 
ATOM     38  C   UNL A   1      40.558  26.827  28.308  1.00  0.00     0.074 A 
ATOM     39  C   UNL A   1      42.451  25.988  26.966  1.00  0.00     0.049 A 
ATOM     40  N   UNL A   1      40.995  28.006  28.671  1.00  0.00    -0.248 NA
ATOM     41  C   UNL A   1      39.244  26.472  28.863  1.00  0.00     0.031 C 
ATOM     42  C   UNL A   1      43.211  25.031  26.163  1.00  0.00     0.029 A 
ATOM     43  N   UNL A   1      43.315  27.040  27.140  1.00  0.00    -0.354 N 
ATOM     44  C   UNL A   1      40.000  28.547  29.479  1.00  0.00     0.074 A 
ATOM     45  C   UNL A   1      38.923  27.577  29.517  1.00  0.00     0.031 C 
ATOM     46  C   UNL A   1      44.438  25.529  25.937  1.00  0.00     0.029 A 
ATOM     47  C   UNL A   1      44.531  26.864  26.521  1.00  0.00     0.049 A 
ATOM     48  H   UNL A   1      43.086  27.845  27.658  1.00  0.00     0.167 HD
ATOM     49  C   UNL A   1      39.987  29.739  30.130  1.00  0.00     0.034 A 
ATOM     50  C   UNL A   1      45.587  27.694  26.417  1.00  0.00     0.034 A 
ATOM     51  C   UNL A   1      41.072  30.693  30.077  1.00  0.00     0.049 A 
ATOM     52  C   UNL A   1      45.507  29.059  27.052  1.00  0.00     0.074 A 
ATOM     53  C   UNL A   1      41.167  31.928  30.694  1.00  0.00     0.029 A 
ATOM     54  N   UNL A   1      42.248  30.523  29.355  1.00  0.00    -0.354 N 
ATOM     55  N   UNL A   1      44.546  29.582  27.779  1.00  0.00    -0.248 NA
ATOM     56  C   UNL A   1      46.657  29.949  26.843  1.00  0.00     0.031 C 
ATOM     57  C   UNL A   1      42.360  32.536  30.284  1.00  0.00     0.029 A 
ATOM     58  C   UNL A   1      43.054  31.647  29.479  1.00  0.00     0.049 A 
ATOM     59  H   UNL A   1      42.477  29.722  28.832  1.00  0.00     0.167 HD
ATOM     60  C   UNL A   1      44.987  30.855  28.134  1.00  0.00     0.074 A 
ATOM     61  C   UNL A   1      46.307  31.010  27.555  1.00  0.00     0.031 C 
ATOM     62  C   UNL A   1      44.359  31.806  28.875  1.00  0.00     0.034 A 
BRANCH  49  63
ATOM     63  C   UNL A   1      38.724  30.093  30.882  1.00  0.00     0.023 A 
ATOM     64  C   UNL A   1      37.667  30.799  30.276  1.00  0.00     0.031 A 
ATOM     65  C   UNL A   1      38.611  29.797  32.253  1.00  0.00     0.131 A 
ATOM     66  C   UNL A   1      36.606  31.279  31.060  1.00  0.00     0.055 A 
ATOM     67  C   UNL A   1      37.503  30.193  33.006  1.00  0.00     0.041 A 
ATOM     68  F   UNL A   1      39.593  29.146  32.895  1.00  0.00    -0.206 F 
ATOM     69  C   UNL A   1      36.503  30.960  32.415  1.00  0.00     0.022 A 
BRANCH  66  70
ATOM     70  S   UNL A   1      35.476  32.498  30.329  1.00  0.00     0.124 S 
ATOM     71  O   UNL A   1      36.307  33.700  30.313  1.00  0.00    -0.237 OA
ATOM     72  O   UNL A   1      35.176  31.910  29.029  1.00  0.00    -0.237 OA
ATOM     73  O   UNL A   1      34.359  32.537  31.270  1.00  0.00    -0.744 OA
ENDBRANCH  66  70
ENDBRANCH  49  63
BRANCH  50  74
ATOM     74  C   UNL A   1      46.798  27.282  25.652  1.00  0.00     0.023 A 
ATOM     75  C   UNL A   1      47.028  27.753  24.349  1.00  0.00     0.031 A 
ATOM     76  C   UNL A   1      47.728  26.379  26.199  1.00  0.00     0.131 A 
ATOM     77  C   UNL A   1      48.142  27.297  23.627  1.00  0.00     0.055 A 
ATOM     78  C   UNL A   1      48.862  25.969  25.496  1.00  0.00     0.041 A 
ATOM     79  F   UNL A   1      47.553  25.891  27.438  1.00  0.00    -0.206 F 
ATOM     80  C   UNL A   1      49.069  26.422  24.198  1.00  0.00     0.022 A 
BRANCH  77  81
ATOM     81  S   UNL A   1      48.332  27.819  21.900  1.00  0.00     0.124 S 
ATOM     82  O   UNL A   1      47.106  28.577  21.682  1.00  0.00    -0.237 OA
ATOM     83  O   UNL A   1      49.566  28.596  21.949  1.00  0.00    -0.237 OA
ATOM     84  O   UNL A   1      48.424  26.555  21.171  1.00  0.00    -0.744 OA
ENDBRANCH  77  81
ENDBRANCH  50  74
BRANCH  62  85
ATOM     85  C   UNL A   1      45.121  33.088  29.125  1.00  0.00     0.023 A 
ATOM     86  C   UNL A   1      44.883  34.252  28.373  1.00  0.00     0.031 A 
ATOM     87  C   UNL A   1      46.128  33.133  30.106  1.00  0.00     0.131 A 
ATOM     88  C   UNL A   1      45.687  35.387  28.565  1.00  0.00     0.055 A 
ATOM     89  C   UNL A   1      46.877  34.288  30.341  1.00  0.00     0.041 A 
ATOM     90  F   UNL A   1      46.405  32.052  30.853  1.00  0.00    -0.206 F 
ATOM     91  C   UNL A   1      46.670  35.418  29.556  1.00  0.00     0.022 A 
BRANCH  88  92
ATOM     92  S   UNL A   1      45.509  36.785  27.421  1.00  0.00     0.124 S 
ATOM     93  O   UNL A   1      45.784  37.925  28.291  1.00  0.00    -0.237 OA
ATOM     94  O   UNL A   1      46.521  36.494  26.411  1.00  0.00    -0.237 OA
ATOM     95  O   UNL A   1      44.125  36.677  26.961  1.00  0.00    -0.744 OA
ENDBRANCH  88  92
ENDBRANCH  62  85
ENDBRANCH  36  37
ENDBRANCH  29  31
ENDBRANCH  28  29
ENDBRANCH  27  28
ENDBRANCH   1  27
TORSDOF 18
ENDMDL
