MODEL 1
REMARK VINA RESULT:     -10.3      0.000      0.000
REMARK SMILES O=C(COCC(=O)OCCOC(=O)c1ccc(-c2c3nc(c(-c4cc(S(=O)(=O)[O-])ccc4F)c4ccc([nH]4)c(-c4cc(S(=O)(=O)[O-])ccc4F)c4nc(c(-c5cc(S(=O)(=O)[O-])ccc5F)c5ccc2[nH]5)C=C4)C=C3)cc1)Nc1cccc([N+](=O)[O-])c1
REMARK SMILES IDX 9 1 8 2 6 3 7 4 5 5 4 6 3 7 2 8 1 9 77 10 78 12 79 13 86 14
REMARK SMILES IDX 80 15 82 16 81 17 83 18 84 19 85 20 10 21 11 22 12 23 13 24
REMARK SMILES IDX 14 25 15 26 76 27 16 28 75 29 17 30 18 31 19 32 69 33 20 34
REMARK SMILES IDX 74 35 68 36 70 37 21 38 73 39 67 40 66 41 22 43 54 44 34 45
REMARK SMILES IDX 53 46 35 47 38 48 52 49 71 50 36 51 37 52 51 54 72 55 39 56
REMARK SMILES IDX 23 57 24 58 32 59 25 60 31 61 33 62 30 63 26 64 27 65 28 66
REMARK SMILES IDX 29 67 55 68 56 69 64 70 57 71 63 72 65 73 62 74 58 75 59 76
REMARK SMILES IDX 60 77 61 78 40 79 41 80 49 81 42 82 48 83 50 84 47 85 43 86
REMARK SMILES IDX 44 87 45 88 46 89
REMARK H PARENT 77 11 70 42 38 53
REMARK Flexibility Score: inf
ROOT
ATOM      1  C   UNL A   1      33.147  33.651  28.024  1.00  0.00     0.274 C 
ENDROOT
BRANCH   1   2
ATOM      2  O   UNL A   1      32.767  34.630  29.013  1.00  0.00    -0.460 OA
BRANCH   2   3
ATOM      3  C   UNL A   1      33.493  35.776  28.988  1.00  0.00     0.332 C 
ATOM      4  O   UNL A   1      34.356  36.040  28.155  1.00  0.00    -0.250 OA
BRANCH   3   5
ATOM      5  C   UNL A   1      33.174  36.739  30.141  1.00  0.00     0.283 C 
BRANCH   5   6
ATOM      6  O   UNL A   1      32.078  36.660  31.028  1.00  0.00    -0.360 OA
BRANCH   6   7
ATOM      7  C   UNL A   1      32.376  36.295  32.365  1.00  0.00     0.261 C 
BRANCH   7   8
ATOM      8  C   UNL A   1      33.738  35.665  32.720  1.00  0.00     0.250 C 
ATOM      9  O   UNL A   1      34.708  36.377  32.953  1.00  0.00    -0.272 OA
ATOM     10  N   UNL A   1      33.718  34.281  32.759  1.00  0.00    -0.324 N 
ATOM     11  H   UNL A   1      32.850  33.848  32.593  1.00  0.00     0.170 HD
BRANCH  10  12
ATOM     12  C   UNL A   1      34.812  33.426  33.011  1.00  0.00     0.048 A 
ATOM     13  C   UNL A   1      35.067  32.408  32.079  1.00  0.00     0.026 A 
ATOM     14  C   UNL A   1      35.641  33.541  34.128  1.00  0.00     0.111 A 
ATOM     15  C   UNL A   1      36.145  31.532  32.245  1.00  0.00     0.009 A 
ATOM     16  C   UNL A   1      36.703  32.643  34.306  1.00  0.00     0.271 A 
ATOM     17  C   UNL A   1      36.967  31.645  33.362  1.00  0.00     0.086 A 
BRANCH  16  18
ATOM     18  N   UNL A   1      37.544  32.749  35.500  1.00  0.00     0.062 N 
ATOM     19  O   UNL A   1      38.168  33.803  35.651  1.00  0.00    -0.258 OA
ATOM     20  O   UNL A   1      37.536  31.794  36.290  1.00  0.00    -0.258 OA
ENDBRANCH  16  18
ENDBRANCH  10  12
ENDBRANCH   7   8
ENDBRANCH   6   7
ENDBRANCH   5   6
ENDBRANCH   3   5
ENDBRANCH   2   3
ENDBRANCH   1   2
BRANCH   1  21
ATOM     21  C   UNL A   1      34.235  32.699  28.525  1.00  0.00     0.275 C 
BRANCH  21  22
ATOM     22  O   UNL A   1      34.768  31.885  27.466  1.00  0.00    -0.458 OA
BRANCH  22  23
ATOM     23  C   UNL A   1      34.760  30.555  27.724  1.00  0.00     0.338 C 
ATOM     24  O   UNL A   1      33.834  29.788  27.545  1.00  0.00    -0.246 OA
BRANCH  23  25
ATOM     25  C   UNL A   1      36.081  30.134  28.217  1.00  0.00     0.060 A 
ATOM     26  C   UNL A   1      37.202  30.305  27.404  1.00  0.00     0.016 A 
ATOM     27  C   UNL A   1      36.190  29.484  29.447  1.00  0.00     0.016 A 
ATOM     28  C   UNL A   1      38.439  29.805  27.807  1.00  0.00     0.010 A 
ATOM     29  C   UNL A   1      37.441  29.022  29.869  1.00  0.00     0.010 A 
ATOM     30  C   UNL A   1      38.574  29.167  29.049  1.00  0.00    -0.014 A 
BRANCH  30  31
ATOM     31  C   UNL A   1      39.905  28.688  29.503  1.00  0.00     0.031 A 
ATOM     32  C   UNL A   1      40.689  29.449  30.536  1.00  0.00     0.074 A 
ATOM     33  C   UNL A   1      40.416  27.565  28.962  1.00  0.00     0.049 A 
ATOM     34  N   UNL A   1      41.858  29.169  31.053  1.00  0.00    -0.248 NA
ATOM     35  C   UNL A   1      40.075  30.674  31.068  1.00  0.00     0.031 C 
ATOM     36  C   UNL A   1      39.753  26.738  27.950  1.00  0.00     0.029 A 
ATOM     37  N   UNL A   1      41.623  26.943  29.159  1.00  0.00    -0.354 N 
ATOM     38  C   UNL A   1      42.104  30.158  32.000  1.00  0.00     0.074 A 
ATOM     39  C   UNL A   1      40.985  31.073  31.947  1.00  0.00     0.031 C 
ATOM     40  C   UNL A   1      40.574  25.741  27.592  1.00  0.00     0.029 A 
ATOM     41  C   UNL A   1      41.838  25.884  28.310  1.00  0.00     0.049 A 
ATOM     42  H   UNL A   1      42.272  27.228  29.843  1.00  0.00     0.167 HD
ATOM     43  C   UNL A   1      43.156  30.284  32.846  1.00  0.00     0.034 A 
ATOM     44  C   UNL A   1      42.943  25.145  28.088  1.00  0.00     0.034 A 
ATOM     45  C   UNL A   1      44.301  29.412  32.838  1.00  0.00     0.049 A 
ATOM     46  C   UNL A   1      44.177  25.420  28.905  1.00  0.00     0.074 A 
ATOM     47  C   UNL A   1      45.401  29.419  33.677  1.00  0.00     0.029 A 
ATOM     48  N   UNL A   1      44.520  28.407  31.904  1.00  0.00    -0.354 N 
ATOM     49  N   UNL A   1      44.352  26.297  29.866  1.00  0.00    -0.248 NA
ATOM     50  C   UNL A   1      45.363  24.607  28.606  1.00  0.00     0.031 C 
ATOM     51  C   UNL A   1      46.317  28.470  33.203  1.00  0.00     0.029 A 
ATOM     52  C   UNL A   1      45.766  27.832  32.103  1.00  0.00     0.049 A 
ATOM     53  H   UNL A   1      43.883  28.141  31.202  1.00  0.00     0.167 HD
ATOM     54  C   UNL A   1      45.663  26.128  30.300  1.00  0.00     0.074 A 
ATOM     55  C   UNL A   1      46.230  25.060  29.501  1.00  0.00     0.031 C 
ATOM     56  C   UNL A   1      46.333  26.790  31.278  1.00  0.00     0.034 A 
BRANCH  43  57
ATOM     57  C   UNL A   1      43.132  31.446  33.806  1.00  0.00     0.023 A 
ATOM     58  C   UNL A   1      42.695  31.298  35.135  1.00  0.00     0.031 A 
ATOM     59  C   UNL A   1      43.532  32.723  33.378  1.00  0.00     0.131 A 
ATOM     60  C   UNL A   1      42.605  32.421  35.974  1.00  0.00     0.055 A 
ATOM     61  C   UNL A   1      43.491  33.826  34.231  1.00  0.00     0.041 A 
ATOM     62  F   UNL A   1      43.956  32.916  32.119  1.00  0.00    -0.206 F 
ATOM     63  C   UNL A   1      43.016  33.682  35.532  1.00  0.00     0.022 A 
BRANCH  60  64
ATOM     64  S   UNL A   1      41.932  32.241  37.655  1.00  0.00     0.124 S 
ATOM     65  O   UNL A   1      42.295  33.512  38.274  1.00  0.00    -0.237 OA
ATOM     66  O   UNL A   1      40.509  32.022  37.418  1.00  0.00    -0.237 OA
ATOM     67  O   UNL A   1      42.648  31.079  38.182  1.00  0.00    -0.744 OA
ENDBRANCH  60  64
ENDBRANCH  43  57
BRANCH  44  68
ATOM     68  C   UNL A   1      42.955  24.142  26.987  1.00  0.00     0.023 A 
ATOM     69  C   UNL A   1      42.385  22.870  27.142  1.00  0.00     0.031 A 
ATOM     70  C   UNL A   1      43.562  24.452  25.755  1.00  0.00     0.131 A 
ATOM     71  C   UNL A   1      42.454  21.945  26.088  1.00  0.00     0.055 A 
ATOM     72  C   UNL A   1      43.590  23.543  24.697  1.00  0.00     0.041 A 
ATOM     73  F   UNL A   1      44.123  25.656  25.557  1.00  0.00    -0.206 F 
ATOM     74  C   UNL A   1      43.040  22.278  24.863  1.00  0.00     0.022 A 
BRANCH  71  75
ATOM     75  S   UNL A   1      41.805  20.272  26.353  1.00  0.00     0.124 S 
ATOM     76  O   UNL A   1      42.117  20.050  27.761  1.00  0.00    -0.237 OA
ATOM     77  O   UNL A   1      40.392  20.440  26.028  1.00  0.00    -0.237 OA
ATOM     78  O   UNL A   1      42.566  19.457  25.409  1.00  0.00    -0.744 OA
ENDBRANCH  71  75
ENDBRANCH  44  68
BRANCH  56  79
ATOM     79  C   UNL A   1      47.753  26.358  31.539  1.00  0.00     0.023 A 
ATOM     80  C   UNL A   1      48.066  25.457  32.571  1.00  0.00     0.031 A 
ATOM     81  C   UNL A   1      48.806  26.869  30.759  1.00  0.00     0.131 A 
ATOM     82  C   UNL A   1      49.406  25.129  32.827  1.00  0.00     0.055 A 
ATOM     83  C   UNL A   1      50.131  26.497  30.985  1.00  0.00     0.041 A 
ATOM     84  F   UNL A   1      48.561  27.738  29.767  1.00  0.00    -0.206 F 
ATOM     85  C   UNL A   1      50.439  25.630  32.031  1.00  0.00     0.022 A 
BRANCH  82  86
ATOM     86  S   UNL A   1      49.791  24.098  34.269  1.00  0.00     0.124 S 
ATOM     87  O   UNL A   1      49.614  22.752  33.735  1.00  0.00    -0.237 OA
ATOM     88  O   UNL A   1      51.165  24.487  34.575  1.00  0.00    -0.237 OA
ATOM     89  O   UNL A   1      48.799  24.508  35.260  1.00  0.00    -0.744 OA
ENDBRANCH  82  86
ENDBRANCH  56  79
ENDBRANCH  30  31
ENDBRANCH  23  25
ENDBRANCH  22  23
ENDBRANCH  21  22
ENDBRANCH   1  21
TORSDOF 19
ENDMDL
MODEL 2
REMARK VINA RESULT:      -9.9      0.495      7.609
REMARK SMILES O=C(COCC(=O)OCCOC(=O)c1ccc(-c2c3nc(c(-c4cc(S(=O)(=O)[O-])ccc4F)c4ccc([nH]4)c(-c4cc(S(=O)(=O)[O-])ccc4F)c4nc(c(-c5cc(S(=O)(=O)[O-])ccc5F)c5ccc2[nH]5)C=C4)C=C3)cc1)Nc1cccc([N+](=O)[O-])c1
REMARK SMILES IDX 9 1 8 2 6 3 7 4 5 5 4 6 3 7 2 8 1 9 77 10 78 12 79 13 86 14
REMARK SMILES IDX 80 15 82 16 81 17 83 18 84 19 85 20 10 21 11 22 12 23 13 24
REMARK SMILES IDX 14 25 15 26 76 27 16 28 75 29 17 30 18 31 19 32 69 33 20 34
REMARK SMILES IDX 74 35 68 36 70 37 21 38 73 39 67 40 66 41 22 43 54 44 34 45
REMARK SMILES IDX 53 46 35 47 38 48 52 49 71 50 36 51 37 52 51 54 72 55 39 56
REMARK SMILES IDX 23 57 24 58 32 59 25 60 31 61 33 62 30 63 26 64 27 65 28 66
REMARK SMILES IDX 29 67 55 68 56 69 64 70 57 71 63 72 65 73 62 74 58 75 59 76
REMARK SMILES IDX 60 77 61 78 40 79 41 80 49 81 42 82 48 83 50 84 47 85 43 86
REMARK SMILES IDX 44 87 45 88 46 89
REMARK H PARENT 77 11 70 42 38 53
REMARK Flexibility Score: inf
ROOT
ATOM      1  C   UNL A   1      33.494  33.580  28.033  1.00  0.00     0.274 C 
ENDROOT
BRANCH   1   2
ATOM      2  O   UNL A   1      33.222  34.471  29.135  1.00  0.00    -0.460 OA
BRANCH   2   3
ATOM      3  C   UNL A   1      33.659  35.743  28.961  1.00  0.00     0.332 C 
ATOM      4  O   UNL A   1      34.345  36.125  28.016  1.00  0.00    -0.250 OA
BRANCH   3   5
ATOM      5  C   UNL A   1      33.251  36.700  30.090  1.00  0.00     0.283 C 
BRANCH   5   6
ATOM      6  O   UNL A   1      32.133  36.573  30.942  1.00  0.00    -0.360 OA
BRANCH   6   7
ATOM      7  C   UNL A   1      32.405  36.232  32.292  1.00  0.00     0.261 C 
BRANCH   7   8
ATOM      8  C   UNL A   1      33.761  35.613  32.685  1.00  0.00     0.250 C 
ATOM      9  O   UNL A   1      34.713  36.333  32.964  1.00  0.00    -0.272 OA
ATOM     10  N   UNL A   1      33.759  34.228  32.700  1.00  0.00    -0.324 N 
ATOM     11  H   UNL A   1      32.903  33.788  32.496  1.00  0.00     0.170 HD
BRANCH  10  12
ATOM     12  C   UNL A   1      34.854  33.383  32.977  1.00  0.00     0.048 A 
ATOM     13  C   UNL A   1      35.155  32.384  32.038  1.00  0.00     0.026 A 
ATOM     14  C   UNL A   1      35.642  33.490  34.124  1.00  0.00     0.111 A 
ATOM     15  C   UNL A   1      36.238  31.519  32.228  1.00  0.00     0.009 A 
ATOM     16  C   UNL A   1      36.708  32.602  34.325  1.00  0.00     0.271 A 
ATOM     17  C   UNL A   1      37.019  31.623  33.375  1.00  0.00     0.086 A 
BRANCH  16  18
ATOM     18  N   UNL A   1      37.505  32.698  35.550  1.00  0.00     0.062 N 
ATOM     19  O   UNL A   1      37.544  31.696  36.269  1.00  0.00    -0.258 OA
ATOM     20  O   UNL A   1      38.112  33.759  35.753  1.00  0.00    -0.258 OA
ENDBRANCH  16  18
ENDBRANCH  10  12
ENDBRANCH   7   8
ENDBRANCH   6   7
ENDBRANCH   5   6
ENDBRANCH   3   5
ENDBRANCH   2   3
ENDBRANCH   1   2
BRANCH   1  21
ATOM     21  C   UNL A   1      34.649  32.619  28.324  1.00  0.00     0.275 C 
BRANCH  21  22
ATOM     22  O   UNL A   1      34.184  31.286  28.600  1.00  0.00    -0.458 OA
BRANCH  22  23
ATOM     23  C   UNL A   1      34.704  30.333  27.790  1.00  0.00     0.338 C 
ATOM     24  O   UNL A   1      34.157  29.816  26.834  1.00  0.00    -0.246 OA
BRANCH  23  25
ATOM     25  C   UNL A   1      36.085  30.030  28.197  1.00  0.00     0.060 A 
ATOM     26  C   UNL A   1      37.128  30.244  27.295  1.00  0.00     0.016 A 
ATOM     27  C   UNL A   1      36.332  29.447  29.440  1.00  0.00     0.016 A 
ATOM     28  C   UNL A   1      38.425  29.853  27.623  1.00  0.00     0.010 A 
ATOM     29  C   UNL A   1      37.641  29.096  29.785  1.00  0.00     0.010 A 
ATOM     30  C   UNL A   1      38.698  29.284  28.875  1.00  0.00    -0.014 A 
BRANCH  30  31
ATOM     31  C   UNL A   1      40.091  28.923  29.246  1.00  0.00     0.031 A 
ATOM     32  C   UNL A   1      40.751  27.701  28.673  1.00  0.00     0.074 A 
ATOM     33  C   UNL A   1      40.756  29.699  30.123  1.00  0.00     0.049 A 
ATOM     34  N   UNL A   1      41.961  27.245  28.879  1.00  0.00    -0.248 NA
ATOM     35  C   UNL A   1      39.957  26.894  27.735  1.00  0.00     0.031 C 
ATOM     36  C   UNL A   1      40.224  30.912  30.750  1.00  0.00     0.029 A 
ATOM     37  N   UNL A   1      42.009  29.567  30.667  1.00  0.00    -0.354 N 
ATOM     38  C   UNL A   1      42.088  26.122  28.068  1.00  0.00     0.074 A 
ATOM     39  C   UNL A   1      40.815  25.937  27.407  1.00  0.00     0.031 C 
ATOM     40  C   UNL A   1      41.128  31.391  31.617  1.00  0.00     0.029 A 
ATOM     41  C   UNL A   1      42.282  30.496  31.643  1.00  0.00     0.049 A 
ATOM     42  H   UNL A   1      42.650  28.875  30.385  1.00  0.00     0.167 HD
ATOM     43  C   UNL A   1      43.171  25.327  27.879  1.00  0.00     0.034 A 
ATOM     44  C   UNL A   1      43.315  30.588  32.504  1.00  0.00     0.034 A 
ATOM     45  C   UNL A   1      44.409  25.474  28.600  1.00  0.00     0.049 A 
ATOM     46  C   UNL A   1      44.429  29.580  32.414  1.00  0.00     0.074 A 
ATOM     47  C   UNL A   1      45.583  24.755  28.458  1.00  0.00     0.029 A 
ATOM     48  N   UNL A   1      44.614  26.369  29.641  1.00  0.00    -0.354 N 
ATOM     49  N   UNL A   1      44.575  28.586  31.570  1.00  0.00    -0.248 NA
ATOM     50  C   UNL A   1      45.517  29.707  33.392  1.00  0.00     0.031 C 
ATOM     51  C   UNL A   1      46.469  25.165  29.464  1.00  0.00     0.029 A 
ATOM     52  C   UNL A   1      45.870  26.177  30.197  1.00  0.00     0.049 A 
ATOM     53  H   UNL A   1      43.962  27.042  29.942  1.00  0.00     0.167 HD
ATOM     54  C   UNL A   1      45.781  27.978  31.904  1.00  0.00     0.074 A 
ATOM     55  C   UNL A   1      46.326  28.724  33.021  1.00  0.00     0.031 C 
ATOM     56  C   UNL A   1      46.387  26.906  31.332  1.00  0.00     0.034 A 
BRANCH  43  57
ATOM     57  C   UNL A   1      43.031  24.195  26.894  1.00  0.00     0.023 A 
ATOM     58  C   UNL A   1      42.354  23.007  27.224  1.00  0.00     0.031 A 
ATOM     59  C   UNL A   1      43.601  24.299  25.614  1.00  0.00     0.131 A 
ATOM     60  C   UNL A   1      42.319  21.941  26.312  1.00  0.00     0.055 A 
ATOM     61  C   UNL A   1      43.517  23.257  24.690  1.00  0.00     0.041 A 
ATOM     62  F   UNL A   1      44.257  25.411  25.250  1.00  0.00    -0.206 F 
ATOM     63  C   UNL A   1      42.885  22.067  25.039  1.00  0.00     0.022 A 
BRANCH  60  64
ATOM     64  S   UNL A   1      41.540  20.367  26.789  1.00  0.00     0.124 S 
ATOM     65  O   UNL A   1      40.254  20.805  27.324  1.00  0.00    -0.237 OA
ATOM     66  O   UNL A   1      41.496  19.627  25.532  1.00  0.00    -0.237 OA
ATOM     67  O   UNL A   1      42.462  19.823  27.786  1.00  0.00    -0.744 OA
ENDBRANCH  60  64
ENDBRANCH  43  57
BRANCH  44  68
ATOM     68  C   UNL A   1      43.292  31.618  33.580  1.00  0.00     0.023 A 
ATOM     69  C   UNL A   1      42.862  31.315  34.880  1.00  0.00     0.031 A 
ATOM     70  C   UNL A   1      43.693  32.939  33.305  1.00  0.00     0.131 A 
ATOM     71  C   UNL A   1      42.823  32.327  35.853  1.00  0.00     0.055 A 
ATOM     72  C   UNL A   1      43.692  33.931  34.286  1.00  0.00     0.041 A 
ATOM     73  F   UNL A   1      44.112  33.279  32.075  1.00  0.00    -0.206 F 
ATOM     74  C   UNL A   1      43.248  33.629  35.568  1.00  0.00     0.022 A 
BRANCH  71  75
ATOM     75  S   UNL A   1      42.161  31.933  37.495  1.00  0.00     0.124 S 
ATOM     76  O   UNL A   1      42.732  32.999  38.311  1.00  0.00    -0.237 OA
ATOM     77  O   UNL A   1      40.722  32.003  37.266  1.00  0.00    -0.237 OA
ATOM     78  O   UNL A   1      42.683  30.595  37.761  1.00  0.00    -0.744 OA
ENDBRANCH  71  75
ENDBRANCH  44  68
BRANCH  56  79
ATOM     79  C   UNL A   1      47.718  26.494  31.905  1.00  0.00     0.023 A 
ATOM     80  C   UNL A   1      47.809  25.540  32.935  1.00  0.00     0.031 A 
ATOM     81  C   UNL A   1      48.907  27.076  31.431  1.00  0.00     0.131 A 
ATOM     82  C   UNL A   1      49.060  25.231  33.489  1.00  0.00     0.055 A 
ATOM     83  C   UNL A   1      50.153  26.724  31.951  1.00  0.00     0.041 A 
ATOM     84  F   UNL A   1      48.874  27.997  30.456  1.00  0.00    -0.206 F 
ATOM     85  C   UNL A   1      50.235  25.805  32.993  1.00  0.00     0.022 A 
BRANCH  82  86
ATOM     86  S   UNL A   1      49.128  24.126  34.926  1.00  0.00     0.124 S 
ATOM     87  O   UNL A   1      48.880  22.823  34.317  1.00  0.00    -0.237 OA
ATOM     88  O   UNL A   1      50.481  24.347  35.429  1.00  0.00    -0.237 OA
ATOM     89  O   UNL A   1      48.060  24.620  35.791  1.00  0.00    -0.744 OA
ENDBRANCH  82  86
ENDBRANCH  56  79
ENDBRANCH  30  31
ENDBRANCH  23  25
ENDBRANCH  22  23
ENDBRANCH  21  22
ENDBRANCH   1  21
TORSDOF 19
ENDMDL
MODEL 3
REMARK VINA RESULT:      -9.7      2.002      2.367
REMARK SMILES O=C(COCC(=O)OCCOC(=O)c1ccc(-c2c3nc(c(-c4cc(S(=O)(=O)[O-])ccc4F)c4ccc([nH]4)c(-c4cc(S(=O)(=O)[O-])ccc4F)c4nc(c(-c5cc(S(=O)(=O)[O-])ccc5F)c5ccc2[nH]5)C=C4)C=C3)cc1)Nc1cccc([N+](=O)[O-])c1
REMARK SMILES IDX 9 1 8 2 6 3 7 4 5 5 4 6 3 7 2 8 1 9 77 10 78 12 79 13 86 14
REMARK SMILES IDX 80 15 82 16 81 17 83 18 84 19 85 20 10 21 11 22 12 23 13 24
REMARK SMILES IDX 14 25 15 26 76 27 16 28 75 29 17 30 18 31 19 32 69 33 20 34
REMARK SMILES IDX 74 35 68 36 70 37 21 38 73 39 67 40 66 41 22 43 54 44 34 45
REMARK SMILES IDX 53 46 35 47 38 48 52 49 71 50 36 51 37 52 51 54 72 55 39 56
REMARK SMILES IDX 23 57 24 58 32 59 25 60 31 61 33 62 30 63 26 64 27 65 28 66
REMARK SMILES IDX 29 67 55 68 56 69 64 70 57 71 63 72 65 73 62 74 58 75 59 76
REMARK SMILES IDX 60 77 61 78 40 79 41 80 49 81 42 82 48 83 50 84 47 85 43 86
REMARK SMILES IDX 44 87 45 88 46 89
REMARK H PARENT 77 11 70 42 38 53
REMARK Flexibility Score: inf
ROOT
ATOM      1  C   UNL A   1      33.904  34.184  28.495  1.00  0.00     0.274 C 
ENDROOT
BRANCH   1   2
ATOM      2  O   UNL A   1      32.706  34.902  28.858  1.00  0.00    -0.460 OA
BRANCH   2   3
ATOM      3  C   UNL A   1      32.919  36.122  29.413  1.00  0.00     0.332 C 
ATOM      4  O   UNL A   1      33.271  37.121  28.792  1.00  0.00    -0.250 OA
BRANCH   3   5
ATOM      5  C   UNL A   1      32.716  36.157  30.935  1.00  0.00     0.283 C 
BRANCH   5   6
ATOM      6  O   UNL A   1      33.677  35.845  31.921  1.00  0.00    -0.360 OA
BRANCH   6   7
ATOM      7  C   UNL A   1      33.892  34.467  32.178  1.00  0.00     0.261 C 
BRANCH   7   8
ATOM      8  C   UNL A   1      35.297  33.948  32.544  1.00  0.00     0.250 C 
ATOM      9  O   UNL A   1      35.439  32.826  33.015  1.00  0.00    -0.272 OA
ATOM     10  N   UNL A   1      36.312  34.849  32.270  1.00  0.00    -0.324 N 
ATOM     11  H   UNL A   1      36.046  35.697  31.848  1.00  0.00     0.170 HD
BRANCH  10  12
ATOM     12  C   UNL A   1      37.688  34.679  32.532  1.00  0.00     0.048 A 
ATOM     13  C   UNL A   1      38.096  34.676  33.875  1.00  0.00     0.026 A 
ATOM     14  C   UNL A   1      38.650  34.516  31.534  1.00  0.00     0.111 A 
ATOM     15  C   UNL A   1      39.439  34.491  34.220  1.00  0.00     0.009 A 
ATOM     16  C   UNL A   1      39.999  34.361  31.883  1.00  0.00     0.271 A 
ATOM     17  C   UNL A   1      40.398  34.335  33.224  1.00  0.00     0.086 A 
BRANCH  16  18
ATOM     18  N   UNL A   1      41.006  34.229  30.827  1.00  0.00     0.062 N 
ATOM     19  O   UNL A   1      42.038  34.894  30.956  1.00  0.00    -0.258 OA
ATOM     20  O   UNL A   1      40.768  33.431  29.909  1.00  0.00    -0.258 OA
ENDBRANCH  16  18
ENDBRANCH  10  12
ENDBRANCH   7   8
ENDBRANCH   6   7
ENDBRANCH   5   6
ENDBRANCH   3   5
ENDBRANCH   2   3
ENDBRANCH   1   2
BRANCH   1  21
ATOM     21  C   UNL A   1      33.607  32.888  27.738  1.00  0.00     0.275 C 
BRANCH  21  22
ATOM     22  O   UNL A   1      34.044  31.727  28.466  1.00  0.00    -0.458 OA
BRANCH  22  23
ATOM     23  C   UNL A   1      34.557  30.741  27.690  1.00  0.00     0.338 C 
ATOM     24  O   UNL A   1      34.089  30.322  26.648  1.00  0.00    -0.246 OA
BRANCH  23  25
ATOM     25  C   UNL A   1      35.824  30.262  28.264  1.00  0.00     0.060 A 
ATOM     26  C   UNL A   1      36.977  30.269  27.478  1.00  0.00     0.016 A 
ATOM     27  C   UNL A   1      35.845  29.720  29.549  1.00  0.00     0.016 A 
ATOM     28  C   UNL A   1      38.157  29.710  27.967  1.00  0.00     0.010 A 
ATOM     29  C   UNL A   1      37.041  29.199  30.054  1.00  0.00     0.010 A 
ATOM     30  C   UNL A   1      38.204  29.178  29.264  1.00  0.00    -0.014 A 
BRANCH  30  31
ATOM     31  C   UNL A   1      39.478  28.637  29.804  1.00  0.00     0.031 A 
ATOM     32  C   UNL A   1      40.182  29.314  30.948  1.00  0.00     0.074 A 
ATOM     33  C   UNL A   1      40.012  27.536  29.242  1.00  0.00     0.049 A 
ATOM     34  N   UNL A   1      41.293  28.972  31.549  1.00  0.00    -0.248 NA
ATOM     35  C   UNL A   1      39.549  30.521  31.498  1.00  0.00     0.031 C 
ATOM     36  C   UNL A   1      39.426  26.789  28.126  1.00  0.00     0.029 A 
ATOM     37  N   UNL A   1      41.183  26.871  29.507  1.00  0.00    -0.354 N 
ATOM     38  C   UNL A   1      41.472  29.896  32.573  1.00  0.00     0.074 A 
ATOM     39  C   UNL A   1      40.383  30.842  32.477  1.00  0.00     0.031 C 
ATOM     40  C   UNL A   1      40.255  25.793  27.781  1.00  0.00     0.029 A 
ATOM     41  C   UNL A   1      41.451  25.859  28.616  1.00  0.00     0.049 A 
ATOM     42  H   UNL A   1      41.774  27.097  30.263  1.00  0.00     0.167 HD
ATOM     43  C   UNL A   1      42.446  29.943  33.516  1.00  0.00     0.034 A 
ATOM     44  C   UNL A   1      42.556  25.105  28.449  1.00  0.00     0.034 A 
ATOM     45  C   UNL A   1      43.569  29.042  33.556  1.00  0.00     0.049 A 
ATOM     46  C   UNL A   1      43.717  25.298  29.388  1.00  0.00     0.074 A 
ATOM     47  C   UNL A   1      44.588  28.970  34.489  1.00  0.00     0.029 A 
ATOM     48  N   UNL A   1      43.850  28.090  32.585  1.00  0.00    -0.354 N 
ATOM     49  N   UNL A   1      43.822  26.110  30.413  1.00  0.00    -0.248 NA
ATOM     50  C   UNL A   1      44.907  24.472  29.146  1.00  0.00     0.031 C 
ATOM     51  C   UNL A   1      45.523  28.026  34.041  1.00  0.00     0.029 A 
ATOM     52  C   UNL A   1      45.060  27.471  32.858  1.00  0.00     0.049 A 
ATOM     53  H   UNL A   1      43.273  27.883  31.814  1.00  0.00     0.167 HD
ATOM     54  C   UNL A   1      45.084  25.881  30.951  1.00  0.00     0.074 A 
ATOM     55  C   UNL A   1      45.699  24.848  30.141  1.00  0.00     0.031 C 
ATOM     56  C   UNL A   1      45.677  26.465  32.024  1.00  0.00     0.034 A 
BRANCH  43  57
ATOM     57  C   UNL A   1      42.360  31.045  34.540  1.00  0.00     0.023 A 
ATOM     58  C   UNL A   1      43.102  32.234  34.411  1.00  0.00     0.031 A 
ATOM     59  C   UNL A   1      41.540  30.895  35.671  1.00  0.00     0.131 A 
ATOM     60  C   UNL A   1      43.063  33.201  35.429  1.00  0.00     0.055 A 
ATOM     61  C   UNL A   1      41.463  31.882  36.654  1.00  0.00     0.041 A 
ATOM     62  F   UNL A   1      40.813  29.781  35.841  1.00  0.00    -0.206 F 
ATOM     63  C   UNL A   1      42.234  33.037  36.543  1.00  0.00     0.022 A 
BRANCH  60  64
ATOM     64  S   UNL A   1      44.112  34.682  35.309  1.00  0.00     0.124 S 
ATOM     65  O   UNL A   1      43.171  35.694  34.837  1.00  0.00    -0.237 OA
ATOM     66  O   UNL A   1      44.606  34.847  36.672  1.00  0.00    -0.237 OA
ATOM     67  O   UNL A   1      45.131  34.296  34.333  1.00  0.00    -0.744 OA
ENDBRANCH  60  64
ENDBRANCH  43  57
BRANCH  44  68
ATOM     68  C   UNL A   1      42.646  24.170  27.293  1.00  0.00     0.023 A 
ATOM     69  C   UNL A   1      42.128  22.868  27.356  1.00  0.00     0.031 A 
ATOM     70  C   UNL A   1      43.278  24.576  26.102  1.00  0.00     0.131 A 
ATOM     71  C   UNL A   1      42.270  22.010  26.253  1.00  0.00     0.055 A 
ATOM     72  C   UNL A   1      43.378  23.733  24.995  1.00  0.00     0.041 A 
ATOM     73  F   UNL A   1      43.791  25.813  25.993  1.00  0.00    -0.206 F 
ATOM     74  C   UNL A   1      42.879  22.438  25.070  1.00  0.00     0.022 A 
BRANCH  71  75
ATOM     75  S   UNL A   1      41.687  20.299  26.401  1.00  0.00     0.124 S 
ATOM     76  O   UNL A   1      42.174  19.930  27.725  1.00  0.00    -0.237 OA
ATOM     77  O   UNL A   1      40.242  20.459  26.270  1.00  0.00    -0.237 OA
ATOM     78  O   UNL A   1      42.339  19.619  25.284  1.00  0.00    -0.744 OA
ENDBRANCH  71  75
ENDBRANCH  44  68
BRANCH  56  79
ATOM     79  C   UNL A   1      47.058  25.981  32.383  1.00  0.00     0.023 A 
ATOM     80  C   UNL A   1      47.251  24.933  33.301  1.00  0.00     0.031 A 
ATOM     81  C   UNL A   1      48.194  26.585  31.816  1.00  0.00     0.131 A 
ATOM     82  C   UNL A   1      48.552  24.553  33.662  1.00  0.00     0.055 A 
ATOM     83  C   UNL A   1      49.484  26.166  32.139  1.00  0.00     0.041 A 
ATOM     84  F   UNL A   1      48.064  27.594  30.941  1.00  0.00    -0.206 F 
ATOM     85  C   UNL A   1      49.670  25.152  33.075  1.00  0.00     0.022 A 
BRANCH  82  86
ATOM     86  S   UNL A   1      48.769  23.317  34.971  1.00  0.00     0.124 S 
ATOM     87  O   UNL A   1      49.944  22.587  34.507  1.00  0.00    -0.237 OA
ATOM     88  O   UNL A   1      48.960  24.147  36.158  1.00  0.00    -0.237 OA
ATOM     89  O   UNL A   1      47.518  22.562  34.942  1.00  0.00    -0.744 OA
ENDBRANCH  82  86
ENDBRANCH  56  79
ENDBRANCH  30  31
ENDBRANCH  23  25
ENDBRANCH  22  23
ENDBRANCH  21  22
ENDBRANCH   1  21
TORSDOF 19
ENDMDL
