MODEL 1
REMARK VINA RESULT:     -13.2      0.000      0.000
REMARK SMILES O=C(OCCOC(=O)[C@@]12C[C@H]3C[C@@H](C1)C[C@](n1cc([N+](=O)[O-])cn1)(C3)C2)c1ccc(-c2c3nc(c(-c4cc(S(=O)(=O)[O-])ccc4F)c4ccc([nH]4)c(-c4cc(S(=O)(=O)[O-])ccc4F)c4nc(c(-c5cc(S(=O)(=O)[O-])ccc5F)c5ccc2[nH]5)C=C4)C=C3)cc1
REMARK SMILES IDX 4 1 3 2 2 3 1 4 27 5 28 6 89 7 29 8 88 9 30 10 31 11 32 12
REMARK SMILES IDX 82 13 33 14 87 15 81 16 83 17 34 18 86 19 80 20 79 21 35 23
REMARK SMILES IDX 67 24 47 25 66 26 48 27 51 28 65 29 84 30 49 31 50 32 64 34
REMARK SMILES IDX 85 35 52 36 36 37 37 38 45 39 38 40 44 41 46 42 43 43 39 44
REMARK SMILES IDX 40 45 41 46 42 47 68 48 69 49 77 50 70 51 76 52 78 53 75 54
REMARK SMILES IDX 71 55 72 56 73 57 74 58 53 59 54 60 62 61 55 62 61 63 63 64
REMARK SMILES IDX 60 65 56 66 57 67 58 68 59 69 5 70 6 71 7 72 8 73 9 74 10 75
REMARK SMILES IDX 14 76 26 77 11 78 13 79 16 80 12 81 25 82 15 83 17 84 18 85
REMARK SMILES IDX 24 86 19 87 23 88 20 89 21 90 22 91
REMARK H PARENT 83 22 51 33
REMARK Flexibility Score: inf
ROOT
ATOM      1  C   UNL A   1      34.196  30.127  26.874  1.00  0.00     0.275 C 
ENDROOT
BRANCH   1   2
ATOM      2  O   UNL A   1      34.927  29.565  27.976  1.00  0.00    -0.458 OA
BRANCH   2   3
ATOM      3  C   UNL A   1      35.990  30.080  28.623  1.00  0.00     0.338 C 
ATOM      4  O   UNL A   1      35.854  31.158  29.206  1.00  0.00    -0.246 OA
BRANCH   3   5
ATOM      5  C   UNL A   1      37.286  29.353  28.784  1.00  0.00     0.060 A 
ATOM      6  C   UNL A   1      37.698  28.564  29.865  1.00  0.00     0.016 A 
ATOM      7  C   UNL A   1      38.188  29.530  27.721  1.00  0.00     0.016 A 
ATOM      8  C   UNL A   1      38.985  28.025  29.918  1.00  0.00     0.010 A 
ATOM      9  C   UNL A   1      39.449  28.965  27.747  1.00  0.00     0.010 A 
ATOM     10  C   UNL A   1      39.872  28.272  28.879  1.00  0.00    -0.014 A 
BRANCH  10  11
ATOM     11  C   UNL A   1      41.266  27.842  28.965  1.00  0.00     0.031 A 
ATOM     12  C   UNL A   1      41.643  26.606  28.218  1.00  0.00     0.074 A 
ATOM     13  C   UNL A   1      42.196  28.713  29.408  1.00  0.00     0.049 A 
ATOM     14  N   UNL A   1      42.122  25.481  28.645  1.00  0.00    -0.248 NA
ATOM     15  C   UNL A   1      41.333  26.596  26.784  1.00  0.00     0.031 C 
ATOM     16  C   UNL A   1      42.002  30.104  29.835  1.00  0.00     0.029 A 
ATOM     17  N   UNL A   1      43.546  28.590  29.394  1.00  0.00    -0.354 N 
ATOM     18  C   UNL A   1      42.351  24.703  27.504  1.00  0.00     0.074 A 
ATOM     19  C   UNL A   1      41.607  25.335  26.452  1.00  0.00     0.031 C 
ATOM     20  C   UNL A   1      43.182  30.759  29.770  1.00  0.00     0.029 A 
ATOM     21  C   UNL A   1      44.227  29.799  29.458  1.00  0.00     0.049 A 
ATOM     22  H   UNL A   1      44.005  27.720  29.345  1.00  0.00     0.167 HD
ATOM     23  C   UNL A   1      43.327  23.748  27.435  1.00  0.00     0.034 A 
ATOM     24  C   UNL A   1      45.542  30.006  29.184  1.00  0.00     0.034 A 
ATOM     25  C   UNL A   1      43.820  23.416  28.751  1.00  0.00     0.049 A 
ATOM     26  C   UNL A   1      46.205  28.678  29.274  1.00  0.00     0.074 A 
ATOM     27  C   UNL A   1      43.247  22.923  29.908  1.00  0.00     0.029 A 
ATOM     28  N   UNL A   1      45.024  23.952  29.150  1.00  0.00    -0.354 N 
ATOM     29  N   UNL A   1      46.251  27.977  30.377  1.00  0.00    -0.248 NA
ATOM     30  C   UNL A   1      46.361  27.904  28.049  1.00  0.00     0.031 C 
ATOM     31  C   UNL A   1      43.847  23.687  30.954  1.00  0.00     0.029 A 
ATOM     32  C   UNL A   1      44.804  24.526  30.379  1.00  0.00     0.049 A 
ATOM     33  H   UNL A   1      45.874  23.930  28.653  1.00  0.00     0.167 HD
ATOM     34  C   UNL A   1      46.019  26.666  29.988  1.00  0.00     0.074 A 
ATOM     35  C   UNL A   1      46.195  26.669  28.535  1.00  0.00     0.031 C 
ATOM     36  C   UNL A   1      45.419  25.763  30.824  1.00  0.00     0.034 A 
BRANCH  23  37
ATOM     37  C   UNL A   1      44.093  23.344  26.181  1.00  0.00     0.023 A 
ATOM     38  C   UNL A   1      44.048  21.986  25.796  1.00  0.00     0.031 A 
ATOM     39  C   UNL A   1      45.058  24.126  25.504  1.00  0.00     0.131 A 
ATOM     40  C   UNL A   1      44.979  21.450  24.886  1.00  0.00     0.055 A 
ATOM     41  C   UNL A   1      45.937  23.603  24.548  1.00  0.00     0.041 A 
ATOM     42  F   UNL A   1      45.282  25.413  25.782  1.00  0.00    -0.206 F 
ATOM     43  C   UNL A   1      45.926  22.253  24.259  1.00  0.00     0.022 A 
BRANCH  40  44
ATOM     44  S   UNL A   1      45.060  19.651  24.681  1.00  0.00     0.124 S 
ATOM     45  O   UNL A   1      44.658  19.491  23.289  1.00  0.00    -0.237 OA
ATOM     46  O   UNL A   1      46.463  19.379  24.983  1.00  0.00    -0.237 OA
ATOM     47  O   UNL A   1      44.103  19.154  25.666  1.00  0.00    -0.744 OA
ENDBRANCH  40  44
ENDBRANCH  23  37
BRANCH  24  48
ATOM     48  C   UNL A   1      46.106  31.195  28.489  1.00  0.00     0.023 A 
ATOM     49  C   UNL A   1      45.456  31.849  27.424  1.00  0.00     0.031 A 
ATOM     50  C   UNL A   1      47.254  31.832  29.018  1.00  0.00     0.131 A 
ATOM     51  C   UNL A   1      45.971  33.069  26.920  1.00  0.00     0.055 A 
ATOM     52  C   UNL A   1      47.762  33.030  28.512  1.00  0.00     0.041 A 
ATOM     53  F   UNL A   1      47.883  31.341  30.099  1.00  0.00    -0.206 F 
ATOM     54  C   UNL A   1      47.117  33.658  27.461  1.00  0.00     0.022 A 
BRANCH  51  55
ATOM     55  S   UNL A   1      45.101  33.955  25.586  1.00  0.00     0.124 S 
ATOM     56  O   UNL A   1      46.185  34.693  24.946  1.00  0.00    -0.237 OA
ATOM     57  O   UNL A   1      44.519  32.863  24.814  1.00  0.00    -0.237 OA
ATOM     58  O   UNL A   1      44.131  34.785  26.300  1.00  0.00    -0.744 OA
ENDBRANCH  51  55
ENDBRANCH  24  48
BRANCH  36  59
ATOM     59  C   UNL A   1      45.150  26.167  32.263  1.00  0.00     0.023 A 
ATOM     60  C   UNL A   1      43.957  26.788  32.708  1.00  0.00     0.031 A 
ATOM     61  C   UNL A   1      46.057  25.737  33.244  1.00  0.00     0.131 A 
ATOM     62  C   UNL A   1      43.712  26.954  34.086  1.00  0.00     0.055 A 
ATOM     63  C   UNL A   1      45.805  25.888  34.609  1.00  0.00     0.041 A 
ATOM     64  F   UNL A   1      47.188  25.102  32.892  1.00  0.00    -0.206 F 
ATOM     65  C   UNL A   1      44.632  26.500  35.035  1.00  0.00     0.022 A 
BRANCH  62  66
ATOM     66  S   UNL A   1      42.177  27.750  34.669  1.00  0.00     0.124 S 
ATOM     67  O   UNL A   1      41.214  26.656  34.692  1.00  0.00    -0.237 OA
ATOM     68  O   UNL A   1      42.569  28.289  35.969  1.00  0.00    -0.237 OA
ATOM     69  O   UNL A   1      41.915  28.768  33.648  1.00  0.00    -0.744 OA
ENDBRANCH  62  66
ENDBRANCH  36  59
ENDBRANCH  10  11
ENDBRANCH   3   5
ENDBRANCH   2   3
ENDBRANCH   1   2
BRANCH   1  70
ATOM     70  C   UNL A   1      32.792  30.596  27.241  1.00  0.00     0.274 C 
BRANCH  70  71
ATOM     71  O   UNL A   1      31.760  29.873  26.541  1.00  0.00    -0.462 OA
BRANCH  71  72
ATOM     72  C   UNL A   1      31.681  28.550  26.839  1.00  0.00     0.312 C 
ATOM     73  O   UNL A   1      31.736  28.094  27.978  1.00  0.00    -0.252 OA
BRANCH  72  74
ATOM     74  C   UNL A   1      31.480  27.647  25.622  1.00  0.00     0.071 C 
ATOM     75  C   UNL A   1      32.751  27.129  24.926  1.00  0.00     0.022 C 
ATOM     76  C   UNL A   1      30.612  26.440  26.055  1.00  0.00     0.022 C 
ATOM     77  C   UNL A   1      30.683  28.463  24.605  1.00  0.00     0.049 C 
ATOM     78  C   UNL A   1      32.370  26.250  23.714  1.00  0.00    -0.007 C 
ATOM     79  C   UNL A   1      30.238  25.565  24.849  1.00  0.00    -0.007 C 
ATOM     80  C   UNL A   1      30.247  27.624  23.375  1.00  0.00     0.065 C 
ATOM     81  C   UNL A   1      31.528  25.059  24.189  1.00  0.00     0.007 C 
ATOM     82  C   UNL A   1      31.540  27.080  22.715  1.00  0.00     0.034 C 
ATOM     83  C   UNL A   1      29.422  26.405  23.843  1.00  0.00     0.034 C 
BRANCH  80  84
ATOM     84  N   UNL A   1      29.464  28.528  22.507  1.00  0.00    -0.259 N 
ATOM     85  C   UNL A   1      28.285  29.118  22.920  1.00  0.00     0.195 A 
ATOM     86  N   UNL A   1      30.084  29.276  21.563  1.00  0.00    -0.173 NA
ATOM     87  C   UNL A   1      28.436  30.451  22.591  1.00  0.00     0.307 A 
ATOM     88  C   UNL A   1      29.491  30.473  21.665  1.00  0.00     0.220 A 
BRANCH  87  89
ATOM     89  N   UNL A   1      27.727  31.551  23.164  1.00  0.00     0.066 N 
ATOM     90  O   UNL A   1      26.851  31.283  23.993  1.00  0.00    -0.258 OA
ATOM     91  O   UNL A   1      28.031  32.683  22.762  1.00  0.00    -0.258 OA
ENDBRANCH  87  89
ENDBRANCH  80  84
ENDBRANCH  72  74
ENDBRANCH  71  72
ENDBRANCH  70  71
ENDBRANCH   1  70
TORSDOF 16
ENDMDL
MODEL 2
REMARK VINA RESULT:     -13.0      4.842      9.258
REMARK SMILES O=C(OCCOC(=O)[C@@]12C[C@H]3C[C@@H](C1)C[C@](n1cc([N+](=O)[O-])cn1)(C3)C2)c1ccc(-c2c3nc(c(-c4cc(S(=O)(=O)[O-])ccc4F)c4ccc([nH]4)c(-c4cc(S(=O)(=O)[O-])ccc4F)c4nc(c(-c5cc(S(=O)(=O)[O-])ccc5F)c5ccc2[nH]5)C=C4)C=C3)cc1
REMARK SMILES IDX 4 1 3 2 2 3 1 4 27 5 28 6 89 7 29 8 88 9 30 10 31 11 32 12
REMARK SMILES IDX 82 13 33 14 87 15 81 16 83 17 34 18 86 19 80 20 79 21 35 23
REMARK SMILES IDX 67 24 47 25 66 26 48 27 51 28 65 29 84 30 49 31 50 32 64 34
REMARK SMILES IDX 85 35 52 36 36 37 37 38 45 39 38 40 44 41 46 42 43 43 39 44
REMARK SMILES IDX 40 45 41 46 42 47 68 48 69 49 77 50 70 51 76 52 78 53 75 54
REMARK SMILES IDX 71 55 72 56 73 57 74 58 53 59 54 60 62 61 55 62 61 63 63 64
REMARK SMILES IDX 60 65 56 66 57 67 58 68 59 69 5 70 6 71 7 72 8 73 9 74 10 75
REMARK SMILES IDX 14 76 26 77 11 78 13 79 16 80 12 81 25 82 15 83 17 84 18 85
REMARK SMILES IDX 24 86 19 87 23 88 20 89 21 90 22 91
REMARK H PARENT 83 22 51 33
REMARK Flexibility Score: inf
ROOT
ATOM      1  C   UNL A   1      39.034  21.489  25.930  1.00  0.00     0.275 C 
ENDROOT
BRANCH   1   2
ATOM      2  O   UNL A   1      39.835  22.071  26.970  1.00  0.00    -0.458 OA
BRANCH   2   3
ATOM      3  C   UNL A   1      40.764  23.041  26.866  1.00  0.00     0.338 C 
ATOM      4  O   UNL A   1      41.672  22.896  26.045  1.00  0.00    -0.246 OA
BRANCH   3   5
ATOM      5  C   UNL A   1      40.679  24.343  27.597  1.00  0.00     0.060 A 
ATOM      6  C   UNL A   1      39.609  25.246  27.616  1.00  0.00     0.016 A 
ATOM      7  C   UNL A   1      41.839  24.684  28.313  1.00  0.00     0.016 A 
ATOM      8  C   UNL A   1      39.714  26.477  28.268  1.00  0.00     0.010 A 
ATOM      9  C   UNL A   1      41.934  25.882  28.996  1.00  0.00     0.010 A 
ATOM     10  C   UNL A   1      40.898  26.809  28.914  1.00  0.00    -0.014 A 
BRANCH  10  11
ATOM     11  C   UNL A   1      41.092  28.139  29.487  1.00  0.00     0.031 A 
ATOM     12  C   UNL A   1      42.132  29.005  28.855  1.00  0.00     0.074 A 
ATOM     13  C   UNL A   1      40.147  28.649  30.303  1.00  0.00     0.049 A 
ATOM     14  N   UNL A   1      43.207  29.525  29.354  1.00  0.00    -0.248 NA
ATOM     15  C   UNL A   1      41.995  29.231  27.411  1.00  0.00     0.031 C 
ATOM     16  C   UNL A   1      38.881  28.031  30.717  1.00  0.00     0.029 A 
ATOM     17  N   UNL A   1      40.037  29.910  30.787  1.00  0.00    -0.354 N 
ATOM     18  C   UNL A   1      43.770  30.299  28.332  1.00  0.00     0.074 A 
ATOM     19  C   UNL A   1      43.133  29.861  27.124  1.00  0.00     0.031 C 
ATOM     20  C   UNL A   1      38.034  28.994  31.142  1.00  0.00     0.029 A 
ATOM     21  C   UNL A   1      38.750  30.257  31.180  1.00  0.00     0.049 A 
ATOM     22  H   UNL A   1      40.801  30.527  30.854  1.00  0.00     0.167 HD
ATOM     23  C   UNL A   1      44.527  31.413  28.570  1.00  0.00     0.034 A 
ATOM     24  C   UNL A   1      38.288  31.509  31.433  1.00  0.00     0.034 A 
ATOM     25  C   UNL A   1      44.950  31.466  29.950  1.00  0.00     0.049 A 
ATOM     26  C   UNL A   1      39.484  32.359  31.676  1.00  0.00     0.074 A 
ATOM     27  C   UNL A   1      45.688  30.637  30.773  1.00  0.00     0.029 A 
ATOM     28  N   UNL A   1      44.278  32.311  30.805  1.00  0.00    -0.354 N 
ATOM     29  N   UNL A   1      40.312  32.157  32.667  1.00  0.00    -0.248 NA
ATOM     30  C   UNL A   1      40.043  33.096  30.550  1.00  0.00     0.031 C 
ATOM     31  C   UNL A   1      44.986  30.654  32.016  1.00  0.00     0.029 A 
ATOM     32  C   UNL A   1      43.925  31.556  31.898  1.00  0.00     0.049 A 
ATOM     33  H   UNL A   1      44.088  33.266  30.662  1.00  0.00     0.167 HD
ATOM     34  C   UNL A   1      41.578  32.356  32.133  1.00  0.00     0.074 A 
ATOM     35  C   UNL A   1      41.344  33.030  30.854  1.00  0.00     0.031 C 
ATOM     36  C   UNL A   1      42.676  31.702  32.622  1.00  0.00     0.034 A 
BRANCH  23  37
ATOM     37  C   UNL A   1      44.618  32.638  27.670  1.00  0.00     0.023 A 
ATOM     38  C   UNL A   1      43.972  33.817  28.103  1.00  0.00     0.031 A 
ATOM     39  C   UNL A   1      45.053  32.656  26.324  1.00  0.00     0.131 A 
ATOM     40  C   UNL A   1      43.695  34.872  27.213  1.00  0.00     0.055 A 
ATOM     41  C   UNL A   1      44.838  33.736  25.461  1.00  0.00     0.041 A 
ATOM     42  F   UNL A   1      45.628  31.607  25.729  1.00  0.00    -0.206 F 
ATOM     43  C   UNL A   1      44.126  34.838  25.891  1.00  0.00     0.022 A 
BRANCH  40  44
ATOM     44  S   UNL A   1      42.596  36.206  27.758  1.00  0.00     0.124 S 
ATOM     45  O   UNL A   1      41.419  35.464  28.193  1.00  0.00    -0.237 OA
ATOM     46  O   UNL A   1      43.389  36.835  28.810  1.00  0.00    -0.237 OA
ATOM     47  O   UNL A   1      42.414  37.009  26.551  1.00  0.00    -0.744 OA
ENDBRANCH  40  44
ENDBRANCH  23  37
BRANCH  24  48
ATOM     48  C   UNL A   1      36.936  32.022  31.080  1.00  0.00     0.023 A 
ATOM     49  C   UNL A   1      36.079  32.646  32.007  1.00  0.00     0.031 A 
ATOM     50  C   UNL A   1      36.540  32.063  29.721  1.00  0.00     0.131 A 
ATOM     51  C   UNL A   1      34.878  33.255  31.565  1.00  0.00     0.055 A 
ATOM     52  C   UNL A   1      35.351  32.657  29.293  1.00  0.00     0.041 A 
ATOM     53  F   UNL A   1      37.338  31.586  28.751  1.00  0.00    -0.206 F 
ATOM     54  C   UNL A   1      34.514  33.262  30.215  1.00  0.00     0.022 A 
BRANCH  51  55
ATOM     55  S   UNL A   1      33.795  34.122  32.747  1.00  0.00     0.124 S 
ATOM     56  O   UNL A   1      33.026  33.025  33.325  1.00  0.00    -0.237 OA
ATOM     57  O   UNL A   1      34.755  34.774  33.629  1.00  0.00    -0.237 OA
ATOM     58  O   UNL A   1      33.024  35.034  31.902  1.00  0.00    -0.744 OA
ENDBRANCH  51  55
ENDBRANCH  24  48
BRANCH  36  59
ATOM     59  C   UNL A   1      42.527  30.863  33.879  1.00  0.00     0.023 A 
ATOM     60  C   UNL A   1      42.104  29.512  33.891  1.00  0.00     0.031 A 
ATOM     61  C   UNL A   1      43.010  31.398  35.084  1.00  0.00     0.131 A 
ATOM     62  C   UNL A   1      42.176  28.753  35.078  1.00  0.00     0.055 A 
ATOM     63  C   UNL A   1      43.095  30.640  36.253  1.00  0.00     0.041 A 
ATOM     64  F   UNL A   1      43.467  32.661  35.131  1.00  0.00    -0.206 F 
ATOM     65  C   UNL A   1      42.677  29.315  36.255  1.00  0.00     0.022 A 
BRANCH  62  66
ATOM     66  S   UNL A   1      41.637  27.011  35.102  1.00  0.00     0.124 S 
ATOM     67  O   UNL A   1      42.823  26.280  34.673  1.00  0.00    -0.237 OA
ATOM     68  O   UNL A   1      41.233  26.820  36.493  1.00  0.00    -0.237 OA
ATOM     69  O   UNL A   1      40.529  26.985  34.144  1.00  0.00    -0.744 OA
ENDBRANCH  62  66
ENDBRANCH  36  59
ENDBRANCH  10  11
ENDBRANCH   3   5
ENDBRANCH   2   3
ENDBRANCH   1   2
BRANCH   1  70
ATOM     70  C   UNL A   1      37.781  22.290  25.595  1.00  0.00     0.274 C 
BRANCH  70  71
ATOM     71  O   UNL A   1      36.905  21.602  24.681  1.00  0.00    -0.462 OA
BRANCH  71  72
ATOM     72  C   UNL A   1      36.253  22.402  23.797  1.00  0.00     0.312 C 
ATOM     73  O   UNL A   1      36.794  22.973  22.854  1.00  0.00    -0.252 OA
BRANCH  72  74
ATOM     74  C   UNL A   1      34.749  22.515  24.048  1.00  0.00     0.071 C 
ATOM     75  C   UNL A   1      34.311  23.350  25.264  1.00  0.00     0.022 C 
ATOM     76  C   UNL A   1      34.089  23.093  22.772  1.00  0.00     0.022 C 
ATOM     77  C   UNL A   1      34.235  21.089  24.244  1.00  0.00     0.049 C 
ATOM     78  C   UNL A   1      32.770  23.348  25.380  1.00  0.00    -0.007 C 
ATOM     79  C   UNL A   1      32.558  23.093  22.892  1.00  0.00    -0.007 C 
ATOM     80  C   UNL A   1      32.688  21.019  24.340  1.00  0.00     0.065 C 
ATOM     81  C   UNL A   1      32.159  23.943  24.106  1.00  0.00     0.007 C 
ATOM     82  C   UNL A   1      32.268  21.900  25.545  1.00  0.00     0.034 C 
ATOM     83  C   UNL A   1      32.060  21.643  23.073  1.00  0.00     0.034 C 
BRANCH  80  84
ATOM     84  N   UNL A   1      32.342  19.591  24.490  1.00  0.00    -0.259 N 
ATOM     85  C   UNL A   1      32.635  18.650  23.521  1.00  0.00     0.195 A 
ATOM     86  N   UNL A   1      32.279  19.028  25.720  1.00  0.00    -0.173 NA
ATOM     87  C   UNL A   1      33.231  17.617  24.217  1.00  0.00     0.307 A 
ATOM     88  C   UNL A   1      32.884  17.843  25.559  1.00  0.00     0.220 A 
BRANCH  87  89
ATOM     89  N   UNL A   1      34.092  16.615  23.675  1.00  0.00     0.066 N 
ATOM     90  O   UNL A   1      34.172  16.550  22.444  1.00  0.00    -0.258 OA
ATOM     91  O   UNL A   1      34.668  15.873  24.483  1.00  0.00    -0.258 OA
ENDBRANCH  87  89
ENDBRANCH  80  84
ENDBRANCH  72  74
ENDBRANCH  71  72
ENDBRANCH  70  71
ENDBRANCH   1  70
TORSDOF 16
ENDMDL
MODEL 3
REMARK VINA RESULT:     -13.0      5.183     10.784
REMARK SMILES O=C(OCCOC(=O)[C@@]12C[C@H]3C[C@@H](C1)C[C@](n1cc([N+](=O)[O-])cn1)(C3)C2)c1ccc(-c2c3nc(c(-c4cc(S(=O)(=O)[O-])ccc4F)c4ccc([nH]4)c(-c4cc(S(=O)(=O)[O-])ccc4F)c4nc(c(-c5cc(S(=O)(=O)[O-])ccc5F)c5ccc2[nH]5)C=C4)C=C3)cc1
REMARK SMILES IDX 4 1 3 2 2 3 1 4 27 5 28 6 89 7 29 8 88 9 30 10 31 11 32 12
REMARK SMILES IDX 82 13 33 14 87 15 81 16 83 17 34 18 86 19 80 20 79 21 35 23
REMARK SMILES IDX 67 24 47 25 66 26 48 27 51 28 65 29 84 30 49 31 50 32 64 34
REMARK SMILES IDX 85 35 52 36 36 37 37 38 45 39 38 40 44 41 46 42 43 43 39 44
REMARK SMILES IDX 40 45 41 46 42 47 68 48 69 49 77 50 70 51 76 52 78 53 75 54
REMARK SMILES IDX 71 55 72 56 73 57 74 58 53 59 54 60 62 61 55 62 61 63 63 64
REMARK SMILES IDX 60 65 56 66 57 67 58 68 59 69 5 70 6 71 7 72 8 73 9 74 10 75
REMARK SMILES IDX 14 76 26 77 11 78 13 79 16 80 12 81 25 82 15 83 17 84 18 85
REMARK SMILES IDX 24 86 19 87 23 88 20 89 21 90 22 91
REMARK H PARENT 83 22 51 33
REMARK Flexibility Score: inf
ROOT
ATOM      1  C   UNL A   1      37.882  22.729  26.205  1.00  0.00     0.275 C 
ENDROOT
BRANCH   1   2
ATOM      2  O   UNL A   1      38.737  23.837  25.880  1.00  0.00    -0.458 OA
BRANCH   2   3
ATOM      3  C   UNL A   1      39.786  24.315  26.575  1.00  0.00     0.338 C 
ATOM      4  O   UNL A   1      40.826  23.653  26.594  1.00  0.00    -0.246 OA
BRANCH   3   5
ATOM      5  C   UNL A   1      39.802  25.667  27.214  1.00  0.00     0.060 A 
ATOM      6  C   UNL A   1      40.296  26.863  26.678  1.00  0.00     0.016 A 
ATOM      7  C   UNL A   1      39.281  25.699  28.519  1.00  0.00     0.016 A 
ATOM      8  C   UNL A   1      40.333  28.034  27.438  1.00  0.00     0.010 A 
ATOM      9  C   UNL A   1      39.276  26.865  29.261  1.00  0.00     0.010 A 
ATOM     10  C   UNL A   1      39.867  28.016  28.745  1.00  0.00    -0.014 A 
BRANCH  10  11
ATOM     11  C   UNL A   1      40.017  29.182  29.612  1.00  0.00     0.031 A 
ATOM     12  C   UNL A   1      38.803  30.022  29.837  1.00  0.00     0.074 A 
ATOM     13  C   UNL A   1      41.098  29.271  30.414  1.00  0.00     0.049 A 
ATOM     14  N   UNL A   1      38.584  31.269  29.567  1.00  0.00    -0.248 NA
ATOM     15  C   UNL A   1      37.619  29.322  30.348  1.00  0.00     0.031 C 
ATOM     16  C   UNL A   1      42.202  28.313  30.553  1.00  0.00     0.029 A 
ATOM     17  N   UNL A   1      41.342  30.156  31.411  1.00  0.00    -0.354 N 
ATOM     18  C   UNL A   1      37.301  31.548  30.054  1.00  0.00     0.074 A 
ATOM     19  C   UNL A   1      36.685  30.269  30.268  1.00  0.00     0.031 C 
ATOM     20  C   UNL A   1      42.824  28.520  31.735  1.00  0.00     0.029 A 
ATOM     21  C   UNL A   1      42.271  29.715  32.346  1.00  0.00     0.049 A 
ATOM     22  H   UNL A   1      40.901  31.034  31.469  1.00  0.00     0.167 HD
ATOM     23  C   UNL A   1      36.920  32.787  30.487  1.00  0.00     0.034 A 
ATOM     24  C   UNL A   1      42.501  30.248  33.575  1.00  0.00     0.034 A 
ATOM     25  C   UNL A   1      37.856  33.797  30.052  1.00  0.00     0.049 A 
ATOM     26  C   UNL A   1      41.947  31.627  33.547  1.00  0.00     0.074 A 
ATOM     27  C   UNL A   1      38.316  34.232  28.824  1.00  0.00     0.029 A 
ATOM     28  N   UNL A   1      38.772  34.273  30.965  1.00  0.00    -0.354 N 
ATOM     29  N   UNL A   1      42.392  32.559  32.746  1.00  0.00    -0.248 NA
ATOM     30  C   UNL A   1      40.584  31.829  34.024  1.00  0.00     0.031 C 
ATOM     31  C   UNL A   1      39.718  34.421  29.017  1.00  0.00     0.029 A 
ATOM     32  C   UNL A   1      40.003  34.177  30.363  1.00  0.00     0.049 A 
ATOM     33  H   UNL A   1      38.582  34.612  31.869  1.00  0.00     0.167 HD
ATOM     34  C   UNL A   1      41.262  33.221  32.288  1.00  0.00     0.074 A 
ATOM     35  C   UNL A   1      40.188  32.794  33.187  1.00  0.00     0.031 C 
ATOM     36  C   UNL A   1      41.226  33.817  31.057  1.00  0.00     0.034 A 
BRANCH  23  37
ATOM     37  C   UNL A   1      35.902  33.075  31.584  1.00  0.00     0.023 A 
ATOM     38  C   UNL A   1      34.782  33.865  31.245  1.00  0.00     0.031 A 
ATOM     39  C   UNL A   1      36.085  32.859  32.970  1.00  0.00     0.131 A 
ATOM     40  C   UNL A   1      33.987  34.472  32.236  1.00  0.00     0.055 A 
ATOM     41  C   UNL A   1      35.250  33.409  33.950  1.00  0.00     0.041 A 
ATOM     42  F   UNL A   1      37.124  32.188  33.475  1.00  0.00    -0.206 F 
ATOM     43  C   UNL A   1      34.215  34.249  33.589  1.00  0.00     0.022 A 
BRANCH  40  44
ATOM     44  S   UNL A   1      32.767  35.716  31.732  1.00  0.00     0.124 S 
ATOM     45  O   UNL A   1      33.447  36.958  32.079  1.00  0.00    -0.237 OA
ATOM     46  O   UNL A   1      32.626  35.434  30.306  1.00  0.00    -0.237 OA
ATOM     47  O   UNL A   1      31.600  35.396  32.549  1.00  0.00    -0.744 OA
ENDBRANCH  40  44
ENDBRANCH  23  37
BRANCH  24  48
ATOM     48  C   UNL A   1      42.806  29.476  34.811  1.00  0.00     0.023 A 
ATOM     49  C   UNL A   1      42.086  28.331  35.205  1.00  0.00     0.031 A 
ATOM     50  C   UNL A   1      43.979  29.772  35.545  1.00  0.00     0.131 A 
ATOM     51  C   UNL A   1      42.534  27.554  36.301  1.00  0.00     0.055 A 
ATOM     52  C   UNL A   1      44.411  29.007  36.631  1.00  0.00     0.041 A 
ATOM     53  F   UNL A   1      44.787  30.782  35.183  1.00  0.00    -0.206 F 
ATOM     54  C   UNL A   1      43.691  27.888  37.011  1.00  0.00     0.022 A 
BRANCH  51  55
ATOM     55  S   UNL A   1      41.647  26.035  36.778  1.00  0.00     0.124 S 
ATOM     56  O   UNL A   1      41.088  25.590  35.505  1.00  0.00    -0.237 OA
ATOM     57  O   UNL A   1      42.714  25.213  37.338  1.00  0.00    -0.237 OA
ATOM     58  O   UNL A   1      40.661  26.504  37.751  1.00  0.00    -0.744 OA
ENDBRANCH  51  55
ENDBRANCH  24  48
BRANCH  36  59
ATOM     59  C   UNL A   1      42.507  33.891  30.244  1.00  0.00     0.023 A 
ATOM     60  C   UNL A   1      42.918  32.908  29.311  1.00  0.00     0.031 A 
ATOM     61  C   UNL A   1      43.237  35.090  30.282  1.00  0.00     0.131 A 
ATOM     62  C   UNL A   1      44.019  33.148  28.463  1.00  0.00     0.055 A 
ATOM     63  C   UNL A   1      44.317  35.330  29.430  1.00  0.00     0.041 A 
ATOM     64  F   UNL A   1      42.874  36.080  31.114  1.00  0.00    -0.206 F 
ATOM     65  C   UNL A   1      44.713  34.359  28.519  1.00  0.00     0.022 A 
BRANCH  62  66
ATOM     66  S   UNL A   1      44.554  31.889  27.256  1.00  0.00     0.124 S 
ATOM     67  O   UNL A   1      43.736  30.728  27.589  1.00  0.00    -0.237 OA
ATOM     68  O   UNL A   1      44.268  32.530  25.976  1.00  0.00    -0.237 OA
ATOM     69  O   UNL A   1      45.981  31.727  27.545  1.00  0.00    -0.744 OA
ENDBRANCH  62  66
ENDBRANCH  36  59
ENDBRANCH  10  11
ENDBRANCH   3   5
ENDBRANCH   2   3
ENDBRANCH   1   2
BRANCH   1  70
ATOM     70  C   UNL A   1      38.073  21.517  25.300  1.00  0.00     0.274 C 
BRANCH  70  71
ATOM     71  O   UNL A   1      36.905  21.218  24.511  1.00  0.00    -0.462 OA
BRANCH  71  72
ATOM     72  C   UNL A   1      36.347  22.285  23.882  1.00  0.00     0.312 C 
ATOM     73  O   UNL A   1      36.963  23.051  23.145  1.00  0.00    -0.252 OA
BRANCH  72  74
ATOM     74  C   UNL A   1      34.849  22.447  24.137  1.00  0.00     0.071 C 
ATOM     75  C   UNL A   1      34.442  23.233  25.396  1.00  0.00     0.022 C 
ATOM     76  C   UNL A   1      34.218  23.122  22.893  1.00  0.00     0.022 C 
ATOM     77  C   UNL A   1      34.274  21.036  24.254  1.00  0.00     0.049 C 
ATOM     78  C   UNL A   1      32.902  23.289  25.510  1.00  0.00    -0.007 C 
ATOM     79  C   UNL A   1      32.688  23.180  23.011  1.00  0.00    -0.007 C 
ATOM     80  C   UNL A   1      32.726  21.027  24.344  1.00  0.00     0.065 C 
ATOM     81  C   UNL A   1      32.321  23.979  24.269  1.00  0.00     0.007 C 
ATOM     82  C   UNL A   1      32.339  21.858  25.595  1.00  0.00     0.034 C 
ATOM     83  C   UNL A   1      32.129  21.745  23.113  1.00  0.00     0.034 C 
BRANCH  80  84
ATOM     84  N   UNL A   1      32.319  19.608  24.415  1.00  0.00    -0.259 N 
ATOM     85  C   UNL A   1      32.642  18.692  23.432  1.00  0.00     0.195 A 
ATOM     86  N   UNL A   1      32.154  19.004  25.615  1.00  0.00    -0.173 NA
ATOM     87  C   UNL A   1      33.153  17.613  24.125  1.00  0.00     0.307 A 
ATOM     88  C   UNL A   1      32.725  17.803  25.448  1.00  0.00     0.220 A 
BRANCH  87  89
ATOM     89  N   UNL A   1      34.012  16.598  23.601  1.00  0.00     0.066 N 
ATOM     90  O   UNL A   1      34.166  16.573  22.376  1.00  0.00    -0.258 OA
ATOM     91  O   UNL A   1      34.510  15.810  24.417  1.00  0.00    -0.258 OA
ENDBRANCH  87  89
ENDBRANCH  80  84
ENDBRANCH  72  74
ENDBRANCH  71  72
ENDBRANCH  70  71
ENDBRANCH   1  70
TORSDOF 16
ENDMDL
