MODEL 1
REMARK VINA RESULT:     -13.0      0.000      0.000
REMARK SMILES CN1C(=O)C[C@@H](C(=O)OCCOC(=O)c2ccc(-c3c4nc(c(-c5cc(S(=O)(=O)[O-])ccc5F)c5ccc([nH]5)c(-c5cc(S(=O)(=O)[O-])ccc5F)c5nc(c(-c6cc(S(=O)(=O)[O-])ccc6F)c6ccc3[nH]6)C=C5)C=C4)cc2)C12CCN(c1ccc(Cl)cn1)CC2
REMARK SMILES IDX 11 1 10 2 9 3 7 4 8 5 6 6 1 7 2 8 3 9 78 10 4 11 5 12 79 13
REMARK SMILES IDX 90 14 80 15 89 16 81 17 82 18 83 19 88 20 84 21 87 22 85 23
REMARK SMILES IDX 86 24 12 25 13 26 14 27 15 28 16 29 77 30 17 31 76 32 18 33
REMARK SMILES IDX 19 34 20 35 70 36 21 37 75 38 69 39 71 40 22 41 74 42 68 43
REMARK SMILES IDX 67 44 23 46 55 47 35 48 54 49 36 50 39 51 53 52 72 53 37 54
REMARK SMILES IDX 38 55 52 57 73 58 40 59 24 60 25 61 33 62 26 63 32 64 34 65
REMARK SMILES IDX 31 66 27 67 28 68 29 69 30 70 56 71 57 72 65 73 58 74 64 75
REMARK SMILES IDX 66 76 63 77 59 78 60 79 61 80 62 81 41 82 42 83 50 84 43 85
REMARK SMILES IDX 49 86 51 87 48 88 44 89 45 90 46 91 47 92
REMARK H PARENT 71 45 39 56
REMARK Flexibility Score: inf
ROOT
ATOM      1  C   UNL A   1      36.074  20.917  24.943  1.00  0.00     0.275 C 
ENDROOT
BRANCH   1   2
ATOM      2  C   UNL A   1      35.459  22.057  24.130  1.00  0.00     0.274 C 
BRANCH   2   3
ATOM      3  O   UNL A   1      34.170  22.441  24.655  1.00  0.00    -0.462 OA
BRANCH   3   4
ATOM      4  C   UNL A   1      33.641  23.558  24.114  1.00  0.00     0.311 C 
ATOM      5  O   UNL A   1      33.614  23.780  22.905  1.00  0.00    -0.252 OA
BRANCH   4   6
ATOM      6  C   UNL A   1      33.076  24.570  25.099  1.00  0.00     0.134 C 
ATOM      7  C   UNL A   1      30.024  23.245  26.781  1.00  0.00     0.147 C 
ATOM      8  N   UNL A   1      31.334  23.736  26.402  1.00  0.00    -0.339 N 
ATOM      9  C   UNL A   1      32.492  23.369  27.068  1.00  0.00     0.223 C 
ATOM     10  C   UNL A   1      31.559  24.762  25.366  1.00  0.00     0.060 C 
ATOM     11  O   UNL A   1      32.583  22.581  27.996  1.00  0.00    -0.275 OA
ATOM     12  C   UNL A   1      33.636  24.138  26.469  1.00  0.00     0.118 C 
ATOM     13  C   UNL A   1      30.581  24.601  24.179  1.00  0.00     0.051 C 
ATOM     14  C   UNL A   1      31.333  26.186  26.001  1.00  0.00     0.051 C 
ATOM     15  C   UNL A   1      30.626  25.766  23.206  1.00  0.00     0.120 C 
ATOM     16  C   UNL A   1      31.268  27.337  24.978  1.00  0.00     0.120 C 
ATOM     17  N   UNL A   1      30.301  26.969  23.958  1.00  0.00    -0.356 N 
BRANCH  17  18
ATOM     18  C   UNL A   1      29.691  27.978  23.220  1.00  0.00     0.128 A 
ATOM     19  C   UNL A   1      30.504  28.829  22.463  1.00  0.00     0.048 A 
ATOM     20  N   UNL A   1      28.353  28.143  23.258  1.00  0.00    -0.238 NA
ATOM     21  C   UNL A   1      29.954  29.919  21.794  1.00  0.00     0.026 A 
ATOM     22  C   UNL A   1      27.830  29.205  22.576  1.00  0.00     0.134 A 
ATOM     23  C   UNL A   1      28.589  30.131  21.877  1.00  0.00     0.059 A 
ATOM     24  Cl  UNL A   1      27.904  31.540  21.181  1.00  0.00    -0.083 Cl
ENDBRANCH  17  18
ENDBRANCH   4   6
ENDBRANCH   3   4
ENDBRANCH   2   3
ENDBRANCH   1   2
BRANCH   1  25
ATOM     25  O   UNL A   1      36.936  21.433  25.973  1.00  0.00    -0.458 OA
BRANCH  25  26
ATOM     26  C   UNL A   1      38.247  21.122  25.847  1.00  0.00     0.338 C 
ATOM     27  O   UNL A   1      38.709  20.048  25.494  1.00  0.00    -0.246 OA
BRANCH  26  28
ATOM     28  C   UNL A   1      39.101  22.285  26.168  1.00  0.00     0.060 A 
ATOM     29  C   UNL A   1      40.334  22.121  26.801  1.00  0.00     0.016 A 
ATOM     30  C   UNL A   1      38.598  23.567  25.953  1.00  0.00     0.016 A 
ATOM     31  C   UNL A   1      41.029  23.230  27.286  1.00  0.00     0.010 A 
ATOM     32  C   UNL A   1      39.343  24.680  26.350  1.00  0.00     0.010 A 
ATOM     33  C   UNL A   1      40.556  24.526  27.045  1.00  0.00    -0.014 A 
BRANCH  33  34
ATOM     34  C   UNL A   1      41.318  25.724  27.500  1.00  0.00     0.031 A 
ATOM     35  C   UNL A   1      40.650  26.775  28.348  1.00  0.00     0.074 A 
ATOM     36  C   UNL A   1      42.599  25.898  27.117  1.00  0.00     0.049 A 
ATOM     37  N   UNL A   1      41.066  27.976  28.661  1.00  0.00    -0.248 NA
ATOM     38  C   UNL A   1      39.332  26.433  28.898  1.00  0.00     0.031 C 
ATOM     39  C   UNL A   1      43.383  24.948  26.324  1.00  0.00     0.029 A 
ATOM     40  N   UNL A   1      43.463  26.944  27.327  1.00  0.00    -0.354 N 
ATOM     41  C   UNL A   1      40.048  28.548  29.417  1.00  0.00     0.074 A 
ATOM     42  C   UNL A   1      38.982  27.569  29.485  1.00  0.00     0.031 C 
ATOM     43  C   UNL A   1      44.610  25.450  26.124  1.00  0.00     0.029 A 
ATOM     44  C   UNL A   1      44.676  26.789  26.697  1.00  0.00     0.049 A 
ATOM     45  H   UNL A   1      43.237  27.729  27.877  1.00  0.00     0.167 HD
ATOM     46  C   UNL A   1      40.009  29.771  30.005  1.00  0.00     0.034 A 
ATOM     47  C   UNL A   1      45.707  27.643  26.544  1.00  0.00     0.034 A 
ATOM     48  C   UNL A   1      41.085  30.732  29.948  1.00  0.00     0.049 A 
ATOM     49  C   UNL A   1      45.611  29.023  27.137  1.00  0.00     0.074 A 
ATOM     50  C   UNL A   1      41.151  31.988  30.526  1.00  0.00     0.029 A 
ATOM     51  N   UNL A   1      42.285  30.545  29.274  1.00  0.00    -0.354 N 
ATOM     52  N   UNL A   1      44.629  29.563  27.819  1.00  0.00    -0.248 NA
ATOM     53  C   UNL A   1      46.764  29.910  26.934  1.00  0.00     0.031 C 
ATOM     54  C   UNL A   1      42.361  32.584  30.150  1.00  0.00     0.029 A 
ATOM     55  C   UNL A   1      43.083  31.673  29.397  1.00  0.00     0.049 A 
ATOM     56  H   UNL A   1      42.532  29.730  28.781  1.00  0.00     0.167 HD
ATOM     57  C   UNL A   1      45.056  30.847  28.144  1.00  0.00     0.074 A 
ATOM     58  C   UNL A   1      46.390  30.993  27.598  1.00  0.00     0.031 C 
ATOM     59  C   UNL A   1      44.405  31.816  28.836  1.00  0.00     0.034 A 
BRANCH  46  60
ATOM     60  C   UNL A   1      38.741  30.152  30.729  1.00  0.00     0.023 A 
ATOM     61  C   UNL A   1      37.696  30.831  30.080  1.00  0.00     0.031 A 
ATOM     62  C   UNL A   1      38.580  29.844  32.091  1.00  0.00     0.131 A 
ATOM     63  C   UNL A   1      36.566  31.237  30.805  1.00  0.00     0.055 A 
ATOM     64  C   UNL A   1      37.424  30.191  32.794  1.00  0.00     0.041 A 
ATOM     65  F   UNL A   1      39.551  29.209  32.767  1.00  0.00    -0.206 F 
ATOM     66  C   UNL A   1      36.415  30.907  32.154  1.00  0.00     0.022 A 
BRANCH  63  67
ATOM     67  S   UNL A   1      35.374  32.341  30.001  1.00  0.00     0.124 S 
ATOM     68  O   UNL A   1      34.398  32.558  31.067  1.00  0.00    -0.237 OA
ATOM     69  O   UNL A   1      36.201  33.490  29.652  1.00  0.00    -0.237 OA
ATOM     70  O   UNL A   1      34.888  31.552  28.871  1.00  0.00    -0.744 OA
ENDBRANCH  63  67
ENDBRANCH  46  60
BRANCH  47  71
ATOM     71  C   UNL A   1      46.896  27.241  25.740  1.00  0.00     0.023 A 
ATOM     72  C   UNL A   1      47.060  27.687  24.421  1.00  0.00     0.031 A 
ATOM     73  C   UNL A   1      47.874  26.383  26.276  1.00  0.00     0.131 A 
ATOM     74  C   UNL A   1      48.158  27.246  23.667  1.00  0.00     0.055 A 
ATOM     75  C   UNL A   1      48.992  25.991  25.541  1.00  0.00     0.041 A 
ATOM     76  F   UNL A   1      47.764  25.930  27.535  1.00  0.00    -0.206 F 
ATOM     77  C   UNL A   1      49.133  26.413  24.223  1.00  0.00     0.022 A 
BRANCH  74  78
ATOM     78  S   UNL A   1      48.255  27.718  21.920  1.00  0.00     0.124 S 
ATOM     79  O   UNL A   1      48.426  26.423  21.270  1.00  0.00    -0.237 OA
ATOM     80  O   UNL A   1      46.968  28.375  21.712  1.00  0.00    -0.237 OA
ATOM     81  O   UNL A   1      49.418  28.601  21.869  1.00  0.00    -0.744 OA
ENDBRANCH  74  78
ENDBRANCH  47  71
BRANCH  59  82
ATOM     82  C   UNL A   1      45.154  33.103  29.077  1.00  0.00     0.023 A 
ATOM     83  C   UNL A   1      45.037  34.201  28.207  1.00  0.00     0.031 A 
ATOM     84  C   UNL A   1      46.020  33.221  30.178  1.00  0.00     0.131 A 
ATOM     85  C   UNL A   1      45.814  35.349  28.423  1.00  0.00     0.055 A 
ATOM     86  C   UNL A   1      46.748  34.386  30.420  1.00  0.00     0.041 A 
ATOM     87  F   UNL A   1      46.172  32.202  31.040  1.00  0.00    -0.206 F 
ATOM     88  C   UNL A   1      46.658  35.454  29.531  1.00  0.00     0.022 A 
BRANCH  85  89
ATOM     89  S   UNL A   1      45.779  36.672  27.182  1.00  0.00     0.124 S 
ATOM     90  O   UNL A   1      46.602  36.111  26.115  1.00  0.00    -0.237 OA
ATOM     91  O   UNL A   1      44.353  36.790  26.892  1.00  0.00    -0.237 OA
ATOM     92  O   UNL A   1      46.364  37.815  27.881  1.00  0.00    -0.744 OA
ENDBRANCH  85  89
ENDBRANCH  59  82
ENDBRANCH  33  34
ENDBRANCH  26  28
ENDBRANCH  25  26
ENDBRANCH   1  25
TORSDOF 15
ENDMDL
MODEL 2
REMARK VINA RESULT:     -12.9      5.461     10.387
REMARK SMILES CN1C(=O)C[C@@H](C(=O)OCCOC(=O)c2ccc(-c3c4nc(c(-c5cc(S(=O)(=O)[O-])ccc5F)c5ccc([nH]5)c(-c5cc(S(=O)(=O)[O-])ccc5F)c5nc(c(-c6cc(S(=O)(=O)[O-])ccc6F)c6ccc3[nH]6)C=C5)C=C4)cc2)C12CCN(c1ccc(Cl)cn1)CC2
REMARK SMILES IDX 11 1 10 2 9 3 7 4 8 5 6 6 1 7 2 8 3 9 78 10 4 11 5 12 79 13
REMARK SMILES IDX 90 14 80 15 89 16 81 17 82 18 83 19 88 20 84 21 87 22 85 23
REMARK SMILES IDX 86 24 12 25 13 26 14 27 15 28 16 29 77 30 17 31 76 32 18 33
REMARK SMILES IDX 19 34 20 35 70 36 21 37 75 38 69 39 71 40 22 41 74 42 68 43
REMARK SMILES IDX 67 44 23 46 55 47 35 48 54 49 36 50 39 51 53 52 72 53 37 54
REMARK SMILES IDX 38 55 52 57 73 58 40 59 24 60 25 61 33 62 26 63 32 64 34 65
REMARK SMILES IDX 31 66 27 67 28 68 29 69 30 70 56 71 57 72 65 73 58 74 64 75
REMARK SMILES IDX 66 76 63 77 59 78 60 79 61 80 62 81 41 82 42 83 50 84 43 85
REMARK SMILES IDX 49 86 51 87 48 88 44 89 45 90 46 91 47 92
REMARK H PARENT 71 45 39 56
REMARK Flexibility Score: inf
ROOT
ATOM      1  C   UNL A   1      31.753  29.880  25.441  1.00  0.00     0.275 C 
ENDROOT
BRANCH   1   2
ATOM      2  C   UNL A   1      32.896  29.326  24.589  1.00  0.00     0.274 C 
BRANCH   2   3
ATOM      3  O   UNL A   1      32.456  29.036  23.245  1.00  0.00    -0.462 OA
BRANCH   3   4
ATOM      4  C   UNL A   1      33.128  28.044  22.624  1.00  0.00     0.311 C 
ATOM      5  O   UNL A   1      34.234  28.194  22.107  1.00  0.00    -0.252 OA
BRANCH   4   6
ATOM      6  C   UNL A   1      32.428  26.695  22.575  1.00  0.00     0.134 C 
ATOM      7  C   UNL A   1      30.286  26.187  25.584  1.00  0.00     0.147 C 
ATOM      8  N   UNL A   1      30.855  26.396  24.268  1.00  0.00    -0.339 N 
ATOM      9  C   UNL A   1      30.178  27.059  23.257  1.00  0.00     0.223 C 
ATOM     10  C   UNL A   1      32.142  25.824  23.828  1.00  0.00     0.060 C 
ATOM     11  O   UNL A   1      29.076  27.579  23.334  1.00  0.00    -0.275 OA
ATOM     12  C   UNL A   1      31.025  27.002  22.017  1.00  0.00     0.118 C 
ATOM     13  C   UNL A   1      33.186  25.820  24.969  1.00  0.00     0.051 C 
ATOM     14  C   UNL A   1      31.909  24.337  23.368  1.00  0.00     0.051 C 
ATOM     15  C   UNL A   1      34.440  25.035  24.628  1.00  0.00     0.120 C 
ATOM     16  C   UNL A   1      33.201  23.529  23.139  1.00  0.00     0.120 C 
ATOM     17  N   UNL A   1      34.028  23.673  24.325  1.00  0.00    -0.356 N 
BRANCH  17  18
ATOM     18  C   UNL A   1      34.980  22.696  24.599  1.00  0.00     0.128 A 
ATOM     19  C   UNL A   1      36.329  23.069  24.610  1.00  0.00     0.048 A 
ATOM     20  N   UNL A   1      34.608  21.419  24.821  1.00  0.00    -0.238 NA
ATOM     21  C   UNL A   1      37.324  22.110  24.772  1.00  0.00     0.026 A 
ATOM     22  C   UNL A   1      35.600  20.495  25.000  1.00  0.00     0.134 A 
ATOM     23  C   UNL A   1      36.953  20.787  24.940  1.00  0.00     0.059 A 
ATOM     24  Cl  UNL A   1      38.157  19.569  25.001  1.00  0.00    -0.083 Cl
ENDBRANCH  17  18
ENDBRANCH   4   6
ENDBRANCH   3   4
ENDBRANCH   2   3
ENDBRANCH   1   2
BRANCH   1  25
ATOM     25  O   UNL A   1      32.175  30.058  26.805  1.00  0.00    -0.458 OA
BRANCH  25  26
ATOM     26  C   UNL A   1      32.854  31.201  27.062  1.00  0.00     0.338 C 
ATOM     27  O   UNL A   1      32.455  32.340  26.878  1.00  0.00    -0.246 OA
BRANCH  26  28
ATOM     28  C   UNL A   1      34.178  30.909  27.648  1.00  0.00     0.060 A 
ATOM     29  C   UNL A   1      34.554  29.602  27.964  1.00  0.00     0.016 A 
ATOM     30  C   UNL A   1      35.002  31.973  28.009  1.00  0.00     0.016 A 
ATOM     31  C   UNL A   1      35.712  29.364  28.706  1.00  0.00     0.010 A 
ATOM     32  C   UNL A   1      36.211  31.724  28.665  1.00  0.00     0.010 A 
ATOM     33  C   UNL A   1      36.570  30.418  29.044  1.00  0.00    -0.014 A 
BRANCH  33  34
ATOM     34  C   UNL A   1      37.843  30.173  29.781  1.00  0.00     0.031 A 
ATOM     35  C   UNL A   1      38.884  29.245  29.215  1.00  0.00     0.074 A 
ATOM     36  C   UNL A   1      38.049  30.745  30.985  1.00  0.00     0.049 A 
ATOM     37  N   UNL A   1      39.945  28.738  29.791  1.00  0.00    -0.248 NA
ATOM     38  C   UNL A   1      38.695  28.818  27.822  1.00  0.00     0.031 C 
ATOM     39  C   UNL A   1      37.143  31.690  31.641  1.00  0.00     0.029 A 
ATOM     40  N   UNL A   1      39.081  30.602  31.880  1.00  0.00    -0.354 N 
ATOM     41  C   UNL A   1      40.533  27.905  28.844  1.00  0.00     0.074 A 
ATOM     42  C   UNL A   1      39.689  27.954  27.668  1.00  0.00     0.031 C 
ATOM     43  C   UNL A   1      37.661  32.047  32.825  1.00  0.00     0.029 A 
ATOM     44  C   UNL A   1      38.889  31.296  33.053  1.00  0.00     0.049 A 
ATOM     45  H   UNL A   1      39.880  30.057  31.700  1.00  0.00     0.167 HD
ATOM     46  C   UNL A   1      41.673  27.175  28.943  1.00  0.00     0.034 A 
ATOM     47  C   UNL A   1      39.587  31.290  34.205  1.00  0.00     0.034 A 
ATOM     48  C   UNL A   1      42.518  27.149  30.113  1.00  0.00     0.049 A 
ATOM     49  C   UNL A   1      40.804  30.413  34.322  1.00  0.00     0.074 A 
ATOM     50  C   UNL A   1      43.703  26.458  30.306  1.00  0.00     0.029 A 
ATOM     51  N   UNL A   1      42.272  27.844  31.290  1.00  0.00    -0.354 N 
ATOM     52  N   UNL A   1      41.329  29.603  33.432  1.00  0.00    -0.248 NA
ATOM     53  C   UNL A   1      41.520  30.445  35.604  1.00  0.00     0.031 C 
ATOM     54  C   UNL A   1      44.138  26.685  31.617  1.00  0.00     0.029 A 
ATOM     55  C   UNL A   1      43.265  27.575  32.221  1.00  0.00     0.049 A 
ATOM     56  H   UNL A   1      41.504  28.441  31.441  1.00  0.00     0.167 HD
ATOM     57  C   UNL A   1      42.449  29.048  34.041  1.00  0.00     0.074 A 
ATOM     58  C   UNL A   1      42.534  29.626  35.366  1.00  0.00     0.031 C 
ATOM     59  C   UNL A   1      43.333  28.143  33.546  1.00  0.00     0.034 A 
BRANCH  46  60
ATOM     60  C   UNL A   1      42.049  26.312  27.764  1.00  0.00     0.023 A 
ATOM     61  C   UNL A   1      41.618  24.979  27.657  1.00  0.00     0.031 A 
ATOM     62  C   UNL A   1      42.861  26.825  26.737  1.00  0.00     0.131 A 
ATOM     63  C   UNL A   1      42.051  24.185  26.586  1.00  0.00     0.055 A 
ATOM     64  C   UNL A   1      43.235  26.051  25.637  1.00  0.00     0.041 A 
ATOM     65  F   UNL A   1      43.315  28.088  26.792  1.00  0.00    -0.206 F 
ATOM     66  C   UNL A   1      42.844  24.717  25.565  1.00  0.00     0.022 A 
BRANCH  63  67
ATOM     67  S   UNL A   1      41.699  22.407  26.629  1.00  0.00     0.124 S 
ATOM     68  O   UNL A   1      42.303  21.950  25.379  1.00  0.00    -0.237 OA
ATOM     69  O   UNL A   1      42.372  21.987  27.852  1.00  0.00    -0.237 OA
ATOM     70  O   UNL A   1      40.239  22.351  26.666  1.00  0.00    -0.744 OA
ENDBRANCH  63  67
ENDBRANCH  46  60
BRANCH  47  71
ATOM     71  C   UNL A   1      39.114  32.094  35.368  1.00  0.00     0.023 A 
ATOM     72  C   UNL A   1      38.477  31.484  36.457  1.00  0.00     0.031 A 
ATOM     73  C   UNL A   1      39.274  33.492  35.391  1.00  0.00     0.131 A 
ATOM     74  C   UNL A   1      37.990  32.271  37.510  1.00  0.00     0.055 A 
ATOM     75  C   UNL A   1      38.836  34.265  36.466  1.00  0.00     0.041 A 
ATOM     76  F   UNL A   1      39.879  34.124  34.374  1.00  0.00    -0.206 F 
ATOM     77  C   UNL A   1      38.178  33.656  37.530  1.00  0.00     0.022 A 
BRANCH  74  78
ATOM     78  S   UNL A   1      37.036  31.466  38.825  1.00  0.00     0.124 S 
ATOM     79  O   UNL A   1      36.863  30.121  38.287  1.00  0.00    -0.237 OA
ATOM     80  O   UNL A   1      37.933  31.589  39.969  1.00  0.00    -0.237 OA
ATOM     81  O   UNL A   1      35.818  32.269  38.902  1.00  0.00    -0.744 OA
ENDBRANCH  74  78
ENDBRANCH  47  71
BRANCH  59  82
ATOM     82  C   UNL A   1      44.491  27.764  34.434  1.00  0.00     0.023 A 
ATOM     83  C   UNL A   1      44.460  26.611  35.238  1.00  0.00     0.031 A 
ATOM     84  C   UNL A   1      45.630  28.585  34.498  1.00  0.00     0.131 A 
ATOM     85  C   UNL A   1      45.524  26.339  36.111  1.00  0.00     0.055 A 
ATOM     86  C   UNL A   1      46.711  28.279  35.327  1.00  0.00     0.041 A 
ATOM     87  F   UNL A   1      45.712  29.700  33.754  1.00  0.00    -0.206 F 
ATOM     88  C   UNL A   1      46.655  27.158  36.150  1.00  0.00     0.022 A 
BRANCH  85  89
ATOM     89  S   UNL A   1      45.371  24.949  37.266  1.00  0.00     0.124 S 
ATOM     90  O   UNL A   1      44.497  24.039  36.534  1.00  0.00    -0.237 OA
ATOM     91  O   UNL A   1      46.757  24.517  37.419  1.00  0.00    -0.237 OA
ATOM     92  O   UNL A   1      44.777  25.555  38.457  1.00  0.00    -0.744 OA
ENDBRANCH  85  89
ENDBRANCH  59  82
ENDBRANCH  33  34
ENDBRANCH  26  28
ENDBRANCH  25  26
ENDBRANCH   1  25
TORSDOF 15
ENDMDL
MODEL 3
REMARK VINA RESULT:     -12.9      1.820      2.428
REMARK SMILES CN1C(=O)C[C@@H](C(=O)OCCOC(=O)c2ccc(-c3c4nc(c(-c5cc(S(=O)(=O)[O-])ccc5F)c5ccc([nH]5)c(-c5cc(S(=O)(=O)[O-])ccc5F)c5nc(c(-c6cc(S(=O)(=O)[O-])ccc6F)c6ccc3[nH]6)C=C5)C=C4)cc2)C12CCN(c1ccc(Cl)cn1)CC2
REMARK SMILES IDX 11 1 10 2 9 3 7 4 8 5 6 6 1 7 2 8 3 9 78 10 4 11 5 12 79 13
REMARK SMILES IDX 90 14 80 15 89 16 81 17 82 18 83 19 88 20 84 21 87 22 85 23
REMARK SMILES IDX 86 24 12 25 13 26 14 27 15 28 16 29 77 30 17 31 76 32 18 33
REMARK SMILES IDX 19 34 20 35 70 36 21 37 75 38 69 39 71 40 22 41 74 42 68 43
REMARK SMILES IDX 67 44 23 46 55 47 35 48 54 49 36 50 39 51 53 52 72 53 37 54
REMARK SMILES IDX 38 55 52 57 73 58 40 59 24 60 25 61 33 62 26 63 32 64 34 65
REMARK SMILES IDX 31 66 27 67 28 68 29 69 30 70 56 71 57 72 65 73 58 74 64 75
REMARK SMILES IDX 66 76 63 77 59 78 60 79 61 80 62 81 41 82 42 83 50 84 43 85
REMARK SMILES IDX 49 86 51 87 48 88 44 89 45 90 46 91 47 92
REMARK H PARENT 71 45 39 56
REMARK Flexibility Score: inf
ROOT
ATOM      1  C   UNL A   1      37.290  20.439  24.836  1.00  0.00     0.275 C 
ENDROOT
BRANCH   1   2
ATOM      2  C   UNL A   1      35.767  20.427  24.978  1.00  0.00     0.274 C 
BRANCH   2   3
ATOM      3  O   UNL A   1      35.255  21.748  25.256  1.00  0.00    -0.462 OA
BRANCH   3   4
ATOM      4  C   UNL A   1      34.281  21.801  26.188  1.00  0.00     0.311 C 
ATOM      5  O   UNL A   1      34.434  21.429  27.350  1.00  0.00    -0.252 OA
BRANCH   4   6
ATOM      6  C   UNL A   1      32.940  22.341  25.718  1.00  0.00     0.134 C 
ATOM      7  C   UNL A   1      32.900  22.800  22.019  1.00  0.00     0.147 C 
ATOM      8  N   UNL A   1      32.716  22.402  23.400  1.00  0.00    -0.339 N 
ATOM      9  C   UNL A   1      32.346  21.118  23.766  1.00  0.00     0.223 C 
ATOM     10  C   UNL A   1      32.774  23.337  24.540  1.00  0.00     0.060 C 
ATOM     11  O   UNL A   1      32.175  20.166  23.021  1.00  0.00    -0.275 OA
ATOM     12  C   UNL A   1      32.156  21.097  25.256  1.00  0.00     0.118 C 
ATOM     13  C   UNL A   1      33.862  24.418  24.338  1.00  0.00     0.051 C 
ATOM     14  C   UNL A   1      31.382  24.060  24.679  1.00  0.00     0.051 C 
ATOM     15  C   UNL A   1      33.800  25.528  25.372  1.00  0.00     0.120 C 
ATOM     16  C   UNL A   1      31.377  25.255  25.651  1.00  0.00     0.120 C 
ATOM     17  N   UNL A   1      32.478  26.130  25.282  1.00  0.00    -0.356 N 
BRANCH  17  18
ATOM     18  C   UNL A   1      32.416  27.472  25.643  1.00  0.00     0.128 A 
ATOM     19  C   UNL A   1      31.869  27.798  26.889  1.00  0.00     0.048 A 
ATOM     20  N   UNL A   1      32.847  28.429  24.798  1.00  0.00    -0.238 NA
ATOM     21  C   UNL A   1      31.686  29.129  27.252  1.00  0.00     0.026 A 
ATOM     22  C   UNL A   1      32.679  29.731  25.181  1.00  0.00     0.134 A 
ATOM     23  C   UNL A   1      32.071  30.120  26.365  1.00  0.00     0.059 A 
ATOM     24  Cl  UNL A   1      31.730  31.761  26.724  1.00  0.00    -0.083 Cl
ENDBRANCH  17  18
ENDBRANCH   4   6
ENDBRANCH   3   4
ENDBRANCH   2   3
ENDBRANCH   1   2
BRANCH   1  25
ATOM     25  O   UNL A   1      37.852  21.589  25.491  1.00  0.00    -0.458 OA
BRANCH  25  26
ATOM     26  C   UNL A   1      39.059  21.398  26.074  1.00  0.00     0.338 C 
ATOM     27  O   UNL A   1      39.685  20.351  26.123  1.00  0.00    -0.246 OA
BRANCH  26  28
ATOM     28  C   UNL A   1      39.577  22.659  26.645  1.00  0.00     0.060 A 
ATOM     29  C   UNL A   1      39.171  23.897  26.143  1.00  0.00     0.016 A 
ATOM     30  C   UNL A   1      40.585  22.598  27.605  1.00  0.00     0.016 A 
ATOM     31  C   UNL A   1      39.821  25.065  26.544  1.00  0.00     0.010 A 
ATOM     32  C   UNL A   1      41.166  23.778  28.077  1.00  0.00     0.010 A 
ATOM     33  C   UNL A   1      40.810  25.025  27.534  1.00  0.00    -0.014 A 
BRANCH  33  34
ATOM     34  C   UNL A   1      41.470  26.271  28.019  1.00  0.00     0.031 A 
ATOM     35  C   UNL A   1      40.676  27.316  28.759  1.00  0.00     0.074 A 
ATOM     36  C   UNL A   1      42.774  26.493  27.757  1.00  0.00     0.049 A 
ATOM     37  N   UNL A   1      41.006  28.544  29.068  1.00  0.00    -0.248 NA
ATOM     38  C   UNL A   1      39.325  26.930  29.190  1.00  0.00     0.031 C 
ATOM     39  C   UNL A   1      43.673  25.557  27.079  1.00  0.00     0.029 A 
ATOM     40  N   UNL A   1      43.566  27.585  28.013  1.00  0.00    -0.354 N 
ATOM     41  C   UNL A   1      39.894  29.091  29.700  1.00  0.00     0.074 A 
ATOM     42  C   UNL A   1      38.871  28.067  29.698  1.00  0.00     0.031 C 
ATOM     43  C   UNL A   1      44.891  26.109  26.982  1.00  0.00     0.029 A 
ATOM     44  C   UNL A   1      44.842  27.466  27.510  1.00  0.00     0.049 A 
ATOM     45  H   UNL A   1      43.253  28.375  28.509  1.00  0.00     0.167 HD
ATOM     46  C   UNL A   1      39.744  30.330  30.237  1.00  0.00     0.034 A 
ATOM     47  C   UNL A   1      45.845  28.362  27.429  1.00  0.00     0.034 A 
ATOM     48  C   UNL A   1      40.777  31.337  30.251  1.00  0.00     0.049 A 
ATOM     49  C   UNL A   1      45.631  29.755  27.959  1.00  0.00     0.074 A 
ATOM     50  C   UNL A   1      40.731  32.612  30.787  1.00  0.00     0.029 A 
ATOM     51  N   UNL A   1      42.045  31.185  29.705  1.00  0.00    -0.354 N 
ATOM     52  N   UNL A   1      44.562  30.270  28.522  1.00  0.00    -0.248 NA
ATOM     53  C   UNL A   1      46.758  30.688  27.838  1.00  0.00     0.031 C 
ATOM     54  C   UNL A   1      41.945  33.252  30.511  1.00  0.00     0.029 A 
ATOM     55  C   UNL A   1      42.778  32.353  29.865  1.00  0.00     0.049 A 
ATOM     56  H   UNL A   1      42.376  30.368  29.268  1.00  0.00     0.167 HD
ATOM     57  C   UNL A   1      44.899  31.581  28.841  1.00  0.00     0.074 A 
ATOM     58  C   UNL A   1      46.273  31.773  28.423  1.00  0.00     0.031 C 
ATOM     59  C   UNL A   1      44.141  32.540  29.431  1.00  0.00     0.034 A 
BRANCH  46  60
ATOM     60  C   UNL A   1      38.395  30.673  30.819  1.00  0.00     0.023 A 
ATOM     61  C   UNL A   1      37.419  31.351  30.070  1.00  0.00     0.031 A 
ATOM     62  C   UNL A   1      38.085  30.330  32.147  1.00  0.00     0.131 A 
ATOM     63  C   UNL A   1      36.206  31.722  30.670  1.00  0.00     0.055 A 
ATOM     64  C   UNL A   1      36.850  30.641  32.720  1.00  0.00     0.041 A 
ATOM     65  F   UNL A   1      38.984  29.694  32.916  1.00  0.00    -0.206 F 
ATOM     66  C   UNL A   1      35.908  31.357  31.986  1.00  0.00     0.022 A 
BRANCH  63  67
ATOM     67  S   UNL A   1      35.094  32.827  29.760  1.00  0.00     0.124 S 
ATOM     68  O   UNL A   1      34.429  31.900  28.846  1.00  0.00    -0.237 OA
ATOM     69  O   UNL A   1      34.263  33.377  30.825  1.00  0.00    -0.237 OA
ATOM     70  O   UNL A   1      36.004  33.777  29.123  1.00  0.00    -0.744 OA
ENDBRANCH  63  67
ENDBRANCH  46  60
BRANCH  47  71
ATOM     71  C   UNL A   1      47.124  27.992  26.760  1.00  0.00     0.023 A 
ATOM     72  C   UNL A   1      47.238  28.005  25.362  1.00  0.00     0.031 A 
ATOM     73  C   UNL A   1      48.244  27.595  27.513  1.00  0.00     0.131 A 
ATOM     74  C   UNL A   1      48.435  27.595  24.757  1.00  0.00     0.055 A 
ATOM     75  C   UNL A   1      49.450  27.240  26.908  1.00  0.00     0.041 A 
ATOM     76  F   UNL A   1      48.186  27.567  28.853  1.00  0.00    -0.206 F 
ATOM     77  C   UNL A   1      49.546  27.227  25.520  1.00  0.00     0.022 A 
BRANCH  74  78
ATOM     78  S   UNL A   1      48.496  27.477  22.949  1.00  0.00     0.124 S 
ATOM     79  O   UNL A   1      49.762  28.137  22.649  1.00  0.00    -0.237 OA
ATOM     80  O   UNL A   1      48.459  26.032  22.739  1.00  0.00    -0.237 OA
ATOM     81  O   UNL A   1      47.299  28.196  22.520  1.00  0.00    -0.744 OA
ENDBRANCH  74  78
ENDBRANCH  47  71
BRANCH  59  82
ATOM     82  C   UNL A   1      44.806  33.868  29.698  1.00  0.00     0.023 A 
ATOM     83  C   UNL A   1      44.764  34.917  28.763  1.00  0.00     0.031 A 
ATOM     84  C   UNL A   1      45.515  34.074  30.894  1.00  0.00     0.131 A 
ATOM     85  C   UNL A   1      45.466  36.105  29.016  1.00  0.00     0.055 A 
ATOM     86  C   UNL A   1      46.164  35.280  31.165  1.00  0.00     0.041 A 
ATOM     87  F   UNL A   1      45.589  33.105  31.821  1.00  0.00    -0.206 F 
ATOM     88  C   UNL A   1      46.153  36.300  30.216  1.00  0.00     0.022 A 
BRANCH  85  89
ATOM     89  S   UNL A   1      45.546  37.364  27.712  1.00  0.00     0.124 S 
ATOM     90  O   UNL A   1      46.822  38.014  27.994  1.00  0.00    -0.237 OA
ATOM     91  O   UNL A   1      45.496  36.558  26.496  1.00  0.00    -0.237 OA
ATOM     92  O   UNL A   1      44.363  38.188  27.957  1.00  0.00    -0.744 OA
ENDBRANCH  85  89
ENDBRANCH  59  82
ENDBRANCH  33  34
ENDBRANCH  26  28
ENDBRANCH  25  26
ENDBRANCH   1  25
TORSDOF 15
ENDMDL
