MODEL 1
REMARK VINA RESULT:     -13.2      0.000      0.000
REMARK SMILES Cc1c(NC(=O)[C@@H]2CC=CC[C@@H]2C(=O)OCCOC(=O)c2ccc(-c3c4nc(c(-c5cc(S(=O)(=O)[O-])ccc5F)c5ccc([nH]5)c(-c5cc(S(=O)(=O)[O-])ccc5F)c5nc(c(-c6cc(S(=O)(=O)[O-])ccc6F)c6ccc3[nH]6)C=C5)C=C4)cc2)cccc1C(=O)N1CCOCC1
REMARK SMILES IDX 16 1 15 2 13 3 14 4 12 5 7 6 8 7 9 8 11 9 10 10 5 11 4 12
REMARK SMILES IDX 6 14 3 15 1 16 2 17 87 18 84 19 86 20 85 21 88 22 89 23
REMARK SMILES IDX 90 24 91 25 95 26 92 27 94 28 93 29 17 30 18 31 19 32 20 33
REMARK SMILES IDX 21 34 22 35 83 36 23 37 82 38 24 39 25 40 26 41 76 42 27 43
REMARK SMILES IDX 81 44 75 45 77 46 28 47 80 48 74 49 73 50 29 52 61 53 41 54
REMARK SMILES IDX 60 55 42 56 45 57 59 58 78 59 43 60 44 61 58 63 79 64 46 65
REMARK SMILES IDX 30 66 31 67 39 68 32 69 38 70 40 71 37 72 33 73 34 74 35 75
REMARK SMILES IDX 36 76 62 77 63 78 71 79 64 80 70 81 72 82 69 83 65 84 66 85
REMARK SMILES IDX 67 86 68 87 47 88 48 89 56 90 49 91 55 92 57 93 54 94 50 95
REMARK SMILES IDX 51 96 52 97 53 98
REMARK H PARENT 4 13 77 51 45 62
REMARK Flexibility Score: inf
ROOT
ATOM      1  C   UNL A   1      32.472  30.185  26.888  1.00  0.00     0.274 C 
ENDROOT
BRANCH   1   2
ATOM      2  O   UNL A   1      31.987  29.273  25.905  1.00  0.00    -0.462 OA
BRANCH   2   3
ATOM      3  C   UNL A   1      31.474  28.119  26.361  1.00  0.00     0.310 C 
ATOM      4  O   UNL A   1      31.295  27.865  27.557  1.00  0.00    -0.252 OA
BRANCH   3   5
ATOM      5  C   UNL A   1      31.275  27.076  25.283  1.00  0.00     0.116 C 
ATOM      6  C   UNL A   1      32.645  26.789  24.678  1.00  0.00     0.097 C 
ATOM      7  C   UNL A   1      33.236  28.019  23.989  1.00  0.00     0.041 C 
ATOM      8  C   UNL A   1      32.218  28.642  23.065  1.00  0.00    -0.030 C 
ATOM      9  C   UNL A   1      30.312  27.429  24.149  1.00  0.00     0.043 C 
ATOM     10  C   UNL A   1      30.907  28.351  23.121  1.00  0.00    -0.030 C 
BRANCH   6  11
ATOM     11  C   UNL A   1      33.515  26.208  25.760  1.00  0.00     0.228 C 
ATOM     12  N   UNL A   1      33.191  24.918  26.140  1.00  0.00    -0.326 N 
ATOM     13  H   UNL A   1      32.650  24.728  26.940  1.00  0.00     0.169 HD
ATOM     14  O   UNL A   1      34.391  26.843  26.342  1.00  0.00    -0.274 OA
BRANCH  12  15
ATOM     15  C   UNL A   1      33.688  23.887  25.301  1.00  0.00     0.044 A 
ATOM     16  C   UNL A   1      31.301  23.205  24.981  1.00  0.00     0.047 C 
ATOM     17  C   UNL A   1      32.767  23.000  24.702  1.00  0.00    -0.015 A 
ATOM     18  C   UNL A   1      33.275  21.921  23.946  1.00  0.00     0.045 A 
ATOM     19  C   UNL A   1      35.067  23.678  25.200  1.00  0.00     0.026 A 
ATOM     20  C   UNL A   1      34.667  21.681  23.943  1.00  0.00     0.014 A 
ATOM     21  C   UNL A   1      35.556  22.543  24.575  1.00  0.00     0.003 A 
BRANCH  18  22
ATOM     22  C   UNL A   1      32.450  20.857  23.299  1.00  0.00     0.254 C 
ATOM     23  O   UNL A   1      31.808  21.156  22.289  1.00  0.00    -0.269 OA
ATOM     24  N   UNL A   1      32.494  19.550  23.751  1.00  0.00    -0.334 N 
ATOM     25  C   UNL A   1      32.336  19.111  25.146  1.00  0.00     0.148 C 
ATOM     26  C   UNL A   1      32.344  18.494  22.759  1.00  0.00     0.148 C 
ATOM     27  C   UNL A   1      33.096  17.798  25.433  1.00  0.00     0.181 C 
ATOM     28  C   UNL A   1      33.242  17.315  23.122  1.00  0.00     0.181 C 
ATOM     29  O   UNL A   1      32.877  16.807  24.414  1.00  0.00    -0.378 OA
ENDBRANCH  18  22
ENDBRANCH  12  15
ENDBRANCH   6  11
ENDBRANCH   3   5
ENDBRANCH   2   3
ENDBRANCH   1   2
BRANCH   1  30
ATOM     30  C   UNL A   1      33.886  29.769  27.296  1.00  0.00     0.275 C 
BRANCH  30  31
ATOM     31  O   UNL A   1      34.716  30.781  27.962  1.00  0.00    -0.458 OA
BRANCH  31  32
ATOM     32  C   UNL A   1      35.724  30.663  28.880  1.00  0.00     0.338 C 
ATOM     33  O   UNL A   1      35.586  31.089  30.024  1.00  0.00    -0.246 OA
BRANCH  32  34
ATOM     34  C   UNL A   1      36.889  29.811  28.549  1.00  0.00     0.060 A 
ATOM     35  C   UNL A   1      37.553  29.917  27.306  1.00  0.00     0.016 A 
ATOM     36  C   UNL A   1      37.422  29.019  29.543  1.00  0.00     0.016 A 
ATOM     37  C   UNL A   1      38.820  29.349  27.135  1.00  0.00     0.010 A 
ATOM     38  C   UNL A   1      38.745  28.681  29.469  1.00  0.00     0.010 A 
ATOM     39  C   UNL A   1      39.430  28.776  28.248  1.00  0.00    -0.014 A 
BRANCH  39  40
ATOM     40  C   UNL A   1      40.627  27.942  28.214  1.00  0.00     0.031 A 
ATOM     41  C   UNL A   1      40.596  26.468  28.229  1.00  0.00     0.074 A 
ATOM     42  C   UNL A   1      41.744  28.704  28.111  1.00  0.00     0.049 A 
ATOM     43  N   UNL A   1      41.502  25.744  28.788  1.00  0.00    -0.248 NA
ATOM     44  C   UNL A   1      39.536  25.647  27.637  1.00  0.00     0.031 C 
ATOM     45  C   UNL A   1      43.139  28.395  27.885  1.00  0.00     0.029 A 
ATOM     46  N   UNL A   1      41.768  30.077  28.381  1.00  0.00    -0.354 N 
ATOM     47  C   UNL A   1      41.366  24.462  28.287  1.00  0.00     0.074 A 
ATOM     48  C   UNL A   1      40.045  24.409  27.725  1.00  0.00     0.031 C 
ATOM     49  C   UNL A   1      43.880  29.429  28.348  1.00  0.00     0.029 A 
ATOM     50  C   UNL A   1      42.972  30.386  28.979  1.00  0.00     0.049 A 
ATOM     51  H   UNL A   1      41.047  30.716  28.179  1.00  0.00     0.167 HD
ATOM     52  C   UNL A   1      42.473  23.672  28.187  1.00  0.00     0.034 A 
ATOM     53  C   UNL A   1      42.904  30.737  30.298  1.00  0.00     0.034 A 
ATOM     54  C   UNL A   1      43.637  24.405  28.668  1.00  0.00     0.049 A 
ATOM     55  C   UNL A   1      43.548  29.656  31.126  1.00  0.00     0.074 A 
ATOM     56  C   UNL A   1      44.605  25.136  28.001  1.00  0.00     0.029 A 
ATOM     57  N   UNL A   1      43.686  24.794  29.996  1.00  0.00    -0.354 N 
ATOM     58  N   UNL A   1      43.564  28.388  30.806  1.00  0.00    -0.248 NA
ATOM     59  C   UNL A   1      44.337  29.958  32.310  1.00  0.00     0.031 C 
ATOM     60  C   UNL A   1      45.183  26.036  28.934  1.00  0.00     0.029 A 
ATOM     61  C   UNL A   1      44.565  25.844  30.159  1.00  0.00     0.049 A 
ATOM     62  H   UNL A   1      43.165  24.381  30.722  1.00  0.00     0.167 HD
ATOM     63  C   UNL A   1      44.434  27.729  31.636  1.00  0.00     0.074 A 
ATOM     64  C   UNL A   1      44.873  28.755  32.571  1.00  0.00     0.031 C 
ATOM     65  C   UNL A   1      44.776  26.413  31.474  1.00  0.00     0.034 A 
BRANCH  52  66
ATOM     66  C   UNL A   1      42.599  22.413  27.364  1.00  0.00     0.023 A 
ATOM     67  C   UNL A   1      43.648  22.334  26.420  1.00  0.00     0.031 A 
ATOM     68  C   UNL A   1      41.774  21.279  27.450  1.00  0.00     0.131 A 
ATOM     69  C   UNL A   1      43.821  21.222  25.583  1.00  0.00     0.055 A 
ATOM     70  C   UNL A   1      41.937  20.165  26.604  1.00  0.00     0.041 A 
ATOM     71  F   UNL A   1      40.802  21.190  28.371  1.00  0.00    -0.206 F 
ATOM     72  C   UNL A   1      42.961  20.134  25.661  1.00  0.00     0.022 A 
BRANCH  69  73
ATOM     73  S   UNL A   1      45.199  21.238  24.400  1.00  0.00     0.124 S 
ATOM     74  O   UNL A   1      46.329  20.858  25.242  1.00  0.00    -0.237 OA
ATOM     75  O   UNL A   1      44.774  20.254  23.411  1.00  0.00    -0.237 OA
ATOM     76  O   UNL A   1      45.221  22.620  23.925  1.00  0.00    -0.744 OA
ENDBRANCH  69  73
ENDBRANCH  52  66
BRANCH  53  77
ATOM     77  C   UNL A   1      41.678  31.548  30.669  1.00  0.00     0.023 A 
ATOM     78  C   UNL A   1      40.662  30.905  31.424  1.00  0.00     0.031 A 
ATOM     79  C   UNL A   1      41.585  32.942  30.563  1.00  0.00     0.131 A 
ATOM     80  C   UNL A   1      39.709  31.636  32.154  1.00  0.00     0.055 A 
ATOM     81  C   UNL A   1      40.581  33.670  31.232  1.00  0.00     0.041 A 
ATOM     82  F   UNL A   1      42.502  33.642  29.879  1.00  0.00    -0.206 F 
ATOM     83  C   UNL A   1      39.658  33.024  32.062  1.00  0.00     0.022 A 
BRANCH  80  84
ATOM     84  S   UNL A   1      38.735  30.752  33.417  1.00  0.00     0.124 S 
ATOM     85  O   UNL A   1      39.509  29.532  33.608  1.00  0.00    -0.237 OA
ATOM     86  O   UNL A   1      38.739  31.693  34.537  1.00  0.00    -0.237 OA
ATOM     87  O   UNL A   1      37.429  30.578  32.792  1.00  0.00    -0.744 OA
ENDBRANCH  80  84
ENDBRANCH  53  77
BRANCH  65  88
ATOM     88  C   UNL A   1      45.454  25.553  32.512  1.00  0.00     0.023 A 
ATOM     89  C   UNL A   1      44.775  24.547  33.198  1.00  0.00     0.031 A 
ATOM     90  C   UNL A   1      46.842  25.654  32.791  1.00  0.00     0.131 A 
ATOM     91  C   UNL A   1      45.403  23.805  34.204  1.00  0.00     0.055 A 
ATOM     92  C   UNL A   1      47.497  24.821  33.700  1.00  0.00     0.041 A 
ATOM     93  F   UNL A   1      47.634  26.553  32.190  1.00  0.00    -0.206 F 
ATOM     94  C   UNL A   1      46.769  23.906  34.440  1.00  0.00     0.022 A 
BRANCH  91  95
ATOM     95  S   UNL A   1      44.342  22.806  35.267  1.00  0.00     0.124 S 
ATOM     96  O   UNL A   1      44.630  21.455  34.787  1.00  0.00    -0.237 OA
ATOM     97  O   UNL A   1      44.845  23.121  36.599  1.00  0.00    -0.237 OA
ATOM     98  O   UNL A   1      42.999  23.297  34.971  1.00  0.00    -0.744 OA
ENDBRANCH  91  95
ENDBRANCH  65  88
ENDBRANCH  39  40
ENDBRANCH  32  34
ENDBRANCH  31  32
ENDBRANCH  30  31
ENDBRANCH   1  30
TORSDOF 17
ENDMDL
MODEL 2
REMARK VINA RESULT:     -13.0      2.316      2.955
REMARK SMILES Cc1c(NC(=O)[C@@H]2CC=CC[C@@H]2C(=O)OCCOC(=O)c2ccc(-c3c4nc(c(-c5cc(S(=O)(=O)[O-])ccc5F)c5ccc([nH]5)c(-c5cc(S(=O)(=O)[O-])ccc5F)c5nc(c(-c6cc(S(=O)(=O)[O-])ccc6F)c6ccc3[nH]6)C=C5)C=C4)cc2)cccc1C(=O)N1CCOCC1
REMARK SMILES IDX 16 1 15 2 13 3 14 4 12 5 7 6 8 7 9 8 11 9 10 10 5 11 4 12
REMARK SMILES IDX 6 14 3 15 1 16 2 17 87 18 84 19 86 20 85 21 88 22 89 23
REMARK SMILES IDX 90 24 91 25 95 26 92 27 94 28 93 29 17 30 18 31 19 32 20 33
REMARK SMILES IDX 21 34 22 35 83 36 23 37 82 38 24 39 25 40 26 41 76 42 27 43
REMARK SMILES IDX 81 44 75 45 77 46 28 47 80 48 74 49 73 50 29 52 61 53 41 54
REMARK SMILES IDX 60 55 42 56 45 57 59 58 78 59 43 60 44 61 58 63 79 64 46 65
REMARK SMILES IDX 30 66 31 67 39 68 32 69 38 70 40 71 37 72 33 73 34 74 35 75
REMARK SMILES IDX 36 76 62 77 63 78 71 79 64 80 70 81 72 82 69 83 65 84 66 85
REMARK SMILES IDX 67 86 68 87 47 88 48 89 56 90 49 91 55 92 57 93 54 94 50 95
REMARK SMILES IDX 51 96 52 97 53 98
REMARK H PARENT 4 13 77 51 45 62
REMARK Flexibility Score: inf
ROOT
ATOM      1  C   UNL A   1      34.113  28.767  25.793  1.00  0.00     0.274 C 
ENDROOT
BRANCH   1   2
ATOM      2  O   UNL A   1      33.762  27.386  25.733  1.00  0.00    -0.462 OA
BRANCH   2   3
ATOM      3  C   UNL A   1      33.459  26.897  24.519  1.00  0.00     0.310 C 
ATOM      4  O   UNL A   1      33.986  27.278  23.468  1.00  0.00    -0.252 OA
BRANCH   3   5
ATOM      5  C   UNL A   1      32.289  25.938  24.527  1.00  0.00     0.116 C 
ATOM      6  C   UNL A   1      31.904  25.688  23.074  1.00  0.00     0.097 C 
ATOM      7  C   UNL A   1      31.417  26.962  22.383  1.00  0.00     0.041 C 
ATOM      8  C   UNL A   1      30.383  27.657  23.236  1.00  0.00    -0.030 C 
ATOM      9  C   UNL A   1      31.039  26.380  25.289  1.00  0.00     0.043 C 
ATOM     10  C   UNL A   1      30.196  27.371  24.536  1.00  0.00    -0.030 C 
BRANCH   6  11
ATOM     11  C   UNL A   1      33.071  25.024  22.394  1.00  0.00     0.228 C 
ATOM     12  N   UNL A   1      33.736  24.084  23.161  1.00  0.00    -0.326 N 
ATOM     13  H   UNL A   1      34.569  24.295  23.642  1.00  0.00     0.169 HD
ATOM     14  O   UNL A   1      33.480  25.341  21.279  1.00  0.00    -0.274 OA
BRANCH  12  15
ATOM     15  C   UNL A   1      33.139  22.798  23.211  1.00  0.00     0.044 A 
ATOM     16  C   UNL A   1      34.305  22.509  25.407  1.00  0.00     0.047 C 
ATOM     17  C   UNL A   1      33.405  21.971  24.325  1.00  0.00    -0.015 A 
ATOM     18  C   UNL A   1      32.884  20.660  24.322  1.00  0.00     0.045 A 
ATOM     19  C   UNL A   1      32.427  22.319  22.107  1.00  0.00     0.026 A 
ATOM     20  C   UNL A   1      32.255  20.175  23.155  1.00  0.00     0.014 A 
ATOM     21  C   UNL A   1      32.039  20.991  22.051  1.00  0.00     0.003 A 
BRANCH  18  22
ATOM     22  C   UNL A   1      33.120  19.635  25.384  1.00  0.00     0.254 C 
ATOM     23  O   UNL A   1      32.939  19.966  26.558  1.00  0.00    -0.269 OA
ATOM     24  N   UNL A   1      33.420  18.325  25.054  1.00  0.00    -0.334 N 
ATOM     25  C   UNL A   1      34.462  17.887  24.113  1.00  0.00     0.148 C 
ATOM     26  C   UNL A   1      32.919  17.282  25.938  1.00  0.00     0.148 C 
ATOM     27  C   UNL A   1      34.114  16.541  23.443  1.00  0.00     0.181 C 
ATOM     28  C   UNL A   1      32.511  16.063  25.115  1.00  0.00     0.181 C 
ATOM     29  O   UNL A   1      33.645  15.565  24.389  1.00  0.00    -0.378 OA
ENDBRANCH  18  22
ENDBRANCH  12  15
ENDBRANCH   6  11
ENDBRANCH   3   5
ENDBRANCH   2   3
ENDBRANCH   1   2
BRANCH   1  30
ATOM     30  C   UNL A   1      34.185  29.198  27.259  1.00  0.00     0.275 C 
BRANCH  30  31
ATOM     31  O   UNL A   1      34.962  30.406  27.564  1.00  0.00    -0.458 OA
BRANCH  31  32
ATOM     32  C   UNL A   1      35.717  30.744  28.653  1.00  0.00     0.338 C 
ATOM     33  O   UNL A   1      35.262  31.468  29.535  1.00  0.00    -0.246 OA
BRANCH  32  34
ATOM     34  C   UNL A   1      37.002  30.040  28.872  1.00  0.00     0.060 A 
ATOM     35  C   UNL A   1      37.148  29.067  29.886  1.00  0.00     0.016 A 
ATOM     36  C   UNL A   1      38.017  30.233  27.960  1.00  0.00     0.016 A 
ATOM     37  C   UNL A   1      38.243  28.198  29.874  1.00  0.00     0.010 A 
ATOM     38  C   UNL A   1      38.946  29.243  27.797  1.00  0.00     0.010 A 
ATOM     39  C   UNL A   1      39.113  28.263  28.787  1.00  0.00    -0.014 A 
BRANCH  39  40
ATOM     40  C   UNL A   1      40.416  27.612  28.713  1.00  0.00     0.031 A 
ATOM     41  C   UNL A   1      40.602  26.196  28.348  1.00  0.00     0.074 A 
ATOM     42  C   UNL A   1      41.413  28.496  28.969  1.00  0.00     0.049 A 
ATOM     43  N   UNL A   1      41.540  25.455  28.828  1.00  0.00    -0.248 NA
ATOM     44  C   UNL A   1      39.746  25.450  27.422  1.00  0.00     0.031 C 
ATOM     45  C   UNL A   1      42.854  28.420  28.872  1.00  0.00     0.029 A 
ATOM     46  N   UNL A   1      41.204  29.737  29.580  1.00  0.00    -0.354 N 
ATOM     47  C   UNL A   1      41.650  24.351  28.004  1.00  0.00     0.074 A 
ATOM     48  C   UNL A   1      40.419  24.301  27.264  1.00  0.00     0.031 C 
ATOM     49  C   UNL A   1      43.379  29.367  29.684  1.00  0.00     0.029 A 
ATOM     50  C   UNL A   1      42.278  30.008  30.402  1.00  0.00     0.049 A 
ATOM     51  H   UNL A   1      40.423  30.320  29.446  1.00  0.00     0.167 HD
ATOM     52  C   UNL A   1      42.866  23.749  27.866  1.00  0.00     0.034 A 
ATOM     53  C   UNL A   1      42.017  29.978  31.743  1.00  0.00     0.034 A 
ATOM     54  C   UNL A   1      43.850  24.452  28.678  1.00  0.00     0.049 A 
ATOM     55  C   UNL A   1      42.721  28.794  32.352  1.00  0.00     0.074 A 
ATOM     56  C   UNL A   1      44.765  25.442  28.364  1.00  0.00     0.029 A 
ATOM     57  N   UNL A   1      43.698  24.469  30.054  1.00  0.00    -0.354 N 
ATOM     58  N   UNL A   1      42.959  27.671  31.726  1.00  0.00    -0.248 NA
ATOM     59  C   UNL A   1      43.325  28.851  33.674  1.00  0.00     0.031 C 
ATOM     60  C   UNL A   1      45.100  26.115  29.568  1.00  0.00     0.029 A 
ATOM     61  C   UNL A   1      44.390  25.529  30.602  1.00  0.00     0.049 A 
ATOM     62  H   UNL A   1      43.169  23.818  30.569  1.00  0.00     0.167 HD
ATOM     63  C   UNL A   1      43.823  26.915  32.476  1.00  0.00     0.074 A 
ATOM     64  C   UNL A   1      44.002  27.692  33.694  1.00  0.00     0.031 C 
ATOM     65  C   UNL A   1      44.371  25.741  32.035  1.00  0.00     0.034 A 
BRANCH  52  66
ATOM     66  C   UNL A   1      43.264  22.783  26.776  1.00  0.00     0.023 A 
ATOM     67  C   UNL A   1      42.804  21.450  26.863  1.00  0.00     0.031 A 
ATOM     68  C   UNL A   1      44.048  23.081  25.648  1.00  0.00     0.131 A 
ATOM     69  C   UNL A   1      43.154  20.472  25.919  1.00  0.00     0.055 A 
ATOM     70  C   UNL A   1      44.411  22.102  24.704  1.00  0.00     0.041 A 
ATOM     71  F   UNL A   1      44.467  24.332  25.399  1.00  0.00    -0.206 F 
ATOM     72  C   UNL A   1      43.968  20.788  24.839  1.00  0.00     0.022 A 
BRANCH  69  73
ATOM     73  S   UNL A   1      42.512  18.789  26.142  1.00  0.00     0.124 S 
ATOM     74  O   UNL A   1      42.686  18.582  27.577  1.00  0.00    -0.237 OA
ATOM     75  O   UNL A   1      41.137  18.913  25.672  1.00  0.00    -0.237 OA
ATOM     76  O   UNL A   1      43.384  17.979  25.293  1.00  0.00    -0.744 OA
ENDBRANCH  69  73
ENDBRANCH  52  66
BRANCH  53  77
ATOM     77  C   UNL A   1      40.652  30.512  32.129  1.00  0.00     0.023 A 
ATOM     78  C   UNL A   1      40.313  31.827  31.712  1.00  0.00     0.031 A 
ATOM     79  C   UNL A   1      39.602  29.727  32.626  1.00  0.00     0.131 A 
ATOM     80  C   UNL A   1      38.977  32.261  31.652  1.00  0.00     0.055 A 
ATOM     81  C   UNL A   1      38.272  30.193  32.639  1.00  0.00     0.041 A 
ATOM     82  F   UNL A   1      39.819  28.469  33.035  1.00  0.00    -0.206 F 
ATOM     83  C   UNL A   1      37.946  31.450  32.118  1.00  0.00     0.022 A 
BRANCH  80  84
ATOM     84  S   UNL A   1      38.612  33.779  30.711  1.00  0.00     0.124 S 
ATOM     85  O   UNL A   1      39.873  34.506  30.792  1.00  0.00    -0.237 OA
ATOM     86  O   UNL A   1      38.260  33.257  29.390  1.00  0.00    -0.237 OA
ATOM     87  O   UNL A   1      37.494  34.376  31.431  1.00  0.00    -0.744 OA
ENDBRANCH  80  84
ENDBRANCH  53  77
BRANCH  65  88
ATOM     88  C   UNL A   1      45.054  24.714  32.907  1.00  0.00     0.023 A 
ATOM     89  C   UNL A   1      46.338  24.910  33.413  1.00  0.00     0.031 A 
ATOM     90  C   UNL A   1      44.401  23.530  33.337  1.00  0.00     0.131 A 
ATOM     91  C   UNL A   1      46.980  23.919  34.164  1.00  0.00     0.055 A 
ATOM     92  C   UNL A   1      44.994  22.604  34.197  1.00  0.00     0.041 A 
ATOM     93  F   UNL A   1      43.153  23.218  32.958  1.00  0.00    -0.206 F 
ATOM     94  C   UNL A   1      46.309  22.780  34.592  1.00  0.00     0.022 A 
BRANCH  91  95
ATOM     95  S   UNL A   1      48.751  24.122  34.443  1.00  0.00     0.124 S 
ATOM     96  O   UNL A   1      48.768  24.853  35.709  1.00  0.00    -0.237 OA
ATOM     97  O   UNL A   1      49.219  22.743  34.507  1.00  0.00    -0.237 OA
ATOM     98  O   UNL A   1      49.196  24.883  33.280  1.00  0.00    -0.744 OA
ENDBRANCH  91  95
ENDBRANCH  65  88
ENDBRANCH  39  40
ENDBRANCH  32  34
ENDBRANCH  31  32
ENDBRANCH  30  31
ENDBRANCH   1  30
TORSDOF 17
ENDMDL
MODEL 3
REMARK VINA RESULT:     -12.8      3.771      9.998
REMARK SMILES Cc1c(NC(=O)[C@@H]2CC=CC[C@@H]2C(=O)OCCOC(=O)c2ccc(-c3c4nc(c(-c5cc(S(=O)(=O)[O-])ccc5F)c5ccc([nH]5)c(-c5cc(S(=O)(=O)[O-])ccc5F)c5nc(c(-c6cc(S(=O)(=O)[O-])ccc6F)c6ccc3[nH]6)C=C5)C=C4)cc2)cccc1C(=O)N1CCOCC1
REMARK SMILES IDX 16 1 15 2 13 3 14 4 12 5 7 6 8 7 9 8 11 9 10 10 5 11 4 12
REMARK SMILES IDX 6 14 3 15 1 16 2 17 87 18 84 19 86 20 85 21 88 22 89 23
REMARK SMILES IDX 90 24 91 25 95 26 92 27 94 28 93 29 17 30 18 31 19 32 20 33
REMARK SMILES IDX 21 34 22 35 83 36 23 37 82 38 24 39 25 40 26 41 76 42 27 43
REMARK SMILES IDX 81 44 75 45 77 46 28 47 80 48 74 49 73 50 29 52 61 53 41 54
REMARK SMILES IDX 60 55 42 56 45 57 59 58 78 59 43 60 44 61 58 63 79 64 46 65
REMARK SMILES IDX 30 66 31 67 39 68 32 69 38 70 40 71 37 72 33 73 34 74 35 75
REMARK SMILES IDX 36 76 62 77 63 78 71 79 64 80 70 81 72 82 69 83 65 84 66 85
REMARK SMILES IDX 67 86 68 87 47 88 48 89 56 90 49 91 55 92 57 93 54 94 50 95
REMARK SMILES IDX 51 96 52 97 53 98
REMARK H PARENT 4 13 77 51 45 62
REMARK Flexibility Score: inf
ROOT
ATOM      1  C   UNL A   1      37.675  21.787  25.177  1.00  0.00     0.274 C 
ENDROOT
BRANCH   1   2
ATOM      2  O   UNL A   1      36.518  22.099  24.403  1.00  0.00    -0.462 OA
BRANCH   2   3
ATOM      3  C   UNL A   1      35.330  21.906  24.999  1.00  0.00     0.310 C 
ATOM      4  O   UNL A   1      35.188  21.380  26.108  1.00  0.00    -0.252 OA
BRANCH   3   5
ATOM      5  C   UNL A   1      34.148  22.248  24.118  1.00  0.00     0.116 C 
ATOM      6  C   UNL A   1      33.388  23.377  24.805  1.00  0.00     0.097 C 
ATOM      7  C   UNL A   1      32.814  22.944  26.153  1.00  0.00     0.041 C 
ATOM      8  C   UNL A   1      32.076  21.635  26.012  1.00  0.00    -0.030 C 
ATOM      9  C   UNL A   1      33.164  21.118  23.814  1.00  0.00     0.043 C 
ATOM     10  C   UNL A   1      32.213  20.830  24.944  1.00  0.00    -0.030 C 
BRANCH   6  11
ATOM     11  C   UNL A   1      34.302  24.571  24.877  1.00  0.00     0.228 C 
ATOM     12  N   UNL A   1      33.985  25.601  24.009  1.00  0.00    -0.326 N 
ATOM     13  H   UNL A   1      34.448  25.722  23.148  1.00  0.00     0.169 HD
ATOM     14  O   UNL A   1      35.311  24.615  25.576  1.00  0.00    -0.274 OA
BRANCH  12  15
ATOM     15  C   UNL A   1      32.949  26.471  24.438  1.00  0.00     0.044 A 
ATOM     16  C   UNL A   1      31.523  25.392  22.686  1.00  0.00     0.047 C 
ATOM     17  C   UNL A   1      31.695  26.399  23.793  1.00  0.00    -0.015 A 
ATOM     18  C   UNL A   1      30.701  27.331  24.163  1.00  0.00     0.045 A 
ATOM     19  C   UNL A   1      33.225  27.469  25.378  1.00  0.00     0.026 A 
ATOM     20  C   UNL A   1      31.040  28.384  25.040  1.00  0.00     0.014 A 
ATOM     21  C   UNL A   1      32.294  28.462  25.633  1.00  0.00     0.003 A 
BRANCH  18  22
ATOM     22  C   UNL A   1      29.346  27.438  23.542  1.00  0.00     0.254 C 
ATOM     23  O   UNL A   1      28.562  26.499  23.696  1.00  0.00    -0.269 OA
ATOM     24  N   UNL A   1      28.944  28.603  22.911  1.00  0.00    -0.334 N 
ATOM     25  C   UNL A   1      29.698  29.334  21.883  1.00  0.00     0.148 C 
ATOM     26  C   UNL A   1      27.535  28.960  23.003  1.00  0.00     0.148 C 
ATOM     27  C   UNL A   1      29.382  30.845  21.892  1.00  0.00     0.181 C 
ATOM     28  C   UNL A   1      27.395  30.475  23.121  1.00  0.00     0.181 C 
ATOM     29  O   UNL A   1      27.970  31.107  21.968  1.00  0.00    -0.378 OA
ENDBRANCH  18  22
ENDBRANCH  12  15
ENDBRANCH   6  11
ENDBRANCH   3   5
ENDBRANCH   2   3
ENDBRANCH   1   2
BRANCH   1  30
ATOM     30  C   UNL A   1      38.178  23.063  25.854  1.00  0.00     0.275 C 
BRANCH  30  31
ATOM     31  O   UNL A   1      39.516  23.018  26.456  1.00  0.00    -0.458 OA
BRANCH  31  32
ATOM     32  C   UNL A   1      40.419  24.009  26.730  1.00  0.00     0.338 C 
ATOM     33  O   UNL A   1      41.539  23.997  26.226  1.00  0.00    -0.246 OA
BRANCH  32  34
ATOM     34  C   UNL A   1      39.952  25.215  27.451  1.00  0.00     0.060 A 
ATOM     35  C   UNL A   1      39.140  25.119  28.603  1.00  0.00     0.016 A 
ATOM     36  C   UNL A   1      40.458  26.440  27.073  1.00  0.00     0.016 A 
ATOM     37  C   UNL A   1      38.977  26.226  29.443  1.00  0.00     0.010 A 
ATOM     38  C   UNL A   1      40.509  27.441  28.003  1.00  0.00     0.010 A 
ATOM     39  C   UNL A   1      39.714  27.372  29.158  1.00  0.00    -0.014 A 
BRANCH  39  40
ATOM     40  C   UNL A   1      39.506  28.680  29.769  1.00  0.00     0.031 A 
ATOM     41  C   UNL A   1      38.656  29.731  29.181  1.00  0.00     0.074 A 
ATOM     42  C   UNL A   1      40.149  28.764  30.961  1.00  0.00     0.049 A 
ATOM     43  N   UNL A   1      38.897  30.990  29.300  1.00  0.00    -0.248 NA
ATOM     44  C   UNL A   1      37.454  29.484  28.379  1.00  0.00     0.031 C 
ATOM     45  C   UNL A   1      40.145  29.745  32.023  1.00  0.00     0.029 A 
ATOM     46  N   UNL A   1      41.160  27.880  31.355  1.00  0.00    -0.354 N 
ATOM     47  C   UNL A   1      37.732  31.661  28.977  1.00  0.00     0.074 A 
ATOM     48  C   UNL A   1      36.933  30.713  28.250  1.00  0.00     0.031 C 
ATOM     49  C   UNL A   1      41.289  29.603  32.732  1.00  0.00     0.029 A 
ATOM     50  C   UNL A   1      42.105  28.585  32.071  1.00  0.00     0.049 A 
ATOM     51  H   UNL A   1      41.192  26.917  31.156  1.00  0.00     0.167 HD
ATOM     52  C   UNL A   1      37.476  32.861  29.572  1.00  0.00     0.034 A 
ATOM     53  C   UNL A   1      43.314  28.746  31.454  1.00  0.00     0.034 A 
ATOM     54  C   UNL A   1      38.566  33.195  30.479  1.00  0.00     0.049 A 
ATOM     55  C   UNL A   1      43.492  30.198  31.096  1.00  0.00     0.074 A 
ATOM     56  C   UNL A   1      38.716  33.018  31.844  1.00  0.00     0.029 A 
ATOM     57  N   UNL A   1      39.834  33.402  29.961  1.00  0.00    -0.354 N 
ATOM     58  N   UNL A   1      42.513  31.013  30.799  1.00  0.00    -0.248 NA
ATOM     59  C   UNL A   1      44.783  30.862  31.184  1.00  0.00     0.031 C 
ATOM     60  C   UNL A   1      40.106  33.037  32.130  1.00  0.00     0.029 A 
ATOM     61  C   UNL A   1      40.789  33.228  30.940  1.00  0.00     0.049 A 
ATOM     62  H   UNL A   1      40.025  33.639  29.025  1.00  0.00     0.167 HD
ATOM     63  C   UNL A   1      42.994  32.297  30.771  1.00  0.00     0.074 A 
ATOM     64  C   UNL A   1      44.423  32.142  30.998  1.00  0.00     0.031 C 
ATOM     65  C   UNL A   1      42.192  33.396  30.620  1.00  0.00     0.034 A 
BRANCH  52  66
ATOM     66  C   UNL A   1      36.140  33.561  29.628  1.00  0.00     0.023 A 
ATOM     67  C   UNL A   1      35.627  33.922  30.894  1.00  0.00     0.031 A 
ATOM     68  C   UNL A   1      35.342  33.916  28.527  1.00  0.00     0.131 A 
ATOM     69  C   UNL A   1      34.376  34.540  31.048  1.00  0.00     0.055 A 
ATOM     70  C   UNL A   1      34.082  34.526  28.677  1.00  0.00     0.041 A 
ATOM     71  F   UNL A   1      35.760  33.715  27.267  1.00  0.00    -0.206 F 
ATOM     72  C   UNL A   1      33.590  34.837  29.942  1.00  0.00     0.022 A 
BRANCH  69  73
ATOM     73  S   UNL A   1      33.815  34.946  32.726  1.00  0.00     0.124 S 
ATOM     74  O   UNL A   1      33.570  33.624  33.295  1.00  0.00    -0.237 OA
ATOM     75  O   UNL A   1      34.954  35.678  33.268  1.00  0.00    -0.237 OA
ATOM     76  O   UNL A   1      32.617  35.750  32.498  1.00  0.00    -0.744 OA
ENDBRANCH  69  73
ENDBRANCH  52  66
BRANCH  53  77
ATOM     77  C   UNL A   1      43.763  27.553  30.633  1.00  0.00     0.023 A 
ATOM     78  C   UNL A   1      43.754  27.682  29.218  1.00  0.00     0.031 A 
ATOM     79  C   UNL A   1      44.435  26.438  31.152  1.00  0.00     0.131 A 
ATOM     80  C   UNL A   1      44.511  26.830  28.395  1.00  0.00     0.055 A 
ATOM     81  C   UNL A   1      45.128  25.538  30.318  1.00  0.00     0.041 A 
ATOM     82  F   UNL A   1      44.507  26.234  32.475  1.00  0.00    -0.206 F 
ATOM     83  C   UNL A   1      45.201  25.749  28.937  1.00  0.00     0.022 A 
BRANCH  80  84
ATOM     84  S   UNL A   1      44.781  27.331  26.663  1.00  0.00     0.124 S 
ATOM     85  O   UNL A   1      44.347  26.151  25.926  1.00  0.00    -0.237 OA
ATOM     86  O   UNL A   1      43.928  28.512  26.537  1.00  0.00    -0.237 OA
ATOM     87  O   UNL A   1      46.209  27.621  26.602  1.00  0.00    -0.744 OA
ENDBRANCH  80  84
ENDBRANCH  53  77
BRANCH  65  88
ATOM     88  C   UNL A   1      42.669  34.782  30.260  1.00  0.00     0.023 A 
ATOM     89  C   UNL A   1      42.448  35.338  29.001  1.00  0.00     0.031 A 
ATOM     90  C   UNL A   1      43.292  35.639  31.206  1.00  0.00     0.131 A 
ATOM     91  C   UNL A   1      42.955  36.598  28.665  1.00  0.00     0.055 A 
ATOM     92  C   UNL A   1      43.678  36.946  30.908  1.00  0.00     0.041 A 
ATOM     93  F   UNL A   1      43.544  35.257  32.466  1.00  0.00    -0.206 F 
ATOM     94  C   UNL A   1      43.540  37.425  29.616  1.00  0.00     0.022 A 
BRANCH  91  95
ATOM     95  S   UNL A   1      42.935  37.049  26.919  1.00  0.00     0.124 S 
ATOM     96  O   UNL A   1      44.281  37.589  26.738  1.00  0.00    -0.237 OA
ATOM     97  O   UNL A   1      42.677  35.770  26.266  1.00  0.00    -0.237 OA
ATOM     98  O   UNL A   1      41.855  38.027  26.829  1.00  0.00    -0.744 OA
ENDBRANCH  91  95
ENDBRANCH  65  88
ENDBRANCH  39  40
ENDBRANCH  32  34
ENDBRANCH  31  32
ENDBRANCH  30  31
ENDBRANCH   1  30
TORSDOF 17
ENDMDL
