MODEL 1
REMARK VINA RESULT:     -12.2      0.000      0.000
REMARK SMILES O=C(OCCOC(=O)c1cc(Cl)cn(Cc2ccc(Cl)cc2)c1=O)c1ccc(-c2c3nc(c(-c4cc(S(=O)(=O)[O-])ccc4F)c4ccc([nH]4)c(-c4cc(S(=O)(=O)[O-])ccc4F)c4nc(c(-c5cc(S(=O)(=O)[O-])ccc5F)c5ccc2[nH]5)C=C4)C=C3)cc1
REMARK SMILES IDX 4 1 3 2 2 3 1 4 25 5 26 6 87 7 27 8 86 9 28 10 29 11 30 12
REMARK SMILES IDX 80 13 31 14 85 15 79 16 81 17 32 18 84 19 78 20 77 21 33 23
REMARK SMILES IDX 65 24 45 25 64 26 46 27 49 28 63 29 82 30 47 31 48 32 62 34
REMARK SMILES IDX 83 35 50 36 34 37 35 38 43 39 36 40 42 41 44 42 41 43 37 44
REMARK SMILES IDX 38 45 39 46 40 47 66 48 67 49 75 50 68 51 74 52 76 53 73 54
REMARK SMILES IDX 69 55 70 56 71 57 72 58 51 59 52 60 60 61 53 62 59 63 61 64
REMARK SMILES IDX 58 65 54 66 55 67 56 68 57 69 5 70 6 71 7 72 8 73 9 74 10 75
REMARK SMILES IDX 23 76 11 77 14 78 24 79 12 80 13 81 15 82 16 83 17 84 22 85
REMARK SMILES IDX 18 86 21 87 19 88 20 89
REMARK H PARENT 81 22 49 33
REMARK Flexibility Score: inf
ROOT
ATOM      1  C   UNL A   1      43.907  21.607  25.116  1.00  0.00     0.275 C 
ENDROOT
BRANCH   1   2
ATOM      2  O   UNL A   1      43.399  22.897  24.731  1.00  0.00    -0.458 OA
BRANCH   2   3
ATOM      3  C   UNL A   1      43.962  24.117  24.918  1.00  0.00     0.338 C 
ATOM      4  O   UNL A   1      45.044  24.359  24.387  1.00  0.00    -0.246 OA
BRANCH   3   5
ATOM      5  C   UNL A   1      43.433  25.100  25.912  1.00  0.00     0.060 A 
ATOM      6  C   UNL A   1      42.677  24.561  26.965  1.00  0.00     0.016 A 
ATOM      7  C   UNL A   1      43.650  26.479  25.902  1.00  0.00     0.016 A 
ATOM      8  C   UNL A   1      42.062  25.389  27.909  1.00  0.00     0.010 A 
ATOM      9  C   UNL A   1      43.047  27.312  26.857  1.00  0.00     0.010 A 
ATOM     10  C   UNL A   1      42.232  26.780  27.857  1.00  0.00    -0.014 A 
BRANCH  10  11
ATOM     11  C   UNL A   1      41.734  27.627  28.968  1.00  0.00     0.031 A 
ATOM     12  C   UNL A   1      40.581  28.574  28.821  1.00  0.00     0.074 A 
ATOM     13  C   UNL A   1      42.364  27.532  30.155  1.00  0.00     0.049 A 
ATOM     14  N   UNL A   1      39.888  29.148  29.771  1.00  0.00    -0.248 NA
ATOM     15  C   UNL A   1      40.115  28.900  27.465  1.00  0.00     0.031 C 
ATOM     16  C   UNL A   1      43.548  26.708  30.403  1.00  0.00     0.029 A 
ATOM     17  N   UNL A   1      42.121  28.144  31.357  1.00  0.00    -0.354 N 
ATOM     18  C   UNL A   1      38.838  29.801  29.139  1.00  0.00     0.074 A 
ATOM     19  C   UNL A   1      39.040  29.643  27.718  1.00  0.00     0.031 C 
ATOM     20  C   UNL A   1      43.941  26.882  31.671  1.00  0.00     0.029 A 
ATOM     21  C   UNL A   1      43.059  27.850  32.317  1.00  0.00     0.049 A 
ATOM     22  H   UNL A   1      41.351  28.735  31.517  1.00  0.00     0.167 HD
ATOM     23  C   UNL A   1      37.778  30.412  29.715  1.00  0.00     0.034 A 
ATOM     24  C   UNL A   1      43.213  28.322  33.569  1.00  0.00     0.034 A 
ATOM     25  C   UNL A   1      37.674  30.676  31.125  1.00  0.00     0.049 A 
ATOM     26  C   UNL A   1      42.152  29.223  34.136  1.00  0.00     0.074 A 
ATOM     27  C   UNL A   1      36.620  31.253  31.810  1.00  0.00     0.029 A 
ATOM     28  N   UNL A   1      38.683  30.455  32.048  1.00  0.00    -0.354 N 
ATOM     29  N   UNL A   1      41.023  29.604  33.584  1.00  0.00    -0.248 NA
ATOM     30  C   UNL A   1      42.360  29.743  35.492  1.00  0.00     0.031 C 
ATOM     31  C   UNL A   1      37.031  31.466  33.127  1.00  0.00     0.029 A 
ATOM     32  C   UNL A   1      38.316  30.969  33.279  1.00  0.00     0.049 A 
ATOM     33  H   UNL A   1      39.535  30.001  31.856  1.00  0.00     0.167 HD
ATOM     34  C   UNL A   1      40.373  30.384  34.534  1.00  0.00     0.074 A 
ATOM     35  C   UNL A   1      41.232  30.412  35.701  1.00  0.00     0.031 C 
ATOM     36  C   UNL A   1      39.171  31.008  34.443  1.00  0.00     0.034 A 
BRANCH  23  37
ATOM     37  C   UNL A   1      36.585  30.761  28.870  1.00  0.00     0.023 A 
ATOM     38  C   UNL A   1      35.988  32.030  28.914  1.00  0.00     0.031 A 
ATOM     39  C   UNL A   1      35.915  29.725  28.194  1.00  0.00     0.131 A 
ATOM     40  C   UNL A   1      34.742  32.224  28.297  1.00  0.00     0.055 A 
ATOM     41  C   UNL A   1      34.686  29.926  27.568  1.00  0.00     0.041 A 
ATOM     42  F   UNL A   1      36.427  28.486  28.195  1.00  0.00    -0.206 F 
ATOM     43  C   UNL A   1      34.089  31.180  27.625  1.00  0.00     0.022 A 
BRANCH  40  44
ATOM     44  S   UNL A   1      33.873  33.812  28.413  1.00  0.00     0.124 S 
ATOM     45  O   UNL A   1      34.809  34.712  27.741  1.00  0.00    -0.237 OA
ATOM     46  O   UNL A   1      32.635  33.543  27.685  1.00  0.00    -0.237 OA
ATOM     47  O   UNL A   1      33.727  34.026  29.848  1.00  0.00    -0.744 OA
ENDBRANCH  40  44
ENDBRANCH  23  37
BRANCH  24  48
ATOM     48  C   UNL A   1      44.420  27.900  34.336  1.00  0.00     0.023 A 
ATOM     49  C   UNL A   1      44.339  26.813  35.229  1.00  0.00     0.031 A 
ATOM     50  C   UNL A   1      45.597  28.661  34.324  1.00  0.00     0.131 A 
ATOM     51  C   UNL A   1      45.373  26.581  36.143  1.00  0.00     0.055 A 
ATOM     52  C   UNL A   1      46.658  28.379  35.186  1.00  0.00     0.041 A 
ATOM     53  F   UNL A   1      45.713  29.714  33.501  1.00  0.00    -0.206 F 
ATOM     54  C   UNL A   1      46.539  27.351  36.119  1.00  0.00     0.022 A 
BRANCH  51  55
ATOM     55  S   UNL A   1      45.155  25.399  37.504  1.00  0.00     0.124 S 
ATOM     56  O   UNL A   1      43.954  25.908  38.157  1.00  0.00    -0.237 OA
ATOM     57  O   UNL A   1      44.999  24.138  36.784  1.00  0.00    -0.237 OA
ATOM     58  O   UNL A   1      46.392  25.522  38.269  1.00  0.00    -0.744 OA
ENDBRANCH  51  55
ENDBRANCH  24  48
BRANCH  36  59
ATOM     59  C   UNL A   1      38.684  31.817  35.618  1.00  0.00     0.023 A 
ATOM     60  C   UNL A   1      38.159  31.167  36.751  1.00  0.00     0.031 A 
ATOM     61  C   UNL A   1      38.579  33.215  35.543  1.00  0.00     0.131 A 
ATOM     62  C   UNL A   1      37.494  31.910  37.733  1.00  0.00     0.055 A 
ATOM     63  C   UNL A   1      37.967  33.957  36.554  1.00  0.00     0.041 A 
ATOM     64  F   UNL A   1      39.059  33.879  34.478  1.00  0.00    -0.206 F 
ATOM     65  C   UNL A   1      37.404  33.302  37.646  1.00  0.00     0.022 A 
BRANCH  62  66
ATOM     66  S   UNL A   1      36.622  31.085  39.093  1.00  0.00     0.124 S 
ATOM     67  O   UNL A   1      35.431  31.919  39.235  1.00  0.00    -0.237 OA
ATOM     68  O   UNL A   1      36.389  29.751  38.546  1.00  0.00    -0.237 OA
ATOM     69  O   UNL A   1      37.564  31.149  40.206  1.00  0.00    -0.744 OA
ENDBRANCH  62  66
ENDBRANCH  36  59
ENDBRANCH  10  11
ENDBRANCH   3   5
ENDBRANCH   2   3
ENDBRANCH   1   2
BRANCH   1  70
ATOM     70  C   UNL A   1      42.888  20.712  25.823  1.00  0.00     0.275 C 
BRANCH  70  71
ATOM     71  O   UNL A   1      41.534  21.057  25.504  1.00  0.00    -0.458 OA
BRANCH  71  72
ATOM     72  C   UNL A   1      40.629  20.868  26.499  1.00  0.00     0.343 C 
ATOM     73  O   UNL A   1      40.786  20.157  27.485  1.00  0.00    -0.246 OA
BRANCH  72  74
ATOM     74  C   UNL A   1      39.493  21.786  26.338  1.00  0.00     0.126 A 
ATOM     75  C   UNL A   1      39.617  22.994  26.917  1.00  0.00     0.043 A 
ATOM     76  C   UNL A   1      38.282  21.457  25.529  1.00  0.00     0.265 A 
ATOM     77  C   UNL A   1      38.625  24.013  26.702  1.00  0.00     0.058 A 
ATOM     78  N   UNL A   1      37.348  22.494  25.391  1.00  0.00    -0.309 N 
ATOM     79  O   UNL A   1      38.145  20.335  25.051  1.00  0.00    -0.268 OA
ATOM     80  Cl  UNL A   1      38.893  25.580  27.356  1.00  0.00    -0.083 Cl
ATOM     81  C   UNL A   1      37.554  23.749  25.948  1.00  0.00     0.110 A 
BRANCH  78  82
ATOM     82  C   UNL A   1      36.115  22.254  24.630  1.00  0.00     0.161 C 
BRANCH  82  83
ATOM     83  C   UNL A   1      35.092  23.354  24.804  1.00  0.00    -0.028 A 
ATOM     84  C   UNL A   1      34.780  24.219  23.745  1.00  0.00     0.007 A 
ATOM     85  C   UNL A   1      34.414  23.493  26.024  1.00  0.00     0.007 A 
ATOM     86  C   UNL A   1      33.820  25.217  23.908  1.00  0.00     0.021 A 
ATOM     87  C   UNL A   1      33.437  24.477  26.179  1.00  0.00     0.021 A 
ATOM     88  C   UNL A   1      33.150  25.339  25.123  1.00  0.00     0.041 A 
ATOM     89  Cl  UNL A   1      31.958  26.565  25.320  1.00  0.00    -0.084 Cl
ENDBRANCH  82  83
ENDBRANCH  78  82
ENDBRANCH  72  74
ENDBRANCH  71  72
ENDBRANCH  70  71
ENDBRANCH   1  70
TORSDOF 16
ENDMDL
MODEL 2
REMARK VINA RESULT:     -12.0      4.076     11.520
REMARK SMILES O=C(OCCOC(=O)c1cc(Cl)cn(Cc2ccc(Cl)cc2)c1=O)c1ccc(-c2c3nc(c(-c4cc(S(=O)(=O)[O-])ccc4F)c4ccc([nH]4)c(-c4cc(S(=O)(=O)[O-])ccc4F)c4nc(c(-c5cc(S(=O)(=O)[O-])ccc5F)c5ccc2[nH]5)C=C4)C=C3)cc1
REMARK SMILES IDX 4 1 3 2 2 3 1 4 25 5 26 6 87 7 27 8 86 9 28 10 29 11 30 12
REMARK SMILES IDX 80 13 31 14 85 15 79 16 81 17 32 18 84 19 78 20 77 21 33 23
REMARK SMILES IDX 65 24 45 25 64 26 46 27 49 28 63 29 82 30 47 31 48 32 62 34
REMARK SMILES IDX 83 35 50 36 34 37 35 38 43 39 36 40 42 41 44 42 41 43 37 44
REMARK SMILES IDX 38 45 39 46 40 47 66 48 67 49 75 50 68 51 74 52 76 53 73 54
REMARK SMILES IDX 69 55 70 56 71 57 72 58 51 59 52 60 60 61 53 62 59 63 61 64
REMARK SMILES IDX 58 65 54 66 55 67 56 68 57 69 5 70 6 71 7 72 8 73 9 74 10 75
REMARK SMILES IDX 23 76 11 77 14 78 24 79 12 80 13 81 15 82 16 83 17 84 22 85
REMARK SMILES IDX 18 86 21 87 19 88 20 89
REMARK H PARENT 81 22 49 33
REMARK Flexibility Score: inf
ROOT
ATOM      1  C   UNL A   1      33.517  33.993  28.398  1.00  0.00     0.275 C 
ENDROOT
BRANCH   1   2
ATOM      2  O   UNL A   1      34.401  33.116  27.676  1.00  0.00    -0.458 OA
BRANCH   2   3
ATOM      3  C   UNL A   1      34.492  31.765  27.744  1.00  0.00     0.338 C 
ATOM      4  O   UNL A   1      33.475  31.093  27.586  1.00  0.00    -0.246 OA
BRANCH   3   5
ATOM      5  C   UNL A   1      35.728  31.068  28.213  1.00  0.00     0.060 A 
ATOM      6  C   UNL A   1      36.843  31.887  28.448  1.00  0.00     0.016 A 
ATOM      7  C   UNL A   1      35.857  29.700  28.465  1.00  0.00     0.016 A 
ATOM      8  C   UNL A   1      38.077  31.339  28.811  1.00  0.00     0.010 A 
ATOM      9  C   UNL A   1      37.090  29.148  28.844  1.00  0.00     0.010 A 
ATOM     10  C   UNL A   1      38.216  29.957  29.002  1.00  0.00    -0.014 A 
BRANCH  10  11
ATOM     11  C   UNL A   1      39.475  29.413  29.567  1.00  0.00     0.031 A 
ATOM     12  C   UNL A   1      40.213  30.066  30.698  1.00  0.00     0.074 A 
ATOM     13  C   UNL A   1      39.966  28.284  29.021  1.00  0.00     0.049 A 
ATOM     14  N   UNL A   1      41.151  29.548  31.448  1.00  0.00    -0.248 NA
ATOM     15  C   UNL A   1      39.851  31.442  31.065  1.00  0.00     0.031 C 
ATOM     16  C   UNL A   1      39.385  27.599  27.867  1.00  0.00     0.029 A 
ATOM     17  N   UNL A   1      41.067  27.532  29.341  1.00  0.00    -0.354 N 
ATOM     18  C   UNL A   1      41.404  30.480  32.446  1.00  0.00     0.074 A 
ATOM     19  C   UNL A   1      40.599  31.642  32.147  1.00  0.00     0.031 C 
ATOM     20  C   UNL A   1      40.146  26.541  27.560  1.00  0.00     0.029 A 
ATOM     21  C   UNL A   1      41.283  26.488  28.475  1.00  0.00     0.049 A 
ATOM     22  H   UNL A   1      41.645  27.722  30.114  1.00  0.00     0.167 HD
ATOM     23  C   UNL A   1      42.189  30.332  33.536  1.00  0.00     0.034 A 
ATOM     24  C   UNL A   1      42.294  25.600  28.403  1.00  0.00     0.034 A 
ATOM     25  C   UNL A   1      43.085  29.225  33.735  1.00  0.00     0.049 A 
ATOM     26  C   UNL A   1      43.330  25.597  29.491  1.00  0.00     0.074 A 
ATOM     27  C   UNL A   1      43.891  28.964  34.827  1.00  0.00     0.029 A 
ATOM     28  N   UNL A   1      43.349  28.243  32.794  1.00  0.00    -0.354 N 
ATOM     29  N   UNL A   1      43.378  26.336  30.575  1.00  0.00    -0.248 NA
ATOM     30  C   UNL A   1      44.432  24.636  29.372  1.00  0.00     0.031 C 
ATOM     31  C   UNL A   1      44.710  27.880  34.507  1.00  0.00     0.029 A 
ATOM     32  C   UNL A   1      44.374  27.427  33.240  1.00  0.00     0.049 A 
ATOM     33  H   UNL A   1      42.878  28.141  31.936  1.00  0.00     0.167 HD
ATOM     34  C   UNL A   1      44.499  25.912  31.281  1.00  0.00     0.074 A 
ATOM     35  C   UNL A   1      45.094  24.843  30.504  1.00  0.00     0.031 C 
ATOM     36  C   UNL A   1      44.977  26.366  32.467  1.00  0.00     0.034 A 
BRANCH  23  37
ATOM     37  C   UNL A   1      42.070  31.319  34.664  1.00  0.00     0.023 A 
ATOM     38  C   UNL A   1      43.081  32.250  34.948  1.00  0.00     0.031 A 
ATOM     39  C   UNL A   1      41.029  31.152  35.596  1.00  0.00     0.131 A 
ATOM     40  C   UNL A   1      43.030  32.974  36.149  1.00  0.00     0.055 A 
ATOM     41  C   UNL A   1      40.973  31.885  36.780  1.00  0.00     0.041 A 
ATOM     42  F   UNL A   1      40.088  30.220  35.384  1.00  0.00    -0.206 F 
ATOM     43  C   UNL A   1      41.983  32.797  37.065  1.00  0.00     0.022 A 
BRANCH  40  44
ATOM     44  S   UNL A   1      44.363  34.112  36.619  1.00  0.00     0.124 S 
ATOM     45  O   UNL A   1      44.915  34.475  35.315  1.00  0.00    -0.237 OA
ATOM     46  O   UNL A   1      43.635  35.175  37.306  1.00  0.00    -0.237 OA
ATOM     47  O   UNL A   1      45.236  33.299  37.458  1.00  0.00    -0.744 OA
ENDBRANCH  40  44
ENDBRANCH  23  37
BRANCH  24  48
ATOM     48  C   UNL A   1      42.311  24.647  27.257  1.00  0.00     0.023 A 
ATOM     49  C   UNL A   1      41.492  23.500  27.284  1.00  0.00     0.031 A 
ATOM     50  C   UNL A   1      43.248  24.766  26.221  1.00  0.00     0.131 A 
ATOM     51  C   UNL A   1      41.697  22.473  26.356  1.00  0.00     0.055 A 
ATOM     52  C   UNL A   1      43.396  23.774  25.251  1.00  0.00     0.041 A 
ATOM     53  F   UNL A   1      44.058  25.834  26.162  1.00  0.00    -0.206 F 
ATOM     54  C   UNL A   1      42.637  22.608  25.330  1.00  0.00     0.022 A 
BRANCH  51  55
ATOM     55  S   UNL A   1      40.882  20.863  26.565  1.00  0.00     0.124 S 
ATOM     56  O   UNL A   1      41.753  19.982  25.796  1.00  0.00    -0.237 OA
ATOM     57  O   UNL A   1      40.927  20.691  28.015  1.00  0.00    -0.237 OA
ATOM     58  O   UNL A   1      39.549  21.077  26.010  1.00  0.00    -0.744 OA
ENDBRANCH  51  55
ENDBRANCH  24  48
BRANCH  36  59
ATOM     59  C   UNL A   1      46.233  25.747  33.027  1.00  0.00     0.023 A 
ATOM     60  C   UNL A   1      47.473  25.988  32.407  1.00  0.00     0.031 A 
ATOM     61  C   UNL A   1      46.176  24.790  34.054  1.00  0.00     0.131 A 
ATOM     62  C   UNL A   1      48.593  25.234  32.776  1.00  0.00     0.055 A 
ATOM     63  C   UNL A   1      47.309  24.083  34.458  1.00  0.00     0.041 A 
ATOM     64  F   UNL A   1      45.013  24.521  34.670  1.00  0.00    -0.206 F 
ATOM     65  C   UNL A   1      48.520  24.290  33.804  1.00  0.00     0.022 A 
BRANCH  62  66
ATOM     66  S   UNL A   1      50.150  25.368  31.854  1.00  0.00     0.124 S 
ATOM     67  O   UNL A   1      50.894  26.334  32.658  1.00  0.00    -0.237 OA
ATOM     68  O   UNL A   1      50.653  23.998  31.898  1.00  0.00    -0.237 OA
ATOM     69  O   UNL A   1      49.739  25.841  30.536  1.00  0.00    -0.744 OA
ENDBRANCH  62  66
ENDBRANCH  36  59
ENDBRANCH  10  11
ENDBRANCH   3   5
ENDBRANCH   2   3
ENDBRANCH   1   2
BRANCH   1  70
ATOM     70  C   UNL A   1      34.218  34.916  29.396  1.00  0.00     0.275 C 
BRANCH  70  71
ATOM     71  O   UNL A   1      34.993  34.197  30.363  1.00  0.00    -0.458 OA
BRANCH  71  72
ATOM     72  C   UNL A   1      34.479  34.163  31.620  1.00  0.00     0.343 C 
ATOM     73  O   UNL A   1      33.370  34.566  31.952  1.00  0.00    -0.246 OA
BRANCH  72  74
ATOM     74  C   UNL A   1      35.360  33.397  32.513  1.00  0.00     0.126 A 
ATOM     75  C   UNL A   1      35.604  32.122  32.159  1.00  0.00     0.043 A 
ATOM     76  C   UNL A   1      36.020  33.986  33.715  1.00  0.00     0.265 A 
ATOM     77  C   UNL A   1      36.561  31.332  32.885  1.00  0.00     0.058 A 
ATOM     78  N   UNL A   1      36.917  33.143  34.386  1.00  0.00    -0.309 N 
ATOM     79  O   UNL A   1      35.751  35.131  34.068  1.00  0.00    -0.268 OA
ATOM     80  Cl  UNL A   1      36.933  29.753  32.317  1.00  0.00    -0.083 Cl
ATOM     81  C   UNL A   1      37.191  31.857  33.941  1.00  0.00     0.110 A 
BRANCH  78  82
ATOM     82  C   UNL A   1      37.596  33.630  35.593  1.00  0.00     0.161 C 
BRANCH  82  83
ATOM     83  C   UNL A   1      38.839  34.434  35.287  1.00  0.00    -0.028 A 
ATOM     84  C   UNL A   1      39.340  35.363  36.210  1.00  0.00     0.007 A 
ATOM     85  C   UNL A   1      39.527  34.228  34.082  1.00  0.00     0.007 A 
ATOM     86  C   UNL A   1      40.499  36.085  35.928  1.00  0.00     0.021 A 
ATOM     87  C   UNL A   1      40.700  34.934  33.810  1.00  0.00     0.021 A 
ATOM     88  C   UNL A   1      41.176  35.865  34.731  1.00  0.00     0.041 A 
ATOM     89  Cl  UNL A   1      42.612  36.750  34.387  1.00  0.00    -0.084 Cl
ENDBRANCH  82  83
ENDBRANCH  78  82
ENDBRANCH  72  74
ENDBRANCH  71  72
ENDBRANCH  70  71
ENDBRANCH   1  70
TORSDOF 16
ENDMDL
MODEL 3
REMARK VINA RESULT:     -11.9      2.049      2.308
REMARK SMILES O=C(OCCOC(=O)c1cc(Cl)cn(Cc2ccc(Cl)cc2)c1=O)c1ccc(-c2c3nc(c(-c4cc(S(=O)(=O)[O-])ccc4F)c4ccc([nH]4)c(-c4cc(S(=O)(=O)[O-])ccc4F)c4nc(c(-c5cc(S(=O)(=O)[O-])ccc5F)c5ccc2[nH]5)C=C4)C=C3)cc1
REMARK SMILES IDX 4 1 3 2 2 3 1 4 25 5 26 6 87 7 27 8 86 9 28 10 29 11 30 12
REMARK SMILES IDX 80 13 31 14 85 15 79 16 81 17 32 18 84 19 78 20 77 21 33 23
REMARK SMILES IDX 65 24 45 25 64 26 46 27 49 28 63 29 82 30 47 31 48 32 62 34
REMARK SMILES IDX 83 35 50 36 34 37 35 38 43 39 36 40 42 41 44 42 41 43 37 44
REMARK SMILES IDX 38 45 39 46 40 47 66 48 67 49 75 50 68 51 74 52 76 53 73 54
REMARK SMILES IDX 69 55 70 56 71 57 72 58 51 59 52 60 60 61 53 62 59 63 61 64
REMARK SMILES IDX 58 65 54 66 55 67 56 68 57 69 5 70 6 71 7 72 8 73 9 74 10 75
REMARK SMILES IDX 23 76 11 77 14 78 24 79 12 80 13 81 15 82 16 83 17 84 22 85
REMARK SMILES IDX 18 86 21 87 19 88 20 89
REMARK H PARENT 81 22 49 33
REMARK Flexibility Score: inf
ROOT
ATOM      1  C   UNL A   1      43.522  21.586  26.106  1.00  0.00     0.275 C 
ENDROOT
BRANCH   1   2
ATOM      2  O   UNL A   1      43.040  22.689  25.319  1.00  0.00    -0.458 OA
BRANCH   2   3
ATOM      3  C   UNL A   1      43.492  23.967  25.288  1.00  0.00     0.338 C 
ATOM      4  O   UNL A   1      44.457  24.238  24.575  1.00  0.00    -0.246 OA
BRANCH   3   5
ATOM      5  C   UNL A   1      43.010  25.012  26.242  1.00  0.00     0.060 A 
ATOM      6  C   UNL A   1      42.448  24.539  27.438  1.00  0.00     0.016 A 
ATOM      7  C   UNL A   1      43.099  26.394  26.063  1.00  0.00     0.016 A 
ATOM      8  C   UNL A   1      41.889  25.418  28.370  1.00  0.00     0.010 A 
ATOM      9  C   UNL A   1      42.552  27.281  27.004  1.00  0.00     0.010 A 
ATOM     10  C   UNL A   1      41.925  26.803  28.156  1.00  0.00    -0.014 A 
BRANCH  10  11
ATOM     11  C   UNL A   1      41.500  27.729  29.235  1.00  0.00     0.031 A 
ATOM     12  C   UNL A   1      40.350  28.679  29.090  1.00  0.00     0.074 A 
ATOM     13  C   UNL A   1      42.198  27.705  30.386  1.00  0.00     0.049 A 
ATOM     14  N   UNL A   1      39.719  29.325  30.038  1.00  0.00    -0.248 NA
ATOM     15  C   UNL A   1      39.809  28.921  27.745  1.00  0.00     0.031 C 
ATOM     16  C   UNL A   1      43.386  26.884  30.621  1.00  0.00     0.029 A 
ATOM     17  N   UNL A   1      42.031  28.399  31.557  1.00  0.00    -0.354 N 
ATOM     18  C   UNL A   1      38.640  29.948  29.426  1.00  0.00     0.074 A 
ATOM     19  C   UNL A   1      38.758  29.694  28.009  1.00  0.00     0.031 C 
ATOM     20  C   UNL A   1      43.854  27.136  31.849  1.00  0.00     0.029 A 
ATOM     21  C   UNL A   1      43.021  28.157  32.479  1.00  0.00     0.049 A 
ATOM     22  H   UNL A   1      41.277  29.009  31.720  1.00  0.00     0.167 HD
ATOM     23  C   UNL A   1      37.622  30.610  30.019  1.00  0.00     0.034 A 
ATOM     24  C   UNL A   1      43.252  28.709  33.685  1.00  0.00     0.034 A 
ATOM     25  C   UNL A   1      37.603  30.970  31.411  1.00  0.00     0.049 A 
ATOM     26  C   UNL A   1      42.235  29.660  34.250  1.00  0.00     0.074 A 
ATOM     27  C   UNL A   1      36.597  31.605  32.116  1.00  0.00     0.029 A 
ATOM     28  N   UNL A   1      38.662  30.797  32.287  1.00  0.00    -0.354 N 
ATOM     29  N   UNL A   1      41.080  30.018  33.740  1.00  0.00    -0.248 NA
ATOM     30  C   UNL A   1      42.526  30.266  35.554  1.00  0.00     0.031 C 
ATOM     31  C   UNL A   1      37.085  31.899  33.390  1.00  0.00     0.029 A 
ATOM     32  C   UNL A   1      38.373  31.396  33.500  1.00  0.00     0.049 A 
ATOM     33  H   UNL A   1      39.497  30.319  32.078  1.00  0.00     0.167 HD
ATOM     34  C   UNL A   1      40.493  30.868  34.671  1.00  0.00     0.074 A 
ATOM     35  C   UNL A   1      41.420  30.963  35.782  1.00  0.00     0.031 C 
ATOM     36  C   UNL A   1      39.294  31.501  34.608  1.00  0.00     0.034 A 
BRANCH  23  37
ATOM     37  C   UNL A   1      36.385  30.919  29.222  1.00  0.00     0.023 A 
ATOM     38  C   UNL A   1      35.618  29.910  28.619  1.00  0.00     0.031 A 
ATOM     39  C   UNL A   1      36.123  32.258  28.881  1.00  0.00     0.131 A 
ATOM     40  C   UNL A   1      34.627  30.265  27.690  1.00  0.00     0.055 A 
ATOM     41  C   UNL A   1      35.126  32.607  27.971  1.00  0.00     0.041 A 
ATOM     42  F   UNL A   1      36.886  33.238  29.388  1.00  0.00    -0.206 F 
ATOM     43  C   UNL A   1      34.377  31.606  27.365  1.00  0.00     0.022 A 
BRANCH  40  44
ATOM     44  S   UNL A   1      33.678  29.001  26.800  1.00  0.00     0.124 S 
ATOM     45  O   UNL A   1      32.557  28.775  27.712  1.00  0.00    -0.237 OA
ATOM     46  O   UNL A   1      33.341  29.685  25.555  1.00  0.00    -0.237 OA
ATOM     47  O   UNL A   1      34.611  27.887  26.676  1.00  0.00    -0.744 OA
ENDBRANCH  40  44
ENDBRANCH  23  37
BRANCH  24  48
ATOM     48  C   UNL A   1      44.498  28.322  34.408  1.00  0.00     0.023 A 
ATOM     49  C   UNL A   1      44.501  27.188  35.243  1.00  0.00     0.031 A 
ATOM     50  C   UNL A   1      45.626  29.154  34.417  1.00  0.00     0.131 A 
ATOM     51  C   UNL A   1      45.566  26.973  36.126  1.00  0.00     0.055 A 
ATOM     52  C   UNL A   1      46.720  28.894  35.244  1.00  0.00     0.041 A 
ATOM     53  F   UNL A   1      45.662  30.254  33.648  1.00  0.00    -0.206 F 
ATOM     54  C   UNL A   1      46.682  27.813  36.123  1.00  0.00     0.022 A 
BRANCH  51  55
ATOM     55  S   UNL A   1      45.447  25.711  37.426  1.00  0.00     0.124 S 
ATOM     56  O   UNL A   1      44.211  26.089  38.103  1.00  0.00    -0.237 OA
ATOM     57  O   UNL A   1      45.389  24.479  36.644  1.00  0.00    -0.237 OA
ATOM     58  O   UNL A   1      46.673  25.894  38.197  1.00  0.00    -0.744 OA
ENDBRANCH  51  55
ENDBRANCH  24  48
BRANCH  36  59
ATOM     59  C   UNL A   1      38.884  32.392  35.752  1.00  0.00     0.023 A 
ATOM     60  C   UNL A   1      39.357  33.716  35.818  1.00  0.00     0.031 A 
ATOM     61  C   UNL A   1      38.177  31.882  36.853  1.00  0.00     0.131 A 
ATOM     62  C   UNL A   1      39.173  34.463  36.987  1.00  0.00     0.055 A 
ATOM     63  C   UNL A   1      37.945  32.651  37.994  1.00  0.00     0.041 A 
ATOM     64  F   UNL A   1      37.711  30.621  36.839  1.00  0.00    -0.206 F 
ATOM     65  C   UNL A   1      38.462  33.942  38.072  1.00  0.00     0.022 A 
BRANCH  62  66
ATOM     66  S   UNL A   1      39.953  36.089  37.185  1.00  0.00     0.124 S 
ATOM     67  O   UNL A   1      41.324  35.724  37.533  1.00  0.00    -0.237 OA
ATOM     68  O   UNL A   1      39.781  36.678  35.860  1.00  0.00    -0.237 OA
ATOM     69  O   UNL A   1      39.187  36.720  38.255  1.00  0.00    -0.744 OA
ENDBRANCH  62  66
ENDBRANCH  36  59
ENDBRANCH  10  11
ENDBRANCH   3   5
ENDBRANCH   2   3
ENDBRANCH   1   2
BRANCH   1  70
ATOM     70  C   UNL A   1      42.837  20.250  25.811  1.00  0.00     0.275 C 
BRANCH  70  71
ATOM     71  O   UNL A   1      41.443  20.400  25.511  1.00  0.00    -0.458 OA
BRANCH  71  72
ATOM     72  C   UNL A   1      40.620  20.510  26.586  1.00  0.00     0.343 C 
ATOM     73  O   UNL A   1      40.827  20.039  27.698  1.00  0.00    -0.246 OA
BRANCH  72  74
ATOM     74  C   UNL A   1      39.520  21.439  26.295  1.00  0.00     0.126 A 
ATOM     75  C   UNL A   1      39.623  22.670  26.828  1.00  0.00     0.043 A 
ATOM     76  C   UNL A   1      38.370  21.096  25.406  1.00  0.00     0.265 A 
ATOM     77  C   UNL A   1      38.674  23.696  26.490  1.00  0.00     0.058 A 
ATOM     78  N   UNL A   1      37.472  22.142  25.148  1.00  0.00    -0.309 N 
ATOM     79  O   UNL A   1      38.248  19.956  24.968  1.00  0.00    -0.268 OA
ATOM     80  Cl  UNL A   1      38.922  25.286  27.094  1.00  0.00    -0.083 Cl
ATOM     81  C   UNL A   1      37.660  23.417  25.665  1.00  0.00     0.110 A 
BRANCH  78  82
ATOM     82  C   UNL A   1      36.299  21.890  24.303  1.00  0.00     0.161 C 
BRANCH  82  83
ATOM     83  C   UNL A   1      35.021  22.447  24.886  1.00  0.00    -0.028 A 
ATOM     84  C   UNL A   1      34.297  23.441  24.213  1.00  0.00     0.007 A 
ATOM     85  C   UNL A   1      34.526  21.943  26.098  1.00  0.00     0.007 A 
ATOM     86  C   UNL A   1      33.107  23.935  24.749  1.00  0.00     0.021 A 
ATOM     87  C   UNL A   1      33.324  22.420  26.622  1.00  0.00     0.021 A 
ATOM     88  C   UNL A   1      32.624  23.419  25.949  1.00  0.00     0.041 A 
ATOM     89  Cl  UNL A   1      31.151  24.021  26.605  1.00  0.00    -0.084 Cl
ENDBRANCH  82  83
ENDBRANCH  78  82
ENDBRANCH  72  74
ENDBRANCH  71  72
ENDBRANCH  70  71
ENDBRANCH   1  70
TORSDOF 16
ENDMDL
