MODEL 1
REMARK VINA RESULT:     -10.9      0.000      0.000
REMARK SMILES O=C(OCCOC(=O)c1cc(Br)n(Cc2ccn(C3CCCC3)n2)c1)c1ccc(-c2c3nc(c(-c4cc(S(=O)(=O)[O-])ccc4F)c4ccc([nH]4)c(-c4cc(S(=O)(=O)[O-])ccc4F)c4nc(c(-c5cc(S(=O)(=O)[O-])ccc5F)c5ccc2[nH]5)C=C4)C=C3)cc1
REMARK SMILES IDX 4 1 3 2 2 3 1 4 26 5 27 6 88 7 28 8 87 9 29 10 30 11 31 12
REMARK SMILES IDX 81 13 32 14 86 15 80 16 82 17 33 18 85 19 79 20 78 21 34 23
REMARK SMILES IDX 66 24 46 25 65 26 47 27 50 28 64 29 83 30 48 31 49 32 63 34
REMARK SMILES IDX 84 35 51 36 35 37 36 38 44 39 37 40 43 41 45 42 42 43 38 44
REMARK SMILES IDX 39 45 40 46 41 47 67 48 68 49 76 50 69 51 75 52 77 53 74 54
REMARK SMILES IDX 70 55 71 56 72 57 73 58 52 59 53 60 61 61 54 62 60 63 62 64
REMARK SMILES IDX 59 65 55 66 56 67 57 68 58 69 5 70 6 71 7 72 8 73 9 74 10 75
REMARK SMILES IDX 25 76 11 77 13 78 12 79 14 80 15 81 16 82 24 83 17 84 18 85
REMARK SMILES IDX 19 86 20 87 23 88 21 89 22 90
REMARK H PARENT 82 22 50 33
REMARK Flexibility Score: inf
ROOT
ATOM      1  C   UNL A   1      34.719  33.914  27.938  1.00  0.00     0.275 C 
ENDROOT
BRANCH   1   2
ATOM      2  O   UNL A   1      35.618  32.979  28.572  1.00  0.00    -0.458 OA
BRANCH   2   3
ATOM      3  C   UNL A   1      35.544  31.683  28.193  1.00  0.00     0.338 C 
ATOM      4  O   UNL A   1      34.606  31.208  27.564  1.00  0.00    -0.246 OA
BRANCH   3   5
ATOM      5  C   UNL A   1      36.743  30.913  28.603  1.00  0.00     0.060 A 
ATOM      6  C   UNL A   1      36.784  29.516  28.513  1.00  0.00     0.016 A 
ATOM      7  C   UNL A   1      37.873  31.615  29.042  1.00  0.00     0.016 A 
ATOM      8  C   UNL A   1      37.936  28.828  28.868  1.00  0.00     0.010 A 
ATOM      9  C   UNL A   1      39.036  30.923  29.384  1.00  0.00     0.010 A 
ATOM     10  C   UNL A   1      39.061  29.523  29.318  1.00  0.00    -0.014 A 
BRANCH  10  11
ATOM     11  C   UNL A   1      40.231  28.725  29.707  1.00  0.00     0.031 A 
ATOM     12  C   UNL A   1      40.595  28.683  31.156  1.00  0.00     0.074 A 
ATOM     13  C   UNL A   1      40.932  27.992  28.818  1.00  0.00     0.049 A 
ATOM     14  N   UNL A   1      41.760  28.852  31.699  1.00  0.00    -0.248 NA
ATOM     15  C   UNL A   1      39.526  28.448  32.134  1.00  0.00     0.031 C 
ATOM     16  C   UNL A   1      40.569  27.741  27.421  1.00  0.00     0.029 A 
ATOM     17  N   UNL A   1      42.065  27.240  28.993  1.00  0.00    -0.354 N 
ATOM     18  C   UNL A   1      41.621  28.571  33.062  1.00  0.00     0.074 A 
ATOM     19  C   UNL A   1      40.208  28.404  33.281  1.00  0.00     0.031 C 
ATOM     20  C   UNL A   1      41.330  26.741  26.938  1.00  0.00     0.029 A 
ATOM     21  C   UNL A   1      42.317  26.371  27.942  1.00  0.00     0.049 A 
ATOM     22  H   UNL A   1      42.643  27.309  29.788  1.00  0.00     0.167 HD
ATOM     23  C   UNL A   1      42.715  28.343  33.847  1.00  0.00     0.034 A 
ATOM     24  C   UNL A   1      43.239  25.382  27.861  1.00  0.00     0.034 A 
ATOM     25  C   UNL A   1      43.891  28.944  33.265  1.00  0.00     0.049 A 
ATOM     26  C   UNL A   1      44.369  25.703  28.760  1.00  0.00     0.074 A 
ATOM     27  C   UNL A   1      44.346  30.235  33.118  1.00  0.00     0.029 A 
ATOM     28  N   UNL A   1      44.683  28.142  32.483  1.00  0.00    -0.354 N 
ATOM     29  N   UNL A   1      45.130  26.753  28.613  1.00  0.00    -0.248 NA
ATOM     30  C   UNL A   1      44.537  25.001  30.027  1.00  0.00     0.031 C 
ATOM     31  C   UNL A   1      45.263  30.210  32.031  1.00  0.00     0.029 A 
ATOM     32  C   UNL A   1      45.338  28.904  31.548  1.00  0.00     0.049 A 
ATOM     33  H   UNL A   1      44.770  27.166  32.578  1.00  0.00     0.167 HD
ATOM     34  C   UNL A   1      45.538  27.079  29.890  1.00  0.00     0.074 A 
ATOM     35  C   UNL A   1      45.291  25.888  30.685  1.00  0.00     0.031 C 
ATOM     36  C   UNL A   1      45.727  28.378  30.251  1.00  0.00     0.034 A 
BRANCH  23  37
ATOM     37  C   UNL A   1      42.845  27.324  34.975  1.00  0.00     0.023 A 
ATOM     38  C   UNL A   1      43.673  26.200  34.739  1.00  0.00     0.031 A 
ATOM     39  C   UNL A   1      42.047  27.235  36.129  1.00  0.00     0.131 A 
ATOM     40  C   UNL A   1      43.583  25.032  35.518  1.00  0.00     0.055 A 
ATOM     41  C   UNL A   1      41.982  26.084  36.930  1.00  0.00     0.041 A 
ATOM     42  F   UNL A   1      41.250  28.230  36.522  1.00  0.00    -0.206 F 
ATOM     43  C   UNL A   1      42.722  24.959  36.605  1.00  0.00     0.022 A 
BRANCH  40  44
ATOM     44  S   UNL A   1      44.472  23.546  34.975  1.00  0.00     0.124 S 
ATOM     45  O   UNL A   1      43.381  22.675  34.551  1.00  0.00    -0.237 OA
ATOM     46  O   UNL A   1      45.324  24.082  33.919  1.00  0.00    -0.237 OA
ATOM     47  O   UNL A   1      45.169  23.119  36.187  1.00  0.00    -0.744 OA
ENDBRANCH  40  44
ENDBRANCH  23  37
BRANCH  24  48
ATOM     48  C   UNL A   1      43.097  24.116  27.100  1.00  0.00     0.023 A 
ATOM     49  C   UNL A   1      44.019  23.714  26.120  1.00  0.00     0.031 A 
ATOM     50  C   UNL A   1      42.109  23.173  27.471  1.00  0.00     0.131 A 
ATOM     51  C   UNL A   1      43.916  22.431  25.537  1.00  0.00     0.055 A 
ATOM     52  C   UNL A   1      41.989  21.922  26.869  1.00  0.00     0.041 A 
ATOM     53  F   UNL A   1      41.266  23.411  28.490  1.00  0.00    -0.206 F 
ATOM     54  C   UNL A   1      42.899  21.543  25.898  1.00  0.00     0.022 A 
BRANCH  51  55
ATOM     55  S   UNL A   1      45.197  21.852  24.384  1.00  0.00     0.124 S 
ATOM     56  O   UNL A   1      44.559  20.695  23.768  1.00  0.00    -0.237 OA
ATOM     57  O   UNL A   1      45.397  23.016  23.528  1.00  0.00    -0.237 OA
ATOM     58  O   UNL A   1      46.325  21.541  25.261  1.00  0.00    -0.744 OA
ENDBRANCH  51  55
ENDBRANCH  24  48
BRANCH  36  59
ATOM     59  C   UNL A   1      46.120  29.365  29.181  1.00  0.00     0.023 A 
ATOM     60  C   UNL A   1      45.207  30.117  28.416  1.00  0.00     0.031 A 
ATOM     61  C   UNL A   1      47.493  29.610  28.993  1.00  0.00     0.131 A 
ATOM     62  C   UNL A   1      45.682  31.068  27.494  1.00  0.00     0.055 A 
ATOM     63  C   UNL A   1      47.960  30.566  28.094  1.00  0.00     0.041 A 
ATOM     64  F   UNL A   1      48.409  28.941  29.714  1.00  0.00    -0.206 F 
ATOM     65  C   UNL A   1      47.053  31.295  27.334  1.00  0.00     0.022 A 
BRANCH  62  66
ATOM     66  S   UNL A   1      44.511  32.019  26.478  1.00  0.00     0.124 S 
ATOM     67  O   UNL A   1      43.506  31.033  26.101  1.00  0.00    -0.237 OA
ATOM     68  O   UNL A   1      44.074  33.064  27.400  1.00  0.00    -0.237 OA
ATOM     69  O   UNL A   1      45.339  32.499  25.368  1.00  0.00    -0.744 OA
ENDBRANCH  62  66
ENDBRANCH  36  59
ENDBRANCH  10  11
ENDBRANCH   3   5
ENDBRANCH   2   3
ENDBRANCH   1   2
BRANCH   1  70
ATOM     70  C   UNL A   1      34.015  34.909  28.857  1.00  0.00     0.275 C 
BRANCH  70  71
ATOM     71  O   UNL A   1      33.554  34.244  30.050  1.00  0.00    -0.458 OA
BRANCH  71  72
ATOM     72  C   UNL A   1      33.976  34.829  31.202  1.00  0.00     0.339 C 
ATOM     73  O   UNL A   1      33.764  36.012  31.497  1.00  0.00    -0.246 OA
BRANCH  72  74
ATOM     74  C   UNL A   1      34.846  33.993  32.009  1.00  0.00     0.078 A 
ATOM     75  C   UNL A   1      34.940  32.581  31.901  1.00  0.00     0.051 A 
ATOM     76  C   UNL A   1      35.836  34.380  32.901  1.00  0.00     0.102 A 
ATOM     77  C   UNL A   1      36.049  32.177  32.605  1.00  0.00     0.086 A 
ATOM     78  N   UNL A   1      36.559  33.258  33.286  1.00  0.00    -0.335 N 
ATOM     79  Br  UNL A   1      36.737  30.444  32.454  1.00  0.00    -0.031 Br
BRANCH  78  80
ATOM     80  C   UNL A   1      37.830  33.314  34.024  1.00  0.00     0.180 C 
BRANCH  80  81
ATOM     81  C   UNL A   1      39.064  33.133  33.188  1.00  0.00     0.082 A 
ATOM     82  C   UNL A   1      40.057  32.129  33.283  1.00  0.00     0.047 A 
ATOM     83  N   UNL A   1      39.279  33.914  32.109  1.00  0.00    -0.176 NA
ATOM     84  C   UNL A   1      40.880  32.320  32.206  1.00  0.00     0.109 A 
ATOM     85  N   UNL A   1      40.410  33.422  31.548  1.00  0.00    -0.269 N 
BRANCH  85  86
ATOM     86  C   UNL A   1      41.010  33.984  30.358  1.00  0.00     0.107 C 
ATOM     87  C   UNL A   1      40.107  34.866  29.501  1.00  0.00     0.027 C 
ATOM     88  C   UNL A   1      42.231  34.875  30.570  1.00  0.00     0.027 C 
ATOM     89  C   UNL A   1      41.092  35.439  28.485  1.00  0.00     0.002 C 
ATOM     90  C   UNL A   1      42.396  35.635  29.256  1.00  0.00     0.002 C 
ENDBRANCH  85  86
ENDBRANCH  80  81
ENDBRANCH  78  80
ENDBRANCH  72  74
ENDBRANCH  71  72
ENDBRANCH  70  71
ENDBRANCH   1  70
TORSDOF 17
ENDMDL
MODEL 2
REMARK VINA RESULT:     -10.7      4.699      9.977
REMARK SMILES O=C(OCCOC(=O)c1cc(Br)n(Cc2ccn(C3CCCC3)n2)c1)c1ccc(-c2c3nc(c(-c4cc(S(=O)(=O)[O-])ccc4F)c4ccc([nH]4)c(-c4cc(S(=O)(=O)[O-])ccc4F)c4nc(c(-c5cc(S(=O)(=O)[O-])ccc5F)c5ccc2[nH]5)C=C4)C=C3)cc1
REMARK SMILES IDX 4 1 3 2 2 3 1 4 26 5 27 6 88 7 28 8 87 9 29 10 30 11 31 12
REMARK SMILES IDX 81 13 32 14 86 15 80 16 82 17 33 18 85 19 79 20 78 21 34 23
REMARK SMILES IDX 66 24 46 25 65 26 47 27 50 28 64 29 83 30 48 31 49 32 63 34
REMARK SMILES IDX 84 35 51 36 35 37 36 38 44 39 37 40 43 41 45 42 42 43 38 44
REMARK SMILES IDX 39 45 40 46 41 47 67 48 68 49 76 50 69 51 75 52 77 53 74 54
REMARK SMILES IDX 70 55 71 56 72 57 73 58 52 59 53 60 61 61 54 62 60 63 62 64
REMARK SMILES IDX 59 65 55 66 56 67 57 68 58 69 5 70 6 71 7 72 8 73 9 74 10 75
REMARK SMILES IDX 25 76 11 77 13 78 12 79 14 80 15 81 16 82 24 83 17 84 18 85
REMARK SMILES IDX 19 86 20 87 23 88 21 89 22 90
REMARK H PARENT 82 22 50 33
REMARK Flexibility Score: inf
ROOT
ATOM      1  C   UNL A   1      34.278  29.846  26.970  1.00  0.00     0.275 C 
ENDROOT
BRANCH   1   2
ATOM      2  O   UNL A   1      35.094  29.164  27.946  1.00  0.00    -0.458 OA
BRANCH   2   3
ATOM      3  C   UNL A   1      35.903  29.919  28.723  1.00  0.00     0.338 C 
ATOM      4  O   UNL A   1      35.515  30.866  29.397  1.00  0.00    -0.246 OA
BRANCH   3   5
ATOM      5  C   UNL A   1      37.309  29.449  28.685  1.00  0.00     0.060 A 
ATOM      6  C   UNL A   1      37.838  28.636  29.695  1.00  0.00     0.016 A 
ATOM      7  C   UNL A   1      38.101  29.793  27.583  1.00  0.00     0.016 A 
ATOM      8  C   UNL A   1      39.147  28.180  29.609  1.00  0.00     0.010 A 
ATOM      9  C   UNL A   1      39.412  29.323  27.490  1.00  0.00     0.010 A 
ATOM     10  C   UNL A   1      39.945  28.532  28.517  1.00  0.00    -0.014 A 
BRANCH  10  11
ATOM     11  C   UNL A   1      41.329  28.040  28.513  1.00  0.00     0.031 A 
ATOM     12  C   UNL A   1      41.608  26.753  27.805  1.00  0.00     0.074 A 
ATOM     13  C   UNL A   1      42.344  28.737  29.064  1.00  0.00     0.049 A 
ATOM     14  N   UNL A   1      42.286  25.733  28.227  1.00  0.00    -0.248 NA
ATOM     15  C   UNL A   1      41.043  26.562  26.464  1.00  0.00     0.031 C 
ATOM     16  C   UNL A   1      42.277  30.105  29.582  1.00  0.00     0.029 A 
ATOM     17  N   UNL A   1      43.669  28.409  29.196  1.00  0.00    -0.354 N 
ATOM     18  C   UNL A   1      42.394  24.841  27.155  1.00  0.00     0.074 A 
ATOM     19  C   UNL A   1      41.542  25.372  26.123  1.00  0.00     0.031 C 
ATOM     20  C   UNL A   1      43.527  30.568  29.772  1.00  0.00     0.029 A 
ATOM     21  C   UNL A   1      44.474  29.492  29.517  1.00  0.00     0.049 A 
ATOM     22  H   UNL A   1      44.015  27.496  29.073  1.00  0.00     0.167 HD
ATOM     23  C   UNL A   1      43.311  23.830  27.172  1.00  0.00     0.034 A 
ATOM     24  C   UNL A   1      45.826  29.561  29.557  1.00  0.00     0.034 A 
ATOM     25  C   UNL A   1      43.684  23.507  28.528  1.00  0.00     0.049 A 
ATOM     26  C   UNL A   1      46.369  28.212  29.823  1.00  0.00     0.074 A 
ATOM     27  C   UNL A   1      43.060  22.872  29.579  1.00  0.00     0.029 A 
ATOM     28  N   UNL A   1      44.812  24.107  29.028  1.00  0.00    -0.354 N 
ATOM     29  N   UNL A   1      46.131  27.541  30.917  1.00  0.00    -0.248 NA
ATOM     30  C   UNL A   1      46.993  27.436  28.757  1.00  0.00     0.031 C 
ATOM     31  C   UNL A   1      43.710  23.327  30.759  1.00  0.00     0.029 A 
ATOM     32  C   UNL A   1      44.710  24.227  30.392  1.00  0.00     0.049 A 
ATOM     33  H   UNL A   1      45.580  24.407  28.490  1.00  0.00     0.167 HD
ATOM     34  C   UNL A   1      46.174  26.216  30.539  1.00  0.00     0.074 A 
ATOM     35  C   UNL A   1      46.868  26.205  29.261  1.00  0.00     0.031 C 
ATOM     36  C   UNL A   1      45.360  25.297  31.128  1.00  0.00     0.034 A 
BRANCH  23  37
ATOM     37  C   UNL A   1      44.139  23.315  25.998  1.00  0.00     0.023 A 
ATOM     38  C   UNL A   1      43.872  22.001  25.546  1.00  0.00     0.031 A 
ATOM     39  C   UNL A   1      45.306  23.894  25.469  1.00  0.00     0.131 A 
ATOM     40  C   UNL A   1      44.788  21.286  24.753  1.00  0.00     0.055 A 
ATOM     41  C   UNL A   1      46.204  23.196  24.647  1.00  0.00     0.041 A 
ATOM     42  F   UNL A   1      45.672  25.145  25.753  1.00  0.00    -0.206 F 
ATOM     43  C   UNL A   1      45.969  21.871  24.316  1.00  0.00     0.022 A 
BRANCH  40  44
ATOM     44  S   UNL A   1      44.500  19.519  24.456  1.00  0.00     0.124 S 
ATOM     45  O   UNL A   1      44.568  19.438  23.002  1.00  0.00    -0.237 OA
ATOM     46  O   UNL A   1      45.603  18.913  25.193  1.00  0.00    -0.237 OA
ATOM     47  O   UNL A   1      43.171  19.303  25.027  1.00  0.00    -0.744 OA
ENDBRANCH  40  44
ENDBRANCH  23  37
BRANCH  24  48
ATOM     48  C   UNL A   1      46.647  30.761  29.259  1.00  0.00     0.023 A 
ATOM     49  C   UNL A   1      46.582  31.437  28.030  1.00  0.00     0.031 A 
ATOM     50  C   UNL A   1      47.401  31.377  30.286  1.00  0.00     0.131 A 
ATOM     51  C   UNL A   1      47.272  32.658  27.857  1.00  0.00     0.055 A 
ATOM     52  C   UNL A   1      48.109  32.564  30.101  1.00  0.00     0.041 A 
ATOM     53  F   UNL A   1      47.416  30.880  31.534  1.00  0.00    -0.206 F 
ATOM     54  C   UNL A   1      48.043  33.214  28.882  1.00  0.00     0.022 A 
BRANCH  51  55
ATOM     55  S   UNL A   1      47.063  33.609  26.322  1.00  0.00     0.124 S 
ATOM     56  O   UNL A   1      45.950  32.920  25.679  1.00  0.00    -0.237 OA
ATOM     57  O   UNL A   1      46.796  34.954  26.820  1.00  0.00    -0.237 OA
ATOM     58  O   UNL A   1      48.354  33.455  25.651  1.00  0.00    -0.744 OA
ENDBRANCH  51  55
ENDBRANCH  24  48
BRANCH  36  59
ATOM     59  C   UNL A   1      44.915  25.545  32.547  1.00  0.00     0.023 A 
ATOM     60  C   UNL A   1      43.766  26.276  32.905  1.00  0.00     0.031 A 
ATOM     61  C   UNL A   1      45.654  24.934  33.578  1.00  0.00     0.131 A 
ATOM     62  C   UNL A   1      43.399  26.384  34.259  1.00  0.00     0.055 A 
ATOM     63  C   UNL A   1      45.277  25.026  34.916  1.00  0.00     0.041 A 
ATOM     64  F   UNL A   1      46.744  24.202  33.293  1.00  0.00    -0.206 F 
ATOM     65  C   UNL A   1      44.149  25.759  35.263  1.00  0.00     0.022 A 
BRANCH  62  66
ATOM     66  S   UNL A   1      41.936  27.355  34.734  1.00  0.00     0.124 S 
ATOM     67  O   UNL A   1      40.955  26.339  35.098  1.00  0.00    -0.237 OA
ATOM     68  O   UNL A   1      42.447  28.177  35.829  1.00  0.00    -0.237 OA
ATOM     69  O   UNL A   1      41.614  28.101  33.516  1.00  0.00    -0.744 OA
ENDBRANCH  62  66
ENDBRANCH  36  59
ENDBRANCH  10  11
ENDBRANCH   3   5
ENDBRANCH   2   3
ENDBRANCH   1   2
BRANCH   1  70
ATOM     70  C   UNL A   1      32.776  29.873  27.240  1.00  0.00     0.275 C 
BRANCH  70  71
ATOM     71  O   UNL A   1      32.255  28.530  27.291  1.00  0.00    -0.458 OA
BRANCH  71  72
ATOM     72  C   UNL A   1      31.992  27.997  26.068  1.00  0.00     0.339 C 
ATOM     73  O   UNL A   1      31.319  28.561  25.196  1.00  0.00    -0.246 OA
BRANCH  72  74
ATOM     74  C   UNL A   1      32.434  26.624  25.912  1.00  0.00     0.078 A 
ATOM     75  C   UNL A   1      33.718  26.233  25.451  1.00  0.00     0.051 A 
ATOM     76  C   UNL A   1      31.793  25.457  26.306  1.00  0.00     0.102 A 
ATOM     77  C   UNL A   1      33.868  24.891  25.705  1.00  0.00     0.086 A 
ATOM     78  N   UNL A   1      32.668  24.389  26.153  1.00  0.00    -0.335 N 
ATOM     79  Br  UNL A   1      35.527  24.039  25.566  1.00  0.00    -0.031 Br
BRANCH  78  80
ATOM     80  C   UNL A   1      32.425  23.045  26.697  1.00  0.00     0.180 C 
BRANCH  80  81
ATOM     81  C   UNL A   1      32.458  21.931  25.691  1.00  0.00     0.082 A 
ATOM     82  C   UNL A   1      32.083  21.961  24.326  1.00  0.00     0.047 A 
ATOM     83  N   UNL A   1      33.010  20.742  26.006  1.00  0.00    -0.176 NA
ATOM     84  C   UNL A   1      32.444  20.743  23.816  1.00  0.00     0.109 A 
ATOM     85  N   UNL A   1      32.957  20.023  24.859  1.00  0.00    -0.269 N 
BRANCH  85  86
ATOM     86  C   UNL A   1      33.439  18.662  24.756  1.00  0.00     0.107 C 
ATOM     87  C   UNL A   1      32.803  17.650  25.704  1.00  0.00     0.027 C 
ATOM     88  C   UNL A   1      33.279  17.985  23.398  1.00  0.00     0.027 C 
ATOM     89  C   UNL A   1      33.374  16.330  25.191  1.00  0.00     0.002 C 
ATOM     90  C   UNL A   1      33.472  16.497  23.675  1.00  0.00     0.002 C 
ENDBRANCH  85  86
ENDBRANCH  80  81
ENDBRANCH  78  80
ENDBRANCH  72  74
ENDBRANCH  71  72
ENDBRANCH  70  71
ENDBRANCH   1  70
TORSDOF 17
ENDMDL
MODEL 3
REMARK VINA RESULT:     -10.6      3.835      6.235
REMARK SMILES O=C(OCCOC(=O)c1cc(Br)n(Cc2ccn(C3CCCC3)n2)c1)c1ccc(-c2c3nc(c(-c4cc(S(=O)(=O)[O-])ccc4F)c4ccc([nH]4)c(-c4cc(S(=O)(=O)[O-])ccc4F)c4nc(c(-c5cc(S(=O)(=O)[O-])ccc5F)c5ccc2[nH]5)C=C4)C=C3)cc1
REMARK SMILES IDX 4 1 3 2 2 3 1 4 26 5 27 6 88 7 28 8 87 9 29 10 30 11 31 12
REMARK SMILES IDX 81 13 32 14 86 15 80 16 82 17 33 18 85 19 79 20 78 21 34 23
REMARK SMILES IDX 66 24 46 25 65 26 47 27 50 28 64 29 83 30 48 31 49 32 63 34
REMARK SMILES IDX 84 35 51 36 35 37 36 38 44 39 37 40 43 41 45 42 42 43 38 44
REMARK SMILES IDX 39 45 40 46 41 47 67 48 68 49 76 50 69 51 75 52 77 53 74 54
REMARK SMILES IDX 70 55 71 56 72 57 73 58 52 59 53 60 61 61 54 62 60 63 62 64
REMARK SMILES IDX 59 65 55 66 56 67 57 68 58 69 5 70 6 71 7 72 8 73 9 74 10 75
REMARK SMILES IDX 25 76 11 77 13 78 12 79 14 80 15 81 16 82 24 83 17 84 18 85
REMARK SMILES IDX 19 86 20 87 23 88 21 89 22 90
REMARK H PARENT 82 22 50 33
REMARK Flexibility Score: inf
ROOT
ATOM      1  C   UNL A   1      33.773  30.233  27.036  1.00  0.00     0.275 C 
ENDROOT
BRANCH   1   2
ATOM      2  O   UNL A   1      34.372  30.894  28.171  1.00  0.00    -0.458 OA
BRANCH   2   3
ATOM      3  C   UNL A   1      35.535  31.554  27.969  1.00  0.00     0.338 C 
ATOM      4  O   UNL A   1      35.608  32.684  27.502  1.00  0.00    -0.246 OA
BRANCH   3   5
ATOM      5  C   UNL A   1      36.709  30.759  28.405  1.00  0.00     0.060 A 
ATOM      6  C   UNL A   1      36.730  29.364  28.303  1.00  0.00     0.016 A 
ATOM      7  C   UNL A   1      37.837  31.438  28.884  1.00  0.00     0.016 A 
ATOM      8  C   UNL A   1      37.860  28.653  28.683  1.00  0.00     0.010 A 
ATOM      9  C   UNL A   1      38.979  30.724  29.252  1.00  0.00     0.010 A 
ATOM     10  C   UNL A   1      38.983  29.325  29.173  1.00  0.00    -0.014 A 
BRANCH  10  11
ATOM     11  C   UNL A   1      40.128  28.504  29.587  1.00  0.00     0.031 A 
ATOM     12  C   UNL A   1      40.515  28.526  31.030  1.00  0.00     0.074 A 
ATOM     13  C   UNL A   1      40.785  27.697  28.728  1.00  0.00     0.049 A 
ATOM     14  N   UNL A   1      41.695  28.678  31.545  1.00  0.00    -0.248 NA
ATOM     15  C   UNL A   1      39.455  28.386  32.036  1.00  0.00     0.031 C 
ATOM     16  C   UNL A   1      40.389  27.386  27.353  1.00  0.00     0.029 A 
ATOM     17  N   UNL A   1      41.892  26.912  28.927  1.00  0.00    -0.354 N 
ATOM     18  C   UNL A   1      41.569  28.477  32.924  1.00  0.00     0.074 A 
ATOM     19  C   UNL A   1      40.155  28.378  33.172  1.00  0.00     0.031 C 
ATOM     20  C   UNL A   1      41.103  26.332  26.914  1.00  0.00     0.029 A 
ATOM     21  C   UNL A   1      42.092  25.978  27.921  1.00  0.00     0.049 A 
ATOM     22  H   UNL A   1      42.485  27.001  29.708  1.00  0.00     0.167 HD
ATOM     23  C   UNL A   1      42.667  28.249  33.703  1.00  0.00     0.034 A 
ATOM     24  C   UNL A   1      42.974  24.951  27.881  1.00  0.00     0.034 A 
ATOM     25  C   UNL A   1      43.855  28.771  33.071  1.00  0.00     0.049 A 
ATOM     26  C   UNL A   1      44.131  25.276  28.743  1.00  0.00     0.074 A 
ATOM     27  C   UNL A   1      44.356  30.034  32.847  1.00  0.00     0.029 A 
ATOM     28  N   UNL A   1      44.602  27.898  32.322  1.00  0.00    -0.354 N 
ATOM     29  N   UNL A   1      44.929  26.286  28.528  1.00  0.00    -0.248 NA
ATOM     30  C   UNL A   1      44.294  24.638  30.044  1.00  0.00     0.031 C 
ATOM     31  C   UNL A   1      45.253  29.915  31.749  1.00  0.00     0.029 A 
ATOM     32  C   UNL A   1      45.270  28.583  31.337  1.00  0.00     0.049 A 
ATOM     33  H   UNL A   1      44.654  26.926  32.469  1.00  0.00     0.167 HD
ATOM     34  C   UNL A   1      45.371  26.664  29.779  1.00  0.00     0.074 A 
ATOM     35  C   UNL A   1      45.092  25.528  30.642  1.00  0.00     0.031 C 
ATOM     36  C   UNL A   1      45.615  27.972  30.065  1.00  0.00     0.034 A 
BRANCH  23  37
ATOM     37  C   UNL A   1      42.777  27.288  34.883  1.00  0.00     0.023 A 
ATOM     38  C   UNL A   1      43.595  26.145  34.712  1.00  0.00     0.031 A 
ATOM     39  C   UNL A   1      41.971  27.267  36.034  1.00  0.00     0.131 A 
ATOM     40  C   UNL A   1      43.486  25.020  35.549  1.00  0.00     0.055 A 
ATOM     41  C   UNL A   1      41.887  26.160  36.893  1.00  0.00     0.041 A 
ATOM     42  F   UNL A   1      41.182  28.290  36.369  1.00  0.00    -0.206 F 
ATOM     43  C   UNL A   1      42.617  25.012  36.632  1.00  0.00     0.022 A 
BRANCH  40  44
ATOM     44  S   UNL A   1      44.362  23.498  35.090  1.00  0.00     0.124 S 
ATOM     45  O   UNL A   1      45.372  23.994  34.163  1.00  0.00    -0.237 OA
ATOM     46  O   UNL A   1      44.843  23.034  36.387  1.00  0.00    -0.237 OA
ATOM     47  O   UNL A   1      43.310  22.684  34.483  1.00  0.00    -0.744 OA
ENDBRANCH  40  44
ENDBRANCH  23  37
BRANCH  24  48
ATOM     48  C   UNL A   1      42.770  23.653  27.192  1.00  0.00     0.023 A 
ATOM     49  C   UNL A   1      43.741  23.079  26.355  1.00  0.00     0.031 A 
ATOM     50  C   UNL A   1      41.646  22.853  27.506  1.00  0.00     0.131 A 
ATOM     51  C   UNL A   1      43.555  21.773  25.848  1.00  0.00     0.055 A 
ATOM     52  C   UNL A   1      41.449  21.578  26.977  1.00  0.00     0.041 A 
ATOM     53  F   UNL A   1      40.731  23.258  28.402  1.00  0.00    -0.206 F 
ATOM     54  C   UNL A   1      42.409  21.029  26.145  1.00  0.00     0.022 A 
BRANCH  51  55
ATOM     55  S   UNL A   1      44.878  20.973  24.892  1.00  0.00     0.124 S 
ATOM     56  O   UNL A   1      46.078  21.415  25.593  1.00  0.00    -0.237 OA
ATOM     57  O   UNL A   1      44.539  19.559  25.011  1.00  0.00    -0.237 OA
ATOM     58  O   UNL A   1      44.709  21.528  23.549  1.00  0.00    -0.744 OA
ENDBRANCH  51  55
ENDBRANCH  24  48
BRANCH  36  59
ATOM     59  C   UNL A   1      46.027  28.884  28.937  1.00  0.00     0.023 A 
ATOM     60  C   UNL A   1      45.173  29.811  28.310  1.00  0.00     0.031 A 
ATOM     61  C   UNL A   1      47.378  28.862  28.542  1.00  0.00     0.131 A 
ATOM     62  C   UNL A   1      45.679  30.669  27.316  1.00  0.00     0.055 A 
ATOM     63  C   UNL A   1      47.881  29.726  27.572  1.00  0.00     0.041 A 
ATOM     64  F   UNL A   1      48.245  28.017  29.125  1.00  0.00    -0.206 F 
ATOM     65  C   UNL A   1      47.030  30.630  26.949  1.00  0.00     0.022 A 
BRANCH  62  66
ATOM     66  S   UNL A   1      44.577  31.846  26.476  1.00  0.00     0.124 S 
ATOM     67  O   UNL A   1      45.392  32.360  25.383  1.00  0.00    -0.237 OA
ATOM     68  O   UNL A   1      43.447  31.001  26.095  1.00  0.00    -0.237 OA
ATOM     69  O   UNL A   1      44.272  32.828  27.520  1.00  0.00    -0.744 OA
ENDBRANCH  62  66
ENDBRANCH  36  59
ENDBRANCH  10  11
ENDBRANCH   3   5
ENDBRANCH   2   3
ENDBRANCH   1   2
BRANCH   1  70
ATOM     70  C   UNL A   1      32.253  30.098  27.054  1.00  0.00     0.275 C 
BRANCH  70  71
ATOM     71  O   UNL A   1      31.827  29.144  26.061  1.00  0.00    -0.458 OA
BRANCH  71  72
ATOM     72  C   UNL A   1      31.491  27.930  26.574  1.00  0.00     0.339 C 
ATOM     73  O   UNL A   1      31.412  27.687  27.785  1.00  0.00    -0.246 OA
BRANCH  72  74
ATOM     74  C   UNL A   1      31.383  26.876  25.583  1.00  0.00     0.078 A 
ATOM     75  C   UNL A   1      31.907  26.945  24.266  1.00  0.00     0.051 A 
ATOM     76  C   UNL A   1      30.913  25.579  25.745  1.00  0.00     0.102 A 
ATOM     77  C   UNL A   1      31.867  25.681  23.728  1.00  0.00     0.086 A 
ATOM     78  N   UNL A   1      31.189  24.854  24.593  1.00  0.00    -0.335 N 
ATOM     79  Br  UNL A   1      32.763  25.254  22.143  1.00  0.00    -0.031 Br
BRANCH  78  80
ATOM     80  C   UNL A   1      31.060  23.392  24.494  1.00  0.00     0.180 C 
BRANCH  80  81
ATOM     81  C   UNL A   1      32.321  22.619  24.754  1.00  0.00     0.082 A 
ATOM     82  C   UNL A   1      32.629  21.285  24.395  1.00  0.00     0.047 A 
ATOM     83  N   UNL A   1      33.397  23.228  25.290  1.00  0.00    -0.176 NA
ATOM     84  C   UNL A   1      33.947  21.109  24.723  1.00  0.00     0.109 A 
ATOM     85  N   UNL A   1      34.364  22.279  25.294  1.00  0.00    -0.269 N 
BRANCH  85  86
ATOM     86  C   UNL A   1      35.697  22.510  25.807  1.00  0.00     0.107 C 
ATOM     87  C   UNL A   1      36.817  21.699  25.161  1.00  0.00     0.027 C 
ATOM     88  C   UNL A   1      36.226  23.938  25.703  1.00  0.00     0.027 C 
ATOM     89  C   UNL A   1      38.063  22.332  25.776  1.00  0.00     0.002 C 
ATOM     90  C   UNL A   1      37.732  23.816  25.919  1.00  0.00     0.002 C 
ENDBRANCH  85  86
ENDBRANCH  80  81
ENDBRANCH  78  80
ENDBRANCH  72  74
ENDBRANCH  71  72
ENDBRANCH  70  71
ENDBRANCH   1  70
TORSDOF 17
ENDMDL
