MODEL 1
REMARK VINA RESULT:     -15.0      0.000      0.000
REMARK SMILES Cc1cccc(OC2(C(=O)OCCOC(=O)c3ccc(-c4c5nc(c(-c6cc(S(=O)(=O)[O-])ccc6F)c6ccc([nH]6)c(-c6cc(S(=O)(=O)[O-])ccc6F)c6nc(c(-c7cc(S(=O)(=O)[O-])ccc7F)c7ccc4[nH]7)C=C6)C=C5)cc3)CCN(C(=O)c3cnc[nH]c3=O)CC2)c1
REMARK SMILES IDX 13 1 12 2 11 3 9 4 10 5 8 6 80 7 93 8 81 9 92 10 82 11 83 12
REMARK SMILES IDX 84 13 7 14 6 15 1 16 2 17 3 18 94 19 4 20 5 21 85 22 86 23
REMARK SMILES IDX 90 24 87 25 89 26 91 27 88 28 14 30 15 31 16 32 17 33 18 34
REMARK SMILES IDX 79 35 19 36 78 37 20 38 21 39 22 40 72 41 23 42 77 43 71 44
REMARK SMILES IDX 73 45 24 46 76 47 70 48 69 49 25 51 57 52 37 53 56 54 38 55
REMARK SMILES IDX 41 56 55 57 74 58 39 59 40 60 54 62 75 63 42 64 26 65 27 66
REMARK SMILES IDX 35 67 28 68 34 69 36 70 33 71 29 72 30 73 31 74 32 75 58 76
REMARK SMILES IDX 59 77 67 78 60 79 66 80 68 81 65 82 61 83 62 84 63 85 64 86
REMARK SMILES IDX 43 87 44 88 52 89 45 90 51 91 53 92 50 93 46 94 47 95 48 96
REMARK SMILES IDX 49 97
REMARK H PARENT 89 29 73 50 41 61
REMARK Flexibility Score: inf
ROOT
ATOM      1  C   UNL A   1      33.508  31.781  27.675  1.00  0.00     0.275 C 
ENDROOT
BRANCH   1   2
ATOM      2  C   UNL A   1      32.551  30.819  26.869  1.00  0.00     0.274 C 
BRANCH   2   3
ATOM      3  O   UNL A   1      33.087  29.743  26.097  1.00  0.00    -0.459 OA
BRANCH   3   4
ATOM      4  C   UNL A   1      32.777  28.497  26.444  1.00  0.00     0.350 C 
ATOM      5  O   UNL A   1      33.050  28.148  27.594  1.00  0.00    -0.247 OA
BRANCH   4   6
ATOM      6  C   UNL A   1      32.128  27.438  25.265  1.00  0.00     0.209 C 
ATOM      7  C   UNL A   1      33.877  26.883  24.916  1.00  0.00     0.082 C 
ATOM      8  C   UNL A   1      31.967  25.827  26.135  1.00  0.00     0.082 C 
ATOM      9  C   UNL A   1      34.274  25.540  24.293  1.00  0.00     0.124 C 
ATOM     10  C   UNL A   1      32.321  24.484  25.391  1.00  0.00     0.124 C 
ATOM     11  N   UNL A   1      33.731  24.429  25.054  1.00  0.00    -0.338 N 
ATOM     12  C   UNL A   1      34.598  23.492  25.588  1.00  0.00     0.261 C 
ATOM     13  O   UNL A   1      35.755  23.736  25.917  1.00  0.00    -0.269 OA
BRANCH   6  14
ATOM     14  O   UNL A   1      30.781  27.938  23.768  1.00  0.00    -0.475 OA
BRANCH  14  15
ATOM     15  C   UNL A   1      29.514  28.967  23.460  1.00  0.00     0.121 A 
ATOM     16  C   UNL A   1      28.952  32.771  23.199  1.00  0.00     0.044 C 
ATOM     17  C   UNL A   1      28.598  31.311  23.145  1.00  0.00    -0.047 A 
ATOM     18  C   UNL A   1      27.349  30.787  22.904  1.00  0.00     0.003 A 
ATOM     19  C   UNL A   1      29.619  30.403  23.410  1.00  0.00     0.050 A 
ATOM     20  C   UNL A   1      27.200  29.387  22.838  1.00  0.00     0.004 A 
ATOM     21  C   UNL A   1      28.279  28.478  23.071  1.00  0.00     0.046 A 
ENDBRANCH  14  15
ENDBRANCH   6  14
BRANCH  12  22
ATOM     22  C   UNL A   1      34.097  22.107  25.627  1.00  0.00     0.123 A 
ATOM     23  C   UNL A   1      33.977  21.374  24.513  1.00  0.00     0.132 A 
ATOM     24  C   UNL A   1      33.642  21.500  26.892  1.00  0.00     0.263 A 
ATOM     25  N   UNL A   1      33.501  20.083  24.467  1.00  0.00    -0.246 NA
ATOM     26  N   UNL A   1      33.182  20.218  26.784  1.00  0.00    -0.312 N 
ATOM     27  O   UNL A   1      33.658  22.082  27.972  1.00  0.00    -0.269 OA
ATOM     28  C   UNL A   1      33.132  19.566  25.589  1.00  0.00     0.199 A 
ATOM     29  H   UNL A   1      32.878  19.750  27.596  1.00  0.00     0.171 HD
ENDBRANCH  12  22
ENDBRANCH   4   6
ENDBRANCH   3   4
ENDBRANCH   2   3
ENDBRANCH   1   2
BRANCH   1  30
ATOM     30  O   UNL A   1      33.510  33.282  27.697  1.00  0.00    -0.458 OA
BRANCH  30  31
ATOM     31  C   UNL A   1      33.450  34.189  28.746  1.00  0.00     0.338 C 
ATOM     32  O   UNL A   1      32.776  35.206  28.720  1.00  0.00    -0.246 OA
BRANCH  31  33
ATOM     33  C   UNL A   1      34.350  33.829  29.885  1.00  0.00     0.060 A 
ATOM     34  C   UNL A   1      34.210  33.121  31.655  1.00  0.00     0.016 A 
ATOM     35  C   UNL A   1      35.925  34.098  29.213  1.00  0.00     0.016 A 
ATOM     36  C   UNL A   1      35.826  32.578  32.440  1.00  0.00     0.010 A 
ATOM     37  C   UNL A   1      37.285  33.463  29.924  1.00  0.00     0.010 A 
ATOM     38  C   UNL A   1      37.321  32.607  31.424  1.00  0.00    -0.014 A 
BRANCH  38  39
ATOM     39  C   UNL A   1      38.576  31.661  31.267  1.00  0.00     0.031 A 
ATOM     40  C   UNL A   1      38.740  30.438  30.375  1.00  0.00     0.074 A 
ATOM     41  C   UNL A   1      39.812  32.170  31.589  1.00  0.00     0.049 A 
ATOM     42  N   UNL A   1      39.322  29.317  30.706  1.00  0.00    -0.248 NA
ATOM     43  C   UNL A   1      38.397  30.437  28.951  1.00  0.00     0.031 C 
ATOM     44  C   UNL A   1      41.151  31.765  31.132  1.00  0.00     0.029 A 
ATOM     45  N   UNL A   1      40.141  33.262  32.376  1.00  0.00    -0.354 N 
ATOM     46  C   UNL A   1      39.568  28.605  29.522  1.00  0.00     0.074 A 
ATOM     47  C   UNL A   1      38.762  29.231  28.514  1.00  0.00     0.031 C 
ATOM     48  C   UNL A   1      42.097  32.416  31.844  1.00  0.00     0.029 A 
ATOM     49  C   UNL A   1      41.426  33.178  32.880  1.00  0.00     0.049 A 
ATOM     50  H   UNL A   1      39.529  34.012  32.556  1.00  0.00     0.167 HD
ATOM     51  C   UNL A   1      40.678  27.834  29.294  1.00  0.00     0.034 A 
ATOM     52  C   UNL A   1      41.635  33.161  34.234  1.00  0.00     0.034 A 
ATOM     53  C   UNL A   1      41.717  28.158  30.251  1.00  0.00     0.049 A 
ATOM     54  C   UNL A   1      42.078  31.773  34.642  1.00  0.00     0.074 A 
ATOM     55  C   UNL A   1      42.896  28.873  30.118  1.00  0.00     0.029 A 
ATOM     56  N   UNL A   1      41.513  27.957  31.598  1.00  0.00    -0.354 N 
ATOM     57  N   UNL A   1      42.097  30.772  33.811  1.00  0.00    -0.248 NA
ATOM     58  C   UNL A   1      42.508  31.383  35.978  1.00  0.00     0.031 C 
ATOM     59  C   UNL A   1      43.384  29.136  31.417  1.00  0.00     0.029 A 
ATOM     60  C   UNL A   1      42.516  28.556  32.326  1.00  0.00     0.049 A 
ATOM     61  H   UNL A   1      40.759  27.457  31.985  1.00  0.00     0.167 HD
ATOM     62  C   UNL A   1      42.493  29.637  34.442  1.00  0.00     0.074 A 
ATOM     63  C   UNL A   1      42.769  30.075  35.797  1.00  0.00     0.031 C 
ATOM     64  C   UNL A   1      42.528  28.449  33.770  1.00  0.00     0.034 A 
BRANCH  51  65
ATOM     65  C   UNL A   1      41.023  27.030  28.035  1.00  0.00     0.023 A 
ATOM     66  C   UNL A   1      40.916  25.615  28.055  1.00  0.00     0.031 A 
ATOM     67  C   UNL A   1      41.344  27.577  26.777  1.00  0.00     0.131 A 
ATOM     68  C   UNL A   1      41.179  24.818  26.922  1.00  0.00     0.055 A 
ATOM     69  C   UNL A   1      41.624  26.783  25.646  1.00  0.00     0.041 A 
ATOM     70  F   UNL A   1      41.355  28.904  26.574  1.00  0.00    -0.206 F 
ATOM     71  C   UNL A   1      41.549  25.397  25.715  1.00  0.00     0.022 A 
BRANCH  68  72
ATOM     72  S   UNL A   1      41.005  23.013  27.052  1.00  0.00     0.124 S 
ATOM     73  O   UNL A   1      39.558  22.838  26.997  1.00  0.00    -0.237 OA
ATOM     74  O   UNL A   1      41.758  22.541  25.895  1.00  0.00    -0.237 OA
ATOM     75  O   UNL A   1      41.614  22.703  28.346  1.00  0.00    -0.744 OA
ENDBRANCH  68  72
ENDBRANCH  51  65
BRANCH  52  76
ATOM     76  C   UNL A   1      40.600  33.985  34.961  1.00  0.00     0.023 A 
ATOM     77  C   UNL A   1      39.463  33.279  35.440  1.00  0.00     0.031 A 
ATOM     78  C   UNL A   1      41.069  35.075  35.711  1.00  0.00     0.131 A 
ATOM     79  C   UNL A   1      39.012  33.488  36.753  1.00  0.00     0.055 A 
ATOM     80  C   UNL A   1      40.618  35.265  37.016  1.00  0.00     0.041 A 
ATOM     81  F   UNL A   1      42.161  35.757  35.335  1.00  0.00    -0.206 F 
ATOM     82  C   UNL A   1      39.620  34.447  37.557  1.00  0.00     0.022 A 
BRANCH  79  83
ATOM     83  S   UNL A   1      37.859  32.288  37.504  1.00  0.00     0.124 S 
ATOM     84  O   UNL A   1      37.824  31.233  36.497  1.00  0.00    -0.237 OA
ATOM     85  O   UNL A   1      38.530  31.958  38.757  1.00  0.00    -0.237 OA
ATOM     86  O   UNL A   1      36.617  33.041  37.662  1.00  0.00    -0.744 OA
ENDBRANCH  79  83
ENDBRANCH  52  76
BRANCH  64  87
ATOM     87  C   UNL A   1      42.676  27.099  34.405  1.00  0.00     0.023 A 
ATOM     88  C   UNL A   1      43.637  26.192  33.963  1.00  0.00     0.031 A 
ATOM     89  C   UNL A   1      41.895  26.686  35.511  1.00  0.00     0.131 A 
ATOM     90  C   UNL A   1      43.687  24.891  34.471  1.00  0.00     0.055 A 
ATOM     91  C   UNL A   1      42.032  25.431  36.103  1.00  0.00     0.041 A 
ATOM     92  F   UNL A   1      40.971  27.483  36.069  1.00  0.00    -0.206 F 
ATOM     93  C   UNL A   1      42.908  24.505  35.557  1.00  0.00     0.022 A 
BRANCH  90  94
ATOM     94  S   UNL A   1      44.700  23.705  33.563  1.00  0.00     0.124 S 
ATOM     95  O   UNL A   1      46.047  24.204  33.824  1.00  0.00    -0.237 OA
ATOM     96  O   UNL A   1      44.360  22.442  34.211  1.00  0.00    -0.237 OA
ATOM     97  O   UNL A   1      44.238  23.845  32.185  1.00  0.00    -0.744 OA
ENDBRANCH  90  94
ENDBRANCH  64  87
ENDBRANCH  38  39
ENDBRANCH  31  33
ENDBRANCH  30  31
ENDBRANCH   1  30
TORSDOF 17
ENDMDL
MODEL 2
REMARK VINA RESULT:     -13.3      2.220      4.992
REMARK SMILES Cc1cccc(OC2(C(=O)OCCOC(=O)c3ccc(-c4c5nc(c(-c6cc(S(=O)(=O)[O-])ccc6F)c6ccc([nH]6)c(-c6cc(S(=O)(=O)[O-])ccc6F)c6nc(c(-c7cc(S(=O)(=O)[O-])ccc7F)c7ccc4[nH]7)C=C6)C=C5)cc3)CCN(C(=O)c3cnc[nH]c3=O)CC2)c1
REMARK SMILES IDX 13 1 12 2 11 3 9 4 10 5 8 6 80 7 93 8 81 9 92 10 82 11 83 12
REMARK SMILES IDX 84 13 7 14 6 15 1 16 2 17 3 18 94 19 4 20 5 21 85 22 86 23
REMARK SMILES IDX 90 24 87 25 89 26 91 27 88 28 14 30 15 31 16 32 17 33 18 34
REMARK SMILES IDX 79 35 19 36 78 37 20 38 21 39 22 40 72 41 23 42 77 43 71 44
REMARK SMILES IDX 73 45 24 46 76 47 70 48 69 49 25 51 57 52 37 53 56 54 38 55
REMARK SMILES IDX 41 56 55 57 74 58 39 59 40 60 54 62 75 63 42 64 26 65 27 66
REMARK SMILES IDX 35 67 28 68 34 69 36 70 33 71 29 72 30 73 31 74 32 75 58 76
REMARK SMILES IDX 59 77 67 78 60 79 66 80 68 81 65 82 61 83 62 84 63 85 64 86
REMARK SMILES IDX 43 87 44 88 52 89 45 90 51 91 53 92 50 93 46 94 47 95 48 96
REMARK SMILES IDX 49 97
REMARK H PARENT 89 29 73 50 41 61
REMARK Flexibility Score: inf
ROOT
ATOM      1  C   UNL A   1      33.376  30.467  26.603  1.00  0.00     0.275 C 
ENDROOT
BRANCH   1   2
ATOM      2  C   UNL A   1      32.523  29.483  27.494  1.00  0.00     0.274 C 
BRANCH   2   3
ATOM      3  O   UNL A   1      32.541  28.076  27.244  1.00  0.00    -0.459 OA
BRANCH   3   4
ATOM      4  C   UNL A   1      31.578  27.554  26.489  1.00  0.00     0.350 C 
ATOM      5  O   UNL A   1      30.629  27.028  27.071  1.00  0.00    -0.247 OA
BRANCH   4   6
ATOM      6  C   UNL A   1      31.763  27.547  24.786  1.00  0.00     0.209 C 
ATOM      7  C   UNL A   1      29.932  27.196  24.668  1.00  0.00     0.082 C 
ATOM      8  C   UNL A   1      31.303  29.248  24.267  1.00  0.00     0.082 C 
ATOM      9  C   UNL A   1      29.047  27.502  23.455  1.00  0.00     0.124 C 
ATOM     10  C   UNL A   1      30.455  29.478  22.959  1.00  0.00     0.124 C 
ATOM     11  N   UNL A   1      29.129  28.904  23.087  1.00  0.00    -0.338 N 
ATOM     12  C   UNL A   1      27.974  29.665  23.076  1.00  0.00     0.261 C 
ATOM     13  O   UNL A   1      27.001  29.448  23.792  1.00  0.00    -0.269 OA
BRANCH   6  14
ATOM     14  O   UNL A   1      33.187  26.493  23.707  1.00  0.00    -0.475 OA
BRANCH  14  15
ATOM     15  C   UNL A   1      34.027  25.060  23.729  1.00  0.00     0.121 A 
ATOM     16  C   UNL A   1      36.797  23.430  25.856  1.00  0.00     0.044 C 
ATOM     17  C   UNL A   1      35.759  23.529  24.773  1.00  0.00    -0.047 A 
ATOM     18  C   UNL A   1      35.488  22.576  23.818  1.00  0.00     0.003 A 
ATOM     19  C   UNL A   1      35.035  24.716  24.699  1.00  0.00     0.050 A 
ATOM     20  C   UNL A   1      34.442  22.809  22.903  1.00  0.00     0.004 A 
ATOM     21  C   UNL A   1      33.685  24.021  22.880  1.00  0.00     0.046 A 
ENDBRANCH  14  15
ENDBRANCH   6  14
BRANCH  12  22
ATOM     22  C   UNL A   1      27.907  30.710  22.039  1.00  0.00     0.123 A 
ATOM     23  C   UNL A   1      27.681  30.407  20.754  1.00  0.00     0.132 A 
ATOM     24  C   UNL A   1      28.158  32.125  22.369  1.00  0.00     0.263 A 
ATOM     25  N   UNL A   1      27.622  31.323  19.728  1.00  0.00    -0.246 NA
ATOM     26  N   UNL A   1      28.085  32.986  21.311  1.00  0.00    -0.312 N 
ATOM     27  O   UNL A   1      28.421  32.525  23.499  1.00  0.00    -0.269 OA
ATOM     28  C   UNL A   1      27.821  32.556  20.046  1.00  0.00     0.199 A 
ATOM     29  H   UNL A   1      28.227  33.948  21.468  1.00  0.00     0.171 HD
ENDBRANCH  12  22
ENDBRANCH   4   6
ENDBRANCH   3   4
ENDBRANCH   2   3
ENDBRANCH   1   2
BRANCH   1  30
ATOM     30  O   UNL A   1      33.761  31.887  26.897  1.00  0.00    -0.458 OA
BRANCH  30  31
ATOM     31  C   UNL A   1      33.419  32.739  27.939  1.00  0.00     0.338 C 
ATOM     32  O   UNL A   1      32.426  33.448  27.930  1.00  0.00    -0.246 OA
BRANCH  31  33
ATOM     33  C   UNL A   1      34.428  32.750  29.043  1.00  0.00     0.060 A 
ATOM     34  C   UNL A   1      34.474  32.575  30.945  1.00  0.00     0.016 A 
ATOM     35  C   UNL A   1      35.925  32.869  28.176  1.00  0.00     0.016 A 
ATOM     36  C   UNL A   1      36.177  32.334  31.696  1.00  0.00     0.010 A 
ATOM     37  C   UNL A   1      37.373  32.510  28.906  1.00  0.00     0.010 A 
ATOM     38  C   UNL A   1      37.580  32.121  30.576  1.00  0.00    -0.014 A 
BRANCH  38  39
ATOM     39  C   UNL A   1      38.872  31.212  30.575  1.00  0.00     0.031 A 
ATOM     40  C   UNL A   1      39.132  29.929  29.799  1.00  0.00     0.074 A 
ATOM     41  C   UNL A   1      40.068  31.791  30.929  1.00  0.00     0.049 A 
ATOM     42  N   UNL A   1      39.727  28.860  30.256  1.00  0.00    -0.248 NA
ATOM     43  C   UNL A   1      38.882  29.801  28.361  1.00  0.00     0.031 C 
ATOM     44  C   UNL A   1      41.446  31.401  30.590  1.00  0.00     0.029 A 
ATOM     45  N   UNL A   1      40.311  32.954  31.642  1.00  0.00    -0.354 N 
ATOM     46  C   UNL A   1      40.071  28.065  29.152  1.00  0.00     0.074 A 
ATOM     47  C   UNL A   1      39.312  28.578  28.048  1.00  0.00     0.031 C 
ATOM     48  C   UNL A   1      42.323  32.141  31.303  1.00  0.00     0.029 A 
ATOM     49  C   UNL A   1      41.564  32.958  32.229  1.00  0.00     0.049 A 
ATOM     50  H   UNL A   1      39.666  33.693  31.722  1.00  0.00     0.167 HD
ATOM     51  C   UNL A   1      41.218  27.320  29.056  1.00  0.00     0.034 A 
ATOM     52  C   UNL A   1      41.686  33.057  33.590  1.00  0.00     0.034 A 
ATOM     53  C   UNL A   1      42.182  27.758  30.045  1.00  0.00     0.049 A 
ATOM     54  C   UNL A   1      42.146  31.724  34.138  1.00  0.00     0.074 A 
ATOM     55  C   UNL A   1      43.344  28.503  29.926  1.00  0.00     0.029 A 
ATOM     56  N   UNL A   1      41.899  27.658  31.389  1.00  0.00    -0.354 N 
ATOM     57  N   UNL A   1      42.250  30.661  33.394  1.00  0.00    -0.248 NA
ATOM     58  C   UNL A   1      42.501  31.458  35.525  1.00  0.00     0.031 C 
ATOM     59  C   UNL A   1      43.739  28.888  31.227  1.00  0.00     0.029 A 
ATOM     60  C   UNL A   1      42.833  28.350  32.125  1.00  0.00     0.049 A 
ATOM     61  H   UNL A   1      41.138  27.163  31.769  1.00  0.00     0.167 HD
ATOM     62  C   UNL A   1      42.640  29.596  34.139  1.00  0.00     0.074 A 
ATOM     63  C   UNL A   1      42.816  30.151  35.469  1.00  0.00     0.031 C 
ATOM     64  C   UNL A   1      42.756  28.360  33.572  1.00  0.00     0.034 A 
BRANCH  51  65
ATOM     65  C   UNL A   1      41.668  26.431  27.891  1.00  0.00     0.023 A 
ATOM     66  C   UNL A   1      41.603  25.019  28.020  1.00  0.00     0.031 A 
ATOM     67  C   UNL A   1      42.053  26.888  26.615  1.00  0.00     0.131 A 
ATOM     68  C   UNL A   1      41.964  24.145  26.975  1.00  0.00     0.055 A 
ATOM     69  C   UNL A   1      42.430  26.016  25.573  1.00  0.00     0.041 A 
ATOM     70  F   UNL A   1      42.037  28.194  26.305  1.00  0.00    -0.206 F 
ATOM     71  C   UNL A   1      42.393  24.638  25.750  1.00  0.00     0.022 A 
BRANCH  68  72
ATOM     72  S   UNL A   1      41.838  22.350  27.241  1.00  0.00     0.124 S 
ATOM     73  O   UNL A   1      40.400  22.165  27.411  1.00  0.00    -0.237 OA
ATOM     74  O   UNL A   1      42.419  21.809  26.017  1.00  0.00    -0.237 OA
ATOM     75  O   UNL A   1      42.634  22.127  28.448  1.00  0.00    -0.744 OA
ENDBRANCH  68  72
ENDBRANCH  51  65
BRANCH  52  76
ATOM     76  C   UNL A   1      40.581  33.898  34.183  1.00  0.00     0.023 A 
ATOM     77  C   UNL A   1      39.513  33.186  34.793  1.00  0.00     0.031 A 
ATOM     78  C   UNL A   1      40.949  35.138  34.727  1.00  0.00     0.131 A 
ATOM     79  C   UNL A   1      39.046  33.577  36.058  1.00  0.00     0.055 A 
ATOM     80  C   UNL A   1      40.484  35.509  35.987  1.00  0.00     0.041 A 
ATOM     81  F   UNL A   1      41.974  35.841  34.222  1.00  0.00    -0.206 F 
ATOM     82  C   UNL A   1      39.564  34.710  36.677  1.00  0.00     0.022 A 
BRANCH  79  83
ATOM     83  S   UNL A   1      38.007  32.425  37.023  1.00  0.00     0.124 S 
ATOM     84  O   UNL A   1      38.860  32.141  38.171  1.00  0.00    -0.237 OA
ATOM     85  O   UNL A   1      36.819  33.230  37.288  1.00  0.00    -0.237 OA
ATOM     86  O   UNL A   1      37.787  31.301  36.115  1.00  0.00    -0.744 OA
ENDBRANCH  79  83
ENDBRANCH  52  76
BRANCH  64  87
ATOM     87  C   UNL A   1      42.907  27.071  34.323  1.00  0.00     0.023 A 
ATOM     88  C   UNL A   1      44.162  26.578  34.671  1.00  0.00     0.031 A 
ATOM     89  C   UNL A   1      41.796  26.312  34.765  1.00  0.00     0.131 A 
ATOM     90  C   UNL A   1      44.302  25.316  35.257  1.00  0.00     0.055 A 
ATOM     91  C   UNL A   1      41.934  25.113  35.464  1.00  0.00     0.041 A 
ATOM     92  F   UNL A   1      40.532  26.703  34.544  1.00  0.00    -0.206 F 
ATOM     93  C   UNL A   1      43.198  24.586  35.681  1.00  0.00     0.022 A 
BRANCH  90  94
ATOM     94  S   UNL A   1      45.970  24.626  35.303  1.00  0.00     0.124 S 
ATOM     95  O   UNL A   1      45.917  23.806  36.511  1.00  0.00    -0.237 OA
ATOM     96  O   UNL A   1      46.040  23.889  34.046  1.00  0.00    -0.237 OA
ATOM     97  O   UNL A   1      46.826  25.805  35.387  1.00  0.00    -0.744 OA
ENDBRANCH  90  94
ENDBRANCH  64  87
ENDBRANCH  38  39
ENDBRANCH  31  33
ENDBRANCH  30  31
ENDBRANCH   1  30
TORSDOF 17
ENDMDL
MODEL 3
REMARK VINA RESULT:     -12.6      5.475     11.058
REMARK SMILES Cc1cccc(OC2(C(=O)OCCOC(=O)c3ccc(-c4c5nc(c(-c6cc(S(=O)(=O)[O-])ccc6F)c6ccc([nH]6)c(-c6cc(S(=O)(=O)[O-])ccc6F)c6nc(c(-c7cc(S(=O)(=O)[O-])ccc7F)c7ccc4[nH]7)C=C6)C=C5)cc3)CCN(C(=O)c3cnc[nH]c3=O)CC2)c1
REMARK SMILES IDX 13 1 12 2 11 3 9 4 10 5 8 6 80 7 93 8 81 9 92 10 82 11 83 12
REMARK SMILES IDX 84 13 7 14 6 15 1 16 2 17 3 18 94 19 4 20 5 21 85 22 86 23
REMARK SMILES IDX 90 24 87 25 89 26 91 27 88 28 14 30 15 31 16 32 17 33 18 34
REMARK SMILES IDX 79 35 19 36 78 37 20 38 21 39 22 40 72 41 23 42 77 43 71 44
REMARK SMILES IDX 73 45 24 46 76 47 70 48 69 49 25 51 57 52 37 53 56 54 38 55
REMARK SMILES IDX 41 56 55 57 74 58 39 59 40 60 54 62 75 63 42 64 26 65 27 66
REMARK SMILES IDX 35 67 28 68 34 69 36 70 33 71 29 72 30 73 31 74 32 75 58 76
REMARK SMILES IDX 59 77 67 78 60 79 66 80 68 81 65 82 61 83 62 84 63 85 64 86
REMARK SMILES IDX 43 87 44 88 52 89 45 90 51 91 53 92 50 93 46 94 47 95 48 96
REMARK SMILES IDX 49 97
REMARK H PARENT 89 29 73 50 41 61
REMARK Flexibility Score: inf
ROOT
ATOM      1  C   UNL A   1      47.165  30.279  30.183  1.00  0.00     0.275 C 
ENDROOT
BRANCH   1   2
ATOM      2  C   UNL A   1      47.057  28.866  29.488  1.00  0.00     0.274 C 
BRANCH   2   3
ATOM      3  O   UNL A   1      46.018  27.955  29.854  1.00  0.00    -0.459 OA
BRANCH   3   4
ATOM      4  C   UNL A   1      45.904  26.817  29.175  1.00  0.00     0.350 C 
ATOM      5  O   UNL A   1      46.182  26.847  27.975  1.00  0.00    -0.247 OA
BRANCH   4   6
ATOM      6  C   UNL A   1      45.285  25.430  29.966  1.00  0.00     0.209 C 
ATOM      7  C   UNL A   1      43.652  25.778  29.129  1.00  0.00     0.082 C 
ATOM      8  C   UNL A   1      45.445  24.084  28.725  1.00  0.00     0.082 C 
ATOM      9  C   UNL A   1      42.556  24.742  28.857  1.00  0.00     0.124 C 
ATOM     10  C   UNL A   1      44.303  23.010  28.566  1.00  0.00     0.124 C 
ATOM     11  N   UNL A   1      43.074  23.621  28.094  1.00  0.00    -0.338 N 
ATOM     12  C   UNL A   1      42.505  23.320  26.869  1.00  0.00     0.261 C 
ATOM     13  O   UNL A   1      41.970  24.149  26.138  1.00  0.00    -0.269 OA
BRANCH   6  14
ATOM     14  O   UNL A   1      45.448  24.989  31.987  1.00  0.00    -0.475 OA
BRANCH  14  15
ATOM     15  C   UNL A   1      44.513  24.630  33.311  1.00  0.00     0.121 A 
ATOM     16  C   UNL A   1      41.818  26.382  35.437  1.00  0.00     0.044 C 
ATOM     17  C   UNL A   1      42.721  25.268  34.991  1.00  0.00    -0.047 A 
ATOM     18  C   UNL A   1      42.852  24.037  35.593  1.00  0.00     0.003 A 
ATOM     19  C   UNL A   1      43.539  25.519  33.893  1.00  0.00     0.050 A 
ATOM     20  C   UNL A   1      43.712  23.084  35.011  1.00  0.00     0.004 A 
ATOM     21  C   UNL A   1      44.508  23.357  33.855  1.00  0.00     0.046 A 
ENDBRANCH  14  15
ENDBRANCH   6  14
BRANCH  12  22
ATOM     22  C   UNL A   1      42.451  21.889  26.524  1.00  0.00     0.123 A 
ATOM     23  C   UNL A   1      43.274  21.357  25.611  1.00  0.00     0.132 A 
ATOM     24  C   UNL A   1      41.438  21.001  27.124  1.00  0.00     0.263 A 
ATOM     25  N   UNL A   1      43.272  20.036  25.223  1.00  0.00    -0.246 NA
ATOM     26  N   UNL A   1      41.486  19.702  26.702  1.00  0.00    -0.312 N 
ATOM     27  O   UNL A   1      40.599  21.375  27.938  1.00  0.00    -0.269 OA
ATOM     28  C   UNL A   1      42.393  19.275  25.780  1.00  0.00     0.199 A 
ATOM     29  H   UNL A   1      40.846  19.054  27.078  1.00  0.00     0.171 HD
ENDBRANCH  12  22
ENDBRANCH   4   6
ENDBRANCH   3   4
ENDBRANCH   2   3
ENDBRANCH   1   2
BRANCH   1  30
ATOM     30  O   UNL A   1      48.130  31.388  29.884  1.00  0.00    -0.458 OA
BRANCH  30  31
ATOM     31  C   UNL A   1      47.994  32.769  29.934  1.00  0.00     0.338 C 
ATOM     32  O   UNL A   1      48.881  33.520  30.304  1.00  0.00    -0.246 OA
BRANCH  31  33
ATOM     33  C   UNL A   1      46.625  33.237  29.552  1.00  0.00     0.060 A 
ATOM     34  C   UNL A   1      45.519  33.317  27.997  1.00  0.00     0.016 A 
ATOM     35  C   UNL A   1      45.962  33.724  31.078  1.00  0.00     0.016 A 
ATOM     36  C   UNL A   1      43.714  33.729  28.306  1.00  0.00     0.010 A 
ATOM     37  C   UNL A   1      44.327  33.940  31.277  1.00  0.00     0.010 A 
ATOM     38  C   UNL A   1      43.147  33.844  30.019  1.00  0.00    -0.014 A 
BRANCH  38  39
ATOM     39  C   UNL A   1      41.838  33.405  30.787  1.00  0.00     0.031 A 
ATOM     40  C   UNL A   1      40.470  34.074  30.796  1.00  0.00     0.074 A 
ATOM     41  C   UNL A   1      41.711  32.083  31.142  1.00  0.00     0.049 A 
ATOM     42  N   UNL A   1      39.699  34.235  31.836  1.00  0.00    -0.248 NA
ATOM     43  C   UNL A   1      39.774  34.480  29.573  1.00  0.00     0.031 C 
ATOM     44  C   UNL A   1      40.503  31.287  31.409  1.00  0.00     0.029 A 
ATOM     45  N   UNL A   1      42.683  31.105  31.273  1.00  0.00    -0.354 N 
ATOM     46  C   UNL A   1      38.419  34.564  31.364  1.00  0.00     0.074 A 
ATOM     47  C   UNL A   1      38.592  34.936  29.990  1.00  0.00     0.031 C 
ATOM     48  C   UNL A   1      40.848  30.079  31.906  1.00  0.00     0.029 A 
ATOM     49  C   UNL A   1      42.284  30.075  32.105  1.00  0.00     0.049 A 
ATOM     50  H   UNL A   1      43.559  31.139  30.824  1.00  0.00     0.167 HD
ATOM     51  C   UNL A   1      37.246  34.146  31.938  1.00  0.00     0.034 A 
ATOM     52  C   UNL A   1      42.995  29.793  33.242  1.00  0.00     0.034 A 
ATOM     53  C   UNL A   1      37.497  33.032  32.832  1.00  0.00     0.049 A 
ATOM     54  C   UNL A   1      42.181  30.216  34.445  1.00  0.00     0.074 A 
ATOM     55  C   UNL A   1      37.244  31.676  32.701  1.00  0.00     0.029 A 
ATOM     56  N   UNL A   1      38.304  33.191  33.936  1.00  0.00    -0.354 N 
ATOM     57  N   UNL A   1      41.058  30.865  34.337  1.00  0.00    -0.248 NA
ATOM     58  C   UNL A   1      42.543  29.977  35.836  1.00  0.00     0.031 C 
ATOM     59  C   UNL A   1      37.949  31.010  33.729  1.00  0.00     0.029 A 
ATOM     60  C   UNL A   1      38.598  31.967  34.491  1.00  0.00     0.049 A 
ATOM     61  H   UNL A   1      38.624  34.056  34.280  1.00  0.00     0.167 HD
ATOM     62  C   UNL A   1      40.557  31.156  35.564  1.00  0.00     0.074 A 
ATOM     63  C   UNL A   1      41.509  30.552  36.477  1.00  0.00     0.031 C 
ATOM     64  C   UNL A   1      39.411  31.888  35.687  1.00  0.00     0.034 A 
BRANCH  51  65
ATOM     65  C   UNL A   1      35.814  34.456  31.487  1.00  0.00     0.023 A 
ATOM     66  C   UNL A   1      35.049  35.419  32.194  1.00  0.00     0.031 A 
ATOM     67  C   UNL A   1      35.192  33.944  30.332  1.00  0.00     0.131 A 
ATOM     68  C   UNL A   1      33.742  35.781  31.810  1.00  0.00     0.055 A 
ATOM     69  C   UNL A   1      33.878  34.290  29.954  1.00  0.00     0.041 A 
ATOM     70  F   UNL A   1      35.841  33.121  29.493  1.00  0.00    -0.206 F 
ATOM     71  C   UNL A   1      33.143  35.208  30.696  1.00  0.00     0.022 A 
BRANCH  68  72
ATOM     72  S   UNL A   1      32.850  37.032  32.782  1.00  0.00     0.124 S 
ATOM     73  O   UNL A   1      33.616  37.062  34.023  1.00  0.00    -0.237 OA
ATOM     74  O   UNL A   1      32.947  38.216  31.935  1.00  0.00    -0.237 OA
ATOM     75  O   UNL A   1      31.503  36.474  32.903  1.00  0.00    -0.744 OA
ENDBRANCH  68  72
ENDBRANCH  51  65
BRANCH  52  76
ATOM     76  C   UNL A   1      44.467  30.074  33.055  1.00  0.00     0.023 A 
ATOM     77  C   UNL A   1      44.964  31.247  33.685  1.00  0.00     0.031 A 
ATOM     78  C   UNL A   1      45.318  28.962  32.956  1.00  0.00     0.131 A 
ATOM     79  C   UNL A   1      46.153  31.190  34.429  1.00  0.00     0.055 A 
ATOM     80  C   UNL A   1      46.490  28.917  33.706  1.00  0.00     0.041 A 
ATOM     81  F   UNL A   1      44.896  27.813  32.408  1.00  0.00    -0.206 F 
ATOM     82  C   UNL A   1      46.892  30.013  34.480  1.00  0.00     0.022 A 
BRANCH  79  83
ATOM     83  S   UNL A   1      46.551  32.548  35.583  1.00  0.00     0.124 S 
ATOM     84  O   UNL A   1      47.961  32.785  35.295  1.00  0.00    -0.237 OA
ATOM     85  O   UNL A   1      45.625  33.593  35.161  1.00  0.00    -0.237 OA
ATOM     86  O   UNL A   1      46.270  31.986  36.903  1.00  0.00    -0.744 OA
ENDBRANCH  79  83
ENDBRANCH  52  76
BRANCH  64  87
ATOM     87  C   UNL A   1      38.908  32.504  36.958  1.00  0.00     0.023 A 
ATOM     88  C   UNL A   1      38.022  31.826  37.791  1.00  0.00     0.031 A 
ATOM     89  C   UNL A   1      39.337  33.775  37.411  1.00  0.00     0.131 A 
ATOM     90  C   UNL A   1      37.458  32.453  38.905  1.00  0.00     0.055 A 
ATOM     91  C   UNL A   1      38.871  34.350  38.593  1.00  0.00     0.041 A 
ATOM     92  F   UNL A   1      40.231  34.510  36.732  1.00  0.00    -0.206 F 
ATOM     93  C   UNL A   1      37.892  33.703  39.332  1.00  0.00     0.022 A 
BRANCH  90  94
ATOM     94  S   UNL A   1      36.048  31.627  39.673  1.00  0.00     0.124 S 
ATOM     95  O   UNL A   1      34.973  32.584  39.425  1.00  0.00    -0.237 OA
ATOM     96  O   UNL A   1      35.967  30.380  38.920  1.00  0.00    -0.237 OA
ATOM     97  O   UNL A   1      36.451  31.489  41.070  1.00  0.00    -0.744 OA
ENDBRANCH  90  94
ENDBRANCH  64  87
ENDBRANCH  38  39
ENDBRANCH  31  33
ENDBRANCH  30  31
ENDBRANCH   1  30
TORSDOF 17
ENDMDL
