MODEL 1
REMARK VINA RESULT:     -12.5      0.000      0.000
REMARK SMILES CC1=C(C(=O)OCCOC(=O)c2ccc(-c3c4nc(c(-c5cc(S(=O)(=O)[O-])ccc5F)c5ccc([nH]5)c(-c5cc(S(=O)(=O)[O-])ccc5F)c5nc(c(-c6cc(S(=O)(=O)[O-])ccc6F)c6ccc3[nH]6)C=C5)C=C4)cc2)N2C(=O)[C@H](NC(=O)c3cc(C(F)(F)F)nn3C)[C@@H]2SC1
REMARK SMILES IDX 7 1 6 2 4 3 5 4 3 5 1 6 2 7 94 8 75 9 93 10 76 11 92 12
REMARK SMILES IDX 77 13 78 14 79 15 80 16 81 18 82 19 83 20 90 21 84 22 89 23
REMARK SMILES IDX 91 24 85 25 86 26 87 27 88 28 8 29 9 30 10 31 11 32 12 33
REMARK SMILES IDX 13 34 74 35 14 36 73 37 15 38 16 39 17 40 67 41 18 42 72 43
REMARK SMILES IDX 66 44 68 45 19 46 71 47 65 48 64 49 20 51 52 52 32 53 51 54
REMARK SMILES IDX 33 55 36 56 50 57 69 58 34 59 35 60 49 62 70 63 37 64 21 65
REMARK SMILES IDX 22 66 30 67 23 68 29 69 31 70 28 71 24 72 25 73 26 74 27 75
REMARK SMILES IDX 53 76 54 77 62 78 55 79 61 80 63 81 60 82 56 83 57 84 58 85
REMARK SMILES IDX 59 86 38 87 39 88 47 89 40 90 46 91 48 92 45 93 41 94 42 95
REMARK SMILES IDX 43 96 44 97
REMARK H PARENT 79 17 68 50 36 61
REMARK Flexibility Score: inf
ROOT
ATOM      1  C   UNL A   1      35.520  21.542  24.446  1.00  0.00     0.275 C 
ENDROOT
BRANCH   1   2
ATOM      2  O   UNL A   1      34.350  20.744  24.724  1.00  0.00    -0.457 OA
BRANCH   2   3
ATOM      3  C   UNL A   1      33.135  21.307  24.480  1.00  0.00     0.355 C 
ATOM      4  O   UNL A   1      32.198  20.718  23.969  1.00  0.00    -0.244 OA
BRANCH   3   5
ATOM      5  C   UNL A   1      33.068  22.731  25.006  1.00  0.00     0.131 C 
ATOM      6  C   UNL A   1      33.062  22.017  27.435  1.00  0.00     0.043 C 
ATOM      7  C   UNL A   1      33.043  23.046  26.329  1.00  0.00    -0.032 C 
ATOM      8  C   UNL A   1      33.042  24.472  26.872  1.00  0.00     0.105 C 
ATOM      9  N   UNL A   1      33.027  23.745  24.088  1.00  0.00    -0.289 N 
ATOM     10  S   UNL A   1      33.512  25.757  25.673  1.00  0.00    -0.129 SA
ATOM     11  C   UNL A   1      33.258  23.965  22.774  1.00  0.00     0.253 C 
ATOM     12  C   UNL A   1      32.470  25.051  24.387  1.00  0.00     0.181 C 
ATOM     13  O   UNL A   1      33.697  23.294  21.876  1.00  0.00    -0.272 OA
ATOM     14  C   UNL A   1      32.719  25.428  22.907  1.00  0.00     0.206 C 
BRANCH  14  15
ATOM     15  N   UNL A   1      33.677  26.499  22.565  1.00  0.00    -0.336 N 
ATOM     16  C   UNL A   1      33.402  27.823  22.298  1.00  0.00     0.270 C 
ATOM     17  H   UNL A   1      34.624  26.235  22.522  1.00  0.00     0.164 HD
ATOM     18  O   UNL A   1      34.267  28.472  21.716  1.00  0.00    -0.268 OA
BRANCH  16  19
ATOM     19  C   UNL A   1      32.151  28.395  22.737  1.00  0.00     0.126 A 
ATOM     20  C   UNL A   1      30.890  28.336  22.164  1.00  0.00     0.069 A 
ATOM     21  N   UNL A   1      31.952  29.040  23.935  1.00  0.00    -0.262 N 
ATOM     22  C   UNL A   1      29.996  28.953  23.080  1.00  0.00     0.167 A 
ATOM     23  N   UNL A   1      30.667  29.376  24.161  1.00  0.00    -0.168 NA
ATOM     24  C   UNL A   1      32.930  29.387  24.945  1.00  0.00     0.174 C 
BRANCH  22  25
ATOM     25  C   UNL A   1      28.500  29.084  22.934  1.00  0.00     0.435 C 
ATOM     26  F   UNL A   1      28.123  29.341  21.654  1.00  0.00    -0.164 F 
ATOM     27  F   UNL A   1      27.820  27.992  23.356  1.00  0.00    -0.164 F 
ATOM     28  F   UNL A   1      28.041  30.132  23.680  1.00  0.00    -0.164 F 
ENDBRANCH  22  25
ENDBRANCH  16  19
ENDBRANCH  14  15
ENDBRANCH   3   5
ENDBRANCH   2   3
ENDBRANCH   1   2
BRANCH   1  29
ATOM     29  C   UNL A   1      36.755  20.965  25.144  1.00  0.00     0.275 C 
BRANCH  29  30
ATOM     30  O   UNL A   1      37.838  21.914  25.156  1.00  0.00    -0.458 OA
BRANCH  30  31
ATOM     31  C   UNL A   1      38.904  21.541  25.903  1.00  0.00     0.338 C 
ATOM     32  O   UNL A   1      39.488  20.470  25.862  1.00  0.00    -0.246 OA
BRANCH  31  33
ATOM     33  C   UNL A   1      39.444  22.707  26.621  1.00  0.00     0.060 A 
ATOM     34  C   UNL A   1      38.948  23.939  26.212  1.00  0.00     0.016 A 
ATOM     35  C   UNL A   1      40.449  22.646  27.584  1.00  0.00     0.016 A 
ATOM     36  C   UNL A   1      39.447  25.118  26.745  1.00  0.00     0.010 A 
ATOM     37  C   UNL A   1      40.958  23.843  28.122  1.00  0.00     0.010 A 
ATOM     38  C   UNL A   1      40.468  25.092  27.693  1.00  0.00    -0.014 A 
BRANCH  38  39
ATOM     39  C   UNL A   1      41.066  26.398  28.091  1.00  0.00     0.031 A 
ATOM     40  C   UNL A   1      42.480  26.714  27.683  1.00  0.00     0.074 A 
ATOM     41  C   UNL A   1      40.315  27.352  28.676  1.00  0.00     0.049 A 
ATOM     42  N   UNL A   1      43.204  27.772  27.939  1.00  0.00    -0.248 NA
ATOM     43  C   UNL A   1      43.162  25.699  26.867  1.00  0.00     0.031 C 
ATOM     44  C   UNL A   1      38.895  27.223  29.011  1.00  0.00     0.029 A 
ATOM     45  N   UNL A   1      40.631  28.629  29.071  1.00  0.00    -0.354 N 
ATOM     46  C   UNL A   1      44.436  27.546  27.331  1.00  0.00     0.074 A 
ATOM     47  C   UNL A   1      44.366  26.231  26.729  1.00  0.00     0.031 C 
ATOM     48  C   UNL A   1      38.466  28.372  29.556  1.00  0.00     0.029 A 
ATOM     49  C   UNL A   1      39.589  29.298  29.672  1.00  0.00     0.049 A 
ATOM     50  H   UNL A   1      41.521  29.029  28.937  1.00  0.00     0.167 HD
ATOM     51  C   UNL A   1      45.520  28.362  27.277  1.00  0.00     0.034 A 
ATOM     52  C   UNL A   1      39.549  30.505  30.273  1.00  0.00     0.034 A 
ATOM     53  C   UNL A   1      45.570  29.676  27.874  1.00  0.00     0.049 A 
ATOM     54  C   UNL A   1      40.803  31.346  30.306  1.00  0.00     0.074 A 
ATOM     55  C   UNL A   1      46.629  30.566  27.910  1.00  0.00     0.029 A 
ATOM     56  N   UNL A   1      44.516  30.291  28.540  1.00  0.00    -0.354 N 
ATOM     57  N   UNL A   1      41.984  31.093  29.789  1.00  0.00    -0.248 NA
ATOM     58  C   UNL A   1      40.713  32.639  30.996  1.00  0.00     0.031 C 
ATOM     59  C   UNL A   1      46.249  31.672  28.681  1.00  0.00     0.029 A 
ATOM     60  C   UNL A   1      44.918  31.524  29.037  1.00  0.00     0.049 A 
ATOM     61  H   UNL A   1      43.615  29.908  28.644  1.00  0.00     0.167 HD
ATOM     62  C   UNL A   1      42.767  32.213  30.063  1.00  0.00     0.074 A 
ATOM     63  C   UNL A   1      41.914  33.148  30.769  1.00  0.00     0.031 C 
ATOM     64  C   UNL A   1      44.071  32.447  29.759  1.00  0.00     0.034 A 
BRANCH  51  65
ATOM     65  C   UNL A   1      46.767  27.804  26.627  1.00  0.00     0.023 A 
ATOM     66  C   UNL A   1      47.095  28.061  25.283  1.00  0.00     0.031 A 
ATOM     67  C   UNL A   1      47.608  26.942  27.354  1.00  0.00     0.131 A 
ATOM     68  C   UNL A   1      48.174  27.390  24.688  1.00  0.00     0.055 A 
ATOM     69  C   UNL A   1      48.738  26.356  26.782  1.00  0.00     0.041 A 
ATOM     70  F   UNL A   1      47.333  26.633  28.631  1.00  0.00    -0.206 F 
ATOM     71  C   UNL A   1      49.015  26.562  25.436  1.00  0.00     0.022 A 
BRANCH  68  72
ATOM     72  S   UNL A   1      48.352  27.459  22.882  1.00  0.00     0.124 S 
ATOM     73  O   UNL A   1      48.351  26.040  22.530  1.00  0.00    -0.237 OA
ATOM     74  O   UNL A   1      47.176  28.219  22.476  1.00  0.00    -0.237 OA
ATOM     75  O   UNL A   1      49.632  28.137  22.688  1.00  0.00    -0.744 OA
ENDBRANCH  68  72
ENDBRANCH  51  65
BRANCH  52  76
ATOM     76  C   UNL A   1      38.299  30.979  30.940  1.00  0.00     0.023 A 
ATOM     77  C   UNL A   1      37.260  31.582  30.213  1.00  0.00     0.031 A 
ATOM     78  C   UNL A   1      38.154  30.889  32.338  1.00  0.00     0.131 A 
ATOM     79  C   UNL A   1      36.148  32.112  30.888  1.00  0.00     0.055 A 
ATOM     80  C   UNL A   1      37.018  31.359  32.997  1.00  0.00     0.041 A 
ATOM     81  F   UNL A   1      39.121  30.335  33.086  1.00  0.00    -0.206 F 
ATOM     82  C   UNL A   1      36.011  31.988  32.273  1.00  0.00     0.022 A 
BRANCH  79  83
ATOM     83  S   UNL A   1      34.920  33.053  29.940  1.00  0.00     0.124 S 
ATOM     84  O   UNL A   1      34.375  32.025  29.061  1.00  0.00    -0.237 OA
ATOM     85  O   UNL A   1      34.032  33.534  30.993  1.00  0.00    -0.237 OA
ATOM     86  O   UNL A   1      35.717  34.084  29.278  1.00  0.00    -0.744 OA
ENDBRANCH  79  83
ENDBRANCH  52  76
BRANCH  64  87
ATOM     87  C   UNL A   1      44.639  33.793  30.156  1.00  0.00     0.023 A 
ATOM     88  C   UNL A   1      44.560  34.914  29.309  1.00  0.00     0.031 A 
ATOM     89  C   UNL A   1      45.308  33.947  31.385  1.00  0.00     0.131 A 
ATOM     90  C   UNL A   1      45.213  36.105  29.659  1.00  0.00     0.055 A 
ATOM     91  C   UNL A   1      45.884  35.161  31.764  1.00  0.00     0.041 A 
ATOM     92  F   UNL A   1      45.423  32.917  32.237  1.00  0.00    -0.206 F 
ATOM     93  C   UNL A   1      45.858  36.243  30.891  1.00  0.00     0.022 A 
BRANCH  90  94
ATOM     94  S   UNL A   1      45.342  37.423  28.418  1.00  0.00     0.124 S 
ATOM     95  O   UNL A   1      43.966  37.529  27.946  1.00  0.00    -0.237 OA
ATOM     96  O   UNL A   1      45.834  38.548  29.206  1.00  0.00    -0.237 OA
ATOM     97  O   UNL A   1      46.292  36.887  27.445  1.00  0.00    -0.744 OA
ENDBRANCH  90  94
ENDBRANCH  64  87
ENDBRANCH  38  39
ENDBRANCH  31  33
ENDBRANCH  30  31
ENDBRANCH  29  30
ENDBRANCH   1  29
TORSDOF 17
ENDMDL
MODEL 2
REMARK VINA RESULT:     -12.3      5.189     10.026
REMARK SMILES CC1=C(C(=O)OCCOC(=O)c2ccc(-c3c4nc(c(-c5cc(S(=O)(=O)[O-])ccc5F)c5ccc([nH]5)c(-c5cc(S(=O)(=O)[O-])ccc5F)c5nc(c(-c6cc(S(=O)(=O)[O-])ccc6F)c6ccc3[nH]6)C=C5)C=C4)cc2)N2C(=O)[C@H](NC(=O)c3cc(C(F)(F)F)nn3C)[C@@H]2SC1
REMARK SMILES IDX 7 1 6 2 4 3 5 4 3 5 1 6 2 7 94 8 75 9 93 10 76 11 92 12
REMARK SMILES IDX 77 13 78 14 79 15 80 16 81 18 82 19 83 20 90 21 84 22 89 23
REMARK SMILES IDX 91 24 85 25 86 26 87 27 88 28 8 29 9 30 10 31 11 32 12 33
REMARK SMILES IDX 13 34 74 35 14 36 73 37 15 38 16 39 17 40 67 41 18 42 72 43
REMARK SMILES IDX 66 44 68 45 19 46 71 47 65 48 64 49 20 51 52 52 32 53 51 54
REMARK SMILES IDX 33 55 36 56 50 57 69 58 34 59 35 60 49 62 70 63 37 64 21 65
REMARK SMILES IDX 22 66 30 67 23 68 29 69 31 70 28 71 24 72 25 73 26 74 27 75
REMARK SMILES IDX 53 76 54 77 62 78 55 79 61 80 63 81 60 82 56 83 57 84 58 85
REMARK SMILES IDX 59 86 38 87 39 88 47 89 40 90 46 91 48 92 45 93 41 94 42 95
REMARK SMILES IDX 43 96 44 97
REMARK H PARENT 79 17 68 50 36 61
REMARK Flexibility Score: inf
ROOT
ATOM      1  C   UNL A   1      32.167  29.611  25.321  1.00  0.00     0.275 C 
ENDROOT
BRANCH   1   2
ATOM      2  O   UNL A   1      31.064  28.690  25.189  1.00  0.00    -0.457 OA
BRANCH   2   3
ATOM      3  C   UNL A   1      31.106  27.553  25.937  1.00  0.00     0.355 C 
ATOM      4  O   UNL A   1      30.995  27.528  27.151  1.00  0.00    -0.244 OA
BRANCH   3   5
ATOM      5  C   UNL A   1      31.218  26.317  25.061  1.00  0.00     0.131 C 
ATOM      6  C   UNL A   1      28.817  26.451  24.268  1.00  0.00     0.043 C 
ATOM      7  C   UNL A   1      30.194  25.830  24.309  1.00  0.00    -0.032 C 
ATOM      8  C   UNL A   1      30.310  24.629  23.375  1.00  0.00     0.105 C 
ATOM      9  N   UNL A   1      32.419  25.661  25.038  1.00  0.00    -0.289 N 
ATOM     10  S   UNL A   1      32.011  24.122  22.975  1.00  0.00    -0.129 SA
ATOM     11  C   UNL A   1      33.713  25.856  25.377  1.00  0.00     0.253 C 
ATOM     12  C   UNL A   1      32.540  24.259  24.689  1.00  0.00     0.181 C 
ATOM     13  O   UNL A   1      34.339  26.798  25.791  1.00  0.00    -0.272 OA
ATOM     14  C   UNL A   1      34.048  24.371  25.018  1.00  0.00     0.206 C 
BRANCH  14  15
ATOM     15  N   UNL A   1      35.055  24.179  23.954  1.00  0.00    -0.336 N 
ATOM     16  C   UNL A   1      35.816  23.056  23.706  1.00  0.00     0.270 C 
ATOM     17  H   UNL A   1      35.202  24.944  23.353  1.00  0.00     0.164 HD
ATOM     18  O   UNL A   1      36.817  23.196  23.009  1.00  0.00    -0.268 OA
BRANCH  16  19
ATOM     19  C   UNL A   1      35.395  21.778  24.231  1.00  0.00     0.126 A 
ATOM     20  C   UNL A   1      34.157  21.156  24.188  1.00  0.00     0.069 A 
ATOM     21  N   UNL A   1      36.228  20.843  24.800  1.00  0.00    -0.262 N 
ATOM     22  C   UNL A   1      34.334  19.857  24.734  1.00  0.00     0.167 A 
ATOM     23  N   UNL A   1      35.612  19.684  25.102  1.00  0.00    -0.168 NA
ATOM     24  C   UNL A   1      37.640  20.958  25.099  1.00  0.00     0.174 C 
BRANCH  22  25
ATOM     25  C   UNL A   1      33.288  18.775  24.851  1.00  0.00     0.435 C 
ATOM     26  F   UNL A   1      33.735  17.570  24.409  1.00  0.00    -0.164 F 
ATOM     27  F   UNL A   1      32.824  18.609  26.112  1.00  0.00    -0.164 F 
ATOM     28  F   UNL A   1      32.202  19.080  24.080  1.00  0.00    -0.164 F 
ENDBRANCH  22  25
ENDBRANCH  16  19
ENDBRANCH  14  15
ENDBRANCH   3   5
ENDBRANCH   2   3
ENDBRANCH   1   2
BRANCH   1  29
ATOM     29  C   UNL A   1      31.718  30.910  25.997  1.00  0.00     0.275 C 
BRANCH  29  30
ATOM     30  O   UNL A   1      32.342  31.070  27.285  1.00  0.00    -0.458 OA
BRANCH  30  31
ATOM     31  C   UNL A   1      33.084  32.195  27.414  1.00  0.00     0.338 C 
ATOM     32  O   UNL A   1      32.679  33.347  27.387  1.00  0.00    -0.246 OA
BRANCH  31  33
ATOM     33  C   UNL A   1      34.447  31.848  27.849  1.00  0.00     0.060 A 
ATOM     34  C   UNL A   1      34.635  30.520  28.211  1.00  0.00     0.016 A 
ATOM     35  C   UNL A   1      35.486  32.765  27.997  1.00  0.00     0.016 A 
ATOM     36  C   UNL A   1      35.848  30.090  28.729  1.00  0.00     0.010 A 
ATOM     37  C   UNL A   1      36.716  32.329  28.525  1.00  0.00     0.010 A 
ATOM     38  C   UNL A   1      36.900  30.987  28.909  1.00  0.00    -0.014 A 
BRANCH  38  39
ATOM     39  C   UNL A   1      38.108  30.488  29.625  1.00  0.00     0.031 A 
ATOM     40  C   UNL A   1      38.336  30.895  31.056  1.00  0.00     0.074 A 
ATOM     41  C   UNL A   1      38.913  29.565  29.061  1.00  0.00     0.049 A 
ATOM     42  N   UNL A   1      39.325  30.601  31.859  1.00  0.00    -0.248 NA
ATOM     43  C   UNL A   1      37.298  31.740  31.663  1.00  0.00     0.031 C 
ATOM     44  C   UNL A   1      38.733  28.989  27.727  1.00  0.00     0.029 A 
ATOM     45  N   UNL A   1      40.030  28.930  29.547  1.00  0.00    -0.354 N 
ATOM     46  C   UNL A   1      39.041  31.239  33.063  1.00  0.00     0.074 A 
ATOM     47  C   UNL A   1      37.805  31.967  32.865  1.00  0.00     0.031 C 
ATOM     48  C   UNL A   1      39.703  28.087  27.504  1.00  0.00     0.029 A 
ATOM     49  C   UNL A   1      40.610  28.064  28.648  1.00  0.00     0.049 A 
ATOM     50  H   UNL A   1      40.383  29.080  30.454  1.00  0.00     0.167 HD
ATOM     51  C   UNL A   1      39.743  31.215  34.225  1.00  0.00     0.034 A 
ATOM     52  C   UNL A   1      41.756  27.355  28.722  1.00  0.00     0.034 A 
ATOM     53  C   UNL A   1      40.970  30.476  34.409  1.00  0.00     0.049 A 
ATOM     54  C   UNL A   1      42.585  27.440  29.982  1.00  0.00     0.074 A 
ATOM     55  C   UNL A   1      41.779  30.416  35.531  1.00  0.00     0.029 A 
ATOM     56  N   UNL A   1      41.567  29.667  33.449  1.00  0.00    -0.354 N 
ATOM     57  N   UNL A   1      42.343  28.103  31.090  1.00  0.00    -0.248 NA
ATOM     58  C   UNL A   1      43.835  26.671  30.002  1.00  0.00     0.031 C 
ATOM     59  C   UNL A   1      42.911  29.654  35.216  1.00  0.00     0.029 A 
ATOM     60  C   UNL A   1      42.761  29.149  33.934  1.00  0.00     0.049 A 
ATOM     61  H   UNL A   1      41.197  29.487  32.555  1.00  0.00     0.167 HD
ATOM     62  C   UNL A   1      43.398  27.802  31.951  1.00  0.00     0.074 A 
ATOM     63  C   UNL A   1      44.260  26.880  31.238  1.00  0.00     0.031 C 
ATOM     64  C   UNL A   1      43.630  28.246  33.214  1.00  0.00     0.034 A 
BRANCH  51  65
ATOM     65  C   UNL A   1      39.242  32.095  35.348  1.00  0.00     0.023 A 
ATOM     66  C   UNL A   1      39.628  33.442  35.480  1.00  0.00     0.031 A 
ATOM     67  C   UNL A   1      38.411  31.551  36.345  1.00  0.00     0.131 A 
ATOM     68  C   UNL A   1      39.263  34.164  36.627  1.00  0.00     0.055 A 
ATOM     69  C   UNL A   1      37.970  32.306  37.433  1.00  0.00     0.041 A 
ATOM     70  F   UNL A   1      38.032  30.264  36.293  1.00  0.00    -0.206 F 
ATOM     71  C   UNL A   1      38.413  33.614  37.590  1.00  0.00     0.022 A 
BRANCH  68  72
ATOM     72  S   UNL A   1      40.068  35.760  36.942  1.00  0.00     0.124 S 
ATOM     73  O   UNL A   1      39.430  36.172  38.191  1.00  0.00    -0.237 OA
ATOM     74  O   UNL A   1      41.476  35.395  37.033  1.00  0.00    -0.237 OA
ATOM     75  O   UNL A   1      39.705  36.565  35.776  1.00  0.00    -0.744 OA
ENDBRANCH  68  72
ENDBRANCH  51  65
BRANCH  52  76
ATOM     76  C   UNL A   1      42.223  26.543  27.559  1.00  0.00     0.023 A 
ATOM     77  C   UNL A   1      41.893  25.184  27.430  1.00  0.00     0.031 A 
ATOM     78  C   UNL A   1      43.067  27.108  26.583  1.00  0.00     0.131 A 
ATOM     79  C   UNL A   1      42.439  24.427  26.381  1.00  0.00     0.055 A 
ATOM     80  C   UNL A   1      43.553  26.366  25.506  1.00  0.00     0.041 A 
ATOM     81  F   UNL A   1      43.427  28.398  26.662  1.00  0.00    -0.206 F 
ATOM     82  C   UNL A   1      43.251  25.013  25.407  1.00  0.00     0.022 A 
BRANCH  79  83
ATOM     83  S   UNL A   1      42.147  22.636  26.356  1.00  0.00     0.124 S 
ATOM     84  O   UNL A   1      42.787  22.215  27.597  1.00  0.00    -0.237 OA
ATOM     85  O   UNL A   1      40.690  22.570  26.331  1.00  0.00    -0.237 OA
ATOM     86  O   UNL A   1      42.812  22.199  25.129  1.00  0.00    -0.744 OA
ENDBRANCH  79  83
ENDBRANCH  52  76
BRANCH  64  87
ATOM     87  C   UNL A   1      44.854  27.700  33.920  1.00  0.00     0.023 A 
ATOM     88  C   UNL A   1      44.803  26.531  34.701  1.00  0.00     0.031 A 
ATOM     89  C   UNL A   1      46.081  28.384  33.846  1.00  0.00     0.131 A 
ATOM     90  C   UNL A   1      45.925  26.134  35.444  1.00  0.00     0.055 A 
ATOM     91  C   UNL A   1      47.218  27.936  34.520  1.00  0.00     0.041 A 
ATOM     92  F   UNL A   1      46.197  29.508  33.121  1.00  0.00    -0.206 F 
ATOM     93  C   UNL A   1      47.140  26.816  35.342  1.00  0.00     0.022 A 
BRANCH  90  94
ATOM     94  S   UNL A   1      45.735  24.803  36.664  1.00  0.00     0.124 S 
ATOM     95  O   UNL A   1      46.652  25.224  37.717  1.00  0.00    -0.237 OA
ATOM     96  O   UNL A   1      44.314  24.877  36.987  1.00  0.00    -0.237 OA
ATOM     97  O   UNL A   1      46.141  23.605  35.930  1.00  0.00    -0.744 OA
ENDBRANCH  90  94
ENDBRANCH  64  87
ENDBRANCH  38  39
ENDBRANCH  31  33
ENDBRANCH  30  31
ENDBRANCH  29  30
ENDBRANCH   1  29
TORSDOF 17
ENDMDL
MODEL 3
REMARK VINA RESULT:     -12.1      1.385      7.464
REMARK SMILES CC1=C(C(=O)OCCOC(=O)c2ccc(-c3c4nc(c(-c5cc(S(=O)(=O)[O-])ccc5F)c5ccc([nH]5)c(-c5cc(S(=O)(=O)[O-])ccc5F)c5nc(c(-c6cc(S(=O)(=O)[O-])ccc6F)c6ccc3[nH]6)C=C5)C=C4)cc2)N2C(=O)[C@H](NC(=O)c3cc(C(F)(F)F)nn3C)[C@@H]2SC1
REMARK SMILES IDX 7 1 6 2 4 3 5 4 3 5 1 6 2 7 94 8 75 9 93 10 76 11 92 12
REMARK SMILES IDX 77 13 78 14 79 15 80 16 81 18 82 19 83 20 90 21 84 22 89 23
REMARK SMILES IDX 91 24 85 25 86 26 87 27 88 28 8 29 9 30 10 31 11 32 12 33
REMARK SMILES IDX 13 34 74 35 14 36 73 37 15 38 16 39 17 40 67 41 18 42 72 43
REMARK SMILES IDX 66 44 68 45 19 46 71 47 65 48 64 49 20 51 52 52 32 53 51 54
REMARK SMILES IDX 33 55 36 56 50 57 69 58 34 59 35 60 49 62 70 63 37 64 21 65
REMARK SMILES IDX 22 66 30 67 23 68 29 69 31 70 28 71 24 72 25 73 26 74 27 75
REMARK SMILES IDX 53 76 54 77 62 78 55 79 61 80 63 81 60 82 56 83 57 84 58 85
REMARK SMILES IDX 59 86 38 87 39 88 47 89 40 90 46 91 48 92 45 93 41 94 42 95
REMARK SMILES IDX 43 96 44 97
REMARK H PARENT 79 17 68 50 36 61
REMARK Flexibility Score: inf
ROOT
ATOM      1  C   UNL A   1      35.127  21.160  24.581  1.00  0.00     0.275 C 
ENDROOT
BRANCH   1   2
ATOM      2  O   UNL A   1      33.952  20.590  25.195  1.00  0.00    -0.457 OA
BRANCH   2   3
ATOM      3  C   UNL A   1      32.757  21.191  24.938  1.00  0.00     0.355 C 
ATOM      4  O   UNL A   1      31.782  20.610  24.492  1.00  0.00    -0.244 OA
BRANCH   3   5
ATOM      5  C   UNL A   1      32.768  22.650  25.358  1.00  0.00     0.131 C 
ATOM      6  C   UNL A   1      32.804  22.115  27.832  1.00  0.00     0.043 C 
ATOM      7  C   UNL A   1      32.796  23.061  26.654  1.00  0.00    -0.032 C 
ATOM      8  C   UNL A   1      32.873  24.521  27.090  1.00  0.00     0.105 C 
ATOM      9  N   UNL A   1      32.743  23.596  24.369  1.00  0.00    -0.289 N 
ATOM     10  S   UNL A   1      33.363  25.693  25.787  1.00  0.00    -0.129 SA
ATOM     11  C   UNL A   1      32.944  23.709  23.037  1.00  0.00     0.253 C 
ATOM     12  C   UNL A   1      32.253  24.944  24.585  1.00  0.00     0.181 C 
ATOM     13  O   UNL A   1      33.327  22.955  22.179  1.00  0.00    -0.272 OA
ATOM     14  C   UNL A   1      32.473  25.200  23.075  1.00  0.00     0.206 C 
BRANCH  14  15
ATOM     15  N   UNL A   1      33.466  26.199  22.630  1.00  0.00    -0.336 N 
ATOM     16  C   UNL A   1      33.242  27.514  22.281  1.00  0.00     0.270 C 
ATOM     17  H   UNL A   1      34.399  25.889  22.576  1.00  0.00     0.164 HD
ATOM     18  O   UNL A   1      34.115  28.080  21.627  1.00  0.00    -0.268 OA
BRANCH  16  19
ATOM     19  C   UNL A   1      32.034  28.172  22.718  1.00  0.00     0.126 A 
ATOM     20  C   UNL A   1      30.747  28.114  22.206  1.00  0.00     0.069 A 
ATOM     21  N   UNL A   1      31.914  28.929  23.860  1.00  0.00    -0.262 N 
ATOM     22  C   UNL A   1      29.919  28.846  23.099  1.00  0.00     0.167 A 
ATOM     23  N   UNL A   1      30.654  29.336  24.109  1.00  0.00    -0.168 NA
ATOM     24  C   UNL A   1      32.949  29.324  24.792  1.00  0.00     0.174 C 
BRANCH  22  25
ATOM     25  C   UNL A   1      28.424  29.024  23.005  1.00  0.00     0.435 C 
ATOM     26  F   UNL A   1      28.015  29.330  21.746  1.00  0.00    -0.164 F 
ATOM     27  F   UNL A   1      27.725  27.941  23.418  1.00  0.00    -0.164 F 
ATOM     28  F   UNL A   1      28.020  30.063  23.795  1.00  0.00    -0.164 F 
ENDBRANCH  22  25
ENDBRANCH  16  19
ENDBRANCH  14  15
ENDBRANCH   3   5
ENDBRANCH   2   3
ENDBRANCH   1   2
BRANCH   1  29
ATOM     29  C   UNL A   1      36.403  20.619  25.234  1.00  0.00     0.275 C 
BRANCH  29  30
ATOM     30  O   UNL A   1      37.429  21.628  25.288  1.00  0.00    -0.458 OA
BRANCH  30  31
ATOM     31  C   UNL A   1      38.586  21.223  25.863  1.00  0.00     0.338 C 
ATOM     32  O   UNL A   1      39.114  20.128  25.752  1.00  0.00    -0.246 OA
BRANCH  31  33
ATOM     33  C   UNL A   1      39.279  22.376  26.460  1.00  0.00     0.060 A 
ATOM     34  C   UNL A   1      38.789  23.622  26.087  1.00  0.00     0.016 A 
ATOM     35  C   UNL A   1      40.409  22.286  27.270  1.00  0.00     0.016 A 
ATOM     36  C   UNL A   1      39.416  24.786  26.505  1.00  0.00     0.010 A 
ATOM     37  C   UNL A   1      41.046  23.468  27.692  1.00  0.00     0.010 A 
ATOM     38  C   UNL A   1      40.560  24.730  27.299  1.00  0.00    -0.014 A 
BRANCH  38  39
ATOM     39  C   UNL A   1      41.272  26.012  27.566  1.00  0.00     0.031 A 
ATOM     40  C   UNL A   1      40.589  27.075  28.383  1.00  0.00     0.074 A 
ATOM     41  C   UNL A   1      42.564  26.170  27.216  1.00  0.00     0.049 A 
ATOM     42  N   UNL A   1      41.009  28.268  28.716  1.00  0.00    -0.248 NA
ATOM     43  C   UNL A   1      39.256  26.739  28.902  1.00  0.00     0.031 C 
ATOM     44  C   UNL A   1      43.383  25.168  26.531  1.00  0.00     0.029 A 
ATOM     45  N   UNL A   1      43.424  27.224  27.408  1.00  0.00    -0.354 N 
ATOM     46  C   UNL A   1      39.985  28.835  29.469  1.00  0.00     0.074 A 
ATOM     47  C   UNL A   1      38.911  27.865  29.507  1.00  0.00     0.031 C 
ATOM     48  C   UNL A   1      44.623  25.654  26.365  1.00  0.00     0.029 A 
ATOM     49  C   UNL A   1      44.675  27.024  26.869  1.00  0.00     0.049 A 
ATOM     50  H   UNL A   1      43.170  28.046  27.887  1.00  0.00     0.167 HD
ATOM     51  C   UNL A   1      39.948  30.049  30.076  1.00  0.00     0.034 A 
ATOM     52  C   UNL A   1      45.732  27.856  26.766  1.00  0.00     0.034 A 
ATOM     53  C   UNL A   1      41.032  31.003  30.037  1.00  0.00     0.049 A 
ATOM     54  C   UNL A   1      45.624  29.247  27.344  1.00  0.00     0.074 A 
ATOM     55  C   UNL A   1      41.082  32.273  30.584  1.00  0.00     0.029 A 
ATOM     56  N   UNL A   1      42.258  30.792  29.417  1.00  0.00    -0.354 N 
ATOM     57  N   UNL A   1      44.625  29.800  27.993  1.00  0.00    -0.248 NA
ATOM     58  C   UNL A   1      46.792  30.121  27.181  1.00  0.00     0.031 C 
ATOM     59  C   UNL A   1      42.294  32.866  30.211  1.00  0.00     0.029 A 
ATOM     60  C   UNL A   1      43.049  31.930  29.522  1.00  0.00     0.049 A 
ATOM     61  H   UNL A   1      42.528  29.959  28.970  1.00  0.00     0.167 HD
ATOM     62  C   UNL A   1      45.060  31.076  28.346  1.00  0.00     0.074 A 
ATOM     63  C   UNL A   1      46.418  31.197  27.856  1.00  0.00     0.031 C 
ATOM     64  C   UNL A   1      44.397  32.056  29.014  1.00  0.00     0.034 A 
BRANCH  51  65
ATOM     65  C   UNL A   1      38.651  30.442  30.748  1.00  0.00     0.023 A 
ATOM     66  C   UNL A   1      37.597  31.059  30.049  1.00  0.00     0.031 A 
ATOM     67  C   UNL A   1      38.496  30.252  32.133  1.00  0.00     0.131 A 
ATOM     68  C   UNL A   1      36.485  31.547  30.752  1.00  0.00     0.055 A 
ATOM     69  C   UNL A   1      37.342  30.651  32.810  1.00  0.00     0.041 A 
ATOM     70  F   UNL A   1      39.477  29.696  32.863  1.00  0.00    -0.206 F 
ATOM     71  C   UNL A   1      36.336  31.321  32.123  1.00  0.00     0.022 A 
BRANCH  68  72
ATOM     72  S   UNL A   1      35.326  32.647  29.890  1.00  0.00     0.124 S 
ATOM     73  O   UNL A   1      34.280  32.824  30.896  1.00  0.00    -0.237 OA
ATOM     74  O   UNL A   1      36.148  33.819  29.611  1.00  0.00    -0.237 OA
ATOM     75  O   UNL A   1      34.923  31.873  28.718  1.00  0.00    -0.744 OA
ENDBRANCH  68  72
ENDBRANCH  51  65
BRANCH  52  76
ATOM     76  C   UNL A   1      46.968  27.426  26.046  1.00  0.00     0.023 A 
ATOM     77  C   UNL A   1      48.101  26.967  26.739  1.00  0.00     0.031 A 
ATOM     78  C   UNL A   1      47.055  27.530  24.645  1.00  0.00     0.131 A 
ATOM     79  C   UNL A   1      49.281  26.674  26.035  1.00  0.00     0.055 A 
ATOM     80  C   UNL A   1      48.209  27.175  23.946  1.00  0.00     0.041 A 
ATOM     81  F   UNL A   1      46.009  27.975  23.931  1.00  0.00    -0.206 F 
ATOM     82  C   UNL A   1      49.337  26.757  24.642  1.00  0.00     0.022 A 
BRANCH  79  83
ATOM     83  S   UNL A   1      50.778  26.271  26.977  1.00  0.00     0.124 S 
ATOM     84  O   UNL A   1      50.415  26.719  28.316  1.00  0.00    -0.237 OA
ATOM     85  O   UNL A   1      50.872  24.827  26.788  1.00  0.00    -0.237 OA
ATOM     86  O   UNL A   1      51.819  27.055  26.316  1.00  0.00    -0.744 OA
ENDBRANCH  79  83
ENDBRANCH  52  76
BRANCH  64  87
ATOM     87  C   UNL A   1      45.157  33.336  29.289  1.00  0.00     0.023 A 
ATOM     88  C   UNL A   1      45.146  34.418  28.388  1.00  0.00     0.031 A 
ATOM     89  C   UNL A   1      45.941  33.462  30.451  1.00  0.00     0.131 A 
ATOM     90  C   UNL A   1      45.967  35.531  28.618  1.00  0.00     0.055 A 
ATOM     91  C   UNL A   1      46.690  34.610  30.716  1.00  0.00     0.041 A 
ATOM     92  F   UNL A   1      45.999  32.467  31.350  1.00  0.00    -0.206 F 
ATOM     93  C   UNL A   1      46.724  35.644  29.787  1.00  0.00     0.022 A 
BRANCH  90  94
ATOM     94  S   UNL A   1      46.153  36.763  27.297  1.00  0.00     0.124 S 
ATOM     95  O   UNL A   1      46.806  37.862  27.999  1.00  0.00    -0.237 OA
ATOM     96  O   UNL A   1      46.972  36.053  26.322  1.00  0.00    -0.237 OA
ATOM     97  O   UNL A   1      44.777  37.025  26.877  1.00  0.00    -0.744 OA
ENDBRANCH  90  94
ENDBRANCH  64  87
ENDBRANCH  38  39
ENDBRANCH  31  33
ENDBRANCH  30  31
ENDBRANCH  29  30
ENDBRANCH   1  29
TORSDOF 17
ENDMDL
