MODEL 1
REMARK VINA RESULT:     -12.0      0.000      0.000
REMARK SMILES Cc1ccc([C@H](C)Nc2ccc(C(=O)OCCOC(=O)c3ccc(-c4c5nc(c(-c6cc(S(=O)(=O)[O-])ccc6F)c6ccc([nH]6)c(-c6cc(S(=O)(=O)[O-])ccc6F)c6nc(c(-c7cc(S(=O)(=O)[O-])ccc7F)c7ccc4[nH]7)C=C6)C=C5)cc3)cc2Cl)cc1F
REMARK SMILES IDX 16 1 15 2 13 3 14 4 12 5 9 6 10 7 85 8 11 9 84 10 86 11 8 12
REMARK SMILES IDX 6 14 7 15 5 16 1 17 2 18 3 19 88 20 4 21 87 22 89 23 17 24
REMARK SMILES IDX 18 25 19 26 20 27 21 28 22 29 83 30 23 31 82 32 24 33 25 34
REMARK SMILES IDX 26 35 76 36 27 37 81 38 75 39 77 40 28 41 80 42 74 43 73 44
REMARK SMILES IDX 29 46 61 47 41 48 60 49 42 50 45 51 59 52 78 53 43 54 44 55
REMARK SMILES IDX 58 57 79 58 46 59 30 60 31 61 39 62 32 63 38 64 40 65 37 66
REMARK SMILES IDX 33 67 34 68 35 69 36 70 62 71 63 72 71 73 64 74 70 75 72 76
REMARK SMILES IDX 69 77 65 78 66 79 67 80 68 81 47 82 48 83 56 84 49 85 55 86
REMARK SMILES IDX 57 87 54 88 50 89 51 90 52 91 53 92
REMARK H PARENT 8 13 77 45 45 56
REMARK Flexibility Score: inf
ROOT
ATOM      1  C   UNL A   1      43.438  18.582  25.687  1.00  0.00     0.275 C 
ENDROOT
BRANCH   1   2
ATOM      2  O   UNL A   1      42.162  19.210  25.442  1.00  0.00    -0.458 OA
BRANCH   2   3
ATOM      3  C   UNL A   1      41.458  19.642  26.524  1.00  0.00     0.338 C 
ATOM      4  O   UNL A   1      41.815  19.551  27.693  1.00  0.00    -0.246 OA
BRANCH   3   5
ATOM      5  C   UNL A   1      40.193  20.298  26.102  1.00  0.00     0.061 A 
ATOM      6  C   UNL A   1      37.712  21.483  25.388  1.00  0.00     0.053 A 
ATOM      7  C   UNL A   1      38.031  20.169  25.019  1.00  0.00     0.028 A 
ATOM      8  C   UNL A   1      38.711  22.220  26.051  1.00  0.00     0.065 A 
ATOM      9  C   UNL A   1      39.261  19.588  25.345  1.00  0.00     0.018 A 
ATOM     10  C   UNL A   1      39.917  21.622  26.441  1.00  0.00     0.038 A 
ATOM     11  Cl  UNL A   1      38.532  23.882  26.501  1.00  0.00    -0.082 Cl
BRANCH   6  12
ATOM     12  N   UNL A   1      36.442  21.939  25.071  1.00  0.00    -0.377 N 
ATOM     13  H   UNL A   1      36.342  22.498  24.267  1.00  0.00     0.161 HD
BRANCH  12  14
ATOM     14  C   UNL A   1      35.246  21.647  25.845  1.00  0.00     0.106 C 
ATOM     15  C   UNL A   1      34.595  22.985  26.231  1.00  0.00     0.036 C 
BRANCH  14  16
ATOM     16  C   UNL A   1      34.366  20.650  25.085  1.00  0.00    -0.023 A 
ATOM     17  C   UNL A   1      32.153  18.075  22.382  1.00  0.00     0.047 C 
ATOM     18  C   UNL A   1      32.898  18.937  23.353  1.00  0.00    -0.015 A 
ATOM     19  C   UNL A   1      33.874  18.418  24.208  1.00  0.00     0.007 A 
ATOM     20  C   UNL A   1      32.644  20.304  23.391  1.00  0.00     0.126 A 
ATOM     21  C   UNL A   1      34.604  19.266  25.058  1.00  0.00     0.006 A 
ATOM     22  C   UNL A   1      33.346  21.141  24.247  1.00  0.00     0.045 A 
ATOM     23  F   UNL A   1      31.732  20.836  22.563  1.00  0.00    -0.207 F 
ENDBRANCH  14  16
ENDBRANCH  12  14
ENDBRANCH   6  12
ENDBRANCH   3   5
ENDBRANCH   2   3
ENDBRANCH   1   2
BRANCH   1  24
ATOM     24  C   UNL A   1      44.575  19.151  24.838  1.00  0.00     0.275 C 
BRANCH  24  25
ATOM     25  O   UNL A   1      44.241  20.453  24.363  1.00  0.00    -0.458 OA
BRANCH  25  26
ATOM     26  C   UNL A   1      44.721  21.413  25.182  1.00  0.00     0.338 C 
ATOM     27  O   UNL A   1      45.816  21.440  25.721  1.00  0.00    -0.246 OA
BRANCH  26  28
ATOM     28  C   UNL A   1      43.676  22.370  25.511  1.00  0.00     0.060 A 
ATOM     29  C   UNL A   1      43.494  23.395  24.575  1.00  0.00     0.016 A 
ATOM     30  C   UNL A   1      43.508  22.552  26.880  1.00  0.00     0.016 A 
ATOM     31  C   UNL A   1      43.442  24.694  25.022  1.00  0.00     0.010 A 
ATOM     32  C   UNL A   1      43.483  23.844  27.321  1.00  0.00     0.010 A 
ATOM     33  C   UNL A   1      43.554  24.890  26.386  1.00  0.00    -0.014 A 
BRANCH  33  34
ATOM     34  C   UNL A   1      43.644  26.200  26.971  1.00  0.00     0.031 A 
ATOM     35  C   UNL A   1      42.399  26.970  27.022  1.00  0.00     0.074 A 
ATOM     36  C   UNL A   1      44.734  26.441  27.729  1.00  0.00     0.049 A 
ATOM     37  N   UNL A   1      42.319  28.156  27.498  1.00  0.00    -0.248 NA
ATOM     38  C   UNL A   1      41.127  26.467  26.498  1.00  0.00     0.031 C 
ATOM     39  C   UNL A   1      44.808  27.267  28.920  1.00  0.00     0.029 A 
ATOM     40  N   UNL A   1      46.064  26.080  27.479  1.00  0.00    -0.354 N 
ATOM     41  C   UNL A   1      40.981  28.416  27.680  1.00  0.00     0.074 A 
ATOM     42  C   UNL A   1      40.285  27.423  26.900  1.00  0.00     0.031 C 
ATOM     43  C   UNL A   1      46.097  27.556  29.164  1.00  0.00     0.029 A 
ATOM     44  C   UNL A   1      46.849  27.130  27.994  1.00  0.00     0.049 A 
ATOM     45  H   UNL A   1      46.384  25.260  27.036  1.00  0.00     0.167 HD
ATOM     46  C   UNL A   1      40.637  29.332  28.624  1.00  0.00     0.034 A 
ATOM     47  C   UNL A   1      47.600  27.963  27.207  1.00  0.00     0.034 A 
ATOM     48  C   UNL A   1      41.840  29.953  29.183  1.00  0.00     0.049 A 
ATOM     49  C   UNL A   1      47.178  29.427  27.305  1.00  0.00     0.074 A 
ATOM     50  C   UNL A   1      42.570  29.768  30.345  1.00  0.00     0.029 A 
ATOM     51  N   UNL A   1      42.652  30.677  28.334  1.00  0.00    -0.354 N 
ATOM     52  N   UNL A   1      46.134  29.843  27.967  1.00  0.00    -0.248 NA
ATOM     53  C   UNL A   1      47.832  30.520  26.584  1.00  0.00     0.031 C 
ATOM     54  C   UNL A   1      43.828  30.420  30.184  1.00  0.00     0.029 A 
ATOM     55  C   UNL A   1      43.850  31.012  28.934  1.00  0.00     0.049 A 
ATOM     56  H   UNL A   1      42.408  30.925  27.412  1.00  0.00     0.167 HD
ATOM     57  C   UNL A   1      45.907  31.167  27.709  1.00  0.00     0.074 A 
ATOM     58  C   UNL A   1      47.013  31.554  26.853  1.00  0.00     0.031 C 
ATOM     59  C   UNL A   1      44.797  31.814  28.175  1.00  0.00     0.034 A 
BRANCH  46  60
ATOM     60  C   UNL A   1      39.256  29.522  29.211  1.00  0.00     0.023 A 
ATOM     61  C   UNL A   1      38.334  30.515  28.816  1.00  0.00     0.031 A 
ATOM     62  C   UNL A   1      38.789  28.622  30.194  1.00  0.00     0.131 A 
ATOM     63  C   UNL A   1      37.023  30.552  29.331  1.00  0.00     0.055 A 
ATOM     64  C   UNL A   1      37.493  28.669  30.717  1.00  0.00     0.041 A 
ATOM     65  F   UNL A   1      39.559  27.633  30.670  1.00  0.00    -0.206 F 
ATOM     66  C   UNL A   1      36.597  29.628  30.279  1.00  0.00     0.022 A 
BRANCH  63  67
ATOM     67  S   UNL A   1      35.807  31.772  28.747  1.00  0.00     0.124 S 
ATOM     68  O   UNL A   1      35.183  31.071  27.625  1.00  0.00    -0.237 OA
ATOM     69  O   UNL A   1      34.954  31.954  29.918  1.00  0.00    -0.237 OA
ATOM     70  O   UNL A   1      36.616  32.929  28.375  1.00  0.00    -0.744 OA
ENDBRANCH  63  67
ENDBRANCH  46  60
BRANCH  47  71
ATOM     71  C   UNL A   1      48.078  27.319  25.948  1.00  0.00     0.023 A 
ATOM     72  C   UNL A   1      49.437  26.993  25.808  1.00  0.00     0.031 A 
ATOM     73  C   UNL A   1      47.299  27.466  24.780  1.00  0.00     0.131 A 
ATOM     74  C   UNL A   1      50.012  26.975  24.527  1.00  0.00     0.055 A 
ATOM     75  C   UNL A   1      47.879  27.453  23.510  1.00  0.00     0.041 A 
ATOM     76  F   UNL A   1      45.991  27.759  24.872  1.00  0.00    -0.206 F 
ATOM     77  C   UNL A   1      49.251  27.248  23.384  1.00  0.00     0.022 A 
BRANCH  74  78
ATOM     78  S   UNL A   1      51.807  26.795  24.329  1.00  0.00     0.124 S 
ATOM     79  O   UNL A   1      52.316  28.067  24.836  1.00  0.00    -0.237 OA
ATOM     80  O   UNL A   1      52.095  25.637  25.166  1.00  0.00    -0.237 OA
ATOM     81  O   UNL A   1      51.973  26.572  22.899  1.00  0.00    -0.744 OA
ENDBRANCH  74  78
ENDBRANCH  47  71
BRANCH  59  82
ATOM     82  C   UNL A   1      44.451  33.261  27.919  1.00  0.00     0.023 A 
ATOM     83  C   UNL A   1      44.668  34.224  28.936  1.00  0.00     0.031 A 
ATOM     84  C   UNL A   1      44.057  33.763  26.672  1.00  0.00     0.131 A 
ATOM     85  C   UNL A   1      44.469  35.590  28.720  1.00  0.00     0.055 A 
ATOM     86  C   UNL A   1      43.817  35.128  26.464  1.00  0.00     0.041 A 
ATOM     87  F   UNL A   1      43.951  32.959  25.603  1.00  0.00    -0.206 F 
ATOM     88  C   UNL A   1      44.020  36.049  27.488  1.00  0.00     0.022 A 
BRANCH  85  89
ATOM     89  S   UNL A   1      44.867  36.799  30.014  1.00  0.00     0.124 S 
ATOM     90  O   UNL A   1      46.173  36.329  30.473  1.00  0.00    -0.237 OA
ATOM     91  O   UNL A   1      44.883  38.049  29.258  1.00  0.00    -0.237 OA
ATOM     92  O   UNL A   1      43.778  36.661  30.973  1.00  0.00    -0.744 OA
ENDBRANCH  85  89
ENDBRANCH  59  82
ENDBRANCH  33  34
ENDBRANCH  26  28
ENDBRANCH  25  26
ENDBRANCH  24  25
ENDBRANCH   1  24
TORSDOF 17
ENDMDL
MODEL 2
REMARK VINA RESULT:     -11.4      4.166      5.715
REMARK SMILES Cc1ccc([C@H](C)Nc2ccc(C(=O)OCCOC(=O)c3ccc(-c4c5nc(c(-c6cc(S(=O)(=O)[O-])ccc6F)c6ccc([nH]6)c(-c6cc(S(=O)(=O)[O-])ccc6F)c6nc(c(-c7cc(S(=O)(=O)[O-])ccc7F)c7ccc4[nH]7)C=C6)C=C5)cc3)cc2Cl)cc1F
REMARK SMILES IDX 16 1 15 2 13 3 14 4 12 5 9 6 10 7 85 8 11 9 84 10 86 11 8 12
REMARK SMILES IDX 6 14 7 15 5 16 1 17 2 18 3 19 88 20 4 21 87 22 89 23 17 24
REMARK SMILES IDX 18 25 19 26 20 27 21 28 22 29 83 30 23 31 82 32 24 33 25 34
REMARK SMILES IDX 26 35 76 36 27 37 81 38 75 39 77 40 28 41 80 42 74 43 73 44
REMARK SMILES IDX 29 46 61 47 41 48 60 49 42 50 45 51 59 52 78 53 43 54 44 55
REMARK SMILES IDX 58 57 79 58 46 59 30 60 31 61 39 62 32 63 38 64 40 65 37 66
REMARK SMILES IDX 33 67 34 68 35 69 36 70 62 71 63 72 71 73 64 74 70 75 72 76
REMARK SMILES IDX 69 77 65 78 66 79 67 80 68 81 47 82 48 83 56 84 49 85 55 86
REMARK SMILES IDX 57 87 54 88 50 89 51 90 52 91 53 92
REMARK H PARENT 8 13 77 45 45 56
REMARK Flexibility Score: inf
ROOT
ATOM      1  C   UNL A   1      38.121  21.434  25.187  1.00  0.00     0.275 C 
ENDROOT
BRANCH   1   2
ATOM      2  O   UNL A   1      36.853  21.842  25.741  1.00  0.00    -0.458 OA
BRANCH   2   3
ATOM      3  C   UNL A   1      35.725  21.374  25.137  1.00  0.00     0.338 C 
ATOM      4  O   UNL A   1      35.418  20.195  25.011  1.00  0.00    -0.246 OA
BRANCH   3   5
ATOM      5  C   UNL A   1      34.867  22.499  24.680  1.00  0.00     0.061 A 
ATOM      6  C   UNL A   1      33.143  24.560  23.760  1.00  0.00     0.053 A 
ATOM      7  C   UNL A   1      33.961  23.838  22.879  1.00  0.00     0.028 A 
ATOM      8  C   UNL A   1      33.280  24.278  25.133  1.00  0.00     0.065 A 
ATOM      9  C   UNL A   1      34.831  22.840  23.329  1.00  0.00     0.018 A 
ATOM     10  C   UNL A   1      34.098  23.233  25.582  1.00  0.00     0.038 A 
ATOM     11  Cl  UNL A   1      32.423  25.130  26.372  1.00  0.00    -0.082 Cl
BRANCH   6  12
ATOM     12  N   UNL A   1      32.270  25.482  23.203  1.00  0.00    -0.377 N 
ATOM     13  H   UNL A   1      31.431  25.142  22.816  1.00  0.00     0.161 HD
BRANCH  12  14
ATOM     14  C   UNL A   1      32.509  26.915  23.153  1.00  0.00     0.106 C 
ATOM     15  C   UNL A   1      33.619  27.172  22.122  1.00  0.00     0.036 C 
BRANCH  14  16
ATOM     16  C   UNL A   1      31.185  27.654  22.935  1.00  0.00    -0.023 A 
ATOM     17  C   UNL A   1      27.402  29.779  22.980  1.00  0.00     0.047 C 
ATOM     18  C   UNL A   1      28.709  29.053  22.915  1.00  0.00    -0.015 A 
ATOM     19  C   UNL A   1      29.876  29.665  22.451  1.00  0.00     0.007 A 
ATOM     20  C   UNL A   1      28.783  27.737  23.358  1.00  0.00     0.126 A 
ATOM     21  C   UNL A   1      31.101  28.976  22.468  1.00  0.00     0.006 A 
ATOM     22  C   UNL A   1      29.987  27.044  23.353  1.00  0.00     0.045 A 
ATOM     23  F   UNL A   1      27.685  27.129  23.833  1.00  0.00    -0.207 F 
ENDBRANCH  14  16
ENDBRANCH  12  14
ENDBRANCH   6  12
ENDBRANCH   3   5
ENDBRANCH   2   3
ENDBRANCH   1   2
BRANCH   1  24
ATOM     24  C   UNL A   1      39.269  21.462  26.197  1.00  0.00     0.275 C 
BRANCH  24  25
ATOM     25  O   UNL A   1      40.105  22.595  25.972  1.00  0.00    -0.458 OA
BRANCH  25  26
ATOM     26  C   UNL A   1      40.383  23.236  27.127  1.00  0.00     0.338 C 
ATOM     27  O   UNL A   1      40.944  22.774  28.108  1.00  0.00    -0.246 OA
BRANCH  26  28
ATOM     28  C   UNL A   1      39.755  24.548  27.145  1.00  0.00     0.060 A 
ATOM     29  C   UNL A   1      40.399  25.525  26.377  1.00  0.00     0.016 A 
ATOM     30  C   UNL A   1      39.102  24.829  28.341  1.00  0.00     0.016 A 
ATOM     31  C   UNL A   1      40.665  26.745  26.951  1.00  0.00     0.010 A 
ATOM     32  C   UNL A   1      39.390  26.033  28.920  1.00  0.00     0.010 A 
ATOM     33  C   UNL A   1      40.249  26.925  28.258  1.00  0.00    -0.014 A 
BRANCH  33  34
ATOM     34  C   UNL A   1      40.576  28.102  29.015  1.00  0.00     0.031 A 
ATOM     35  C   UNL A   1      39.692  29.255  28.828  1.00  0.00     0.074 A 
ATOM     36  C   UNL A   1      41.403  27.924  30.067  1.00  0.00     0.049 A 
ATOM     37  N   UNL A   1      39.860  30.379  29.419  1.00  0.00    -0.248 NA
ATOM     38  C   UNL A   1      38.547  29.243  27.915  1.00  0.00     0.031 C 
ATOM     39  C   UNL A   1      41.376  28.634  31.332  1.00  0.00     0.029 A 
ATOM     40  N   UNL A   1      42.555  27.130  30.142  1.00  0.00    -0.354 N 
ATOM     41  C   UNL A   1      38.688  31.082  29.262  1.00  0.00     0.074 A 
ATOM     42  C   UNL A   1      37.979  30.419  28.196  1.00  0.00     0.031 C 
ATOM     43  C   UNL A   1      42.552  28.448  31.955  1.00  0.00     0.029 A 
ATOM     44  C   UNL A   1      43.442  27.824  30.987  1.00  0.00     0.049 A 
ATOM     45  H   UNL A   1      42.711  26.266  29.697  1.00  0.00     0.167 HD
ATOM     46  C   UNL A   1      38.390  32.029  30.191  1.00  0.00     0.034 A 
ATOM     47  C   UNL A   1      44.623  28.369  30.554  1.00  0.00     0.034 A 
ATOM     48  C   UNL A   1      39.501  32.174  31.134  1.00  0.00     0.049 A 
ATOM     49  C   UNL A   1      44.686  29.885  30.728  1.00  0.00     0.074 A 
ATOM     50  C   UNL A   1      39.746  31.709  32.416  1.00  0.00     0.029 A 
ATOM     51  N   UNL A   1      40.720  32.598  30.644  1.00  0.00    -0.354 N 
ATOM     52  N   UNL A   1      43.685  30.616  31.131  1.00  0.00    -0.248 NA
ATOM     53  C   UNL A   1      45.844  30.705  30.367  1.00  0.00     0.031 C 
ATOM     54  C   UNL A   1      41.133  31.888  32.692  1.00  0.00     0.029 A 
ATOM     55  C   UNL A   1      41.721  32.475  31.587  1.00  0.00     0.049 A 
ATOM     56  H   UNL A   1      40.859  32.945  29.733  1.00  0.00     0.167 HD
ATOM     57  C   UNL A   1      43.986  31.944  31.001  1.00  0.00     0.074 A 
ATOM     58  C   UNL A   1      45.362  31.950  30.539  1.00  0.00     0.031 C 
ATOM     59  C   UNL A   1      43.059  32.922  31.229  1.00  0.00     0.034 A 
BRANCH  46  60
ATOM     60  C   UNL A   1      37.035  32.669  30.399  1.00  0.00     0.023 A 
ATOM     61  C   UNL A   1      36.367  32.772  31.638  1.00  0.00     0.031 A 
ATOM     62  C   UNL A   1      36.377  33.273  29.306  1.00  0.00     0.131 A 
ATOM     63  C   UNL A   1      35.159  33.486  31.768  1.00  0.00     0.055 A 
ATOM     64  C   UNL A   1      35.170  33.968  29.431  1.00  0.00     0.041 A 
ATOM     65  F   UNL A   1      36.891  33.247  28.068  1.00  0.00    -0.206 F 
ATOM     66  C   UNL A   1      34.560  34.089  30.667  1.00  0.00     0.022 A 
BRANCH  63  67
ATOM     67  S   UNL A   1      34.352  33.701  33.383  1.00  0.00     0.124 S 
ATOM     68  O   UNL A   1      35.331  33.113  34.296  1.00  0.00    -0.237 OA
ATOM     69  O   UNL A   1      34.208  35.151  33.475  1.00  0.00    -0.237 OA
ATOM     70  O   UNL A   1      33.103  32.954  33.257  1.00  0.00    -0.744 OA
ENDBRANCH  63  67
ENDBRANCH  46  60
BRANCH  47  71
ATOM     71  C   UNL A   1      45.224  27.641  29.399  1.00  0.00     0.023 A 
ATOM     72  C   UNL A   1      44.871  28.005  28.089  1.00  0.00     0.031 A 
ATOM     73  C   UNL A   1      45.749  26.349  29.618  1.00  0.00     0.131 A 
ATOM     74  C   UNL A   1      44.903  27.037  27.073  1.00  0.00     0.055 A 
ATOM     75  C   UNL A   1      45.771  25.389  28.603  1.00  0.00     0.041 A 
ATOM     76  F   UNL A   1      46.116  25.968  30.853  1.00  0.00    -0.206 F 
ATOM     77  C   UNL A   1      45.306  25.721  27.334  1.00  0.00     0.022 A 
BRANCH  74  78
ATOM     78  S   UNL A   1      44.228  27.408  25.430  1.00  0.00     0.124 S 
ATOM     79  O   UNL A   1      43.311  28.512  25.699  1.00  0.00    -0.237 OA
ATOM     80  O   UNL A   1      45.425  27.768  24.679  1.00  0.00    -0.237 OA
ATOM     81  O   UNL A   1      43.606  26.154  25.023  1.00  0.00    -0.744 OA
ENDBRANCH  74  78
ENDBRANCH  47  71
BRANCH  59  82
ATOM     82  C   UNL A   1      43.292  34.406  31.085  1.00  0.00     0.023 A 
ATOM     83  C   UNL A   1      43.380  35.217  32.244  1.00  0.00     0.031 A 
ATOM     84  C   UNL A   1      43.581  35.038  29.870  1.00  0.00     0.131 A 
ATOM     85  C   UNL A   1      43.703  36.575  32.177  1.00  0.00     0.055 A 
ATOM     86  C   UNL A   1      43.864  36.410  29.795  1.00  0.00     0.041 A 
ATOM     87  F   UNL A   1      43.658  34.341  28.726  1.00  0.00    -0.206 F 
ATOM     88  C   UNL A   1      43.925  37.186  30.949  1.00  0.00     0.022 A 
BRANCH  85  89
ATOM     89  S   UNL A   1      43.916  37.552  33.692  1.00  0.00     0.124 S 
ATOM     90  O   UNL A   1      42.669  37.277  34.404  1.00  0.00    -0.237 OA
ATOM     91  O   UNL A   1      45.112  36.946  34.271  1.00  0.00    -0.237 OA
ATOM     92  O   UNL A   1      44.075  38.918  33.212  1.00  0.00    -0.744 OA
ENDBRANCH  85  89
ENDBRANCH  59  82
ENDBRANCH  33  34
ENDBRANCH  26  28
ENDBRANCH  25  26
ENDBRANCH  24  25
ENDBRANCH   1  24
TORSDOF 17
ENDMDL
MODEL 3
REMARK VINA RESULT:     -11.4      5.211     10.943
REMARK SMILES Cc1ccc([C@H](C)Nc2ccc(C(=O)OCCOC(=O)c3ccc(-c4c5nc(c(-c6cc(S(=O)(=O)[O-])ccc6F)c6ccc([nH]6)c(-c6cc(S(=O)(=O)[O-])ccc6F)c6nc(c(-c7cc(S(=O)(=O)[O-])ccc7F)c7ccc4[nH]7)C=C6)C=C5)cc3)cc2Cl)cc1F
REMARK SMILES IDX 16 1 15 2 13 3 14 4 12 5 9 6 10 7 85 8 11 9 84 10 86 11 8 12
REMARK SMILES IDX 6 14 7 15 5 16 1 17 2 18 3 19 88 20 4 21 87 22 89 23 17 24
REMARK SMILES IDX 18 25 19 26 20 27 21 28 22 29 83 30 23 31 82 32 24 33 25 34
REMARK SMILES IDX 26 35 76 36 27 37 81 38 75 39 77 40 28 41 80 42 74 43 73 44
REMARK SMILES IDX 29 46 61 47 41 48 60 49 42 50 45 51 59 52 78 53 43 54 44 55
REMARK SMILES IDX 58 57 79 58 46 59 30 60 31 61 39 62 32 63 38 64 40 65 37 66
REMARK SMILES IDX 33 67 34 68 35 69 36 70 62 71 63 72 71 73 64 74 70 75 72 76
REMARK SMILES IDX 69 77 65 78 66 79 67 80 68 81 47 82 48 83 56 84 49 85 55 86
REMARK SMILES IDX 57 87 54 88 50 89 51 90 52 91 53 92
REMARK H PARENT 8 13 77 45 45 56
REMARK Flexibility Score: inf
ROOT
ATOM      1  C   UNL A   1      33.784  31.000  27.634  1.00  0.00     0.275 C 
ENDROOT
BRANCH   1   2
ATOM      2  O   UNL A   1      33.865  29.725  26.962  1.00  0.00    -0.458 OA
BRANCH   2   3
ATOM      3  C   UNL A   1      32.883  29.424  26.068  1.00  0.00     0.338 C 
ATOM      4  O   UNL A   1      32.280  30.229  25.370  1.00  0.00    -0.246 OA
BRANCH   3   5
ATOM      5  C   UNL A   1      32.659  27.956  26.007  1.00  0.00     0.061 A 
ATOM      6  C   UNL A   1      32.272  25.141  26.014  1.00  0.00     0.053 A 
ATOM      7  C   UNL A   1      33.550  25.707  25.894  1.00  0.00     0.028 A 
ATOM      8  C   UNL A   1      31.181  26.030  26.041  1.00  0.00     0.065 A 
ATOM      9  C   UNL A   1      33.744  27.092  25.864  1.00  0.00     0.018 A 
ATOM     10  C   UNL A   1      31.375  27.418  26.081  1.00  0.00     0.038 A 
ATOM     11  Cl  UNL A   1      29.530  25.513  26.092  1.00  0.00    -0.082 Cl
BRANCH   6  12
ATOM     12  N   UNL A   1      32.197  23.760  26.099  1.00  0.00    -0.377 N 
ATOM     13  H   UNL A   1      31.308  23.356  26.231  1.00  0.00     0.161 HD
BRANCH  12  14
ATOM     14  C   UNL A   1      33.340  22.866  26.006  1.00  0.00     0.106 C 
ATOM     15  C   UNL A   1      33.890  22.654  27.425  1.00  0.00     0.036 C 
BRANCH  14  16
ATOM     16  C   UNL A   1      32.951  21.607  25.225  1.00  0.00    -0.023 A 
ATOM     17  C   UNL A   1      32.367  18.184  22.622  1.00  0.00     0.047 C 
ATOM     18  C   UNL A   1      32.534  19.346  23.550  1.00  0.00    -0.015 A 
ATOM     19  C   UNL A   1      32.946  19.184  24.875  1.00  0.00     0.007 A 
ATOM     20  C   UNL A   1      32.306  20.635  23.081  1.00  0.00     0.126 A 
ATOM     21  C   UNL A   1      33.159  20.302  25.700  1.00  0.00     0.006 A 
ATOM     22  C   UNL A   1      32.491  21.741  23.901  1.00  0.00     0.045 A 
ATOM     23  F   UNL A   1      31.934  20.825  21.806  1.00  0.00    -0.207 F 
ENDBRANCH  14  16
ENDBRANCH  12  14
ENDBRANCH   6  12
ENDBRANCH   3   5
ENDBRANCH   2   3
ENDBRANCH   1   2
BRANCH   1  24
ATOM     24  C   UNL A   1      35.148  31.609  27.960  1.00  0.00     0.275 C 
BRANCH  24  25
ATOM     25  O   UNL A   1      35.072  33.033  27.959  1.00  0.00    -0.458 OA
BRANCH  25  26
ATOM     26  C   UNL A   1      34.749  33.508  29.180  1.00  0.00     0.338 C 
ATOM     27  O   UNL A   1      33.640  33.837  29.572  1.00  0.00    -0.246 OA
BRANCH  26  28
ATOM     28  C   UNL A   1      35.949  33.765  29.960  1.00  0.00     0.060 A 
ATOM     29  C   UNL A   1      37.114  33.969  29.209  1.00  0.00     0.016 A 
ATOM     30  C   UNL A   1      35.945  33.134  31.201  1.00  0.00     0.016 A 
ATOM     31  C   UNL A   1      38.246  33.268  29.548  1.00  0.00     0.010 A 
ATOM     32  C   UNL A   1      37.064  32.419  31.520  1.00  0.00     0.010 A 
ATOM     33  C   UNL A   1      38.155  32.419  30.635  1.00  0.00    -0.014 A 
BRANCH  33  34
ATOM     34  C   UNL A   1      39.223  31.536  31.016  1.00  0.00     0.031 A 
ATOM     35  C   UNL A   1      39.190  30.194  30.430  1.00  0.00     0.074 A 
ATOM     36  C   UNL A   1      40.315  32.118  31.555  1.00  0.00     0.049 A 
ATOM     37  N   UNL A   1      40.060  29.289  30.683  1.00  0.00    -0.248 NA
ATOM     38  C   UNL A   1      38.133  29.745  29.521  1.00  0.00     0.031 C 
ATOM     39  C   UNL A   1      41.696  31.701  31.401  1.00  0.00     0.029 A 
ATOM     40  N   UNL A   1      40.373  33.159  32.491  1.00  0.00    -0.354 N 
ATOM     41  C   UNL A   1      39.899  28.313  29.728  1.00  0.00     0.074 A 
ATOM     42  C   UNL A   1      38.603  28.553  29.143  1.00  0.00     0.031 C 
ATOM     43  C   UNL A   1      42.432  32.284  32.362  1.00  0.00     0.029 A 
ATOM     44  C   UNL A   1      41.493  32.884  33.298  1.00  0.00     0.049 A 
ATOM     45  H   UNL A   1      39.757  33.924  32.567  1.00  0.00     0.167 HD
ATOM     46  C   UNL A   1      40.975  27.536  29.430  1.00  0.00     0.034 A 
ATOM     47  C   UNL A   1      41.402  32.556  34.626  1.00  0.00     0.034 A 
ATOM     48  C   UNL A   1      42.089  27.856  30.326  1.00  0.00     0.049 A 
ATOM     49  C   UNL A   1      41.955  31.168  34.942  1.00  0.00     0.074 A 
ATOM     50  C   UNL A   1      43.236  28.621  30.203  1.00  0.00     0.029 A 
ATOM     51  N   UNL A   1      41.919  27.640  31.679  1.00  0.00    -0.354 N 
ATOM     52  N   UNL A   1      42.363  30.321  34.038  1.00  0.00    -0.248 NA
ATOM     53  C   UNL A   1      41.997  30.588  36.285  1.00  0.00     0.031 C 
ATOM     54  C   UNL A   1      43.765  28.836  31.509  1.00  0.00     0.029 A 
ATOM     55  C   UNL A   1      42.948  28.188  32.417  1.00  0.00     0.049 A 
ATOM     56  H   UNL A   1      41.156  27.154  32.069  1.00  0.00     0.167 HD
ATOM     57  C   UNL A   1      42.616  29.105  34.609  1.00  0.00     0.074 A 
ATOM     58  C   UNL A   1      42.394  29.328  36.026  1.00  0.00     0.031 C 
ATOM     59  C   UNL A   1      42.930  28.005  33.861  1.00  0.00     0.034 A 
BRANCH  46  60
ATOM     60  C   UNL A   1      41.117  26.652  28.211  1.00  0.00     0.023 A 
ATOM     61  C   UNL A   1      41.099  25.241  28.222  1.00  0.00     0.031 A 
ATOM     62  C   UNL A   1      41.223  27.244  26.933  1.00  0.00     0.131 A 
ATOM     63  C   UNL A   1      41.121  24.493  27.029  1.00  0.00     0.055 A 
ATOM     64  C   UNL A   1      41.261  26.501  25.749  1.00  0.00     0.041 A 
ATOM     65  F   UNL A   1      41.259  28.575  26.770  1.00  0.00    -0.206 F 
ATOM     66  C   UNL A   1      41.198  25.120  25.789  1.00  0.00     0.022 A 
BRANCH  63  67
ATOM     67  S   UNL A   1      40.999  22.679  27.043  1.00  0.00     0.124 S 
ATOM     68  O   UNL A   1      42.003  22.296  26.052  1.00  0.00    -0.237 OA
ATOM     69  O   UNL A   1      41.334  22.349  28.425  1.00  0.00    -0.237 OA
ATOM     70  O   UNL A   1      39.617  22.413  26.653  1.00  0.00    -0.744 OA
ENDBRANCH  63  67
ENDBRANCH  46  60
BRANCH  47  71
ATOM     71  C   UNL A   1      40.213  33.149  35.303  1.00  0.00     0.023 A 
ATOM     72  C   UNL A   1      40.388  34.197  36.222  1.00  0.00     0.031 A 
ATOM     73  C   UNL A   1      39.028  32.384  35.376  1.00  0.00     0.131 A 
ATOM     74  C   UNL A   1      39.468  34.354  37.271  1.00  0.00     0.055 A 
ATOM     75  C   UNL A   1      38.121  32.542  36.426  1.00  0.00     0.041 A 
ATOM     76  F   UNL A   1      38.814  31.385  34.503  1.00  0.00    -0.206 F 
ATOM     77  C   UNL A   1      38.363  33.504  37.403  1.00  0.00     0.022 A 
BRANCH  74  78
ATOM     78  S   UNL A   1      39.792  35.538  38.607  1.00  0.00     0.124 S 
ATOM     79  O   UNL A   1      39.401  36.813  38.011  1.00  0.00    -0.237 OA
ATOM     80  O   UNL A   1      38.914  35.056  39.666  1.00  0.00    -0.237 OA
ATOM     81  O   UNL A   1      41.215  35.374  38.873  1.00  0.00    -0.744 OA
ENDBRANCH  74  78
ENDBRANCH  47  71
BRANCH  59  82
ATOM     82  C   UNL A   1      43.198  26.621  34.400  1.00  0.00     0.023 A 
ATOM     83  C   UNL A   1      44.528  26.137  34.459  1.00  0.00     0.031 A 
ATOM     84  C   UNL A   1      42.224  25.812  34.998  1.00  0.00     0.131 A 
ATOM     85  C   UNL A   1      44.848  24.911  35.047  1.00  0.00     0.055 A 
ATOM     86  C   UNL A   1      42.535  24.562  35.553  1.00  0.00     0.041 A 
ATOM     87  F   UNL A   1      40.954  26.230  35.120  1.00  0.00    -0.206 F 
ATOM     88  C   UNL A   1      43.849  24.105  35.578  1.00  0.00     0.022 A 
BRANCH  85  89
ATOM     89  S   UNL A   1      46.577  24.380  35.201  1.00  0.00     0.124 S 
ATOM     90  O   UNL A   1      46.992  25.062  36.425  1.00  0.00    -0.237 OA
ATOM     91  O   UNL A   1      46.435  22.931  35.310  1.00  0.00    -0.237 OA
ATOM     92  O   UNL A   1      47.203  24.858  33.975  1.00  0.00    -0.744 OA
ENDBRANCH  85  89
ENDBRANCH  59  82
ENDBRANCH  33  34
ENDBRANCH  26  28
ENDBRANCH  25  26
ENDBRANCH  24  25
ENDBRANCH   1  24
TORSDOF 17
ENDMDL
