MODEL 1
REMARK VINA RESULT:     -11.4      0.000      0.000
REMARK SMILES CN(Cc1ccc(C(=O)OCCOC(=O)c2ccc(-c3c4nc(c(-c5cc(S(=O)(=O)[O-])ccc5F)c5ccc([nH]5)c(-c5cc(S(=O)(=O)[O-])ccc5F)c5nc(c(-c6cc(S(=O)(=O)[O-])ccc6F)c6ccc3[nH]6)C=C5)C=C4)cc2)cc1)c1ccccc1N
REMARK SMILES IDX 11 1 10 2 8 3 9 4 7 5 4 6 5 7 80 8 6 9 79 10 3 11 2 12 1 13
REMARK SMILES IDX 81 14 82 15 86 16 83 17 85 18 84 19 87 20 12 23 13 24 14 25
REMARK SMILES IDX 15 26 16 27 17 28 78 29 18 30 77 31 19 32 20 33 21 34 71 35
REMARK SMILES IDX 22 36 76 37 70 38 72 39 23 40 75 41 69 42 68 43 24 45 56 46
REMARK SMILES IDX 36 47 55 48 37 49 40 50 54 51 73 52 38 53 39 54 53 56 74 57
REMARK SMILES IDX 41 58 25 59 26 60 34 61 27 62 33 63 35 64 32 65 28 66 29 67
REMARK SMILES IDX 30 68 31 69 57 70 58 71 66 72 59 73 65 74 67 75 64 76 60 77
REMARK SMILES IDX 61 78 62 79 63 80 42 81 43 82 51 83 44 84 50 85 52 86 49 87
REMARK SMILES IDX 45 88 46 89 47 90 48 91
REMARK H PARENT 87 21 87 22 72 44 40 55
REMARK Flexibility Score: inf
ROOT
ATOM      1  C   UNL A   1      35.137  21.006  24.606  1.00  0.00     0.275 C 
ENDROOT
BRANCH   1   2
ATOM      2  O   UNL A   1      34.333  22.190  24.435  1.00  0.00    -0.458 OA
BRANCH   2   3
ATOM      3  C   UNL A   1      34.842  23.136  23.604  1.00  0.00     0.338 C 
ATOM      4  O   UNL A   1      35.519  22.931  22.608  1.00  0.00    -0.246 OA
BRANCH   3   5
ATOM      5  C   UNL A   1      34.388  24.491  24.007  1.00  0.00     0.060 A 
ATOM      6  C   UNL A   1      33.762  27.101  24.864  1.00  0.00    -0.029 A 
ATOM      7  C   UNL A   1      34.113  26.112  25.794  1.00  0.00     0.006 A 
ATOM      8  C   UNL A   1      33.657  26.746  23.509  1.00  0.00     0.006 A 
ATOM      9  C   UNL A   1      34.408  24.815  25.371  1.00  0.00     0.016 A 
ATOM     10  C   UNL A   1      33.982  25.454  23.078  1.00  0.00     0.016 A 
BRANCH   6  11
ATOM     11  C   UNL A   1      33.541  28.528  25.332  1.00  0.00     0.151 C 
BRANCH  11  12
ATOM     12  N   UNL A   1      32.162  28.780  25.772  1.00  0.00    -0.369 N 
ATOM     13  C   UNL A   1      31.910  29.969  26.560  1.00  0.00     0.144 C 
BRANCH  12  14
ATOM     14  C   UNL A   1      31.130  28.096  25.116  1.00  0.00     0.060 A 
ATOM     15  C   UNL A   1      30.669  26.883  25.675  1.00  0.00     0.028 A 
ATOM     16  C   UNL A   1      30.505  28.526  23.916  1.00  0.00     0.055 A 
ATOM     17  C   UNL A   1      29.682  26.098  25.074  1.00  0.00     0.002 A 
ATOM     18  C   UNL A   1      29.523  27.713  23.313  1.00  0.00     0.027 A 
ATOM     19  C   UNL A   1      29.112  26.510  23.883  1.00  0.00     0.002 A 
BRANCH  16  20
ATOM     20  N   UNL A   1      30.909  29.651  23.195  1.00  0.00    -0.397 N 
ATOM     21  H   UNL A   1      31.073  29.582  22.226  1.00  0.00     0.156 HD
ATOM     22  H   UNL A   1      31.029  30.514  23.654  1.00  0.00     0.156 HD
ENDBRANCH  16  20
ENDBRANCH  12  14
ENDBRANCH  11  12
ENDBRANCH   6  11
ENDBRANCH   3   5
ENDBRANCH   2   3
ENDBRANCH   1   2
BRANCH   1  23
ATOM     23  C   UNL A   1      36.209  21.221  25.675  1.00  0.00     0.275 C 
BRANCH  23  24
ATOM     24  O   UNL A   1      37.459  21.578  25.062  1.00  0.00    -0.458 OA
BRANCH  24  25
ATOM     25  C   UNL A   1      38.568  21.200  25.741  1.00  0.00     0.338 C 
ATOM     26  O   UNL A   1      39.039  20.080  25.828  1.00  0.00    -0.246 OA
BRANCH  25  27
ATOM     27  C   UNL A   1      39.174  22.376  26.382  1.00  0.00     0.060 A 
ATOM     28  C   UNL A   1      38.688  23.643  26.063  1.00  0.00     0.016 A 
ATOM     29  C   UNL A   1      40.302  22.237  27.188  1.00  0.00     0.016 A 
ATOM     30  C   UNL A   1      39.360  24.782  26.504  1.00  0.00     0.010 A 
ATOM     31  C   UNL A   1      40.941  23.382  27.680  1.00  0.00     0.010 A 
ATOM     32  C   UNL A   1      40.498  24.668  27.317  1.00  0.00    -0.014 A 
BRANCH  32  33
ATOM     33  C   UNL A   1      41.269  25.882  27.718  1.00  0.00     0.031 A 
ATOM     34  C   UNL A   1      40.605  26.951  28.549  1.00  0.00     0.074 A 
ATOM     35  C   UNL A   1      42.562  26.031  27.362  1.00  0.00     0.049 A 
ATOM     36  N   UNL A   1      41.027  28.152  28.856  1.00  0.00    -0.248 NA
ATOM     37  C   UNL A   1      39.279  26.624  29.093  1.00  0.00     0.031 C 
ATOM     38  C   UNL A   1      43.349  25.055  26.608  1.00  0.00     0.029 A 
ATOM     39  N   UNL A   1      43.442  27.061  27.591  1.00  0.00    -0.354 N 
ATOM     40  C   UNL A   1      39.998  28.744  29.584  1.00  0.00     0.074 A 
ATOM     41  C   UNL A   1      38.926  27.770  29.655  1.00  0.00     0.031 C 
ATOM     42  C   UNL A   1      44.600  25.518  26.463  1.00  0.00     0.029 A 
ATOM     43  C   UNL A   1      44.685  26.858  27.036  1.00  0.00     0.049 A 
ATOM     44  H   UNL A   1      43.207  27.867  28.105  1.00  0.00     0.167 HD
ATOM     45  C   UNL A   1      39.953  29.982  30.140  1.00  0.00     0.034 A 
ATOM     46  C   UNL A   1      45.757  27.672  26.954  1.00  0.00     0.034 A 
ATOM     47  C   UNL A   1      41.045  30.925  30.097  1.00  0.00     0.049 A 
ATOM     48  C   UNL A   1      45.670  29.059  27.537  1.00  0.00     0.074 A 
ATOM     49  C   UNL A   1      41.108  32.200  30.635  1.00  0.00     0.029 A 
ATOM     50  N   UNL A   1      42.273  30.694  29.490  1.00  0.00    -0.354 N 
ATOM     51  N   UNL A   1      44.667  29.633  28.159  1.00  0.00    -0.248 NA
ATOM     52  C   UNL A   1      46.859  29.912  27.396  1.00  0.00     0.031 C 
ATOM     53  C   UNL A   1      42.349  32.758  30.306  1.00  0.00     0.029 A 
ATOM     54  C   UNL A   1      43.090  31.809  29.623  1.00  0.00     0.049 A 
ATOM     55  H   UNL A   1      42.529  29.860  29.033  1.00  0.00     0.167 HD
ATOM     56  C   UNL A   1      45.110  30.909  28.496  1.00  0.00     0.074 A 
ATOM     57  C   UNL A   1      46.475  31.013  28.025  1.00  0.00     0.031 C 
ATOM     58  C   UNL A   1      44.446  31.905  29.136  1.00  0.00     0.034 A 
BRANCH  45  59
ATOM     59  C   UNL A   1      38.654  30.403  30.787  1.00  0.00     0.023 A 
ATOM     60  C   UNL A   1      37.612  30.999  30.057  1.00  0.00     0.031 A 
ATOM     61  C   UNL A   1      38.472  30.238  32.173  1.00  0.00     0.131 A 
ATOM     62  C   UNL A   1      36.474  31.480  30.723  1.00  0.00     0.055 A 
ATOM     63  C   UNL A   1      37.303  30.644  32.819  1.00  0.00     0.041 A 
ATOM     64  F   UNL A   1      39.439  29.693  32.929  1.00  0.00    -0.206 F 
ATOM     65  C   UNL A   1      36.302  31.285  32.096  1.00  0.00     0.022 A 
BRANCH  62  66
ATOM     66  S   UNL A   1      35.296  32.503  29.798  1.00  0.00     0.124 S 
ATOM     67  O   UNL A   1      36.175  33.513  29.212  1.00  0.00    -0.237 OA
ATOM     68  O   UNL A   1      34.714  31.546  28.864  1.00  0.00    -0.237 OA
ATOM     69  O   UNL A   1      34.389  33.001  30.830  1.00  0.00    -0.744 OA
ENDBRANCH  62  66
ENDBRANCH  45  59
BRANCH  46  70
ATOM     70  C   UNL A   1      46.986  27.227  26.233  1.00  0.00     0.023 A 
ATOM     71  C   UNL A   1      48.029  26.572  26.906  1.00  0.00     0.031 A 
ATOM     72  C   UNL A   1      47.146  27.485  24.859  1.00  0.00     0.131 A 
ATOM     73  C   UNL A   1      49.199  26.224  26.211  1.00  0.00     0.055 A 
ATOM     74  C   UNL A   1      48.288  27.089  24.161  1.00  0.00     0.041 A 
ATOM     75  F   UNL A   1      46.182  28.114  24.169  1.00  0.00    -0.206 F 
ATOM     76  C   UNL A   1      49.328  26.463  24.841  1.00  0.00     0.022 A 
BRANCH  73  77
ATOM     77  S   UNL A   1      50.586  25.515  27.140  1.00  0.00     0.124 S 
ATOM     78  O   UNL A   1      49.981  24.316  27.708  1.00  0.00    -0.237 OA
ATOM     79  O   UNL A   1      51.576  25.299  26.090  1.00  0.00    -0.237 OA
ATOM     80  O   UNL A   1      50.921  26.562  28.104  1.00  0.00    -0.744 OA
ENDBRANCH  73  77
ENDBRANCH  46  70
BRANCH  58  81
ATOM     81  C   UNL A   1      45.214  33.177  29.399  1.00  0.00     0.023 A 
ATOM     82  C   UNL A   1      45.213  34.246  28.486  1.00  0.00     0.031 A 
ATOM     83  C   UNL A   1      45.976  33.310  30.575  1.00  0.00     0.131 A 
ATOM     84  C   UNL A   1      46.000  35.380  28.737  1.00  0.00     0.055 A 
ATOM     85  C   UNL A   1      46.714  34.463  30.844  1.00  0.00     0.041 A 
ATOM     86  F   UNL A   1      46.013  32.319  31.480  1.00  0.00    -0.206 F 
ATOM     87  C   UNL A   1      46.740  35.501  29.917  1.00  0.00     0.022 A 
BRANCH  84  88
ATOM     88  S   UNL A   1      46.115  36.665  27.461  1.00  0.00     0.124 S 
ATOM     89  O   UNL A   1      44.709  36.942  27.182  1.00  0.00    -0.237 OA
ATOM     90  O   UNL A   1      46.849  37.722  28.146  1.00  0.00    -0.237 OA
ATOM     91  O   UNL A   1      46.843  36.008  26.377  1.00  0.00    -0.744 OA
ENDBRANCH  84  88
ENDBRANCH  58  81
ENDBRANCH  32  33
ENDBRANCH  25  27
ENDBRANCH  24  25
ENDBRANCH  23  24
ENDBRANCH   1  23
TORSDOF 18
ENDMDL
MODEL 2
REMARK VINA RESULT:     -11.3      2.013      2.544
REMARK SMILES CN(Cc1ccc(C(=O)OCCOC(=O)c2ccc(-c3c4nc(c(-c5cc(S(=O)(=O)[O-])ccc5F)c5ccc([nH]5)c(-c5cc(S(=O)(=O)[O-])ccc5F)c5nc(c(-c6cc(S(=O)(=O)[O-])ccc6F)c6ccc3[nH]6)C=C5)C=C4)cc2)cc1)c1ccccc1N
REMARK SMILES IDX 11 1 10 2 8 3 9 4 7 5 4 6 5 7 80 8 6 9 79 10 3 11 2 12 1 13
REMARK SMILES IDX 81 14 82 15 86 16 83 17 85 18 84 19 87 20 12 23 13 24 14 25
REMARK SMILES IDX 15 26 16 27 17 28 78 29 18 30 77 31 19 32 20 33 21 34 71 35
REMARK SMILES IDX 22 36 76 37 70 38 72 39 23 40 75 41 69 42 68 43 24 45 56 46
REMARK SMILES IDX 36 47 55 48 37 49 40 50 54 51 73 52 38 53 39 54 53 56 74 57
REMARK SMILES IDX 41 58 25 59 26 60 34 61 27 62 33 63 35 64 32 65 28 66 29 67
REMARK SMILES IDX 30 68 31 69 57 70 58 71 66 72 59 73 65 74 67 75 64 76 60 77
REMARK SMILES IDX 61 78 62 79 63 80 42 81 43 82 51 83 44 84 50 85 52 86 49 87
REMARK SMILES IDX 45 88 46 89 47 90 48 91
REMARK H PARENT 87 21 87 22 72 44 40 55
REMARK Flexibility Score: inf
ROOT
ATOM      1  C   UNL A   1      35.003  20.884  24.621  1.00  0.00     0.275 C 
ENDROOT
BRANCH   1   2
ATOM      2  O   UNL A   1      34.874  22.307  24.808  1.00  0.00    -0.458 OA
BRANCH   2   3
ATOM      3  C   UNL A   1      34.876  23.054  23.674  1.00  0.00     0.338 C 
ATOM      4  O   UNL A   1      35.684  22.976  22.761  1.00  0.00    -0.246 OA
BRANCH   3   5
ATOM      5  C   UNL A   1      33.689  23.945  23.627  1.00  0.00     0.060 A 
ATOM      6  C   UNL A   1      31.535  25.758  23.737  1.00  0.00    -0.029 A 
ATOM      7  C   UNL A   1      31.785  24.885  24.806  1.00  0.00     0.006 A 
ATOM      8  C   UNL A   1      32.332  25.659  22.585  1.00  0.00     0.006 A 
ATOM      9  C   UNL A   1      32.842  23.975  24.744  1.00  0.00     0.016 A 
ATOM     10  C   UNL A   1      33.412  24.770  22.533  1.00  0.00     0.016 A 
BRANCH   6  11
ATOM     11  C   UNL A   1      30.443  26.806  23.863  1.00  0.00     0.151 C 
BRANCH  11  12
ATOM     12  N   UNL A   1      30.970  28.157  24.097  1.00  0.00    -0.369 N 
ATOM     13  C   UNL A   1      30.244  29.274  23.529  1.00  0.00     0.144 C 
BRANCH  12  14
ATOM     14  C   UNL A   1      31.896  28.328  25.135  1.00  0.00     0.060 A 
ATOM     15  C   UNL A   1      31.466  28.102  26.462  1.00  0.00     0.028 A 
ATOM     16  C   UNL A   1      33.249  28.720  24.959  1.00  0.00     0.055 A 
ATOM     17  C   UNL A   1      32.293  28.295  27.570  1.00  0.00     0.002 A 
ATOM     18  C   UNL A   1      34.066  28.927  26.090  1.00  0.00     0.027 A 
ATOM     19  C   UNL A   1      33.597  28.717  27.384  1.00  0.00     0.002 A 
BRANCH  16  20
ATOM     20  N   UNL A   1      33.798  29.068  23.723  1.00  0.00    -0.397 N 
ATOM     21  H   UNL A   1      33.208  29.301  22.970  1.00  0.00     0.156 HD
ATOM     22  H   UNL A   1      34.775  29.083  23.605  1.00  0.00     0.156 HD
ENDBRANCH  16  20
ENDBRANCH  12  14
ENDBRANCH  11  12
ENDBRANCH   6  11
ENDBRANCH   3   5
ENDBRANCH   2   3
ENDBRANCH   1   2
BRANCH   1  23
ATOM     23  C   UNL A   1      36.405  20.405  24.999  1.00  0.00     0.275 C 
BRANCH  23  24
ATOM     24  O   UNL A   1      37.148  21.473  25.610  1.00  0.00    -0.458 OA
BRANCH  24  25
ATOM     25  C   UNL A   1      38.458  21.216  25.834  1.00  0.00     0.338 C 
ATOM     26  O   UNL A   1      39.071  20.198  25.566  1.00  0.00    -0.246 OA
BRANCH  25  27
ATOM     27  C   UNL A   1      39.086  22.388  26.464  1.00  0.00     0.060 A 
ATOM     28  C   UNL A   1      38.584  23.656  26.179  1.00  0.00     0.016 A 
ATOM     29  C   UNL A   1      40.247  22.243  27.221  1.00  0.00     0.016 A 
ATOM     30  C   UNL A   1      39.269  24.793  26.605  1.00  0.00     0.010 A 
ATOM     31  C   UNL A   1      40.901  23.385  27.700  1.00  0.00     0.010 A 
ATOM     32  C   UNL A   1      40.440  24.674  27.369  1.00  0.00    -0.014 A 
BRANCH  32  33
ATOM     33  C   UNL A   1      41.223  25.886  27.752  1.00  0.00     0.031 A 
ATOM     34  C   UNL A   1      40.583  26.952  28.608  1.00  0.00     0.074 A 
ATOM     35  C   UNL A   1      42.504  26.036  27.359  1.00  0.00     0.049 A 
ATOM     36  N   UNL A   1      41.015  28.151  28.906  1.00  0.00    -0.248 NA
ATOM     37  C   UNL A   1      39.274  26.622  29.189  1.00  0.00     0.031 C 
ATOM     38  C   UNL A   1      43.269  25.063  26.578  1.00  0.00     0.029 A 
ATOM     39  N   UNL A   1      43.392  27.065  27.566  1.00  0.00    -0.354 N 
ATOM     40  C   UNL A   1      40.009  28.740  29.667  1.00  0.00     0.074 A 
ATOM     41  C   UNL A   1      38.939  27.766  29.766  1.00  0.00     0.031 C 
ATOM     42  C   UNL A   1      44.515  25.526  26.397  1.00  0.00     0.029 A 
ATOM     43  C   UNL A   1      44.617  26.864  26.973  1.00  0.00     0.049 A 
ATOM     44  H   UNL A   1      43.172  27.869  28.090  1.00  0.00     0.167 HD
ATOM     45  C   UNL A   1      39.980  29.975  30.230  1.00  0.00     0.034 A 
ATOM     46  C   UNL A   1      45.687  27.678  26.863  1.00  0.00     0.034 A 
ATOM     47  C   UNL A   1      41.071  30.919  30.158  1.00  0.00     0.049 A 
ATOM     48  C   UNL A   1      45.618  29.063  27.454  1.00  0.00     0.074 A 
ATOM     49  C   UNL A   1      41.150  32.191  30.699  1.00  0.00     0.029 A 
ATOM     50  N   UNL A   1      42.281  30.690  29.514  1.00  0.00    -0.354 N 
ATOM     51  N   UNL A   1      44.633  29.634  28.107  1.00  0.00    -0.248 NA
ATOM     52  C   UNL A   1      46.801  29.916  27.281  1.00  0.00     0.031 C 
ATOM     53  C   UNL A   1      42.380  32.751  30.335  1.00  0.00     0.029 A 
ATOM     54  C   UNL A   1      43.101  31.804  29.627  1.00  0.00     0.049 A 
ATOM     55  H   UNL A   1      42.522  29.858  29.046  1.00  0.00     0.167 HD
ATOM     56  C   UNL A   1      45.086  30.909  28.437  1.00  0.00     0.074 A 
ATOM     57  C   UNL A   1      46.437  31.015  27.926  1.00  0.00     0.031 C 
ATOM     58  C   UNL A   1      44.442  31.903  29.100  1.00  0.00     0.034 A 
BRANCH  45  59
ATOM     59  C   UNL A   1      38.701  30.395  30.917  1.00  0.00     0.023 A 
ATOM     60  C   UNL A   1      37.646  31.011  30.223  1.00  0.00     0.031 A 
ATOM     61  C   UNL A   1      38.553  30.206  32.303  1.00  0.00     0.131 A 
ATOM     62  C   UNL A   1      36.529  31.488  30.927  1.00  0.00     0.055 A 
ATOM     63  C   UNL A   1      37.403  30.609  32.986  1.00  0.00     0.041 A 
ATOM     64  F   UNL A   1      39.534  29.641  33.025  1.00  0.00    -0.206 F 
ATOM     65  C   UNL A   1      36.389  31.270  32.299  1.00  0.00     0.022 A 
BRANCH  62  66
ATOM     66  S   UNL A   1      35.335  32.535  30.050  1.00  0.00     0.124 S 
ATOM     67  O   UNL A   1      36.164  33.677  29.671  1.00  0.00    -0.237 OA
ATOM     68  O   UNL A   1      34.902  31.672  28.957  1.00  0.00    -0.237 OA
ATOM     69  O   UNL A   1      34.320  32.820  31.062  1.00  0.00    -0.744 OA
ENDBRANCH  62  66
ENDBRANCH  45  59
BRANCH  46  70
ATOM     70  C   UNL A   1      46.893  27.236  26.104  1.00  0.00     0.023 A 
ATOM     71  C   UNL A   1      47.122  27.662  24.786  1.00  0.00     0.031 A 
ATOM     72  C   UNL A   1      47.819  26.347  26.681  1.00  0.00     0.131 A 
ATOM     73  C   UNL A   1      48.233  27.176  24.078  1.00  0.00     0.055 A 
ATOM     74  C   UNL A   1      48.951  25.909  25.992  1.00  0.00     0.041 A 
ATOM     75  F   UNL A   1      47.644  25.904  27.936  1.00  0.00    -0.206 F 
ATOM     76  C   UNL A   1      49.158  26.317  24.678  1.00  0.00     0.022 A 
BRANCH  73  77
ATOM     77  S   UNL A   1      48.420  27.628  22.331  1.00  0.00     0.124 S 
ATOM     78  O   UNL A   1      47.206  28.400  22.093  1.00  0.00    -0.237 OA
ATOM     79  O   UNL A   1      49.668  28.383  22.344  1.00  0.00    -0.237 OA
ATOM     80  O   UNL A   1      48.482  26.336  21.650  1.00  0.00    -0.744 OA
ENDBRANCH  73  77
ENDBRANCH  46  70
BRANCH  58  81
ATOM     81  C   UNL A   1      45.218  33.173  29.345  1.00  0.00     0.023 A 
ATOM     82  C   UNL A   1      46.002  33.351  30.499  1.00  0.00     0.031 A 
ATOM     83  C   UNL A   1      45.155  34.228  28.417  1.00  0.00     0.131 A 
ATOM     84  C   UNL A   1      46.649  34.576  30.722  1.00  0.00     0.055 A 
ATOM     85  C   UNL A   1      45.845  35.424  28.619  1.00  0.00     0.041 A 
ATOM     86  F   UNL A   1      44.421  34.112  27.299  1.00  0.00    -0.206 F 
ATOM     87  C   UNL A   1      46.586  35.609  29.782  1.00  0.00     0.022 A 
BRANCH  84  88
ATOM     88  S   UNL A   1      47.507  34.837  32.299  1.00  0.00     0.124 S 
ATOM     89  O   UNL A   1      47.468  36.290  32.429  1.00  0.00    -0.237 OA
ATOM     90  O   UNL A   1      46.675  34.090  33.235  1.00  0.00    -0.237 OA
ATOM     91  O   UNL A   1      48.835  34.271  32.065  1.00  0.00    -0.744 OA
ENDBRANCH  84  88
ENDBRANCH  58  81
ENDBRANCH  32  33
ENDBRANCH  25  27
ENDBRANCH  24  25
ENDBRANCH  23  24
ENDBRANCH   1  23
TORSDOF 18
ENDMDL
MODEL 3
REMARK VINA RESULT:     -11.3      5.207     10.059
REMARK SMILES CN(Cc1ccc(C(=O)OCCOC(=O)c2ccc(-c3c4nc(c(-c5cc(S(=O)(=O)[O-])ccc5F)c5ccc([nH]5)c(-c5cc(S(=O)(=O)[O-])ccc5F)c5nc(c(-c6cc(S(=O)(=O)[O-])ccc6F)c6ccc3[nH]6)C=C5)C=C4)cc2)cc1)c1ccccc1N
REMARK SMILES IDX 11 1 10 2 8 3 9 4 7 5 4 6 5 7 80 8 6 9 79 10 3 11 2 12 1 13
REMARK SMILES IDX 81 14 82 15 86 16 83 17 85 18 84 19 87 20 12 23 13 24 14 25
REMARK SMILES IDX 15 26 16 27 17 28 78 29 18 30 77 31 19 32 20 33 21 34 71 35
REMARK SMILES IDX 22 36 76 37 70 38 72 39 23 40 75 41 69 42 68 43 24 45 56 46
REMARK SMILES IDX 36 47 55 48 37 49 40 50 54 51 73 52 38 53 39 54 53 56 74 57
REMARK SMILES IDX 41 58 25 59 26 60 34 61 27 62 33 63 35 64 32 65 28 66 29 67
REMARK SMILES IDX 30 68 31 69 57 70 58 71 66 72 59 73 65 74 67 75 64 76 60 77
REMARK SMILES IDX 61 78 62 79 63 80 42 81 43 82 51 83 44 84 50 85 52 86 49 87
REMARK SMILES IDX 45 88 46 89 47 90 48 91
REMARK H PARENT 87 21 87 22 72 44 40 55
REMARK Flexibility Score: inf
ROOT
ATOM      1  C   UNL A   1      31.156  29.181  25.133  1.00  0.00     0.275 C 
ENDROOT
BRANCH   1   2
ATOM      2  O   UNL A   1      31.502  29.081  23.738  1.00  0.00    -0.458 OA
BRANCH   2   3
ATOM      3  C   UNL A   1      32.693  28.489  23.465  1.00  0.00     0.338 C 
ATOM      4  O   UNL A   1      33.688  29.044  23.023  1.00  0.00    -0.246 OA
BRANCH   3   5
ATOM      5  C   UNL A   1      32.677  27.060  23.866  1.00  0.00     0.060 A 
ATOM      6  C   UNL A   1      32.530  24.420  24.839  1.00  0.00    -0.029 A 
ATOM      7  C   UNL A   1      33.265  25.393  25.531  1.00  0.00     0.006 A 
ATOM      8  C   UNL A   1      31.932  24.769  23.616  1.00  0.00     0.006 A 
ATOM      9  C   UNL A   1      33.352  26.697  25.040  1.00  0.00     0.016 A 
ATOM     10  C   UNL A   1      31.991  26.083  23.138  1.00  0.00     0.016 A 
BRANCH   6  11
ATOM     11  C   UNL A   1      32.365  23.035  25.439  1.00  0.00     0.151 C 
BRANCH  11  12
ATOM     12  N   UNL A   1      33.187  22.018  24.767  1.00  0.00    -0.369 N 
ATOM     13  C   UNL A   1      32.535  21.143  23.816  1.00  0.00     0.144 C 
BRANCH  12  14
ATOM     14  C   UNL A   1      34.578  22.182  24.788  1.00  0.00     0.060 A 
ATOM     15  C   UNL A   1      35.221  22.601  23.602  1.00  0.00     0.028 A 
ATOM     16  C   UNL A   1      35.406  21.954  25.918  1.00  0.00     0.055 A 
ATOM     17  C   UNL A   1      36.607  22.745  23.501  1.00  0.00     0.002 A 
ATOM     18  C   UNL A   1      36.805  22.087  25.794  1.00  0.00     0.027 A 
ATOM     19  C   UNL A   1      37.403  22.479  24.600  1.00  0.00     0.002 A 
BRANCH  16  20
ATOM     20  N   UNL A   1      34.934  21.451  27.132  1.00  0.00    -0.397 N 
ATOM     21  H   UNL A   1      33.994  21.170  27.216  1.00  0.00     0.156 HD
ATOM     22  H   UNL A   1      35.541  21.375  27.903  1.00  0.00     0.156 HD
ENDBRANCH  16  20
ENDBRANCH  12  14
ENDBRANCH  11  12
ENDBRANCH   6  11
ENDBRANCH   3   5
ENDBRANCH   2   3
ENDBRANCH   1   2
BRANCH   1  23
ATOM     23  C   UNL A   1      31.662  30.494  25.731  1.00  0.00     0.275 C 
BRANCH  23  24
ATOM     24  O   UNL A   1      32.903  30.279  26.425  1.00  0.00    -0.458 OA
BRANCH  24  25
ATOM     25  C   UNL A   1      33.361  31.335  27.137  1.00  0.00     0.338 C 
ATOM     26  O   UNL A   1      32.792  32.392  27.348  1.00  0.00    -0.246 OA
BRANCH  25  27
ATOM     27  C   UNL A   1      34.699  31.027  27.664  1.00  0.00     0.060 A 
ATOM     28  C   UNL A   1      35.012  29.705  27.977  1.00  0.00     0.016 A 
ATOM     29  C   UNL A   1      35.589  32.054  27.973  1.00  0.00     0.016 A 
ATOM     30  C   UNL A   1      36.195  29.407  28.652  1.00  0.00     0.010 A 
ATOM     31  C   UNL A   1      36.804  31.745  28.597  1.00  0.00     0.010 A 
ATOM     32  C   UNL A   1      37.107  30.423  28.975  1.00  0.00    -0.014 A 
BRANCH  32  33
ATOM     33  C   UNL A   1      38.331  30.119  29.773  1.00  0.00     0.031 A 
ATOM     34  C   UNL A   1      39.380  29.190  29.212  1.00  0.00     0.074 A 
ATOM     35  C   UNL A   1      38.525  30.677  30.985  1.00  0.00     0.049 A 
ATOM     36  N   UNL A   1      40.420  28.656  29.799  1.00  0.00    -0.248 NA
ATOM     37  C   UNL A   1      39.220  28.801  27.803  1.00  0.00     0.031 C 
ATOM     38  C   UNL A   1      37.625  31.636  31.628  1.00  0.00     0.029 A 
ATOM     39  N   UNL A   1      39.545  30.521  31.892  1.00  0.00    -0.354 N 
ATOM     40  C   UNL A   1      41.011  27.827  28.850  1.00  0.00     0.074 A 
ATOM     41  C   UNL A   1      40.198  27.920  27.654  1.00  0.00     0.031 C 
ATOM     42  C   UNL A   1      38.146  32.003  32.809  1.00  0.00     0.029 A 
ATOM     43  C   UNL A   1      39.371  31.246  33.049  1.00  0.00     0.049 A 
ATOM     44  H   UNL A   1      40.327  29.946  31.730  1.00  0.00     0.167 HD
ATOM     45  C   UNL A   1      42.127  27.062  28.965  1.00  0.00     0.034 A 
ATOM     46  C   UNL A   1      40.086  31.268  34.192  1.00  0.00     0.034 A 
ATOM     47  C   UNL A   1      42.952  27.012  30.149  1.00  0.00     0.049 A 
ATOM     48  C   UNL A   1      41.295  30.376  34.316  1.00  0.00     0.074 A 
ATOM     49  C   UNL A   1      44.106  26.279  30.368  1.00  0.00     0.029 A 
ATOM     50  N   UNL A   1      42.718  27.733  31.313  1.00  0.00    -0.354 N 
ATOM     51  N   UNL A   1      41.801  29.541  33.438  1.00  0.00    -0.248 NA
ATOM     52  C   UNL A   1      42.021  30.420  35.593  1.00  0.00     0.031 C 
ATOM     53  C   UNL A   1      44.537  26.513  31.679  1.00  0.00     0.029 A 
ATOM     54  C   UNL A   1      43.693  27.446  32.258  1.00  0.00     0.049 A 
ATOM     55  H   UNL A   1      41.969  28.358  31.448  1.00  0.00     0.167 HD
ATOM     56  C   UNL A   1      42.914  28.974  34.052  1.00  0.00     0.074 A 
ATOM     57  C   UNL A   1      43.016  29.574  35.366  1.00  0.00     0.031 C 
ATOM     58  C   UNL A   1      43.774  28.040  33.571  1.00  0.00     0.034 A 
BRANCH  45  59
ATOM     59  C   UNL A   1      42.479  26.170  27.796  1.00  0.00     0.023 A 
ATOM     60  C   UNL A   1      41.950  24.875  27.656  1.00  0.00     0.031 A 
ATOM     61  C   UNL A   1      43.394  26.614  26.823  1.00  0.00     0.131 A 
ATOM     62  C   UNL A   1      42.399  24.044  26.618  1.00  0.00     0.055 A 
ATOM     63  C   UNL A   1      43.774  25.811  25.746  1.00  0.00     0.041 A 
ATOM     64  F   UNL A   1      43.948  27.833  26.912  1.00  0.00    -0.206 F 
ATOM     65  C   UNL A   1      43.289  24.511  25.648  1.00  0.00     0.022 A 
BRANCH  62  66
ATOM     66  S   UNL A   1      41.924  22.293  26.644  1.00  0.00     0.124 S 
ATOM     67  O   UNL A   1      42.470  21.818  25.375  1.00  0.00    -0.237 OA
ATOM     68  O   UNL A   1      42.589  21.805  27.847  1.00  0.00    -0.237 OA
ATOM     69  O   UNL A   1      40.464  22.335  26.710  1.00  0.00    -0.744 OA
ENDBRANCH  62  66
ENDBRANCH  45  59
BRANCH  46  70
ATOM     70  C   UNL A   1      39.643  32.111  35.341  1.00  0.00     0.023 A 
ATOM     71  C   UNL A   1      38.844  31.584  36.366  1.00  0.00     0.031 A 
ATOM     72  C   UNL A   1      39.989  33.473  35.407  1.00  0.00     0.131 A 
ATOM     73  C   UNL A   1      38.391  32.421  37.399  1.00  0.00     0.055 A 
ATOM     74  C   UNL A   1      39.581  34.288  36.463  1.00  0.00     0.041 A 
ATOM     75  F   UNL A   1      40.747  34.030  34.449  1.00  0.00    -0.206 F 
ATOM     76  C   UNL A   1      38.768  33.764  37.463  1.00  0.00     0.022 A 
BRANCH  73  77
ATOM     77  S   UNL A   1      37.239  31.745  38.627  1.00  0.00     0.124 S 
ATOM     78  O   UNL A   1      37.024  30.394  38.121  1.00  0.00    -0.237 OA
ATOM     79  O   UNL A   1      38.011  31.854  39.860  1.00  0.00    -0.237 OA
ATOM     80  O   UNL A   1      36.084  32.636  38.536  1.00  0.00    -0.744 OA
ENDBRANCH  73  77
ENDBRANCH  46  70
BRANCH  58  81
ATOM     81  C   UNL A   1      44.925  27.649  34.467  1.00  0.00     0.023 A 
ATOM     82  C   UNL A   1      44.830  26.574  35.368  1.00  0.00     0.031 A 
ATOM     83  C   UNL A   1      46.127  28.379  34.429  1.00  0.00     0.131 A 
ATOM     84  C   UNL A   1      45.899  26.291  36.232  1.00  0.00     0.055 A 
ATOM     85  C   UNL A   1      47.206  28.059  35.254  1.00  0.00     0.041 A 
ATOM     86  F   UNL A   1      46.271  29.415  33.587  1.00  0.00    -0.206 F 
ATOM     87  C   UNL A   1      47.091  27.019  36.172  1.00  0.00     0.022 A 
BRANCH  84  88
ATOM     88  S   UNL A   1      45.681  25.013  37.501  1.00  0.00     0.124 S 
ATOM     89  O   UNL A   1      46.433  23.896  36.938  1.00  0.00    -0.237 OA
ATOM     90  O   UNL A   1      46.263  25.642  38.682  1.00  0.00    -0.237 OA
ATOM     91  O   UNL A   1      44.233  24.822  37.552  1.00  0.00    -0.744 OA
ENDBRANCH  84  88
ENDBRANCH  58  81
ENDBRANCH  32  33
ENDBRANCH  25  27
ENDBRANCH  24  25
ENDBRANCH  23  24
ENDBRANCH   1  23
TORSDOF 18
ENDMDL
