MODEL 1
REMARK VINA RESULT:     -12.0      0.000      0.000
REMARK SMILES Cc1ccc(C(=O)N2C[C@H](C(=O)OCCOC(=O)c3ccc(-c4c5nc(c(-c6cc(S(=O)(=O)[O-])ccc6F)c6ccc([nH]6)c(-c6cc(S(=O)(=O)[O-])ccc6F)c6nc(c(-c7cc(S(=O)(=O)[O-])ccc7F)c7ccc4[nH]7)C=C6)C=C5)cc3)Oc3ccccc32)o1
REMARK SMILES IDX 15 1 14 2 13 3 11 4 12 5 10 6 8 7 9 8 88 9 83 10 87 11 82 12
REMARK SMILES IDX 84 13 86 14 85 15 6 16 7 17 5 18 1 19 2 20 3 21 89 22 4 23
REMARK SMILES IDX 16 24 17 25 18 26 19 27 20 28 81 29 21 30 80 31 22 32 23 33
REMARK SMILES IDX 24 34 74 35 25 36 79 37 73 38 75 39 26 40 78 41 72 42 71 43
REMARK SMILES IDX 27 45 59 46 39 47 58 48 40 49 43 50 57 51 76 52 41 53 42 54
REMARK SMILES IDX 56 56 77 57 44 58 28 59 29 60 37 61 30 62 36 63 38 64 35 65
REMARK SMILES IDX 31 66 32 67 33 68 34 69 60 70 61 71 69 72 62 73 68 74 70 75
REMARK SMILES IDX 67 76 63 77 64 78 65 79 66 80 45 81 46 82 54 83 47 84 53 85
REMARK SMILES IDX 55 86 52 87 48 88 49 89 50 90 51 91
REMARK H PARENT 75 44 43 55
REMARK Flexibility Score: inf
ROOT
ATOM      1  C   UNL A   1      31.778  32.554  27.214  1.00  0.00     0.275 C 
ENDROOT
BRANCH   1   2
ATOM      2  C   UNL A   1      31.620  31.268  26.392  1.00  0.00     0.274 C 
BRANCH   2   3
ATOM      3  O   UNL A   1      32.021  30.088  27.120  1.00  0.00    -0.459 OA
BRANCH   3   4
ATOM      4  C   UNL A   1      32.904  29.277  26.474  1.00  0.00     0.349 C 
ATOM      5  O   UNL A   1      34.116  29.470  26.444  1.00  0.00    -0.248 OA
BRANCH   4   6
ATOM      6  C   UNL A   1      32.248  28.118  25.742  1.00  0.00     0.302 C 
ATOM      7  N   UNL A   1      31.670  26.999  23.644  1.00  0.00    -0.298 N 
ATOM      8  C   UNL A   1      32.461  28.094  24.231  1.00  0.00     0.183 C 
ATOM      9  C   UNL A   1      31.527  25.833  24.466  1.00  0.00     0.087 A 
ATOM     10  C   UNL A   1      32.088  25.816  25.758  1.00  0.00     0.144 A 
ATOM     11  C   UNL A   1      30.885  24.674  24.010  1.00  0.00     0.030 A 
ATOM     12  O   UNL A   1      32.729  26.898  26.319  1.00  0.00    -0.475 OA
ATOM     13  C   UNL A   1      32.020  24.674  26.558  1.00  0.00     0.049 A 
ATOM     14  C   UNL A   1      30.796  23.538  24.820  1.00  0.00     0.002 A 
ATOM     15  C   UNL A   1      31.365  23.537  26.091  1.00  0.00     0.004 A 
BRANCH   7  16
ATOM     16  C   UNL A   1      30.936  27.165  22.459  1.00  0.00     0.294 C 
ATOM     17  O   UNL A   1      31.353  26.712  21.391  1.00  0.00    -0.265 OA
BRANCH  16  18
ATOM     18  C   UNL A   1      29.718  27.959  22.525  1.00  0.00     0.192 A 
ATOM     19  C   UNL A   1      28.290  30.992  21.254  1.00  0.00     0.087 C 
ATOM     20  C   UNL A   1      28.512  29.740  22.005  1.00  0.00     0.101 A 
ATOM     21  C   UNL A   1      27.807  29.071  22.980  1.00  0.00     0.046 A 
ATOM     22  O   UNL A   1      29.660  29.072  21.724  1.00  0.00    -0.456 OA
ATOM     23  C   UNL A   1      28.582  27.930  23.317  1.00  0.00     0.056 A 
ENDBRANCH  16  18
ENDBRANCH   7  16
ENDBRANCH   4   6
ENDBRANCH   3   4
ENDBRANCH   2   3
ENDBRANCH   1   2
BRANCH   1  24
ATOM     24  O   UNL A   1      33.014  33.241  26.943  1.00  0.00    -0.458 OA
BRANCH  24  25
ATOM     25  C   UNL A   1      33.617  33.758  28.040  1.00  0.00     0.338 C 
ATOM     26  O   UNL A   1      33.174  34.641  28.758  1.00  0.00    -0.246 OA
BRANCH  25  27
ATOM     27  C   UNL A   1      34.839  33.010  28.371  1.00  0.00     0.060 A 
ATOM     28  C   UNL A   1      34.689  31.715  28.878  1.00  0.00     0.016 A 
ATOM     29  C   UNL A   1      36.101  33.603  28.309  1.00  0.00     0.016 A 
ATOM     30  C   UNL A   1      35.793  31.016  29.354  1.00  0.00     0.010 A 
ATOM     31  C   UNL A   1      37.212  32.899  28.789  1.00  0.00     0.010 A 
ATOM     32  C   UNL A   1      37.059  31.613  29.338  1.00  0.00    -0.014 A 
BRANCH  32  33
ATOM     33  C   UNL A   1      38.188  30.923  30.008  1.00  0.00     0.031 A 
ATOM     34  C   UNL A   1      38.488  31.232  31.449  1.00  0.00     0.074 A 
ATOM     35  C   UNL A   1      38.899  29.990  29.349  1.00  0.00     0.049 A 
ATOM     36  N   UNL A   1      39.450  30.785  32.212  1.00  0.00    -0.248 NA
ATOM     37  C   UNL A   1      37.580  32.177  32.115  1.00  0.00     0.031 C 
ATOM     38  C   UNL A   1      38.659  29.567  27.968  1.00  0.00     0.029 A 
ATOM     39  N   UNL A   1      39.963  29.225  29.754  1.00  0.00    -0.354 N 
ATOM     40  C   UNL A   1      39.275  31.403  33.446  1.00  0.00     0.074 A 
ATOM     41  C   UNL A   1      38.129  32.280  33.315  1.00  0.00     0.031 C 
ATOM     42  C   UNL A   1      39.550  28.616  27.643  1.00  0.00     0.029 A 
ATOM     43  C   UNL A   1      40.450  28.394  28.773  1.00  0.00     0.049 A 
ATOM     44  H   UNL A   1      40.342  29.266  30.662  1.00  0.00     0.167 HD
ATOM     45  C   UNL A   1      40.000  31.248  34.582  1.00  0.00     0.034 A 
ATOM     46  C   UNL A   1      41.514  27.567  28.779  1.00  0.00     0.034 A 
ATOM     47  C   UNL A   1      41.137  30.366  34.693  1.00  0.00     0.049 A 
ATOM     48  C   UNL A   1      42.343  27.456  30.034  1.00  0.00     0.074 A 
ATOM     49  C   UNL A   1      41.952  30.137  35.788  1.00  0.00     0.029 A 
ATOM     50  N   UNL A   1      41.624  29.565  33.666  1.00  0.00    -0.354 N 
ATOM     51  N   UNL A   1      42.187  28.071  31.184  1.00  0.00    -0.248 NA
ATOM     52  C   UNL A   1      43.486  26.536  29.992  1.00  0.00     0.031 C 
ATOM     53  C   UNL A   1      42.962  29.245  35.409  1.00  0.00     0.029 A 
ATOM     54  C   UNL A   1      42.739  28.861  34.096  1.00  0.00     0.049 A 
ATOM     55  H   UNL A   1      41.234  29.506  32.764  1.00  0.00     0.167 HD
ATOM     56  C   UNL A   1      43.199  27.591  32.011  1.00  0.00     0.074 A 
ATOM     57  C   UNL A   1      43.949  26.627  31.231  1.00  0.00     0.031 C 
ATOM     58  C   UNL A   1      43.481  27.913  33.300  1.00  0.00     0.034 A 
BRANCH  45  59
ATOM     59  C   UNL A   1      39.619  32.106  35.764  1.00  0.00     0.023 A 
ATOM     60  C   UNL A   1      38.760  31.644  36.778  1.00  0.00     0.031 A 
ATOM     61  C   UNL A   1      40.087  33.430  35.854  1.00  0.00     0.131 A 
ATOM     62  C   UNL A   1      38.341  32.517  37.793  1.00  0.00     0.055 A 
ATOM     63  C   UNL A   1      39.728  34.270  36.909  1.00  0.00     0.041 A 
ATOM     64  F   UNL A   1      40.889  33.936  34.903  1.00  0.00    -0.206 F 
ATOM     65  C   UNL A   1      38.838  33.821  37.879  1.00  0.00     0.022 A 
BRANCH  62  66
ATOM     66  S   UNL A   1      37.027  31.977  38.923  1.00  0.00     0.124 S 
ATOM     67  O   UNL A   1      35.897  32.785  38.470  1.00  0.00    -0.237 OA
ATOM     68  O   UNL A   1      36.944  30.547  38.651  1.00  0.00    -0.237 OA
ATOM     69  O   UNL A   1      37.543  32.331  40.244  1.00  0.00    -0.744 OA
ENDBRANCH  62  66
ENDBRANCH  45  59
BRANCH  46  70
ATOM     70  C   UNL A   1      41.890  26.816  27.548  1.00  0.00     0.023 A 
ATOM     71  C   UNL A   1      41.692  25.430  27.449  1.00  0.00     0.031 A 
ATOM     72  C   UNL A   1      42.501  27.476  26.465  1.00  0.00     0.131 A 
ATOM     73  C   UNL A   1      42.136  24.741  26.309  1.00  0.00     0.055 A 
ATOM     74  C   UNL A   1      42.897  26.793  25.314  1.00  0.00     0.041 A 
ATOM     75  F   UNL A   1      42.714  28.800  26.510  1.00  0.00    -0.206 F 
ATOM     76  C   UNL A   1      42.726  25.415  25.236  1.00  0.00     0.022 A 
BRANCH  73  77
ATOM     77  S   UNL A   1      42.006  22.932  26.278  1.00  0.00     0.124 S 
ATOM     78  O   UNL A   1      42.643  22.609  25.007  1.00  0.00    -0.237 OA
ATOM     79  O   UNL A   1      42.742  22.555  27.481  1.00  0.00    -0.237 OA
ATOM     80  O   UNL A   1      40.565  22.693  26.333  1.00  0.00    -0.744 OA
ENDBRANCH  73  77
ENDBRANCH  46  70
BRANCH  58  81
ATOM     81  C   UNL A   1      44.624  27.173  33.950  1.00  0.00     0.023 A 
ATOM     82  C   UNL A   1      44.438  25.933  34.585  1.00  0.00     0.031 A 
ATOM     83  C   UNL A   1      45.915  27.730  33.948  1.00  0.00     0.131 A 
ATOM     84  C   UNL A   1      45.515  25.314  35.239  1.00  0.00     0.055 A 
ATOM     85  C   UNL A   1      46.994  27.086  34.555  1.00  0.00     0.041 A 
ATOM     86  F   UNL A   1      46.147  28.913  33.357  1.00  0.00    -0.206 F 
ATOM     87  C   UNL A   1      46.794  25.877  35.216  1.00  0.00     0.022 A 
BRANCH  84  88
ATOM     88  S   UNL A   1      45.206  23.804  36.195  1.00  0.00     0.124 S 
ATOM     89  O   UNL A   1      46.413  23.026  35.932  1.00  0.00    -0.237 OA
ATOM     90  O   UNL A   1      45.062  24.317  37.553  1.00  0.00    -0.237 OA
ATOM     91  O   UNL A   1      43.982  23.267  35.603  1.00  0.00    -0.744 OA
ENDBRANCH  84  88
ENDBRANCH  58  81
ENDBRANCH  32  33
ENDBRANCH  25  27
ENDBRANCH  24  25
ENDBRANCH   1  24
TORSDOF 16
ENDMDL
MODEL 2
REMARK VINA RESULT:     -12.0      5.113      8.154
REMARK SMILES Cc1ccc(C(=O)N2C[C@H](C(=O)OCCOC(=O)c3ccc(-c4c5nc(c(-c6cc(S(=O)(=O)[O-])ccc6F)c6ccc([nH]6)c(-c6cc(S(=O)(=O)[O-])ccc6F)c6nc(c(-c7cc(S(=O)(=O)[O-])ccc7F)c7ccc4[nH]7)C=C6)C=C5)cc3)Oc3ccccc32)o1
REMARK SMILES IDX 15 1 14 2 13 3 11 4 12 5 10 6 8 7 9 8 88 9 83 10 87 11 82 12
REMARK SMILES IDX 84 13 86 14 85 15 6 16 7 17 5 18 1 19 2 20 3 21 89 22 4 23
REMARK SMILES IDX 16 24 17 25 18 26 19 27 20 28 81 29 21 30 80 31 22 32 23 33
REMARK SMILES IDX 24 34 74 35 25 36 79 37 73 38 75 39 26 40 78 41 72 42 71 43
REMARK SMILES IDX 27 45 59 46 39 47 58 48 40 49 43 50 57 51 76 52 41 53 42 54
REMARK SMILES IDX 56 56 77 57 44 58 28 59 29 60 37 61 30 62 36 63 38 64 35 65
REMARK SMILES IDX 31 66 32 67 33 68 34 69 60 70 61 71 69 72 62 73 68 74 70 75
REMARK SMILES IDX 67 76 63 77 64 78 65 79 66 80 45 81 46 82 54 83 47 84 53 85
REMARK SMILES IDX 55 86 52 87 48 88 49 89 50 90 51 91
REMARK H PARENT 75 44 43 55
REMARK Flexibility Score: inf
ROOT
ATOM      1  C   UNL A   1      36.993  20.123  25.028  1.00  0.00     0.275 C 
ENDROOT
BRANCH   1   2
ATOM      2  C   UNL A   1      35.515  20.514  24.894  1.00  0.00     0.274 C 
BRANCH   2   3
ATOM      3  O   UNL A   1      35.193  21.727  25.606  1.00  0.00    -0.459 OA
BRANCH   3   4
ATOM      4  C   UNL A   1      33.880  21.877  25.935  1.00  0.00     0.349 C 
ATOM      5  O   UNL A   1      33.243  21.061  26.595  1.00  0.00    -0.248 OA
BRANCH   4   6
ATOM      6  C   UNL A   1      33.247  23.139  25.371  1.00  0.00     0.302 C 
ATOM      7  N   UNL A   1      32.700  25.513  25.602  1.00  0.00    -0.298 N 
ATOM      8  C   UNL A   1      33.470  24.405  26.194  1.00  0.00     0.183 C 
ATOM      9  C   UNL A   1      32.571  25.479  24.174  1.00  0.00     0.087 A 
ATOM     10  C   UNL A   1      33.124  24.407  23.448  1.00  0.00     0.144 A 
ATOM     11  C   UNL A   1      31.951  26.511  23.457  1.00  0.00     0.030 A 
ATOM     12  O   UNL A   1      33.744  23.330  24.042  1.00  0.00    -0.475 OA
ATOM     13  C   UNL A   1      33.070  24.377  22.053  1.00  0.00     0.049 A 
ATOM     14  C   UNL A   1      31.875  26.470  22.062  1.00  0.00     0.002 A 
ATOM     15  C   UNL A   1      32.436  25.406  21.361  1.00  0.00     0.004 A 
BRANCH   7  16
ATOM     16  C   UNL A   1      31.970  26.416  26.391  1.00  0.00     0.294 C 
ATOM     17  O   UNL A   1      30.865  26.108  26.841  1.00  0.00    -0.265 OA
BRANCH  16  18
ATOM     18  C   UNL A   1      32.526  27.748  26.581  1.00  0.00     0.192 A 
ATOM     19  C   UNL A   1      35.571  29.398  27.506  1.00  0.00     0.087 C 
ATOM     20  C   UNL A   1      34.168  29.124  27.133  1.00  0.00     0.101 A 
ATOM     21  C   UNL A   1      33.044  29.905  26.995  1.00  0.00     0.046 A 
ATOM     22  O   UNL A   1      33.863  27.825  26.880  1.00  0.00    -0.456 OA
ATOM     23  C   UNL A   1      31.989  29.023  26.644  1.00  0.00     0.056 A 
ENDBRANCH  16  18
ENDBRANCH   7  16
ENDBRANCH   4   6
ENDBRANCH   3   4
ENDBRANCH   2   3
ENDBRANCH   1   2
BRANCH   1  24
ATOM     24  O   UNL A   1      37.857  21.261  25.202  1.00  0.00    -0.458 OA
BRANCH  24  25
ATOM     25  C   UNL A   1      38.968  21.012  25.935  1.00  0.00     0.338 C 
ATOM     26  O   UNL A   1      39.554  19.944  26.017  1.00  0.00    -0.246 OA
BRANCH  25  27
ATOM     27  C   UNL A   1      39.499  22.251  26.523  1.00  0.00     0.060 A 
ATOM     28  C   UNL A   1      38.962  23.462  26.076  1.00  0.00     0.016 A 
ATOM     29  C   UNL A   1      40.586  22.239  27.398  1.00  0.00     0.016 A 
ATOM     30  C   UNL A   1      39.525  24.669  26.476  1.00  0.00     0.010 A 
ATOM     31  C   UNL A   1      41.154  23.454  27.800  1.00  0.00     0.010 A 
ATOM     32  C   UNL A   1      40.643  24.674  27.320  1.00  0.00    -0.014 A 
BRANCH  32  33
ATOM     33  C   UNL A   1      41.333  25.958  27.592  1.00  0.00     0.031 A 
ATOM     34  C   UNL A   1      40.633  27.010  28.408  1.00  0.00     0.074 A 
ATOM     35  C   UNL A   1      42.593  26.155  27.163  1.00  0.00     0.049 A 
ATOM     36  N   UNL A   1      41.028  28.216  28.725  1.00  0.00    -0.248 NA
ATOM     37  C   UNL A   1      39.307  26.653  28.931  1.00  0.00     0.031 C 
ATOM     38  C   UNL A   1      43.390  25.181  26.416  1.00  0.00     0.029 A 
ATOM     39  N   UNL A   1      43.426  27.236  27.300  1.00  0.00    -0.354 N 
ATOM     40  C   UNL A   1      39.994  28.769  29.473  1.00  0.00     0.074 A 
ATOM     41  C   UNL A   1      38.943  27.774  29.535  1.00  0.00     0.031 C 
ATOM     42  C   UNL A   1      44.598  25.710  26.162  1.00  0.00     0.029 A 
ATOM     43  C   UNL A   1      44.646  27.073  26.688  1.00  0.00     0.049 A 
ATOM     44  H   UNL A   1      43.174  28.052  27.790  1.00  0.00     0.167 HD
ATOM     45  C   UNL A   1      39.932  29.992  30.058  1.00  0.00     0.034 A 
ATOM     46  C   UNL A   1      45.674  27.933  26.548  1.00  0.00     0.034 A 
ATOM     47  C   UNL A   1      40.993  30.969  29.988  1.00  0.00     0.049 A 
ATOM     48  C   UNL A   1      45.558  29.310  27.154  1.00  0.00     0.074 A 
ATOM     49  C   UNL A   1      41.035  32.241  30.530  1.00  0.00     0.029 A 
ATOM     50  N   UNL A   1      42.202  30.781  29.328  1.00  0.00    -0.354 N 
ATOM     51  N   UNL A   1      44.562  29.834  27.832  1.00  0.00    -0.248 NA
ATOM     52  C   UNL A   1      46.708  30.206  26.982  1.00  0.00     0.031 C 
ATOM     53  C   UNL A   1      42.242  32.842  30.153  1.00  0.00     0.029 A 
ATOM     54  C   UNL A   1      42.985  31.922  29.432  1.00  0.00     0.049 A 
ATOM     55  H   UNL A   1      42.465  29.959  28.856  1.00  0.00     0.167 HD
ATOM     56  C   UNL A   1      44.978  31.113  28.188  1.00  0.00     0.074 A 
ATOM     57  C   UNL A   1      46.319  31.276  27.661  1.00  0.00     0.031 C 
ATOM     58  C   UNL A   1      44.315  32.069  28.890  1.00  0.00     0.034 A 
BRANCH  45  59
ATOM     59  C   UNL A   1      38.645  30.354  30.760  1.00  0.00     0.023 A 
ATOM     60  C   UNL A   1      37.668  31.167  30.158  1.00  0.00     0.031 A 
ATOM     61  C   UNL A   1      38.414  29.914  32.077  1.00  0.00     0.131 A 
ATOM     62  C   UNL A   1      36.545  31.573  30.894  1.00  0.00     0.055 A 
ATOM     63  C   UNL A   1      37.257  30.258  32.776  1.00  0.00     0.041 A 
ATOM     64  F   UNL A   1      39.322  29.156  32.713  1.00  0.00    -0.206 F 
ATOM     65  C   UNL A   1      36.320  31.105  32.192  1.00  0.00     0.022 A 
BRANCH  62  66
ATOM     66  S   UNL A   1      35.448  32.835  30.189  1.00  0.00     0.124 S 
ATOM     67  O   UNL A   1      34.448  32.982  31.244  1.00  0.00    -0.237 OA
ATOM     68  O   UNL A   1      36.349  33.965  29.995  1.00  0.00    -0.237 OA
ATOM     69  O   UNL A   1      34.955  32.214  28.960  1.00  0.00    -0.744 OA
ENDBRANCH  62  66
ENDBRANCH  45  59
BRANCH  46  70
ATOM     70  C   UNL A   1      46.880  27.544  25.764  1.00  0.00     0.023 A 
ATOM     71  C   UNL A   1      47.022  27.906  24.416  1.00  0.00     0.031 A 
ATOM     72  C   UNL A   1      47.891  26.760  26.349  1.00  0.00     0.131 A 
ATOM     73  C   UNL A   1      48.131  27.450  23.684  1.00  0.00     0.055 A 
ATOM     74  C   UNL A   1      49.016  26.351  25.631  1.00  0.00     0.041 A 
ATOM     75  F   UNL A   1      47.803  26.387  27.636  1.00  0.00    -0.206 F 
ATOM     76  C   UNL A   1      49.134  26.686  24.286  1.00  0.00     0.022 A 
BRANCH  73  77
ATOM     77  S   UNL A   1      48.207  27.804  21.907  1.00  0.00     0.124 S 
ATOM     78  O   UNL A   1      48.413  26.473  21.346  1.00  0.00    -0.237 OA
ATOM     79  O   UNL A   1      46.902  28.409  21.662  1.00  0.00    -0.237 OA
ATOM     80  O   UNL A   1      49.345  28.713  21.789  1.00  0.00    -0.744 OA
ENDBRANCH  73  77
ENDBRANCH  46  70
BRANCH  58  81
ATOM     81  C   UNL A   1      45.061  33.351  29.164  1.00  0.00     0.023 A 
ATOM     82  C   UNL A   1      45.013  34.440  28.277  1.00  0.00     0.031 A 
ATOM     83  C   UNL A   1      45.845  33.475  30.325  1.00  0.00     0.131 A 
ATOM     84  C   UNL A   1      45.779  35.587  28.536  1.00  0.00     0.055 A 
ATOM     85  C   UNL A   1      46.564  34.638  30.604  1.00  0.00     0.041 A 
ATOM     86  F   UNL A   1      45.927  32.464  31.205  1.00  0.00    -0.206 F 
ATOM     87  C   UNL A   1      46.544  35.697  29.702  1.00  0.00     0.022 A 
BRANCH  84  88
ATOM     88  S   UNL A   1      45.832  36.904  27.290  1.00  0.00     0.124 S 
ATOM     89  O   UNL A   1      44.431  37.302  27.209  1.00  0.00    -0.237 OA
ATOM     90  O   UNL A   1      46.736  37.874  27.898  1.00  0.00    -0.237 OA
ATOM     91  O   UNL A   1      46.354  36.231  26.102  1.00  0.00    -0.744 OA
ENDBRANCH  84  88
ENDBRANCH  58  81
ENDBRANCH  32  33
ENDBRANCH  25  27
ENDBRANCH  24  25
ENDBRANCH   1  24
TORSDOF 16
ENDMDL
MODEL 3
REMARK VINA RESULT:     -11.9      5.023     10.267
REMARK SMILES Cc1ccc(C(=O)N2C[C@H](C(=O)OCCOC(=O)c3ccc(-c4c5nc(c(-c6cc(S(=O)(=O)[O-])ccc6F)c6ccc([nH]6)c(-c6cc(S(=O)(=O)[O-])ccc6F)c6nc(c(-c7cc(S(=O)(=O)[O-])ccc7F)c7ccc4[nH]7)C=C6)C=C5)cc3)Oc3ccccc32)o1
REMARK SMILES IDX 15 1 14 2 13 3 11 4 12 5 10 6 8 7 9 8 88 9 83 10 87 11 82 12
REMARK SMILES IDX 84 13 86 14 85 15 6 16 7 17 5 18 1 19 2 20 3 21 89 22 4 23
REMARK SMILES IDX 16 24 17 25 18 26 19 27 20 28 81 29 21 30 80 31 22 32 23 33
REMARK SMILES IDX 24 34 74 35 25 36 79 37 73 38 75 39 26 40 78 41 72 42 71 43
REMARK SMILES IDX 27 45 59 46 39 47 58 48 40 49 43 50 57 51 76 52 41 53 42 54
REMARK SMILES IDX 56 56 77 57 44 58 28 59 29 60 37 61 30 62 36 63 38 64 35 65
REMARK SMILES IDX 31 66 32 67 33 68 34 69 60 70 61 71 69 72 62 73 68 74 70 75
REMARK SMILES IDX 67 76 63 77 64 78 65 79 66 80 45 81 46 82 54 83 47 84 53 85
REMARK SMILES IDX 55 86 52 87 48 88 49 89 50 90 51 91
REMARK H PARENT 75 44 43 55
REMARK Flexibility Score: inf
ROOT
ATOM      1  C   UNL A   1      37.293  19.992  25.011  1.00  0.00     0.275 C 
ENDROOT
BRANCH   1   2
ATOM      2  C   UNL A   1      35.801  20.348  24.985  1.00  0.00     0.274 C 
BRANCH   2   3
ATOM      3  O   UNL A   1      35.496  21.531  25.753  1.00  0.00    -0.459 OA
BRANCH   3   4
ATOM      4  C   UNL A   1      34.195  21.658  26.135  1.00  0.00     0.349 C 
ATOM      5  O   UNL A   1      33.623  20.873  26.886  1.00  0.00    -0.248 OA
BRANCH   4   6
ATOM      6  C   UNL A   1      33.486  22.847  25.509  1.00  0.00     0.302 C 
ATOM      7  N   UNL A   1      32.696  25.158  25.666  1.00  0.00    -0.298 N 
ATOM      8  C   UNL A   1      33.524  24.135  26.327  1.00  0.00     0.183 C 
ATOM      9  C   UNL A   1      32.676  25.102  24.234  1.00  0.00     0.087 A 
ATOM     10  C   UNL A   1      33.382  24.084  23.564  1.00  0.00     0.144 A 
ATOM     11  C   UNL A   1      32.012  26.063  23.459  1.00  0.00     0.030 A 
ATOM     12  O   UNL A   1      34.059  23.077  24.216  1.00  0.00    -0.475 OA
ATOM     13  C   UNL A   1      33.433  24.039  22.170  1.00  0.00     0.049 A 
ATOM     14  C   UNL A   1      32.044  26.005  22.063  1.00  0.00     0.002 A 
ATOM     15  C   UNL A   1      32.755  24.997  21.420  1.00  0.00     0.004 A 
BRANCH   7  16
ATOM     16  C   UNL A   1      31.826  25.991  26.387  1.00  0.00     0.294 C 
ATOM     17  O   UNL A   1      30.695  25.607  26.692  1.00  0.00    -0.265 OA
BRANCH  16  18
ATOM     18  C   UNL A   1      32.275  27.344  26.681  1.00  0.00     0.192 A 
ATOM     19  C   UNL A   1      35.274  29.242  27.186  1.00  0.00     0.087 C 
ATOM     20  C   UNL A   1      33.857  28.836  27.090  1.00  0.00     0.101 A 
ATOM     21  C   UNL A   1      32.661  29.467  27.342  1.00  0.00     0.046 A 
ATOM     22  O   UNL A   1      33.631  27.559  26.687  1.00  0.00    -0.456 OA
ATOM     23  C   UNL A   1      31.645  28.510  27.084  1.00  0.00     0.056 A 
ENDBRANCH  16  18
ENDBRANCH   7  16
ENDBRANCH   4   6
ENDBRANCH   3   4
ENDBRANCH   2   3
ENDBRANCH   1   2
BRANCH   1  24
ATOM     24  O   UNL A   1      38.138  21.144  25.187  1.00  0.00    -0.458 OA
BRANCH  24  25
ATOM     25  C   UNL A   1      39.210  20.934  25.988  1.00  0.00     0.338 C 
ATOM     26  O   UNL A   1      39.835  19.891  26.097  1.00  0.00    -0.246 OA
BRANCH  25  27
ATOM     27  C   UNL A   1      39.647  22.188  26.621  1.00  0.00     0.060 A 
ATOM     28  C   UNL A   1      39.071  23.378  26.167  1.00  0.00     0.016 A 
ATOM     29  C   UNL A   1      40.690  22.214  27.548  1.00  0.00     0.016 A 
ATOM     30  C   UNL A   1      39.551  24.604  26.613  1.00  0.00     0.010 A 
ATOM     31  C   UNL A   1      41.175  23.449  27.995  1.00  0.00     0.010 A 
ATOM     32  C   UNL A   1      40.625  24.650  27.510  1.00  0.00    -0.014 A 
BRANCH  32  33
ATOM     33  C   UNL A   1      41.235  25.962  27.836  1.00  0.00     0.031 A 
ATOM     34  C   UNL A   1      42.632  26.261  27.367  1.00  0.00     0.074 A 
ATOM     35  C   UNL A   1      40.523  26.895  28.495  1.00  0.00     0.049 A 
ATOM     36  N   UNL A   1      43.372  27.318  27.579  1.00  0.00    -0.248 NA
ATOM     37  C   UNL A   1      43.281  25.224  26.552  1.00  0.00     0.031 C 
ATOM     38  C   UNL A   1      39.140  26.737  28.946  1.00  0.00     0.029 A 
ATOM     39  N   UNL A   1      40.863  28.163  28.894  1.00  0.00    -0.354 N 
ATOM     40  C   UNL A   1      44.581  27.070  26.937  1.00  0.00     0.074 A 
ATOM     41  C   UNL A   1      44.481  25.747  26.354  1.00  0.00     0.031 C 
ATOM     42  C   UNL A   1      38.749  27.867  29.559  1.00  0.00     0.029 A 
ATOM     43  C   UNL A   1      39.865  28.810  29.583  1.00  0.00     0.049 A 
ATOM     44  H   UNL A   1      41.739  28.571  28.705  1.00  0.00     0.167 HD
ATOM     45  C   UNL A   1      45.669  27.874  26.839  1.00  0.00     0.034 A 
ATOM     46  C   UNL A   1      39.860  30.016  30.184  1.00  0.00     0.034 A 
ATOM     47  C   UNL A   1      45.747  29.191  27.424  1.00  0.00     0.049 A 
ATOM     48  C   UNL A   1      41.103  30.869  30.115  1.00  0.00     0.074 A 
ATOM     49  C   UNL A   1      46.801  30.088  27.399  1.00  0.00     0.029 A 
ATOM     50  N   UNL A   1      44.728  29.801  28.146  1.00  0.00    -0.354 N 
ATOM     51  N   UNL A   1      42.252  30.610  29.533  1.00  0.00    -0.248 NA
ATOM     52  C   UNL A   1      41.045  32.177  30.778  1.00  0.00     0.031 C 
ATOM     53  C   UNL A   1      46.441  31.213  28.151  1.00  0.00     0.029 A 
ATOM     54  C   UNL A   1      45.137  31.051  28.589  1.00  0.00     0.049 A 
ATOM     55  H   UNL A   1      43.844  29.404  28.318  1.00  0.00     0.167 HD
ATOM     56  C   UNL A   1      43.044  31.736  29.739  1.00  0.00     0.074 A 
ATOM     57  C   UNL A   1      42.236  32.679  30.488  1.00  0.00     0.031 C 
ATOM     58  C   UNL A   1      44.321  31.972  29.344  1.00  0.00     0.034 A 
BRANCH  45  59
ATOM     59  C   UNL A   1      46.878  27.312  26.130  1.00  0.00     0.023 A 
ATOM     60  C   UNL A   1      47.874  26.587  26.810  1.00  0.00     0.031 A 
ATOM     61  C   UNL A   1      47.060  27.547  24.755  1.00  0.00     0.131 A 
ATOM     62  C   UNL A   1      49.036  26.188  26.132  1.00  0.00     0.055 A 
ATOM     63  C   UNL A   1      48.183  27.080  24.069  1.00  0.00     0.041 A 
ATOM     64  F   UNL A   1      46.157  28.254  24.057  1.00  0.00    -0.206 F 
ATOM     65  C   UNL A   1      49.187  26.409  24.761  1.00  0.00     0.022 A 
BRANCH  62  66
ATOM     66  S   UNL A   1      50.415  25.502  27.092  1.00  0.00     0.124 S 
ATOM     67  O   UNL A   1      49.805  24.309  27.675  1.00  0.00    -0.237 OA
ATOM     68  O   UNL A   1      51.428  25.272  26.070  1.00  0.00    -0.237 OA
ATOM     69  O   UNL A   1      50.726  26.562  28.051  1.00  0.00    -0.744 OA
ENDBRANCH  62  66
ENDBRANCH  45  59
BRANCH  46  70
ATOM     70  C   UNL A   1      38.663  30.474  30.945  1.00  0.00     0.023 A 
ATOM     71  C   UNL A   1      37.624  31.177  30.318  1.00  0.00     0.031 A 
ATOM     72  C   UNL A   1      38.569  30.249  32.331  1.00  0.00     0.131 A 
ATOM     73  C   UNL A   1      36.553  31.667  31.082  1.00  0.00     0.055 A 
ATOM     74  C   UNL A   1      37.477  30.697  33.078  1.00  0.00     0.041 A 
ATOM     75  F   UNL A   1      39.536  29.582  32.979  1.00  0.00    -0.206 F 
ATOM     76  C   UNL A   1      36.466  31.421  32.455  1.00  0.00     0.022 A 
BRANCH  73  77
ATOM     77  S   UNL A   1      35.306  32.705  30.269  1.00  0.00     0.124 S 
ATOM     78  O   UNL A   1      34.379  32.970  31.363  1.00  0.00    -0.237 OA
ATOM     79  O   UNL A   1      36.105  33.838  29.814  1.00  0.00    -0.237 OA
ATOM     80  O   UNL A   1      34.787  31.845  29.207  1.00  0.00    -0.744 OA
ENDBRANCH  73  77
ENDBRANCH  46  70
BRANCH  58  81
ATOM     81  C   UNL A   1      44.896  33.327  29.677  1.00  0.00     0.023 A 
ATOM     82  C   UNL A   1      44.767  34.422  28.805  1.00  0.00     0.031 A 
ATOM     83  C   UNL A   1      45.598  33.516  30.880  1.00  0.00     0.131 A 
ATOM     84  C   UNL A   1      45.379  35.644  29.123  1.00  0.00     0.055 A 
ATOM     85  C   UNL A   1      46.161  34.749  31.216  1.00  0.00     0.041 A 
ATOM     86  F   UNL A   1      45.752  32.503  31.748  1.00  0.00    -0.206 F 
ATOM     87  C   UNL A   1      46.064  35.818  30.329  1.00  0.00     0.022 A 
BRANCH  84  88
ATOM     88  S   UNL A   1      45.342  36.984  27.900  1.00  0.00     0.124 S 
ATOM     89  O   UNL A   1      45.571  38.160  28.733  1.00  0.00    -0.237 OA
ATOM     90  O   UNL A   1      46.432  36.617  27.002  1.00  0.00    -0.237 OA
ATOM     91  O   UNL A   1      44.003  36.885  27.322  1.00  0.00    -0.744 OA
ENDBRANCH  84  88
ENDBRANCH  58  81
ENDBRANCH  32  33
ENDBRANCH  25  27
ENDBRANCH  24  25
ENDBRANCH   1  24
TORSDOF 16
ENDMDL
