MODEL 1
REMARK VINA RESULT:     -10.4      0.000      0.000
REMARK SMILES O=C(OCCOC(=O)c1ccc(NCCCO)c(F)c1F)c1ccc(-c2c3nc(c(-c4cc(S(=O)(=O)[O-])ccc4F)c4ccc([nH]4)c(-c4cc(S(=O)(=O)[O-])ccc4F)c4nc(c(-c5cc(S(=O)(=O)[O-])ccc5F)c5ccc2[nH]5)C=C4)C=C3)cc1
REMARK SMILES IDX 5 1 4 2 3 3 2 4 1 5 22 6 23 7 84 8 24 9 83 10 25 11 26 12
REMARK SMILES IDX 27 13 77 14 28 15 82 16 76 17 78 18 29 19 81 20 75 21 74 22
REMARK SMILES IDX 30 24 62 25 42 26 61 27 43 28 46 29 60 30 79 31 44 32 45 33
REMARK SMILES IDX 59 35 80 36 47 37 31 38 32 39 40 40 33 41 39 42 41 43 38 44
REMARK SMILES IDX 34 45 35 46 36 47 37 48 63 49 64 50 72 51 65 52 71 53 73 54
REMARK SMILES IDX 70 55 66 56 67 57 68 58 69 59 48 60 49 61 57 62 50 63 56 64
REMARK SMILES IDX 58 65 55 66 51 67 52 68 53 69 54 70 6 71 7 72 8 73 9 74
REMARK SMILES IDX 10 75 20 76 11 77 18 78 21 79 12 80 19 81 13 82 14 84 15 85
REMARK SMILES IDX 16 86 17 87
REMARK H PARENT 78 23 46 34 13 83 17 88
REMARK Flexibility Score: inf
ROOT
ATOM      1  C   UNL A   1      42.270  20.665  26.738  1.00  0.00     0.275 C 
ENDROOT
BRANCH   1   2
ATOM      2  C   UNL A   1      42.884  21.230  25.452  1.00  0.00     0.275 C 
BRANCH   2   3
ATOM      3  O   UNL A   1      43.862  22.256  25.675  1.00  0.00    -0.458 OA
BRANCH   3   4
ATOM      4  C   UNL A   1      43.826  23.560  25.305  1.00  0.00     0.338 C 
ATOM      5  O   UNL A   1      44.381  23.888  24.257  1.00  0.00    -0.246 OA
BRANCH   4   6
ATOM      6  C   UNL A   1      43.289  24.650  26.186  1.00  0.00     0.060 A 
ATOM      7  C   UNL A   1      43.766  25.963  26.262  1.00  0.00     0.016 A 
ATOM      8  C   UNL A   1      42.207  24.303  27.014  1.00  0.00     0.016 A 
ATOM      9  C   UNL A   1      43.150  26.919  27.076  1.00  0.00     0.010 A 
ATOM     10  C   UNL A   1      41.588  25.253  27.835  1.00  0.00     0.010 A 
ATOM     11  C   UNL A   1      42.066  26.570  27.874  1.00  0.00    -0.014 A 
BRANCH  11  12
ATOM     12  C   UNL A   1      41.607  27.496  28.934  1.00  0.00     0.031 A 
ATOM     13  C   UNL A   1      42.314  27.420  30.253  1.00  0.00     0.074 A 
ATOM     14  C   UNL A   1      40.636  28.404  28.727  1.00  0.00     0.049 A 
ATOM     15  N   UNL A   1      42.047  28.028  31.375  1.00  0.00    -0.248 NA
ATOM     16  C   UNL A   1      43.503  26.553  30.298  1.00  0.00     0.031 C 
ATOM     17  C   UNL A   1      39.996  28.686  27.446  1.00  0.00     0.029 A 
ATOM     18  N   UNL A   1      39.993  29.241  29.604  1.00  0.00    -0.354 N 
ATOM     19  C   UNL A   1      43.054  27.642  32.253  1.00  0.00     0.074 A 
ATOM     20  C   UNL A   1      43.883  26.683  31.557  1.00  0.00     0.031 C 
ATOM     21  C   UNL A   1      38.978  29.544  27.636  1.00  0.00     0.029 A 
ATOM     22  C   UNL A   1      38.895  29.868  29.055  1.00  0.00     0.049 A 
ATOM     23  H   UNL A   1      40.285  29.381  30.534  1.00  0.00     0.167 HD
ATOM     24  C   UNL A   1      43.281  28.079  33.513  1.00  0.00     0.034 A 
ATOM     25  C   UNL A   1      37.911  30.571  29.649  1.00  0.00     0.034 A 
ATOM     26  C   UNL A   1      42.399  28.995  34.189  1.00  0.00     0.049 A 
ATOM     27  C   UNL A   1      38.013  30.828  31.124  1.00  0.00     0.074 A 
ATOM     28  C   UNL A   1      42.495  29.509  35.468  1.00  0.00     0.029 A 
ATOM     29  N   UNL A   1      41.229  29.509  33.637  1.00  0.00    -0.354 N 
ATOM     30  N   UNL A   1      38.948  30.438  31.960  1.00  0.00    -0.248 NA
ATOM     31  C   UNL A   1      36.952  31.638  31.729  1.00  0.00     0.031 C 
ATOM     32  C   UNL A   1      41.339  30.256  35.719  1.00  0.00     0.029 A 
ATOM     33  C   UNL A   1      40.568  30.293  34.566  1.00  0.00     0.049 A 
ATOM     34  H   UNL A   1      40.917  29.340  32.719  1.00  0.00     0.167 HD
ATOM     35  C   UNL A   1      38.627  31.019  33.180  1.00  0.00     0.074 A 
ATOM     36  C   UNL A   1      37.383  31.739  32.979  1.00  0.00     0.031 C 
ATOM     37  C   UNL A   1      39.326  30.998  34.342  1.00  0.00     0.034 A 
BRANCH  24  38
ATOM     38  C   UNL A   1      44.477  27.498  34.225  1.00  0.00     0.023 A 
ATOM     39  C   UNL A   1      44.415  26.244  34.863  1.00  0.00     0.031 A 
ATOM     40  C   UNL A   1      45.650  28.254  34.379  1.00  0.00     0.131 A 
ATOM     41  C   UNL A   1      45.449  25.845  35.724  1.00  0.00     0.055 A 
ATOM     42  C   UNL A   1      46.720  27.804  35.155  1.00  0.00     0.041 A 
ATOM     43  F   UNL A   1      45.759  29.468  33.818  1.00  0.00    -0.206 F 
ATOM     44  C   UNL A   1      46.613  26.605  35.855  1.00  0.00     0.022 A 
BRANCH  41  45
ATOM     45  S   UNL A   1      45.152  24.437  36.834  1.00  0.00     0.124 S 
ATOM     46  O   UNL A   1      44.687  25.110  38.044  1.00  0.00    -0.237 OA
ATOM     47  O   UNL A   1      44.148  23.669  36.107  1.00  0.00    -0.237 OA
ATOM     48  O   UNL A   1      46.464  23.806  36.945  1.00  0.00    -0.744 OA
ENDBRANCH  41  45
ENDBRANCH  24  38
BRANCH  25  49
ATOM     49  C   UNL A   1      36.688  30.949  28.890  1.00  0.00     0.023 A 
ATOM     50  C   UNL A   1      35.773  30.019  28.384  1.00  0.00     0.031 A 
ATOM     51  C   UNL A   1      36.461  32.309  28.625  1.00  0.00     0.131 A 
ATOM     52  C   UNL A   1      34.662  30.473  27.647  1.00  0.00     0.055 A 
ATOM     53  C   UNL A   1      35.330  32.760  27.947  1.00  0.00     0.041 A 
ATOM     54  F   UNL A   1      37.371  33.216  29.008  1.00  0.00    -0.206 F 
ATOM     55  C   UNL A   1      34.417  31.836  27.455  1.00  0.00     0.022 A 
BRANCH  52  56
ATOM     56  S   UNL A   1      33.569  29.254  26.863  1.00  0.00     0.124 S 
ATOM     57  O   UNL A   1      32.311  29.501  27.557  1.00  0.00    -0.237 OA
ATOM     58  O   UNL A   1      33.621  29.657  25.462  1.00  0.00    -0.237 OA
ATOM     59  O   UNL A   1      34.211  27.977  27.164  1.00  0.00    -0.744 OA
ENDBRANCH  52  56
ENDBRANCH  25  49
BRANCH  37  60
ATOM     60  C   UNL A   1      38.819  31.867  35.458  1.00  0.00     0.023 A 
ATOM     61  C   UNL A   1      38.219  31.337  36.610  1.00  0.00     0.031 A 
ATOM     62  C   UNL A   1      38.980  33.262  35.368  1.00  0.00     0.131 A 
ATOM     63  C   UNL A   1      37.775  32.204  37.618  1.00  0.00     0.055 A 
ATOM     64  C   UNL A   1      38.594  34.113  36.401  1.00  0.00     0.041 A 
ATOM     65  F   UNL A   1      39.538  33.815  34.279  1.00  0.00    -0.206 F 
ATOM     66  C   UNL A   1      37.981  33.585  37.531  1.00  0.00     0.022 A 
BRANCH  63  67
ATOM     67  S   UNL A   1      36.861  31.512  39.022  1.00  0.00     0.124 S 
ATOM     68  O   UNL A   1      36.741  30.109  38.637  1.00  0.00    -0.237 OA
ATOM     69  O   UNL A   1      37.751  31.791  40.143  1.00  0.00    -0.237 OA
ATOM     70  O   UNL A   1      35.609  32.266  39.020  1.00  0.00    -0.744 OA
ENDBRANCH  63  67
ENDBRANCH  37  60
ENDBRANCH  11  12
ENDBRANCH   4   6
ENDBRANCH   3   4
ENDBRANCH   2   3
ENDBRANCH   1   2
BRANCH   1  71
ATOM     71  O   UNL A   1      40.890  21.018  26.918  1.00  0.00    -0.458 OA
BRANCH  71  72
ATOM     72  C   UNL A   1      40.008  20.383  26.096  1.00  0.00     0.341 C 
ATOM     73  O   UNL A   1      40.067  19.235  25.711  1.00  0.00    -0.246 OA
BRANCH  72  74
ATOM     74  C   UNL A   1      38.906  21.306  25.779  1.00  0.00     0.099 A 
ATOM     75  C   UNL A   1      38.927  22.638  26.193  1.00  0.00     0.021 A 
ATOM     76  C   UNL A   1      37.816  20.828  25.065  1.00  0.00     0.175 A 
ATOM     77  C   UNL A   1      37.832  23.472  25.914  1.00  0.00     0.030 A 
ATOM     78  C   UNL A   1      36.714  21.651  24.845  1.00  0.00     0.182 A 
ATOM     79  F   UNL A   1      37.770  19.553  24.652  1.00  0.00    -0.203 F 
ATOM     80  C   UNL A   1      36.676  22.981  25.295  1.00  0.00     0.073 A 
ATOM     81  F   UNL A   1      35.635  21.144  24.225  1.00  0.00    -0.201 F 
BRANCH  80  82
ATOM     82  N   UNL A   1      35.527  23.726  25.095  1.00  0.00    -0.383 N 
ATOM     83  H   UNL A   1      35.289  23.929  24.162  1.00  0.00     0.160 HD
BRANCH  82  84
ATOM     84  C   UNL A   1      34.635  24.236  26.123  1.00  0.00     0.115 C 
BRANCH  84  85
ATOM     85  C   UNL A   1      33.872  23.081  26.771  1.00  0.00     0.049 C 
BRANCH  85  86
ATOM     86  C   UNL A   1      32.949  22.353  25.801  1.00  0.00     0.158 C 
BRANCH  86  87
ATOM     87  O   UNL A   1      32.732  21.002  26.181  1.00  0.00    -0.396 OA
ATOM     88  H   UNL A   1      33.445  20.447  25.825  1.00  0.00     0.210 HD
ENDBRANCH  86  87
ENDBRANCH  85  86
ENDBRANCH  84  85
ENDBRANCH  82  84
ENDBRANCH  80  82
ENDBRANCH  72  74
ENDBRANCH  71  72
ENDBRANCH   1  71
TORSDOF 19
ENDMDL
MODEL 2
REMARK VINA RESULT:     -10.3      5.184      7.553
REMARK SMILES O=C(OCCOC(=O)c1ccc(NCCCO)c(F)c1F)c1ccc(-c2c3nc(c(-c4cc(S(=O)(=O)[O-])ccc4F)c4ccc([nH]4)c(-c4cc(S(=O)(=O)[O-])ccc4F)c4nc(c(-c5cc(S(=O)(=O)[O-])ccc5F)c5ccc2[nH]5)C=C4)C=C3)cc1
REMARK SMILES IDX 5 1 4 2 3 3 2 4 1 5 22 6 23 7 84 8 24 9 83 10 25 11 26 12
REMARK SMILES IDX 27 13 77 14 28 15 82 16 76 17 78 18 29 19 81 20 75 21 74 22
REMARK SMILES IDX 30 24 62 25 42 26 61 27 43 28 46 29 60 30 79 31 44 32 45 33
REMARK SMILES IDX 59 35 80 36 47 37 31 38 32 39 40 40 33 41 39 42 41 43 38 44
REMARK SMILES IDX 34 45 35 46 36 47 37 48 63 49 64 50 72 51 65 52 71 53 73 54
REMARK SMILES IDX 70 55 66 56 67 57 68 58 69 59 48 60 49 61 57 62 50 63 56 64
REMARK SMILES IDX 58 65 55 66 51 67 52 68 53 69 54 70 6 71 7 72 8 73 9 74
REMARK SMILES IDX 10 75 20 76 11 77 18 78 21 79 12 80 19 81 13 82 14 84 15 85
REMARK SMILES IDX 16 86 17 87
REMARK H PARENT 78 23 46 34 13 83 17 88
REMARK Flexibility Score: inf
ROOT
ATOM      1  C   UNL A   1      41.570  20.514  26.108  1.00  0.00     0.275 C 
ENDROOT
BRANCH   1   2
ATOM      2  C   UNL A   1      40.399  21.059  26.933  1.00  0.00     0.275 C 
BRANCH   2   3
ATOM      3  O   UNL A   1      39.280  21.488  26.143  1.00  0.00    -0.458 OA
BRANCH   3   4
ATOM      4  C   UNL A   1      38.574  22.642  26.227  1.00  0.00     0.338 C 
ATOM      5  O   UNL A   1      37.462  22.690  25.701  1.00  0.00    -0.246 OA
BRANCH   4   6
ATOM      6  C   UNL A   1      39.143  23.916  26.782  1.00  0.00     0.060 A 
ATOM      7  C   UNL A   1      39.044  24.359  28.105  1.00  0.00     0.016 A 
ATOM      8  C   UNL A   1      39.836  24.734  25.873  1.00  0.00     0.016 A 
ATOM      9  C   UNL A   1      39.668  25.536  28.532  1.00  0.00     0.010 A 
ATOM     10  C   UNL A   1      40.459  25.916  26.290  1.00  0.00     0.010 A 
ATOM     11  C   UNL A   1      40.369  26.327  27.627  1.00  0.00    -0.014 A 
BRANCH  11  12
ATOM     12  C   UNL A   1      40.776  27.697  28.013  1.00  0.00     0.031 A 
ATOM     13  C   UNL A   1      42.247  27.982  28.052  1.00  0.00     0.074 A 
ATOM     14  C   UNL A   1      39.882  28.669  28.272  1.00  0.00     0.049 A 
ATOM     15  N   UNL A   1      42.876  29.049  28.459  1.00  0.00    -0.248 NA
ATOM     16  C   UNL A   1      43.123  26.918  27.535  1.00  0.00     0.031 C 
ATOM     17  C   UNL A   1      38.436  28.559  28.101  1.00  0.00     0.029 A 
ATOM     18  N   UNL A   1      40.057  29.938  28.764  1.00  0.00    -0.354 N 
ATOM     19  C   UNL A   1      44.222  28.798  28.218  1.00  0.00     0.074 A 
ATOM     20  C   UNL A   1      44.320  27.448  27.712  1.00  0.00     0.031 C 
ATOM     21  C   UNL A   1      37.846  29.665  28.588  1.00  0.00     0.029 A 
ATOM     22  C   UNL A   1      38.875  30.558  29.105  1.00  0.00     0.049 A 
ATOM     23  H   UNL A   1      40.939  30.363  28.866  1.00  0.00     0.167 HD
ATOM     24  C   UNL A   1      45.272  29.637  28.375  1.00  0.00     0.034 A 
ATOM     25  C   UNL A   1      38.661  31.688  29.807  1.00  0.00     0.034 A 
ATOM     26  C   UNL A   1      45.137  30.956  28.934  1.00  0.00     0.049 A 
ATOM     27  C   UNL A   1      39.852  32.495  30.234  1.00  0.00     0.074 A 
ATOM     28  C   UNL A   1      46.113  31.906  29.166  1.00  0.00     0.029 A 
ATOM     29  N   UNL A   1      43.936  31.499  29.382  1.00  0.00    -0.354 N 
ATOM     30  N   UNL A   1      41.125  32.244  30.034  1.00  0.00    -0.248 NA
ATOM     31  C   UNL A   1      39.581  33.744  30.952  1.00  0.00     0.031 C 
ATOM     32  C   UNL A   1      45.518  32.980  29.837  1.00  0.00     0.029 A 
ATOM     33  C   UNL A   1      44.154  32.748  29.935  1.00  0.00     0.049 A 
ATOM     34  H   UNL A   1      43.058  31.059  29.315  1.00  0.00     0.167 HD
ATOM     35  C   UNL A   1      41.808  33.343  30.537  1.00  0.00     0.074 A 
ATOM     36  C   UNL A   1      40.807  34.231  31.098  1.00  0.00     0.031 C 
ATOM     37  C   UNL A   1      43.137  33.613  30.491  1.00  0.00     0.034 A 
BRANCH  24  38
ATOM     38  C   UNL A   1      46.631  29.095  28.004  1.00  0.00     0.023 A 
ATOM     39  C   UNL A   1      46.992  28.873  26.661  1.00  0.00     0.031 A 
ATOM     40  C   UNL A   1      47.527  28.678  29.002  1.00  0.00     0.131 A 
ATOM     41  C   UNL A   1      48.150  28.141  26.360  1.00  0.00     0.055 A 
ATOM     42  C   UNL A   1      48.729  28.041  28.691  1.00  0.00     0.041 A 
ATOM     43  F   UNL A   1      47.227  28.838  30.300  1.00  0.00    -0.206 F 
ATOM     44  C   UNL A   1      49.035  27.744  27.365  1.00  0.00     0.022 A 
BRANCH  41  45
ATOM     45  S   UNL A   1      48.364  27.524  24.665  1.00  0.00     0.124 S 
ATOM     46  O   UNL A   1      47.312  28.246  23.954  1.00  0.00    -0.237 OA
ATOM     47  O   UNL A   1      49.732  27.923  24.355  1.00  0.00    -0.237 OA
ATOM     48  O   UNL A   1      48.145  26.086  24.793  1.00  0.00    -0.744 OA
ENDBRANCH  41  45
ENDBRANCH  24  38
BRANCH  25  49
ATOM     49  C   UNL A   1      37.292  32.043  30.271  1.00  0.00     0.023 A 
ATOM     50  C   UNL A   1      36.383  32.782  29.506  1.00  0.00     0.031 A 
ATOM     51  C   UNL A   1      36.905  31.657  31.564  1.00  0.00     0.131 A 
ATOM     52  C   UNL A   1      35.121  33.098  30.046  1.00  0.00     0.055 A 
ATOM     53  C   UNL A   1      35.634  31.919  32.074  1.00  0.00     0.041 A 
ATOM     54  F   UNL A   1      37.788  31.036  32.359  1.00  0.00    -0.206 F 
ATOM     55  C   UNL A   1      34.729  32.644  31.309  1.00  0.00     0.022 A 
BRANCH  52  56
ATOM     56  S   UNL A   1      34.012  34.189  29.111  1.00  0.00     0.124 S 
ATOM     57  O   UNL A   1      33.083  34.621  30.148  1.00  0.00    -0.237 OA
ATOM     58  O   UNL A   1      34.934  35.203  28.609  1.00  0.00    -0.237 OA
ATOM     59  O   UNL A   1      33.448  33.307  28.092  1.00  0.00    -0.744 OA
ENDBRANCH  52  56
ENDBRANCH  25  49
BRANCH  37  60
ATOM     60  C   UNL A   1      43.574  34.970  30.965  1.00  0.00     0.023 A 
ATOM     61  C   UNL A   1      43.616  36.086  30.116  1.00  0.00     0.031 A 
ATOM     62  C   UNL A   1      43.922  35.144  32.318  1.00  0.00     0.131 A 
ATOM     63  C   UNL A   1      44.025  37.326  30.626  1.00  0.00     0.055 A 
ATOM     64  C   UNL A   1      44.266  36.392  32.832  1.00  0.00     0.041 A 
ATOM     65  F   UNL A   1      43.908  34.102  33.165  1.00  0.00    -0.206 F 
ATOM     66  C   UNL A   1      44.326  37.491  31.982  1.00  0.00     0.022 A 
BRANCH  63  67
ATOM     67  S   UNL A   1      44.224  38.716  29.480  1.00  0.00     0.124 S 
ATOM     68  O   UNL A   1      42.981  39.452  29.684  1.00  0.00    -0.237 OA
ATOM     69  O   UNL A   1      45.435  39.360  29.975  1.00  0.00    -0.237 OA
ATOM     70  O   UNL A   1      44.355  38.068  28.177  1.00  0.00    -0.744 OA
ENDBRANCH  63  67
ENDBRANCH  37  60
ENDBRANCH  11  12
ENDBRANCH   4   6
ENDBRANCH   3   4
ENDBRANCH   2   3
ENDBRANCH   1   2
BRANCH   1  71
ATOM     71  O   UNL A   1      42.847  21.034  26.511  1.00  0.00    -0.458 OA
BRANCH  71  72
ATOM     72  C   UNL A   1      43.042  22.361  26.274  1.00  0.00     0.341 C 
ATOM     73  O   UNL A   1      42.757  22.971  25.266  1.00  0.00    -0.246 OA
BRANCH  72  74
ATOM     74  C   UNL A   1      43.613  22.981  27.481  1.00  0.00     0.099 A 
ATOM     75  C   UNL A   1      42.840  23.211  28.620  1.00  0.00     0.021 A 
ATOM     76  C   UNL A   1      44.950  23.357  27.474  1.00  0.00     0.175 A 
ATOM     77  C   UNL A   1      43.410  23.850  29.732  1.00  0.00     0.030 A 
ATOM     78  C   UNL A   1      45.486  24.041  28.562  1.00  0.00     0.182 A 
ATOM     79  F   UNL A   1      45.716  23.146  26.394  1.00  0.00    -0.203 F 
ATOM     80  C   UNL A   1      44.723  24.339  29.704  1.00  0.00     0.073 A 
ATOM     81  F   UNL A   1      46.757  24.470  28.500  1.00  0.00    -0.201 F 
BRANCH  80  82
ATOM     82  N   UNL A   1      45.300  25.072  30.725  1.00  0.00    -0.383 N 
ATOM     83  H   UNL A   1      45.996  24.620  31.254  1.00  0.00     0.160 HD
BRANCH  82  84
ATOM     84  C   UNL A   1      44.984  26.441  31.094  1.00  0.00     0.115 C 
BRANCH  84  85
ATOM     85  C   UNL A   1      45.186  26.635  32.597  1.00  0.00     0.049 C 
BRANCH  85  86
ATOM     86  C   UNL A   1      46.030  25.538  33.235  1.00  0.00     0.158 C 
BRANCH  86  87
ATOM     87  O   UNL A   1      45.238  24.444  33.676  1.00  0.00    -0.396 OA
ATOM     88  H   UNL A   1      45.744  23.621  33.586  1.00  0.00     0.210 HD
ENDBRANCH  86  87
ENDBRANCH  85  86
ENDBRANCH  84  85
ENDBRANCH  82  84
ENDBRANCH  80  82
ENDBRANCH  72  74
ENDBRANCH  71  72
ENDBRANCH   1  71
TORSDOF 19
ENDMDL
MODEL 3
REMARK VINA RESULT:     -10.2      5.336      9.299
REMARK SMILES O=C(OCCOC(=O)c1ccc(NCCCO)c(F)c1F)c1ccc(-c2c3nc(c(-c4cc(S(=O)(=O)[O-])ccc4F)c4ccc([nH]4)c(-c4cc(S(=O)(=O)[O-])ccc4F)c4nc(c(-c5cc(S(=O)(=O)[O-])ccc5F)c5ccc2[nH]5)C=C4)C=C3)cc1
REMARK SMILES IDX 5 1 4 2 3 3 2 4 1 5 22 6 23 7 84 8 24 9 83 10 25 11 26 12
REMARK SMILES IDX 27 13 77 14 28 15 82 16 76 17 78 18 29 19 81 20 75 21 74 22
REMARK SMILES IDX 30 24 62 25 42 26 61 27 43 28 46 29 60 30 79 31 44 32 45 33
REMARK SMILES IDX 59 35 80 36 47 37 31 38 32 39 40 40 33 41 39 42 41 43 38 44
REMARK SMILES IDX 34 45 35 46 36 47 37 48 63 49 64 50 72 51 65 52 71 53 73 54
REMARK SMILES IDX 70 55 66 56 67 57 68 58 69 59 48 60 49 61 57 62 50 63 56 64
REMARK SMILES IDX 58 65 55 66 51 67 52 68 53 69 54 70 6 71 7 72 8 73 9 74
REMARK SMILES IDX 10 75 20 76 11 77 18 78 21 79 12 80 19 81 13 82 14 84 15 85
REMARK SMILES IDX 16 86 17 87
REMARK H PARENT 78 23 46 34 13 83 17 88
REMARK Flexibility Score: inf
ROOT
ATOM      1  C   UNL A   1      35.620  20.456  24.997  1.00  0.00     0.275 C 
ENDROOT
BRANCH   1   2
ATOM      2  C   UNL A   1      37.057  20.939  24.778  1.00  0.00     0.275 C 
BRANCH   2   3
ATOM      3  O   UNL A   1      37.674  21.486  25.953  1.00  0.00    -0.458 OA
BRANCH   3   4
ATOM      4  C   UNL A   1      38.984  21.747  26.182  1.00  0.00     0.338 C 
ATOM      5  O   UNL A   1      39.792  20.823  26.087  1.00  0.00    -0.246 OA
BRANCH   4   6
ATOM      6  C   UNL A   1      39.481  23.062  26.708  1.00  0.00     0.060 A 
ATOM      7  C   UNL A   1      38.979  24.327  26.384  1.00  0.00     0.016 A 
ATOM      8  C   UNL A   1      40.560  23.003  27.609  1.00  0.00     0.016 A 
ATOM      9  C   UNL A   1      39.477  25.488  26.982  1.00  0.00     0.010 A 
ATOM     10  C   UNL A   1      41.068  24.161  28.208  1.00  0.00     0.010 A 
ATOM     11  C   UNL A   1      40.530  25.415  27.888  1.00  0.00    -0.014 A 
BRANCH  11  12
ATOM     12  C   UNL A   1      41.236  26.652  28.293  1.00  0.00     0.031 A 
ATOM     13  C   UNL A   1      40.402  27.742  28.895  1.00  0.00     0.074 A 
ATOM     14  C   UNL A   1      42.569  26.792  28.179  1.00  0.00     0.049 A 
ATOM     15  N   UNL A   1      40.738  28.957  29.231  1.00  0.00    -0.248 NA
ATOM     16  C   UNL A   1      38.998  27.398  29.179  1.00  0.00     0.031 C 
ATOM     17  C   UNL A   1      43.500  25.745  27.769  1.00  0.00     0.029 A 
ATOM     18  N   UNL A   1      43.374  27.888  28.370  1.00  0.00    -0.354 N 
ATOM     19  C   UNL A   1      39.595  29.513  29.795  1.00  0.00     0.074 A 
ATOM     20  C   UNL A   1      38.540  28.533  29.676  1.00  0.00     0.031 C 
ATOM     21  C   UNL A   1      44.729  26.273  27.629  1.00  0.00     0.029 A 
ATOM     22  C   UNL A   1      44.668  27.696  27.937  1.00  0.00     0.049 A 
ATOM     23  H   UNL A   1      43.058  28.727  28.775  1.00  0.00     0.167 HD
ATOM     24  C   UNL A   1      39.457  30.721  30.389  1.00  0.00     0.034 A 
ATOM     25  C   UNL A   1      45.662  28.587  27.759  1.00  0.00     0.034 A 
ATOM     26  C   UNL A   1      40.521  31.690  30.438  1.00  0.00     0.049 A 
ATOM     27  C   UNL A   1      45.420  30.012  28.163  1.00  0.00     0.074 A 
ATOM     28  C   UNL A   1      40.518  32.956  30.990  1.00  0.00     0.029 A 
ATOM     29  N   UNL A   1      41.780  31.502  29.876  1.00  0.00    -0.354 N 
ATOM     30  N   UNL A   1      44.331  30.545  28.667  1.00  0.00    -0.248 NA
ATOM     31  C   UNL A   1      46.539  30.945  28.002  1.00  0.00     0.031 C 
ATOM     32  C   UNL A   1      41.739  33.564  30.680  1.00  0.00     0.029 A 
ATOM     33  C   UNL A   1      42.544  32.645  30.023  1.00  0.00     0.049 A 
ATOM     34  H   UNL A   1      42.084  30.674  29.437  1.00  0.00     0.167 HD
ATOM     35  C   UNL A   1      44.658  31.864  28.955  1.00  0.00     0.074 A 
ATOM     36  C   UNL A   1      46.028  32.056  28.516  1.00  0.00     0.031 C 
ATOM     37  C   UNL A   1      43.908  32.811  29.573  1.00  0.00     0.034 A 
BRANCH  24  38
ATOM     38  C   UNL A   1      38.092  31.050  30.941  1.00  0.00     0.023 A 
ATOM     39  C   UNL A   1      37.089  31.617  30.132  1.00  0.00     0.031 A 
ATOM     40  C   UNL A   1      37.830  30.917  32.314  1.00  0.00     0.131 A 
ATOM     41  C   UNL A   1      35.929  32.142  30.720  1.00  0.00     0.055 A 
ATOM     42  C   UNL A   1      36.628  31.348  32.879  1.00  0.00     0.041 A 
ATOM     43  F   UNL A   1      38.756  30.409  33.141  1.00  0.00    -0.206 F 
ATOM     44  C   UNL A   1      35.679  31.990  32.086  1.00  0.00     0.022 A 
BRANCH  41  45
ATOM     45  S   UNL A   1      34.864  33.218  29.716  1.00  0.00     0.124 S 
ATOM     46  O   UNL A   1      35.835  34.157  29.159  1.00  0.00    -0.237 OA
ATOM     47  O   UNL A   1      34.269  32.281  28.772  1.00  0.00    -0.237 OA
ATOM     48  O   UNL A   1      33.942  33.794  30.692  1.00  0.00    -0.744 OA
ENDBRANCH  41  45
ENDBRANCH  24  38
BRANCH  25  49
ATOM     49  C   UNL A   1      46.908  28.197  27.045  1.00  0.00     0.023 A 
ATOM     50  C   UNL A   1      46.999  28.086  25.653  1.00  0.00     0.031 A 
ATOM     51  C   UNL A   1      48.042  27.876  27.808  1.00  0.00     0.131 A 
ATOM     52  C   UNL A   1      48.214  27.675  25.070  1.00  0.00     0.055 A 
ATOM     53  C   UNL A   1      49.261  27.528  27.226  1.00  0.00     0.041 A 
ATOM     54  F   UNL A   1      47.958  27.874  29.145  1.00  0.00    -0.206 F 
ATOM     55  C   UNL A   1      49.352  27.429  25.844  1.00  0.00     0.022 A 
BRANCH  52  56
ATOM     56  S   UNL A   1      48.276  27.383  23.280  1.00  0.00     0.124 S 
ATOM     57  O   UNL A   1      47.142  28.172  22.815  1.00  0.00    -0.237 OA
ATOM     58  O   UNL A   1      49.600  27.893  22.935  1.00  0.00    -0.237 OA
ATOM     59  O   UNL A   1      48.123  25.935  23.165  1.00  0.00    -0.744 OA
ENDBRANCH  52  56
ENDBRANCH  25  49
BRANCH  37  60
ATOM     60  C   UNL A   1      44.589  34.108  29.909  1.00  0.00     0.023 A 
ATOM     61  C   UNL A   1      44.543  35.224  29.060  1.00  0.00     0.031 A 
ATOM     62  C   UNL A   1      45.271  34.227  31.135  1.00  0.00     0.131 A 
ATOM     63  C   UNL A   1      45.194  36.406  29.438  1.00  0.00     0.055 A 
ATOM     64  C   UNL A   1      45.861  35.423  31.533  1.00  0.00     0.041 A 
ATOM     65  F   UNL A   1      45.351  33.181  31.974  1.00  0.00    -0.206 F 
ATOM     66  C   UNL A   1      45.830  36.520  30.679  1.00  0.00     0.022 A 
BRANCH  63  67
ATOM     67  S   UNL A   1      45.257  37.781  28.259  1.00  0.00     0.124 S 
ATOM     68  O   UNL A   1      45.516  37.085  27.003  1.00  0.00    -0.237 OA
ATOM     69  O   UNL A   1      43.932  38.374  28.398  1.00  0.00    -0.237 OA
ATOM     70  O   UNL A   1      46.360  38.604  28.752  1.00  0.00    -0.744 OA
ENDBRANCH  63  67
ENDBRANCH  37  60
ENDBRANCH  11  12
ENDBRANCH   4   6
ENDBRANCH   3   4
ENDBRANCH   2   3
ENDBRANCH   1   2
BRANCH   1  71
ATOM     71  O   UNL A   1      34.651  21.517  24.995  1.00  0.00    -0.458 OA
BRANCH  71  72
ATOM     72  C   UNL A   1      34.094  21.806  26.204  1.00  0.00     0.341 C 
ATOM     73  O   UNL A   1      34.468  21.419  27.291  1.00  0.00    -0.246 OA
BRANCH  72  74
ATOM     74  C   UNL A   1      32.970  22.735  25.999  1.00  0.00     0.099 A 
ATOM     75  C   UNL A   1      31.679  22.274  25.745  1.00  0.00     0.021 A 
ATOM     76  C   UNL A   1      33.213  24.101  26.046  1.00  0.00     0.175 A 
ATOM     77  C   UNL A   1      30.644  23.193  25.505  1.00  0.00     0.030 A 
ATOM     78  C   UNL A   1      32.190  24.999  25.750  1.00  0.00     0.182 A 
ATOM     79  F   UNL A   1      34.445  24.572  26.290  1.00  0.00    -0.203 F 
ATOM     80  C   UNL A   1      30.890  24.570  25.436  1.00  0.00     0.073 A 
ATOM     81  F   UNL A   1      32.466  26.314  25.718  1.00  0.00    -0.201 F 
BRANCH  80  82
ATOM     82  N   UNL A   1      29.936  25.512  25.094  1.00  0.00    -0.383 N 
ATOM     83  H   UNL A   1      29.362  25.843  25.822  1.00  0.00     0.160 HD
BRANCH  82  84
ATOM     84  C   UNL A   1      29.696  26.062  23.771  1.00  0.00     0.115 C 
BRANCH  84  85
ATOM     85  C   UNL A   1      29.784  27.588  23.818  1.00  0.00     0.049 C 
BRANCH  85  86
ATOM     86  C   UNL A   1      30.186  28.206  22.484  1.00  0.00     0.158 C 
BRANCH  86  87
ATOM     87  O   UNL A   1      30.990  27.328  21.709  1.00  0.00    -0.396 OA
ATOM     88  H   UNL A   1      31.079  27.680  20.809  1.00  0.00     0.210 HD
ENDBRANCH  86  87
ENDBRANCH  85  86
ENDBRANCH  84  85
ENDBRANCH  82  84
ENDBRANCH  80  82
ENDBRANCH  72  74
ENDBRANCH  71  72
ENDBRANCH   1  71
TORSDOF 19
ENDMDL
