MODEL 1
REMARK VINA RESULT:     -12.3      0.000      0.000
REMARK SMILES C=C[C@@H]1[C@@H](O)C[C@H]2[C@]3(CC[C@]4(C)[C@@H]([C@H](C)CCC=C(C)C)CC[C@]24C)C[C@]13CCC(=O)OCCOC(=O)c1ccc(-c2c3nc(c(-c4cc(S(=O)(=O)[O-])ccc4F)c4ccc([nH]4)c(-c4cc(S(=O)(=O)[O-])ccc4F)c4nc(c(-c5cc(S(=O)(=O)[O-])ccc5F)c5ccc2[nH]5)C=C4)C=C3)cc1
REMARK SMILES IDX 32 1 30 2 31 3 29 4 28 5 27 6 3 7 4 8 6 9 8 10 26 11 7 12
REMARK SMILES IDX 9 13 24 14 10 15 11 16 23 17 25 18 13 19 12 20 22 21 2 22
REMARK SMILES IDX 1 23 5 24 14 26 15 27 16 28 17 29 18 30 19 31 20 32 21 33
REMARK SMILES IDX 33 34 34 35 35 36 36 37 37 38 38 39 39 40 100 41 40 42 99 43
REMARK SMILES IDX 41 44 42 45 43 46 93 47 44 48 98 49 92 50 94 51 45 52 97 53
REMARK SMILES IDX 91 54 90 55 46 57 78 58 58 59 77 60 59 61 62 62 76 63 95 64
REMARK SMILES IDX 60 65 61 66 75 68 96 69 63 70 47 71 48 72 56 73 49 74 55 75
REMARK SMILES IDX 57 76 54 77 50 78 51 79 52 80 53 81 79 82 80 83 88 84 81 85
REMARK SMILES IDX 87 86 89 87 86 88 82 89 83 90 84 91 85 92 64 93 65 94 73 95
REMARK SMILES IDX 66 96 72 97 74 98 71 99 67 100 68 101 69 102 70 103
REMARK H PARENT 5 25 94 56 62 67
REMARK Flexibility Score: inf
ROOT
ATOM      1  O   UNL A   1      39.044  21.719  25.797  1.00  0.00    -0.462 OA
ENDROOT
BRANCH   1   2
ATOM      2  C   UNL A   1      38.026  22.604  25.896  1.00  0.00     0.305 C 
ATOM      3  O   UNL A   1      38.147  23.787  26.192  1.00  0.00    -0.252 OA
BRANCH   2   4
ATOM      4  C   UNL A   1      36.681  21.989  25.597  1.00  0.00     0.123 C 
BRANCH   4   5
ATOM      5  C   UNL A   1      35.897  22.594  24.432  1.00  0.00     0.020 C 
BRANCH   5   6
ATOM      6  C   UNL A   1      34.396  22.268  24.308  1.00  0.00    -0.014 C 
ATOM      7  C   UNL A   1      33.911  21.119  25.223  1.00  0.00     0.047 C 
ATOM      8  C   UNL A   1      32.573  21.346  25.958  1.00  0.00     0.122 C 
ATOM      9  C   UNL A   1      31.614  22.265  25.222  1.00  0.00     0.037 C 
ATOM     10  C   UNL A   1      33.495  23.518  24.046  1.00  0.00    -0.019 C 
ATOM     11  C   UNL A   1      33.670  22.474  22.981  1.00  0.00     0.016 C 
ATOM     12  C   UNL A   1      32.243  23.644  24.924  1.00  0.00     0.005 C 
ATOM     13  C   UNL A   1      34.120  24.858  23.691  1.00  0.00     0.008 C 
ATOM     14  C   UNL A   1      31.190  24.700  24.373  1.00  0.00    -0.023 C 
ATOM     15  C   UNL A   1      33.107  25.796  23.044  1.00  0.00     0.008 C 
ATOM     16  C   UNL A   1      31.869  26.063  23.911  1.00  0.00    -0.024 C 
ATOM     17  C   UNL A   1      30.285  25.200  25.538  1.00  0.00     0.008 C 
ATOM     18  C   UNL A   1      30.310  24.027  23.295  1.00  0.00     0.012 C 
ATOM     19  C   UNL A   1      32.217  26.707  25.300  1.00  0.00    -0.002 C 
ATOM     20  C   UNL A   1      30.888  26.932  23.079  1.00  0.00     0.012 C 
ATOM     21  C   UNL A   1      30.943  26.458  26.124  1.00  0.00     0.005 C 
BRANCH   7  22
ATOM     22  C   UNL A   1      33.980  19.702  24.661  1.00  0.00    -0.028 C 
ATOM     23  C   UNL A   1      33.040  18.994  24.021  1.00  0.00     0.004 C 
ENDBRANCH   7  22
BRANCH   8  24
ATOM     24  O   UNL A   1      32.789  21.878  27.274  1.00  0.00    -0.392 OA
ATOM     25  H   UNL A   1      31.933  22.058  27.694  1.00  0.00     0.210 HD
ENDBRANCH   8  24
BRANCH  19  26
ATOM     26  C   UNL A   1      32.801  28.142  25.508  1.00  0.00    -0.010 C 
ATOM     27  C   UNL A   1      34.047  28.238  26.387  1.00  0.00     0.008 C 
BRANCH  26  28
ATOM     28  C   UNL A   1      31.748  29.157  26.043  1.00  0.00     0.008 C 
BRANCH  28  29
ATOM     29  C   UNL A   1      31.266  30.212  25.027  1.00  0.00     0.027 C 
BRANCH  29  30
ATOM     30  C   UNL A   1      30.325  29.709  23.970  1.00  0.00    -0.028 C 
ATOM     31  C   UNL A   1      29.285  30.370  23.426  1.00  0.00    -0.080 C 
ATOM     32  C   UNL A   1      28.414  29.714  22.392  1.00  0.00     0.039 C 
ATOM     33  C   UNL A   1      28.897  31.770  23.811  1.00  0.00     0.039 C 
ENDBRANCH  29  30
ENDBRANCH  28  29
ENDBRANCH  26  28
ENDBRANCH  19  26
ENDBRANCH   5   6
ENDBRANCH   4   5
ENDBRANCH   2   4
ENDBRANCH   1   2
BRANCH   1  34
ATOM     34  C   UNL A   1      38.727  20.404  25.311  1.00  0.00     0.274 C 
BRANCH  34  35
ATOM     35  C   UNL A   1      39.726  19.402  25.885  1.00  0.00     0.275 C 
BRANCH  35  36
ATOM     36  O   UNL A   1      41.010  19.581  25.260  1.00  0.00    -0.458 OA
BRANCH  36  37
ATOM     37  C   UNL A   1      42.074  19.464  26.091  1.00  0.00     0.338 C 
ATOM     38  O   UNL A   1      42.691  18.453  26.369  1.00  0.00    -0.246 OA
BRANCH  37  39
ATOM     39  C   UNL A   1      42.497  20.814  26.484  1.00  0.00     0.060 A 
ATOM     40  C   UNL A   1      42.818  21.719  25.469  1.00  0.00     0.016 A 
ATOM     41  C   UNL A   1      42.605  21.179  27.825  1.00  0.00     0.016 A 
ATOM     42  C   UNL A   1      43.244  23.004  25.785  1.00  0.00     0.010 A 
ATOM     43  C   UNL A   1      43.037  22.468  28.142  1.00  0.00     0.010 A 
ATOM     44  C   UNL A   1      43.366  23.385  27.125  1.00  0.00    -0.014 A 
BRANCH  44  45
ATOM     45  C   UNL A   1      43.928  24.712  27.469  1.00  0.00     0.031 A 
ATOM     46  C   UNL A   1      43.009  25.776  27.991  1.00  0.00     0.074 A 
ATOM     47  C   UNL A   1      45.240  24.955  27.310  1.00  0.00     0.049 A 
ATOM     48  N   UNL A   1      43.234  27.047  28.191  1.00  0.00    -0.248 NA
ATOM     49  C   UNL A   1      41.641  25.344  28.311  1.00  0.00     0.031 C 
ATOM     50  C   UNL A   1      46.230  23.976  26.862  1.00  0.00     0.029 A 
ATOM     51  N   UNL A   1      45.963  26.107  27.487  1.00  0.00    -0.354 N 
ATOM     52  C   UNL A   1      42.024  27.580  28.624  1.00  0.00     0.074 A 
ATOM     53  C   UNL A   1      41.067  26.492  28.631  1.00  0.00     0.031 C 
ATOM     54  C   UNL A   1      47.430  24.574  26.782  1.00  0.00     0.029 A 
ATOM     55  C   UNL A   1      47.280  25.988  27.113  1.00  0.00     0.049 A 
ATOM     56  H   UNL A   1      45.576  26.938  27.848  1.00  0.00     0.167 HD
ATOM     57  C   UNL A   1      41.745  28.860  28.975  1.00  0.00     0.034 A 
ATOM     58  C   UNL A   1      48.242  26.925  26.997  1.00  0.00     0.034 A 
ATOM     59  C   UNL A   1      42.727  29.919  28.959  1.00  0.00     0.049 A 
ATOM     60  C   UNL A   1      47.904  28.352  27.339  1.00  0.00     0.074 A 
ATOM     61  C   UNL A   1      42.575  31.249  29.307  1.00  0.00     0.029 A 
ATOM     62  N   UNL A   1      44.053  29.765  28.560  1.00  0.00    -0.354 N 
ATOM     63  N   UNL A   1      46.753  28.858  27.723  1.00  0.00    -0.248 NA
ATOM     64  C   UNL A   1      48.990  29.332  27.233  1.00  0.00     0.031 C 
ATOM     65  C   UNL A   1      43.784  31.910  29.056  1.00  0.00     0.029 A 
ATOM     66  C   UNL A   1      44.717  30.981  28.623  1.00  0.00     0.049 A 
ATOM     67  H   UNL A   1      44.459  28.915  28.275  1.00  0.00     0.167 HD
ATOM     68  C   UNL A   1      46.980  30.218  27.915  1.00  0.00     0.074 A 
ATOM     69  C   UNL A   1      48.383  30.444  27.622  1.00  0.00     0.031 C 
ATOM     70  C   UNL A   1      46.111  31.189  28.300  1.00  0.00     0.034 A 
BRANCH  57  71
ATOM     71  C   UNL A   1      40.306  29.178  29.321  1.00  0.00     0.023 A 
ATOM     72  C   UNL A   1      39.852  29.229  30.651  1.00  0.00     0.031 A 
ATOM     73  C   UNL A   1      39.354  29.338  28.298  1.00  0.00     0.131 A 
ATOM     74  C   UNL A   1      38.478  29.325  30.919  1.00  0.00     0.055 A 
ATOM     75  C   UNL A   1      37.998  29.529  28.574  1.00  0.00     0.041 A 
ATOM     76  F   UNL A   1      39.719  29.278  27.007  1.00  0.00    -0.206 F 
ATOM     77  C   UNL A   1      37.549  29.498  29.891  1.00  0.00     0.022 A 
BRANCH  74  78
ATOM     78  S   UNL A   1      37.903  29.016  32.614  1.00  0.00     0.124 S 
ATOM     79  O   UNL A   1      36.547  29.560  32.571  1.00  0.00    -0.237 OA
ATOM     80  O   UNL A   1      38.008  27.566  32.721  1.00  0.00    -0.237 OA
ATOM     81  O   UNL A   1      38.843  29.774  33.438  1.00  0.00    -0.744 OA
ENDBRANCH  74  78
ENDBRANCH  57  71
BRANCH  58  82
ATOM     82  C   UNL A   1      49.582  26.547  26.469  1.00  0.00     0.023 A 
ATOM     83  C   UNL A   1      50.025  26.985  25.212  1.00  0.00     0.031 A 
ATOM     84  C   UNL A   1      50.451  25.748  27.235  1.00  0.00     0.131 A 
ATOM     85  C   UNL A   1      51.297  26.607  24.751  1.00  0.00     0.055 A 
ATOM     86  C   UNL A   1      51.730  25.411  26.792  1.00  0.00     0.041 A 
ATOM     87  F   UNL A   1      50.075  25.307  28.447  1.00  0.00    -0.206 F 
ATOM     88  C   UNL A   1      52.157  25.837  25.539  1.00  0.00     0.022 A 
BRANCH  85  89
ATOM     89  S   UNL A   1      51.808  27.112  23.085  1.00  0.00     0.124 S 
ATOM     90  O   UNL A   1      52.841  26.130  22.779  1.00  0.00    -0.237 OA
ATOM     91  O   UNL A   1      50.562  26.988  22.334  1.00  0.00    -0.237 OA
ATOM     92  O   UNL A   1      52.283  28.481  23.273  1.00  0.00    -0.744 OA
ENDBRANCH  85  89
ENDBRANCH  58  82
BRANCH  70  93
ATOM     93  C   UNL A   1      46.676  32.581  28.454  1.00  0.00     0.023 A 
ATOM     94  C   UNL A   1      46.797  33.455  27.359  1.00  0.00     0.031 A 
ATOM     95  C   UNL A   1      47.113  33.030  29.713  1.00  0.00     0.131 A 
ATOM     96  C   UNL A   1      47.388  34.715  27.535  1.00  0.00     0.055 A 
ATOM     97  C   UNL A   1      47.646  34.307  29.892  1.00  0.00     0.041 A 
ATOM     98  F   UNL A   1      47.024  32.234  30.791  1.00  0.00    -0.206 F 
ATOM     99  C   UNL A   1      47.798  35.152  28.798  1.00  0.00     0.022 A 
BRANCH  96 100
ATOM    100  S   UNL A   1      47.701  35.742  26.074  1.00  0.00     0.124 S 
ATOM    101  O   UNL A   1      48.950  36.408  26.433  1.00  0.00    -0.237 OA
ATOM    102  O   UNL A   1      47.790  34.751  25.007  1.00  0.00    -0.237 OA
ATOM    103  O   UNL A   1      46.530  36.615  26.012  1.00  0.00    -0.744 OA
ENDBRANCH  96 100
ENDBRANCH  70  93
ENDBRANCH  44  45
ENDBRANCH  37  39
ENDBRANCH  36  37
ENDBRANCH  35  36
ENDBRANCH  34  35
ENDBRANCH   1  34
TORSDOF 22
ENDMDL
MODEL 2
REMARK VINA RESULT:     -12.2      5.485     11.628
REMARK SMILES C=C[C@@H]1[C@@H](O)C[C@H]2[C@]3(CC[C@]4(C)[C@@H]([C@H](C)CCC=C(C)C)CC[C@]24C)C[C@]13CCC(=O)OCCOC(=O)c1ccc(-c2c3nc(c(-c4cc(S(=O)(=O)[O-])ccc4F)c4ccc([nH]4)c(-c4cc(S(=O)(=O)[O-])ccc4F)c4nc(c(-c5cc(S(=O)(=O)[O-])ccc5F)c5ccc2[nH]5)C=C4)C=C3)cc1
REMARK SMILES IDX 32 1 30 2 31 3 29 4 28 5 27 6 3 7 4 8 6 9 8 10 26 11 7 12
REMARK SMILES IDX 9 13 24 14 10 15 11 16 23 17 25 18 13 19 12 20 22 21 2 22
REMARK SMILES IDX 1 23 5 24 14 26 15 27 16 28 17 29 18 30 19 31 20 32 21 33
REMARK SMILES IDX 33 34 34 35 35 36 36 37 37 38 38 39 39 40 100 41 40 42 99 43
REMARK SMILES IDX 41 44 42 45 43 46 93 47 44 48 98 49 92 50 94 51 45 52 97 53
REMARK SMILES IDX 91 54 90 55 46 57 78 58 58 59 77 60 59 61 62 62 76 63 95 64
REMARK SMILES IDX 60 65 61 66 75 68 96 69 63 70 47 71 48 72 56 73 49 74 55 75
REMARK SMILES IDX 57 76 54 77 50 78 51 79 52 80 53 81 79 82 80 83 88 84 81 85
REMARK SMILES IDX 87 86 89 87 86 88 82 89 83 90 84 91 85 92 64 93 65 94 73 95
REMARK SMILES IDX 66 96 72 97 74 98 71 99 67 100 68 101 69 102 70 103
REMARK H PARENT 5 25 94 56 62 67
REMARK Flexibility Score: inf
ROOT
ATOM      1  O   UNL A   1      34.306  31.091  27.546  1.00  0.00    -0.462 OA
ENDROOT
BRANCH   1   2
ATOM      2  C   UNL A   1      34.360  29.856  26.999  1.00  0.00     0.305 C 
ATOM      3  O   UNL A   1      35.134  28.968  27.340  1.00  0.00    -0.252 OA
BRANCH   2   4
ATOM      4  C   UNL A   1      33.351  29.656  25.896  1.00  0.00     0.123 C 
BRANCH   4   5
ATOM      5  C   UNL A   1      33.678  28.582  24.858  1.00  0.00     0.020 C 
BRANCH   5   6
ATOM      6  C   UNL A   1      32.528  27.709  24.316  1.00  0.00    -0.014 C 
ATOM      7  C   UNL A   1      32.029  28.107  22.908  1.00  0.00     0.047 C 
ATOM      8  C   UNL A   1      31.769  26.949  21.921  1.00  0.00     0.122 C 
ATOM      9  C   UNL A   1      31.373  25.646  22.590  1.00  0.00     0.037 C 
ATOM     10  C   UNL A   1      32.619  26.207  24.740  1.00  0.00    -0.019 C 
ATOM     11  C   UNL A   1      31.520  27.080  25.276  1.00  0.00     0.016 C 
ATOM     12  C   UNL A   1      32.425  25.177  23.619  1.00  0.00     0.005 C 
ATOM     13  C   UNL A   1      33.614  25.764  25.801  1.00  0.00     0.008 C 
ATOM     14  C   UNL A   1      32.154  23.705  24.156  1.00  0.00    -0.023 C 
ATOM     15  C   UNL A   1      33.245  24.405  26.384  1.00  0.00     0.008 C 
ATOM     16  C   UNL A   1      33.138  23.289  25.336  1.00  0.00    -0.024 C 
ATOM     17  C   UNL A   1      32.544  22.665  23.064  1.00  0.00     0.008 C 
ATOM     18  C   UNL A   1      30.653  23.554  24.493  1.00  0.00     0.012 C 
ATOM     19  C   UNL A   1      34.473  23.061  24.542  1.00  0.00    -0.002 C 
ATOM     20  C   UNL A   1      32.647  22.007  26.058  1.00  0.00     0.012 C 
ATOM     21  C   UNL A   1      34.009  22.271  23.307  1.00  0.00     0.005 C 
BRANCH   7  22
ATOM     22  C   UNL A   1      30.908  29.140  22.830  1.00  0.00    -0.028 C 
ATOM     23  C   UNL A   1      29.643  28.993  22.415  1.00  0.00     0.004 C 
ENDBRANCH   7  22
BRANCH   8  24
ATOM     24  O   UNL A   1      32.920  26.703  21.097  1.00  0.00    -0.392 OA
ATOM     25  H   UNL A   1      33.137  27.507  20.599  1.00  0.00     0.210 HD
ENDBRANCH   8  24
BRANCH  19  26
ATOM     26  C   UNL A   1      35.801  22.506  25.150  1.00  0.00    -0.010 C 
ATOM     27  C   UNL A   1      37.032  23.399  25.003  1.00  0.00     0.008 C 
BRANCH  26  28
ATOM     28  C   UNL A   1      36.166  21.085  24.626  1.00  0.00     0.008 C 
BRANCH  28  29
ATOM     29  C   UNL A   1      35.543  19.909  25.403  1.00  0.00     0.027 C 
BRANCH  29  30
ATOM     30  C   UNL A   1      35.322  18.654  24.610  1.00  0.00    -0.028 C 
ATOM     31  C   UNL A   1      34.146  18.168  24.166  1.00  0.00    -0.080 C 
ATOM     32  C   UNL A   1      34.087  16.874  23.405  1.00  0.00     0.039 C 
ATOM     33  C   UNL A   1      32.824  18.843  24.408  1.00  0.00     0.039 C 
ENDBRANCH  29  30
ENDBRANCH  28  29
ENDBRANCH  26  28
ENDBRANCH  19  26
ENDBRANCH   5   6
ENDBRANCH   4   5
ENDBRANCH   2   4
ENDBRANCH   1   2
BRANCH   1  34
ATOM     34  C   UNL A   1      33.020  31.729  27.602  1.00  0.00     0.274 C 
BRANCH  34  35
ATOM     35  C   UNL A   1      33.205  33.242  27.518  1.00  0.00     0.275 C 
BRANCH  35  36
ATOM     36  O   UNL A   1      32.498  33.880  28.596  1.00  0.00    -0.458 OA
BRANCH  36  37
ATOM     37  C   UNL A   1      33.195  34.843  29.248  1.00  0.00     0.338 C 
ATOM     38  O   UNL A   1      32.835  35.978  29.502  1.00  0.00    -0.246 OA
BRANCH  37  39
ATOM     39  C   UNL A   1      34.423  34.237  29.778  1.00  0.00     0.060 A 
ATOM     40  C   UNL A   1      34.303  33.346  30.847  1.00  0.00     0.016 A 
ATOM     41  C   UNL A   1      35.675  34.560  29.256  1.00  0.00     0.016 A 
ATOM     42  C   UNL A   1      35.435  32.758  31.401  1.00  0.00     0.010 A 
ATOM     43  C   UNL A   1      36.812  33.974  29.815  1.00  0.00     0.010 A 
ATOM     44  C   UNL A   1      36.699  33.076  30.894  1.00  0.00    -0.014 A 
BRANCH  44  45
ATOM     45  C   UNL A   1      37.916  32.544  31.553  1.00  0.00     0.031 A 
ATOM     46  C   UNL A   1      38.658  31.416  30.902  1.00  0.00     0.074 A 
ATOM     47  C   UNL A   1      38.339  33.064  32.717  1.00  0.00     0.049 A 
ATOM     48  N   UNL A   1      39.632  30.680  31.367  1.00  0.00    -0.248 NA
ATOM     49  C   UNL A   1      38.225  31.059  29.543  1.00  0.00     0.031 C 
ATOM     50  C   UNL A   1      37.723  34.197  33.407  1.00  0.00     0.029 A 
ATOM     51  N   UNL A   1      39.375  32.695  33.535  1.00  0.00    -0.354 N 
ATOM     52  C   UNL A   1      39.905  29.744  30.376  1.00  0.00     0.074 A 
ATOM     53  C   UNL A   1      38.973  29.996  29.295  1.00  0.00     0.031 C 
ATOM     54  C   UNL A   1      38.383  34.420  34.555  1.00  0.00     0.029 A 
ATOM     55  C   UNL A   1      39.426  33.409  34.709  1.00  0.00     0.049 A 
ATOM     56  H   UNL A   1      40.022  31.988  33.305  1.00  0.00     0.167 HD
ATOM     57  C   UNL A   1      40.844  28.764  30.376  1.00  0.00     0.034 A 
ATOM     58  C   UNL A   1      40.188  33.232  35.806  1.00  0.00     0.034 A 
ATOM     59  C   UNL A   1      41.759  28.545  31.471  1.00  0.00     0.049 A 
ATOM     60  C   UNL A   1      41.189  32.107  35.815  1.00  0.00     0.074 A 
ATOM     61  C   UNL A   1      42.764  27.601  31.586  1.00  0.00     0.029 A 
ATOM     62  N   UNL A   1      41.772  29.281  32.654  1.00  0.00    -0.354 N 
ATOM     63  N   UNL A   1      41.428  31.207  34.886  1.00  0.00    -0.248 NA
ATOM     64  C   UNL A   1      42.022  31.973  37.014  1.00  0.00     0.031 C 
ATOM     65  C   UNL A   1      43.337  27.721  32.859  1.00  0.00     0.029 A 
ATOM     66  C   UNL A   1      42.744  28.790  33.514  1.00  0.00     0.049 A 
ATOM     67  H   UNL A   1      41.178  30.040  32.851  1.00  0.00     0.167 HD
ATOM     68  C   UNL A   1      42.448  30.405  35.387  1.00  0.00     0.074 A 
ATOM     69  C   UNL A   1      42.790  30.942  36.690  1.00  0.00     0.031 C 
ATOM     70  C   UNL A   1      43.050  29.325  34.822  1.00  0.00     0.034 A 
BRANCH  57  71
ATOM     71  C   UNL A   1      40.854  27.825  29.190  1.00  0.00     0.023 A 
ATOM     72  C   UNL A   1      41.780  27.959  28.140  1.00  0.00     0.031 A 
ATOM     73  C   UNL A   1      39.861  26.836  29.065  1.00  0.00     0.131 A 
ATOM     74  C   UNL A   1      41.627  27.198  26.970  1.00  0.00     0.055 A 
ATOM     75  C   UNL A   1      39.772  26.018  27.937  1.00  0.00     0.041 A 
ATOM     76  F   UNL A   1      38.934  26.672  30.022  1.00  0.00    -0.206 F 
ATOM     77  C   UNL A   1      40.643  26.213  26.870  1.00  0.00     0.022 A 
BRANCH  74  78
ATOM     78  S   UNL A   1      42.600  27.657  25.507  1.00  0.00     0.124 S 
ATOM     79  O   UNL A   1      43.940  27.798  26.076  1.00  0.00    -0.237 OA
ATOM     80  O   UNL A   1      42.397  26.514  24.624  1.00  0.00    -0.237 OA
ATOM     81  O   UNL A   1      41.986  28.906  25.064  1.00  0.00    -0.744 OA
ENDBRANCH  74  78
ENDBRANCH  57  71
BRANCH  58  82
ATOM     82  C   UNL A   1      39.976  34.095  37.001  1.00  0.00     0.023 A 
ATOM     83  C   UNL A   1      39.284  33.629  38.129  1.00  0.00     0.031 A 
ATOM     84  C   UNL A   1      40.487  35.407  37.032  1.00  0.00     0.131 A 
ATOM     85  C   UNL A   1      39.108  34.475  39.236  1.00  0.00     0.055 A 
ATOM     86  C   UNL A   1      40.346  36.228  38.151  1.00  0.00     0.041 A 
ATOM     87  F   UNL A   1      41.160  35.898  35.980  1.00  0.00    -0.206 F 
ATOM     88  C   UNL A   1      39.647  35.764  39.261  1.00  0.00     0.022 A 
BRANCH  85  89
ATOM     89  S   UNL A   1      38.131  33.878  40.644  1.00  0.00     0.124 S 
ATOM     90  O   UNL A   1      37.083  33.114  39.978  1.00  0.00    -0.237 OA
ATOM     91  O   UNL A   1      39.116  33.101  41.390  1.00  0.00    -0.237 OA
ATOM     92  O   UNL A   1      37.688  35.107  41.299  1.00  0.00    -0.744 OA
ENDBRANCH  85  89
ENDBRANCH  58  82
BRANCH  70  93
ATOM     93  C   UNL A   1      44.164  28.680  35.610  1.00  0.00     0.023 A 
ATOM     94  C   UNL A   1      43.927  27.592  36.469  1.00  0.00     0.031 A 
ATOM     95  C   UNL A   1      45.477  29.173  35.511  1.00  0.00     0.131 A 
ATOM     96  C   UNL A   1      44.979  27.066  37.234  1.00  0.00     0.055 A 
ATOM     97  C   UNL A   1      46.530  28.607  36.230  1.00  0.00     0.041 A 
ATOM     98  F   UNL A   1      45.757  30.213  34.709  1.00  0.00    -0.206 F 
ATOM     99  C   UNL A   1      46.282  27.555  37.107  1.00  0.00     0.022 A 
BRANCH  96 100
ATOM    100  S   UNL A   1      44.606  25.790  38.468  1.00  0.00     0.124 S 
ATOM    101  O   UNL A   1      43.409  26.329  39.108  1.00  0.00    -0.237 OA
ATOM    102  O   UNL A   1      44.409  24.604  37.643  1.00  0.00    -0.237 OA
ATOM    103  O   UNL A   1      45.801  25.768  39.310  1.00  0.00    -0.744 OA
ENDBRANCH  96 100
ENDBRANCH  70  93
ENDBRANCH  44  45
ENDBRANCH  37  39
ENDBRANCH  36  37
ENDBRANCH  35  36
ENDBRANCH  34  35
ENDBRANCH   1  34
TORSDOF 22
ENDMDL
MODEL 3
REMARK VINA RESULT:     -12.1      1.344      2.058
REMARK SMILES C=C[C@@H]1[C@@H](O)C[C@H]2[C@]3(CC[C@]4(C)[C@@H]([C@H](C)CCC=C(C)C)CC[C@]24C)C[C@]13CCC(=O)OCCOC(=O)c1ccc(-c2c3nc(c(-c4cc(S(=O)(=O)[O-])ccc4F)c4ccc([nH]4)c(-c4cc(S(=O)(=O)[O-])ccc4F)c4nc(c(-c5cc(S(=O)(=O)[O-])ccc5F)c5ccc2[nH]5)C=C4)C=C3)cc1
REMARK SMILES IDX 32 1 30 2 31 3 29 4 28 5 27 6 3 7 4 8 6 9 8 10 26 11 7 12
REMARK SMILES IDX 9 13 24 14 10 15 11 16 23 17 25 18 13 19 12 20 22 21 2 22
REMARK SMILES IDX 1 23 5 24 14 26 15 27 16 28 17 29 18 30 19 31 20 32 21 33
REMARK SMILES IDX 33 34 34 35 35 36 36 37 37 38 38 39 39 40 100 41 40 42 99 43
REMARK SMILES IDX 41 44 42 45 43 46 93 47 44 48 98 49 92 50 94 51 45 52 97 53
REMARK SMILES IDX 91 54 90 55 46 57 78 58 58 59 77 60 59 61 62 62 76 63 95 64
REMARK SMILES IDX 60 65 61 66 75 68 96 69 63 70 47 71 48 72 56 73 49 74 55 75
REMARK SMILES IDX 57 76 54 77 50 78 51 79 52 80 53 81 79 82 80 83 88 84 81 85
REMARK SMILES IDX 87 86 89 87 86 88 82 89 83 90 84 91 85 92 64 93 65 94 73 95
REMARK SMILES IDX 66 96 72 97 74 98 71 99 67 100 68 101 69 102 70 103
REMARK H PARENT 5 25 94 56 62 67
REMARK Flexibility Score: inf
ROOT
ATOM      1  O   UNL A   1      38.272  21.723  25.103  1.00  0.00    -0.462 OA
ENDROOT
BRANCH   1   2
ATOM      2  C   UNL A   1      37.504  22.680  25.672  1.00  0.00     0.305 C 
ATOM      3  O   UNL A   1      37.927  23.713  26.179  1.00  0.00    -0.252 OA
BRANCH   2   4
ATOM      4  C   UNL A   1      36.032  22.357  25.624  1.00  0.00     0.123 C 
BRANCH   4   5
ATOM      5  C   UNL A   1      35.210  23.075  24.553  1.00  0.00     0.020 C 
BRANCH   5   6
ATOM      6  C   UNL A   1      33.680  23.152  24.729  1.00  0.00    -0.014 C 
ATOM      7  C   UNL A   1      33.093  22.107  25.705  1.00  0.00     0.047 C 
ATOM      8  C   UNL A   1      32.027  22.619  26.697  1.00  0.00     0.122 C 
ATOM      9  C   UNL A   1      31.224  23.799  26.184  1.00  0.00     0.037 C 
ATOM     10  C   UNL A   1      33.109  24.606  24.671  1.00  0.00    -0.019 C 
ATOM     11  C   UNL A   1      32.796  23.626  23.578  1.00  0.00     0.016 C 
ATOM     12  C   UNL A   1      32.126  24.989  25.786  1.00  0.00     0.005 C 
ATOM     13  C   UNL A   1      33.986  25.762  24.218  1.00  0.00     0.008 C 
ATOM     14  C   UNL A   1      31.303  26.314  25.474  1.00  0.00    -0.023 C 
ATOM     15  C   UNL A   1      33.153  26.969  23.802  1.00  0.00     0.008 C 
ATOM     16  C   UNL A   1      32.218  27.485  24.905  1.00  0.00    -0.024 C 
ATOM     17  C   UNL A   1      30.802  26.949  26.805  1.00  0.00     0.008 C 
ATOM     18  C   UNL A   1      30.089  25.962  24.585  1.00  0.00     0.012 C 
ATOM     19  C   UNL A   1      32.981  27.924  26.204  1.00  0.00    -0.002 C 
ATOM     20  C   UNL A   1      31.362  28.630  24.300  1.00  0.00     0.012 C 
ATOM     21  C   UNL A   1      31.868  27.955  27.264  1.00  0.00     0.005 C 
BRANCH   7  22
ATOM     22  C   UNL A   1      32.677  20.760  25.119  1.00  0.00    -0.028 C 
ATOM     23  C   UNL A   1      33.425  19.828  24.514  1.00  0.00     0.004 C 
ENDBRANCH   7  22
BRANCH   8  24
ATOM     24  O   UNL A   1      32.623  22.988  27.951  1.00  0.00    -0.392 OA
ATOM     25  H   UNL A   1      32.894  23.919  27.917  1.00  0.00     0.210 HD
ENDBRANCH   8  24
BRANCH  19  26
ATOM     26  C   UNL A   1      33.952  29.144  26.312  1.00  0.00    -0.010 C 
ATOM     27  C   UNL A   1      35.225  28.920  27.127  1.00  0.00     0.008 C 
BRANCH  26  28
ATOM     28  C   UNL A   1      33.256  30.433  26.841  1.00  0.00     0.008 C 
BRANCH  28  29
ATOM     29  C   UNL A   1      33.958  31.130  28.024  1.00  0.00     0.027 C 
BRANCH  29  30
ATOM     30  C   UNL A   1      33.828  32.625  28.063  1.00  0.00    -0.028 C 
ATOM     31  C   UNL A   1      34.827  33.528  28.094  1.00  0.00    -0.080 C 
ATOM     32  C   UNL A   1      34.531  35.000  28.162  1.00  0.00     0.039 C 
ATOM     33  C   UNL A   1      36.284  33.156  28.090  1.00  0.00     0.039 C 
ENDBRANCH  29  30
ENDBRANCH  28  29
ENDBRANCH  26  28
ENDBRANCH  19  26
ENDBRANCH   5   6
ENDBRANCH   4   5
ENDBRANCH   2   4
ENDBRANCH   1   2
BRANCH   1  34
ATOM     34  C   UNL A   1      37.924  20.355  25.371  1.00  0.00     0.274 C 
BRANCH  34  35
ATOM     35  C   UNL A   1      39.189  19.501  25.352  1.00  0.00     0.275 C 
BRANCH  35  36
ATOM     36  O   UNL A   1      40.051  19.883  26.439  1.00  0.00    -0.458 OA
BRANCH  36  37
ATOM     37  C   UNL A   1      41.369  19.952  26.129  1.00  0.00     0.338 C 
ATOM     38  O   UNL A   1      42.027  19.147  25.498  1.00  0.00    -0.246 OA
BRANCH  37  39
ATOM     39  C   UNL A   1      41.863  21.275  26.533  1.00  0.00     0.060 A 
ATOM     40  C   UNL A   1      42.070  22.227  25.532  1.00  0.00     0.016 A 
ATOM     41  C   UNL A   1      42.148  21.568  27.865  1.00  0.00     0.016 A 
ATOM     42  C   UNL A   1      42.557  23.489  25.854  1.00  0.00     0.010 A 
ATOM     43  C   UNL A   1      42.640  22.834  28.189  1.00  0.00     0.010 A 
ATOM     44  C   UNL A   1      42.854  23.799  27.185  1.00  0.00    -0.014 A 
BRANCH  44  45
ATOM     45  C   UNL A   1      43.480  25.099  27.520  1.00  0.00     0.031 A 
ATOM     46  C   UNL A   1      42.625  26.187  28.099  1.00  0.00     0.074 A 
ATOM     47  C   UNL A   1      44.791  25.297  27.303  1.00  0.00     0.049 A 
ATOM     48  N   UNL A   1      42.906  27.446  28.307  1.00  0.00    -0.248 NA
ATOM     49  C   UNL A   1      41.259  25.800  28.477  1.00  0.00     0.031 C 
ATOM     50  C   UNL A   1      45.723  24.290  26.796  1.00  0.00     0.029 A 
ATOM     51  N   UNL A   1      45.563  26.419  27.462  1.00  0.00    -0.354 N 
ATOM     52  C   UNL A   1      41.738  28.015  28.803  1.00  0.00     0.074 A 
ATOM     53  C   UNL A   1      40.743  26.963  28.840  1.00  0.00     0.031 C 
ATOM     54  C   UNL A   1      46.938  24.845  26.668  1.00  0.00     0.029 A 
ATOM     55  C   UNL A   1      46.856  26.259  27.025  1.00  0.00     0.049 A 
ATOM     56  H   UNL A   1      45.224  27.258  27.853  1.00  0.00     0.167 HD
ATOM     57  C   UNL A   1      41.522  29.299  29.185  1.00  0.00     0.034 A 
ATOM     58  C   UNL A   1      47.845  27.162  26.877  1.00  0.00     0.034 A 
ATOM     59  C   UNL A   1      42.541  30.322  29.137  1.00  0.00     0.049 A 
ATOM     60  C   UNL A   1      47.576  28.595  27.254  1.00  0.00     0.074 A 
ATOM     61  C   UNL A   1      42.454  31.652  29.510  1.00  0.00     0.029 A 
ATOM     62  N   UNL A   1      43.840  30.126  28.674  1.00  0.00    -0.354 N 
ATOM     63  N   UNL A   1      46.464  29.137  27.699  1.00  0.00    -0.248 NA
ATOM     64  C   UNL A   1      48.691  29.537  27.111  1.00  0.00     0.031 C 
ATOM     65  C   UNL A   1      43.673  32.272  29.211  1.00  0.00     0.029 A 
ATOM     66  C   UNL A   1      44.551  31.317  28.722  1.00  0.00     0.049 A 
ATOM     67  H   UNL A   1      44.201  29.267  28.359  1.00  0.00     0.167 HD
ATOM     68  C   UNL A   1      46.749  30.484  27.898  1.00  0.00     0.074 A 
ATOM     69  C   UNL A   1      48.144  30.664  27.544  1.00  0.00     0.031 C 
ATOM     70  C   UNL A   1      45.935  31.480  28.338  1.00  0.00     0.034 A 
BRANCH  57  71
ATOM     71  C   UNL A   1      40.114  29.663  29.602  1.00  0.00     0.023 A 
ATOM     72  C   UNL A   1      39.742  29.778  30.953  1.00  0.00     0.031 A 
ATOM     73  C   UNL A   1      39.105  29.804  28.632  1.00  0.00     0.131 A 
ATOM     74  C   UNL A   1      38.389  29.916  31.298  1.00  0.00     0.055 A 
ATOM     75  C   UNL A   1      37.773  30.036  28.980  1.00  0.00     0.041 A 
ATOM     76  F   UNL A   1      39.390  29.684  27.325  1.00  0.00    -0.206 F 
ATOM     77  C   UNL A   1      37.403  30.068  30.321  1.00  0.00     0.022 A 
BRANCH  74  78
ATOM     78  S   UNL A   1      37.911  29.688  33.036  1.00  0.00     0.124 S 
ATOM     79  O   UNL A   1      39.181  29.917  33.724  1.00  0.00    -0.237 OA
ATOM     80  O   UNL A   1      36.891  30.713  33.218  1.00  0.00    -0.237 OA
ATOM     81  O   UNL A   1      37.429  28.310  33.081  1.00  0.00    -0.744 OA
ENDBRANCH  74  78
ENDBRANCH  57  71
BRANCH  58  82
ATOM     82  C   UNL A   1      49.145  26.745  26.281  1.00  0.00     0.023 A 
ATOM     83  C   UNL A   1      49.550  27.194  25.016  1.00  0.00     0.031 A 
ATOM     84  C   UNL A   1      50.013  25.894  26.991  1.00  0.00     0.131 A 
ATOM     85  C   UNL A   1      50.784  26.777  24.490  1.00  0.00     0.055 A 
ATOM     86  C   UNL A   1      51.258  25.518  26.484  1.00  0.00     0.041 A 
ATOM     87  F   UNL A   1      49.674  25.441  28.208  1.00  0.00    -0.206 F 
ATOM     88  C   UNL A   1      51.646  25.956  25.222  1.00  0.00     0.022 A 
BRANCH  85  89
ATOM     89  S   UNL A   1      51.241  27.300  22.814  1.00  0.00     0.124 S 
ATOM     90  O   UNL A   1      52.532  26.646  22.639  1.00  0.00    -0.237 OA
ATOM     91  O   UNL A   1      50.138  26.768  22.018  1.00  0.00    -0.237 OA
ATOM     92  O   UNL A   1      51.287  28.757  22.911  1.00  0.00    -0.744 OA
ENDBRANCH  85  89
ENDBRANCH  58  82
BRANCH  70  93
ATOM     93  C   UNL A   1      46.557  32.847  28.484  1.00  0.00     0.023 A 
ATOM     94  C   UNL A   1      46.729  33.703  27.381  1.00  0.00     0.031 A 
ATOM     95  C   UNL A   1      46.996  33.292  29.743  1.00  0.00     0.131 A 
ATOM     96  C   UNL A   1      47.372  34.939  27.551  1.00  0.00     0.055 A 
ATOM     97  C   UNL A   1      47.582  34.547  29.916  1.00  0.00     0.041 A 
ATOM     98  F   UNL A   1      46.860  32.513  30.829  1.00  0.00    -0.206 F 
ATOM     99  C   UNL A   1      47.784  35.373  28.815  1.00  0.00     0.022 A 
BRANCH  96 100
ATOM    100  S   UNL A   1      47.748  35.935  26.083  1.00  0.00     0.124 S 
ATOM    101  O   UNL A   1      46.572  36.796  25.994  1.00  0.00    -0.237 OA
ATOM    102  O   UNL A   1      48.993  36.593  26.461  1.00  0.00    -0.237 OA
ATOM    103  O   UNL A   1      47.870  34.942  25.018  1.00  0.00    -0.744 OA
ENDBRANCH  96 100
ENDBRANCH  70  93
ENDBRANCH  44  45
ENDBRANCH  37  39
ENDBRANCH  36  37
ENDBRANCH  35  36
ENDBRANCH  34  35
ENDBRANCH   1  34
TORSDOF 22
ENDMDL
