MODEL 1
REMARK VINA RESULT:     -11.3      0.000      0.000
REMARK SMILES Nc1c(-c2ccccc2)c[nH]c1C(=O)OCCOC(=O)c1ccc(-c2c3nc(c(-c4cc(S(=O)(=O)[O-])ccc4F)c4ccc([nH]4)c(-c4cc(S(=O)(=O)[O-])ccc4F)c4nc(c(-c5cc(S(=O)(=O)[O-])ccc5F)c5ccc2[nH]5)C=C4)C=C3)cc1
REMARK SMILES IDX 17 1 16 2 15 3 13 4 14 5 12 6 2 7 3 8 10 9 11 10 1 12 4 15
REMARK SMILES IDX 5 16 9 17 6 18 8 19 7 20 18 21 19 22 20 23 21 24 22 25 83 26
REMARK SMILES IDX 23 27 82 28 24 29 25 30 26 31 76 32 27 33 81 34 75 35 77 36
REMARK SMILES IDX 28 37 80 38 74 39 73 40 29 42 61 43 41 44 60 45 42 46 45 47
REMARK SMILES IDX 59 48 78 49 43 50 44 51 58 53 79 54 46 55 30 56 31 57 39 58
REMARK SMILES IDX 32 59 38 60 40 61 37 62 33 63 34 64 35 65 36 66 62 67 63 68
REMARK SMILES IDX 71 69 64 70 70 71 72 72 69 73 65 74 66 75 67 76 68 77 47 78
REMARK SMILES IDX 48 79 56 80 49 81 55 82 57 83 54 84 50 85 51 86 52 87 53 88
REMARK H PARENT 11 11 1 13 1 14 77 41 45 52
REMARK Flexibility Score: inf
ROOT
ATOM      1  C   UNL A   1      34.819  33.784  27.993  1.00  0.00     0.275 C 
ENDROOT
BRANCH   1   2
ATOM      2  C   UNL A   1      33.648  34.333  28.792  1.00  0.00     0.275 C 
BRANCH   2   3
ATOM      3  O   UNL A   1      34.033  35.510  29.516  1.00  0.00    -0.457 OA
BRANCH   3   4
ATOM      4  C   UNL A   1      33.412  35.714  30.722  1.00  0.00     0.357 C 
ATOM      5  O   UNL A   1      32.501  36.489  30.920  1.00  0.00    -0.244 OA
BRANCH   4   6
ATOM      6  C   UNL A   1      33.958  34.810  31.710  1.00  0.00     0.148 A 
ATOM      7  C   UNL A   1      35.227  34.319  31.910  1.00  0.00     0.072 A 
ATOM      8  C   UNL A   1      35.222  33.476  33.051  1.00  0.00     0.023 A 
ATOM      9  C   UNL A   1      33.911  33.380  33.466  1.00  0.00     0.094 A 
ATOM     10  N   UNL A   1      33.156  34.187  32.648  1.00  0.00    -0.353 N 
ATOM     11  H   UNL A   1      32.181  34.305  32.721  1.00  0.00     0.166 HD
BRANCH   7  12
ATOM     12  N   UNL A   1      36.297  34.583  31.139  1.00  0.00    -0.396 N 
ATOM     13  H   UNL A   1      36.601  33.921  30.476  1.00  0.00     0.156 HD
ATOM     14  H   UNL A   1      36.777  35.437  31.237  1.00  0.00     0.156 HD
ENDBRANCH   7  12
BRANCH   8  15
ATOM     15  C   UNL A   1      36.349  32.839  33.703  1.00  0.00    -0.015 A 
ATOM     16  C   UNL A   1      36.885  31.679  33.125  1.00  0.00     0.009 A 
ATOM     17  C   UNL A   1      36.861  33.304  34.917  1.00  0.00     0.009 A 
ATOM     18  C   UNL A   1      37.902  30.974  33.762  1.00  0.00     0.001 A 
ATOM     19  C   UNL A   1      37.884  32.597  35.554  1.00  0.00     0.001 A 
ATOM     20  C   UNL A   1      38.398  31.431  34.981  1.00  0.00     0.000 A 
ENDBRANCH   8  15
ENDBRANCH   4   6
ENDBRANCH   3   4
ENDBRANCH   2   3
ENDBRANCH   1   2
BRANCH   1  21
ATOM     21  O   UNL A   1      35.647  32.965  28.815  1.00  0.00    -0.458 OA
BRANCH  21  22
ATOM     22  C   UNL A   1      35.589  31.639  28.561  1.00  0.00     0.338 C 
ATOM     23  O   UNL A   1      34.678  31.031  28.029  1.00  0.00    -0.246 OA
BRANCH  22  24
ATOM     24  C   UNL A   1      36.707  30.984  29.247  1.00  0.00     0.060 A 
ATOM     25  C   UNL A   1      37.921  31.675  29.294  1.00  0.00     0.016 A 
ATOM     26  C   UNL A   1      36.614  29.621  29.558  1.00  0.00     0.016 A 
ATOM     27  C   UNL A   1      39.078  30.948  29.480  1.00  0.00     0.010 A 
ATOM     28  C   UNL A   1      37.768  28.896  29.716  1.00  0.00     0.010 A 
ATOM     29  C   UNL A   1      38.988  29.557  29.605  1.00  0.00    -0.014 A 
BRANCH  29  30
ATOM     30  C   UNL A   1      40.207  28.799  29.785  1.00  0.00     0.031 A 
ATOM     31  C   UNL A   1      40.569  28.656  31.212  1.00  0.00     0.074 A 
ATOM     32  C   UNL A   1      40.837  28.175  28.770  1.00  0.00     0.049 A 
ATOM     33  N   UNL A   1      41.587  29.167  31.818  1.00  0.00    -0.248 NA
ATOM     34  C   UNL A   1      39.577  28.052  32.119  1.00  0.00     0.031 C 
ATOM     35  C   UNL A   1      40.399  28.042  27.380  1.00  0.00     0.029 A 
ATOM     36  N   UNL A   1      41.967  27.421  28.806  1.00  0.00    -0.354 N 
ATOM     37  C   UNL A   1      41.492  28.731  33.133  1.00  0.00     0.074 A 
ATOM     38  C   UNL A   1      40.145  28.264  33.304  1.00  0.00     0.031 C 
ATOM     39  C   UNL A   1      41.121  27.067  26.779  1.00  0.00     0.029 A 
ATOM     40  C   UNL A   1      42.144  26.595  27.700  1.00  0.00     0.049 A 
ATOM     41  H   UNL A   1      42.609  27.458  29.552  1.00  0.00     0.167 HD
ATOM     42  C   UNL A   1      42.611  28.535  33.880  1.00  0.00     0.034 A 
ATOM     43  C   UNL A   1      43.012  25.550  27.593  1.00  0.00     0.034 A 
ATOM     44  C   UNL A   1      43.740  29.238  33.311  1.00  0.00     0.049 A 
ATOM     45  C   UNL A   1      44.067  25.767  28.621  1.00  0.00     0.074 A 
ATOM     46  C   UNL A   1      43.986  30.563  32.998  1.00  0.00     0.029 A 
ATOM     47  N   UNL A   1      44.668  28.512  32.595  1.00  0.00    -0.354 N 
ATOM     48  N   UNL A   1      44.907  26.766  28.579  1.00  0.00    -0.248 NA
ATOM     49  C   UNL A   1      43.861  25.193  29.943  1.00  0.00     0.031 C 
ATOM     50  C   UNL A   1      44.679  30.523  31.753  1.00  0.00     0.029 A 
ATOM     51  C   UNL A   1      44.903  29.185  31.419  1.00  0.00     0.049 A 
ATOM     52  H   UNL A   1      45.087  27.666  32.875  1.00  0.00     0.167 HD
ATOM     53  C   UNL A   1      44.984  27.227  29.886  1.00  0.00     0.074 A 
ATOM     54  C   UNL A   1      44.393  26.162  30.697  1.00  0.00     0.031 C 
ATOM     55  C   UNL A   1      45.244  28.540  30.164  1.00  0.00     0.034 A 
BRANCH  42  56
ATOM     56  C   UNL A   1      42.772  27.406  34.874  1.00  0.00     0.023 A 
ATOM     57  C   UNL A   1      43.558  26.314  34.467  1.00  0.00     0.031 A 
ATOM     58  C   UNL A   1      41.987  27.199  36.032  1.00  0.00     0.131 A 
ATOM     59  C   UNL A   1      43.451  25.069  35.109  1.00  0.00     0.055 A 
ATOM     60  C   UNL A   1      41.939  25.978  36.711  1.00  0.00     0.041 A 
ATOM     61  F   UNL A   1      41.152  28.119  36.526  1.00  0.00    -0.206 F 
ATOM     62  C   UNL A   1      42.644  24.893  36.228  1.00  0.00     0.022 A 
BRANCH  59  63
ATOM     63  S   UNL A   1      44.235  23.640  34.327  1.00  0.00     0.124 S 
ATOM     64  O   UNL A   1      44.515  22.792  35.481  1.00  0.00    -0.237 OA
ATOM     65  O   UNL A   1      43.184  23.179  33.425  1.00  0.00    -0.237 OA
ATOM     66  O   UNL A   1      45.409  24.215  33.674  1.00  0.00    -0.744 OA
ENDBRANCH  59  63
ENDBRANCH  42  56
BRANCH  43  67
ATOM     67  C   UNL A   1      42.769  24.240  26.916  1.00  0.00     0.023 A 
ATOM     68  C   UNL A   1      43.703  23.629  26.049  1.00  0.00     0.031 A 
ATOM     69  C   UNL A   1      41.669  23.444  27.313  1.00  0.00     0.131 A 
ATOM     70  C   UNL A   1      43.512  22.291  25.617  1.00  0.00     0.055 A 
ATOM     71  C   UNL A   1      41.484  22.129  26.881  1.00  0.00     0.041 A 
ATOM     72  F   UNL A   1      40.775  23.888  28.210  1.00  0.00    -0.206 F 
ATOM     73  C   UNL A   1      42.410  21.542  26.036  1.00  0.00     0.022 A 
BRANCH  70  74
ATOM     74  S   UNL A   1      44.745  21.461  24.558  1.00  0.00     0.124 S 
ATOM     75  O   UNL A   1      44.642  22.211  23.312  1.00  0.00    -0.237 OA
ATOM     76  O   UNL A   1      45.978  21.630  25.319  1.00  0.00    -0.237 OA
ATOM     77  O   UNL A   1      44.260  20.082  24.484  1.00  0.00    -0.744 OA
ENDBRANCH  70  74
ENDBRANCH  43  67
BRANCH  55  78
ATOM     78  C   UNL A   1      45.726  29.440  29.041  1.00  0.00     0.023 A 
ATOM     79  C   UNL A   1      44.939  30.413  28.380  1.00  0.00     0.031 A 
ATOM     80  C   UNL A   1      47.095  29.384  28.720  1.00  0.00     0.131 A 
ATOM     81  C   UNL A   1      45.532  31.274  27.432  1.00  0.00     0.055 A 
ATOM     82  C   UNL A   1      47.681  30.253  27.801  1.00  0.00     0.041 A 
ATOM     83  F   UNL A   1      47.902  28.501  29.331  1.00  0.00    -0.206 F 
ATOM     84  C   UNL A   1      46.899  31.198  27.149  1.00  0.00     0.022 A 
BRANCH  81  85
ATOM     85  S   UNL A   1      44.531  32.502  26.530  1.00  0.00     0.124 S 
ATOM     86  O   UNL A   1      43.909  33.285  27.591  1.00  0.00    -0.237 OA
ATOM     87  O   UNL A   1      45.532  33.196  25.724  1.00  0.00    -0.237 OA
ATOM     88  O   UNL A   1      43.598  31.677  25.757  1.00  0.00    -0.744 OA
ENDBRANCH  81  85
ENDBRANCH  55  78
ENDBRANCH  29  30
ENDBRANCH  22  24
ENDBRANCH  21  22
ENDBRANCH   1  21
TORSDOF 16
ENDMDL
MODEL 2
REMARK VINA RESULT:     -11.2      1.295      1.573
REMARK SMILES Nc1c(-c2ccccc2)c[nH]c1C(=O)OCCOC(=O)c1ccc(-c2c3nc(c(-c4cc(S(=O)(=O)[O-])ccc4F)c4ccc([nH]4)c(-c4cc(S(=O)(=O)[O-])ccc4F)c4nc(c(-c5cc(S(=O)(=O)[O-])ccc5F)c5ccc2[nH]5)C=C4)C=C3)cc1
REMARK SMILES IDX 17 1 16 2 15 3 13 4 14 5 12 6 2 7 3 8 10 9 11 10 1 12 4 15
REMARK SMILES IDX 5 16 9 17 6 18 8 19 7 20 18 21 19 22 20 23 21 24 22 25 83 26
REMARK SMILES IDX 23 27 82 28 24 29 25 30 26 31 76 32 27 33 81 34 75 35 77 36
REMARK SMILES IDX 28 37 80 38 74 39 73 40 29 42 61 43 41 44 60 45 42 46 45 47
REMARK SMILES IDX 59 48 78 49 43 50 44 51 58 53 79 54 46 55 30 56 31 57 39 58
REMARK SMILES IDX 32 59 38 60 40 61 37 62 33 63 34 64 35 65 36 66 62 67 63 68
REMARK SMILES IDX 71 69 64 70 70 71 72 72 69 73 65 74 66 75 67 76 68 77 47 78
REMARK SMILES IDX 48 79 56 80 49 81 55 82 57 83 54 84 50 85 51 86 52 87 53 88
REMARK H PARENT 11 11 1 13 1 14 77 41 45 52
REMARK Flexibility Score: inf
ROOT
ATOM      1  C   UNL A   1      34.426  33.835  28.028  1.00  0.00     0.275 C 
ENDROOT
BRANCH   1   2
ATOM      2  C   UNL A   1      33.352  34.648  28.735  1.00  0.00     0.275 C 
BRANCH   2   3
ATOM      3  O   UNL A   1      33.941  35.569  29.664  1.00  0.00    -0.457 OA
BRANCH   3   4
ATOM      4  C   UNL A   1      33.293  35.721  30.864  1.00  0.00     0.357 C 
ATOM      5  O   UNL A   1      32.337  36.440  31.058  1.00  0.00    -0.244 OA
BRANCH   4   6
ATOM      6  C   UNL A   1      33.876  34.838  31.848  1.00  0.00     0.148 A 
ATOM      7  C   UNL A   1      35.158  34.370  32.023  1.00  0.00     0.072 A 
ATOM      8  C   UNL A   1      35.194  33.539  33.172  1.00  0.00     0.023 A 
ATOM      9  C   UNL A   1      33.894  33.426  33.620  1.00  0.00     0.094 A 
ATOM     10  N   UNL A   1      33.108  34.212  32.812  1.00  0.00    -0.353 N 
ATOM     11  H   UNL A   1      32.133  34.315  32.906  1.00  0.00     0.166 HD
BRANCH   7  12
ATOM     12  N   UNL A   1      36.205  34.642  31.224  1.00  0.00    -0.396 N 
ATOM     13  H   UNL A   1      37.064  34.922  31.616  1.00  0.00     0.156 HD
ATOM     14  H   UNL A   1      36.114  34.563  30.247  1.00  0.00     0.156 HD
ENDBRANCH   7  12
BRANCH   8  15
ATOM     15  C   UNL A   1      36.346  32.928  33.805  1.00  0.00    -0.015 A 
ATOM     16  C   UNL A   1      36.901  31.783  33.215  1.00  0.00     0.009 A 
ATOM     17  C   UNL A   1      36.866  33.402  35.012  1.00  0.00     0.009 A 
ATOM     18  C   UNL A   1      37.945  31.101  33.833  1.00  0.00     0.001 A 
ATOM     19  C   UNL A   1      37.916  32.717  35.630  1.00  0.00     0.001 A 
ATOM     20  C   UNL A   1      38.449  31.566  35.045  1.00  0.00     0.000 A 
ENDBRANCH   8  15
ENDBRANCH   4   6
ENDBRANCH   3   4
ENDBRANCH   2   3
ENDBRANCH   1   2
BRANCH   1  21
ATOM     21  O   UNL A   1      35.026  32.907  28.928  1.00  0.00    -0.458 OA
BRANCH  21  22
ATOM     22  C   UNL A   1      35.076  31.627  28.495  1.00  0.00     0.338 C 
ATOM     23  O   UNL A   1      34.239  31.041  27.831  1.00  0.00    -0.246 OA
BRANCH  22  24
ATOM     24  C   UNL A   1      36.201  30.957  29.153  1.00  0.00     0.060 A 
ATOM     25  C   UNL A   1      37.284  31.753  29.536  1.00  0.00     0.016 A 
ATOM     26  C   UNL A   1      36.285  29.559  29.109  1.00  0.00     0.016 A 
ATOM     27  C   UNL A   1      38.512  31.148  29.702  1.00  0.00     0.010 A 
ATOM     28  C   UNL A   1      37.512  28.962  29.249  1.00  0.00     0.010 A 
ATOM     29  C   UNL A   1      38.621  29.771  29.474  1.00  0.00    -0.014 A 
BRANCH  29  30
ATOM     30  C   UNL A   1      39.916  29.145  29.635  1.00  0.00     0.031 A 
ATOM     31  C   UNL A   1      40.287  28.994  31.059  1.00  0.00     0.074 A 
ATOM     32  C   UNL A   1      40.614  28.631  28.605  1.00  0.00     0.049 A 
ATOM     33  N   UNL A   1      41.241  29.591  31.689  1.00  0.00    -0.248 NA
ATOM     34  C   UNL A   1      39.365  28.253  31.938  1.00  0.00     0.031 C 
ATOM     35  C   UNL A   1      40.196  28.499  27.207  1.00  0.00     0.029 A 
ATOM     36  N   UNL A   1      41.819  28.004  28.621  1.00  0.00    -0.354 N 
ATOM     37  C   UNL A   1      41.192  29.102  32.988  1.00  0.00     0.074 A 
ATOM     38  C   UNL A   1      39.903  28.484  33.134  1.00  0.00     0.031 C 
ATOM     39  C   UNL A   1      41.023  27.630  26.578  1.00  0.00     0.029 A 
ATOM     40  C   UNL A   1      42.089  27.241  27.489  1.00  0.00     0.049 A 
ATOM     41  H   UNL A   1      42.451  28.084  29.373  1.00  0.00     0.167 HD
ATOM     42  C   UNL A   1      42.323  29.003  33.735  1.00  0.00     0.034 A 
ATOM     43  C   UNL A   1      43.066  26.302  27.352  1.00  0.00     0.034 A 
ATOM     44  C   UNL A   1      43.369  29.845  33.198  1.00  0.00     0.049 A 
ATOM     45  C   UNL A   1      44.088  26.597  28.393  1.00  0.00     0.074 A 
ATOM     46  C   UNL A   1      43.469  31.199  32.933  1.00  0.00     0.029 A 
ATOM     47  N   UNL A   1      44.374  29.251  32.464  1.00  0.00    -0.354 N 
ATOM     48  N   UNL A   1      44.814  27.682  28.392  1.00  0.00    -0.248 NA
ATOM     49  C   UNL A   1      43.942  25.958  29.694  1.00  0.00     0.031 C 
ATOM     50  C   UNL A   1      44.166  31.278  31.692  1.00  0.00     0.029 A 
ATOM     51  C   UNL A   1      44.536  29.986  31.314  1.00  0.00     0.049 A 
ATOM     52  H   UNL A   1      44.882  28.446  32.718  1.00  0.00     0.167 HD
ATOM     53  C   UNL A   1      44.836  28.103  29.715  1.00  0.00     0.074 A 
ATOM     54  C   UNL A   1      44.363  26.952  30.484  1.00  0.00     0.031 C 
ATOM     55  C   UNL A   1      44.949  29.427  30.039  1.00  0.00     0.034 A 
BRANCH  42  56
ATOM     56  C   UNL A   1      42.604  27.865  34.691  1.00  0.00     0.023 A 
ATOM     57  C   UNL A   1      43.450  26.843  34.225  1.00  0.00     0.031 A 
ATOM     58  C   UNL A   1      41.882  27.572  35.871  1.00  0.00     0.131 A 
ATOM     59  C   UNL A   1      43.458  25.579  34.835  1.00  0.00     0.055 A 
ATOM     60  C   UNL A   1      41.948  26.334  36.517  1.00  0.00     0.041 A 
ATOM     61  F   UNL A   1      41.002  28.415  36.421  1.00  0.00    -0.206 F 
ATOM     62  C   UNL A   1      42.711  25.316  35.978  1.00  0.00     0.022 A 
BRANCH  59  63
ATOM     63  S   UNL A   1      44.313  24.231  33.985  1.00  0.00     0.124 S 
ATOM     64  O   UNL A   1      43.193  23.401  33.554  1.00  0.00    -0.237 OA
ATOM     65  O   UNL A   1      45.028  24.948  32.934  1.00  0.00    -0.237 OA
ATOM     66  O   UNL A   1      45.154  23.653  35.030  1.00  0.00    -0.744 OA
ENDBRANCH  59  63
ENDBRANCH  42  56
BRANCH  43  67
ATOM     67  C   UNL A   1      42.970  24.998  26.628  1.00  0.00     0.023 A 
ATOM     68  C   UNL A   1      44.003  24.485  25.811  1.00  0.00     0.031 A 
ATOM     69  C   UNL A   1      41.912  24.109  26.931  1.00  0.00     0.131 A 
ATOM     70  C   UNL A   1      43.945  23.150  25.335  1.00  0.00     0.055 A 
ATOM     71  C   UNL A   1      41.858  22.797  26.457  1.00  0.00     0.041 A 
ATOM     72  F   UNL A   1      40.930  24.457  27.777  1.00  0.00    -0.206 F 
ATOM     73  C   UNL A   1      42.880  22.307  25.662  1.00  0.00     0.022 A 
BRANCH  70  74
ATOM     74  S   UNL A   1      45.305  22.447  24.341  1.00  0.00     0.124 S 
ATOM     75  O   UNL A   1      44.590  21.636  23.363  1.00  0.00    -0.237 OA
ATOM     76  O   UNL A   1      45.973  23.640  23.833  1.00  0.00    -0.237 OA
ATOM     77  O   UNL A   1      46.084  21.683  25.318  1.00  0.00    -0.744 OA
ENDBRANCH  70  74
ENDBRANCH  43  67
BRANCH  55  78
ATOM     78  C   UNL A   1      45.334  30.412  28.951  1.00  0.00     0.023 A 
ATOM     79  C   UNL A   1      46.660  30.742  28.581  1.00  0.00     0.031 A 
ATOM     80  C   UNL A   1      44.291  30.942  28.170  1.00  0.00     0.131 A 
ATOM     81  C   UNL A   1      46.894  31.583  27.472  1.00  0.00     0.055 A 
ATOM     82  C   UNL A   1      44.528  31.751  27.060  1.00  0.00     0.041 A 
ATOM     83  F   UNL A   1      43.011  30.645  28.451  1.00  0.00    -0.206 F 
ATOM     84  C   UNL A   1      45.831  32.080  26.710  1.00  0.00     0.022 A 
BRANCH  81  85
ATOM     85  S   UNL A   1      48.589  32.064  27.005  1.00  0.00     0.124 S 
ATOM     86  O   UNL A   1      48.388  33.127  26.027  1.00  0.00    -0.237 OA
ATOM     87  O   UNL A   1      49.166  32.471  28.284  1.00  0.00    -0.237 OA
ATOM     88  O   UNL A   1      49.153  30.830  26.453  1.00  0.00    -0.744 OA
ENDBRANCH  81  85
ENDBRANCH  55  78
ENDBRANCH  29  30
ENDBRANCH  22  24
ENDBRANCH  21  22
ENDBRANCH   1  21
TORSDOF 16
ENDMDL
MODEL 3
REMARK VINA RESULT:     -11.0      1.296      1.792
REMARK SMILES Nc1c(-c2ccccc2)c[nH]c1C(=O)OCCOC(=O)c1ccc(-c2c3nc(c(-c4cc(S(=O)(=O)[O-])ccc4F)c4ccc([nH]4)c(-c4cc(S(=O)(=O)[O-])ccc4F)c4nc(c(-c5cc(S(=O)(=O)[O-])ccc5F)c5ccc2[nH]5)C=C4)C=C3)cc1
REMARK SMILES IDX 17 1 16 2 15 3 13 4 14 5 12 6 2 7 3 8 10 9 11 10 1 12 4 15
REMARK SMILES IDX 5 16 9 17 6 18 8 19 7 20 18 21 19 22 20 23 21 24 22 25 83 26
REMARK SMILES IDX 23 27 82 28 24 29 25 30 26 31 76 32 27 33 81 34 75 35 77 36
REMARK SMILES IDX 28 37 80 38 74 39 73 40 29 42 61 43 41 44 60 45 42 46 45 47
REMARK SMILES IDX 59 48 78 49 43 50 44 51 58 53 79 54 46 55 30 56 31 57 39 58
REMARK SMILES IDX 32 59 38 60 40 61 37 62 33 63 34 64 35 65 36 66 62 67 63 68
REMARK SMILES IDX 71 69 64 70 70 71 72 72 69 73 65 74 66 75 67 76 68 77 47 78
REMARK SMILES IDX 48 79 56 80 49 81 55 82 57 83 54 84 50 85 51 86 52 87 53 88
REMARK H PARENT 11 11 1 13 1 14 77 41 45 52
REMARK Flexibility Score: inf
ROOT
ATOM      1  C   UNL A   1      34.936  33.875  27.975  1.00  0.00     0.275 C 
ENDROOT
BRANCH   1   2
ATOM      2  C   UNL A   1      33.741  34.110  28.887  1.00  0.00     0.275 C 
BRANCH   2   3
ATOM      3  O   UNL A   1      33.982  35.217  29.766  1.00  0.00    -0.457 OA
BRANCH   3   4
ATOM      4  C   UNL A   1      33.717  35.007  31.096  1.00  0.00     0.357 C 
ATOM      5  O   UNL A   1      32.644  35.179  31.633  1.00  0.00    -0.244 OA
BRANCH   4   6
ATOM      6  C   UNL A   1      34.893  34.478  31.750  1.00  0.00     0.148 A 
ATOM      7  C   UNL A   1      35.063  33.800  32.935  1.00  0.00     0.072 A 
ATOM      8  C   UNL A   1      36.437  33.487  33.095  1.00  0.00     0.023 A 
ATOM      9  C   UNL A   1      37.104  34.083  32.045  1.00  0.00     0.094 A 
ATOM     10  N   UNL A   1      36.162  34.680  31.242  1.00  0.00    -0.353 N 
ATOM     11  H   UNL A   1      36.364  35.182  30.418  1.00  0.00     0.166 HD
BRANCH   7  12
ATOM     12  N   UNL A   1      34.087  33.498  33.809  1.00  0.00    -0.396 N 
ATOM     13  H   UNL A   1      33.623  34.215  34.298  1.00  0.00     0.156 HD
ATOM     14  H   UNL A   1      33.835  32.558  33.961  1.00  0.00     0.156 HD
ENDBRANCH   7  12
BRANCH   8  15
ATOM     15  C   UNL A   1      37.062  32.683  34.126  1.00  0.00    -0.015 A 
ATOM     16  C   UNL A   1      37.206  33.236  35.407  1.00  0.00     0.009 A 
ATOM     17  C   UNL A   1      37.583  31.414  33.861  1.00  0.00     0.009 A 
ATOM     18  C   UNL A   1      37.886  32.545  36.407  1.00  0.00     0.001 A 
ATOM     19  C   UNL A   1      38.263  30.720  34.866  1.00  0.00     0.001 A 
ATOM     20  C   UNL A   1      38.420  31.287  36.133  1.00  0.00     0.000 A 
ENDBRANCH   8  15
ENDBRANCH   4   6
ENDBRANCH   3   4
ENDBRANCH   2   3
ENDBRANCH   1   2
BRANCH   1  21
ATOM     21  O   UNL A   1      35.867  32.988  28.589  1.00  0.00    -0.458 OA
BRANCH  21  22
ATOM     22  C   UNL A   1      35.789  31.698  28.194  1.00  0.00     0.338 C 
ATOM     23  O   UNL A   1      34.910  31.185  27.524  1.00  0.00    -0.246 OA
BRANCH  22  24
ATOM     24  C   UNL A   1      36.817  30.931  28.903  1.00  0.00     0.060 A 
ATOM     25  C   UNL A   1      37.899  31.644  29.428  1.00  0.00     0.016 A 
ATOM     26  C   UNL A   1      36.839  29.535  28.775  1.00  0.00     0.016 A 
ATOM     27  C   UNL A   1      39.077  30.966  29.660  1.00  0.00     0.010 A 
ATOM     28  C   UNL A   1      38.019  28.867  28.982  1.00  0.00     0.010 A 
ATOM     29  C   UNL A   1      39.141  29.602  29.354  1.00  0.00    -0.014 A 
BRANCH  29  30
ATOM     30  C   UNL A   1      40.385  28.900  29.585  1.00  0.00     0.031 A 
ATOM     31  C   UNL A   1      40.672  28.737  31.027  1.00  0.00     0.074 A 
ATOM     32  C   UNL A   1      41.102  28.336  28.595  1.00  0.00     0.049 A 
ATOM     33  N   UNL A   1      41.627  29.281  31.703  1.00  0.00    -0.248 NA
ATOM     34  C   UNL A   1      39.662  28.061  31.861  1.00  0.00     0.031 C 
ATOM     35  C   UNL A   1      40.751  28.218  27.178  1.00  0.00     0.029 A 
ATOM     36  N   UNL A   1      42.265  27.637  28.677  1.00  0.00    -0.354 N 
ATOM     37  C   UNL A   1      41.480  28.806  33.000  1.00  0.00     0.074 A 
ATOM     38  C   UNL A   1      40.151  28.269  33.081  1.00  0.00     0.031 C 
ATOM     39  C   UNL A   1      41.554  27.295  26.597  1.00  0.00     0.029 A 
ATOM     40  C   UNL A   1      42.546  26.850  27.565  1.00  0.00     0.049 A 
ATOM     41  H   UNL A   1      42.861  27.685  29.460  1.00  0.00     0.167 HD
ATOM     42  C   UNL A   1      42.563  28.645  33.806  1.00  0.00     0.034 A 
ATOM     43  C   UNL A   1      43.470  25.852  27.483  1.00  0.00     0.034 A 
ATOM     44  C   UNL A   1      43.686  29.417  33.319  1.00  0.00     0.049 A 
ATOM     45  C   UNL A   1      44.452  26.093  28.575  1.00  0.00     0.074 A 
ATOM     46  C   UNL A   1      43.882  30.761  33.053  1.00  0.00     0.029 A 
ATOM     47  N   UNL A   1      44.688  28.758  32.642  1.00  0.00    -0.354 N 
ATOM     48  N   UNL A   1      45.242  27.133  28.606  1.00  0.00    -0.248 NA
ATOM     49  C   UNL A   1      44.201  25.475  29.869  1.00  0.00     0.031 C 
ATOM     50  C   UNL A   1      44.645  30.788  31.850  1.00  0.00     0.029 A 
ATOM     51  C   UNL A   1      44.955  29.472  31.498  1.00  0.00     0.049 A 
ATOM     52  H   UNL A   1      45.133  27.926  32.925  1.00  0.00     0.167 HD
ATOM     53  C   UNL A   1      45.221  27.562  29.926  1.00  0.00     0.074 A 
ATOM     54  C   UNL A   1      44.641  26.448  30.675  1.00  0.00     0.031 C 
ATOM     55  C   UNL A   1      45.399  28.879  30.249  1.00  0.00     0.034 A 
BRANCH  42  56
ATOM     56  C   UNL A   1      42.725  27.499  34.780  1.00  0.00     0.023 A 
ATOM     57  C   UNL A   1      43.545  26.434  34.371  1.00  0.00     0.031 A 
ATOM     58  C   UNL A   1      41.916  27.251  35.914  1.00  0.00     0.131 A 
ATOM     59  C   UNL A   1      43.449  25.174  34.984  1.00  0.00     0.055 A 
ATOM     60  C   UNL A   1      41.878  26.015  36.566  1.00  0.00     0.041 A 
ATOM     61  F   UNL A   1      41.048  28.142  36.404  1.00  0.00    -0.206 F 
ATOM     62  C   UNL A   1      42.619  24.956  36.079  1.00  0.00     0.022 A 
BRANCH  59  63
ATOM     63  S   UNL A   1      44.286  23.779  34.193  1.00  0.00     0.124 S 
ATOM     64  O   UNL A   1      45.278  24.462  33.371  1.00  0.00    -0.237 OA
ATOM     65  O   UNL A   1      44.796  23.044  35.347  1.00  0.00    -0.237 OA
ATOM     66  O   UNL A   1      43.212  23.117  33.457  1.00  0.00    -0.744 OA
ENDBRANCH  59  63
ENDBRANCH  42  56
BRANCH  43  67
ATOM     67  C   UNL A   1      43.332  24.551  26.762  1.00  0.00     0.023 A 
ATOM     68  C   UNL A   1      42.380  23.566  27.111  1.00  0.00     0.031 A 
ATOM     69  C   UNL A   1      44.010  24.359  25.536  1.00  0.00     0.131 A 
ATOM     70  C   UNL A   1      42.149  22.457  26.257  1.00  0.00     0.055 A 
ATOM     71  C   UNL A   1      43.781  23.264  24.700  1.00  0.00     0.041 A 
ATOM     72  F   UNL A   1      44.862  25.280  25.058  1.00  0.00    -0.206 F 
ATOM     73  C   UNL A   1      42.842  22.310  25.053  1.00  0.00     0.022 A 
BRANCH  70  74
ATOM     74  S   UNL A   1      40.871  21.216  26.654  1.00  0.00     0.124 S 
ATOM     75  O   UNL A   1      40.756  21.339  28.102  1.00  0.00    -0.237 OA
ATOM     76  O   UNL A   1      39.730  21.676  25.870  1.00  0.00    -0.237 OA
ATOM     77  O   UNL A   1      41.460  19.958  26.192  1.00  0.00    -0.744 OA
ENDBRANCH  70  74
ENDBRANCH  43  67
BRANCH  55  78
ATOM     78  C   UNL A   1      45.898  29.831  29.178  1.00  0.00     0.023 A 
ATOM     79  C   UNL A   1      45.078  30.667  28.383  1.00  0.00     0.031 A 
ATOM     80  C   UNL A   1      47.291  29.981  29.055  1.00  0.00     0.131 A 
ATOM     81  C   UNL A   1      45.666  31.599  27.501  1.00  0.00     0.055 A 
ATOM     82  C   UNL A   1      47.867  30.920  28.200  1.00  0.00     0.041 A 
ATOM     83  F   UNL A   1      48.125  29.236  29.800  1.00  0.00    -0.206 F 
ATOM     84  C   UNL A   1      47.055  31.729  27.415  1.00  0.00     0.022 A 
BRANCH  81  85
ATOM     85  S   UNL A   1      44.633  32.652  26.429  1.00  0.00     0.124 S 
ATOM     86  O   UNL A   1      43.970  33.550  27.367  1.00  0.00    -0.237 OA
ATOM     87  O   UNL A   1      45.618  33.264  25.543  1.00  0.00    -0.237 OA
ATOM     88  O   UNL A   1      43.740  31.694  25.772  1.00  0.00    -0.744 OA
ENDBRANCH  81  85
ENDBRANCH  55  78
ENDBRANCH  29  30
ENDBRANCH  22  24
ENDBRANCH  21  22
ENDBRANCH   1  21
TORSDOF 16
ENDMDL
