MODEL 1
REMARK VINA RESULT:     -12.3      0.000      0.000
REMARK SMILES O=C(NNS(=O)(=O)c1cccc(C(=O)OCCOC(=O)c2ccc(-c3c4nc(c(-c5cc(S(=O)(=O)[O-])ccc5F)c5ccc([nH]5)c(-c5cc(S(=O)(=O)[O-])ccc5F)c5nc(c(-c6cc(S(=O)(=O)[O-])ccc6F)c6ccc3[nH]6)C=C5)C=C4)cc2)c1)c1ccc2c(c1)OCO2
REMARK SMILES IDX 16 1 15 2 13 3 14 4 12 5 8 6 9 7 84 8 10 9 11 10 5 11 6 12
REMARK SMILES IDX 7 13 4 14 3 16 1 17 2 18 85 20 86 21 90 22 87 23 89 24 88 25
REMARK SMILES IDX 91 26 93 27 92 28 17 29 18 30 19 31 20 32 21 33 22 34 83 35
REMARK SMILES IDX 23 36 82 37 24 38 25 39 26 40 76 41 27 42 81 43 75 44 77 45
REMARK SMILES IDX 28 46 80 47 74 48 73 49 29 51 61 52 41 53 60 54 42 55 45 56
REMARK SMILES IDX 59 57 78 58 43 59 44 60 58 62 79 63 46 64 30 65 31 66 39 67
REMARK SMILES IDX 32 68 38 69 40 70 37 71 33 72 34 73 35 74 36 75 62 76 63 77
REMARK SMILES IDX 71 78 64 79 70 80 72 81 69 82 65 83 66 84 67 85 68 86 47 87
REMARK SMILES IDX 48 88 56 89 49 90 55 91 57 92 54 93 50 94 51 95 52 96 53 97
REMARK H PARENT 4 15 3 19 77 50 45 61
REMARK Flexibility Score: inf
ROOT
ATOM      1  C   UNL A   1      36.519  20.126  24.310  1.00  0.00     0.275 C 
ENDROOT
BRANCH   1   2
ATOM      2  O   UNL A   1      35.373  20.372  25.152  1.00  0.00    -0.458 OA
BRANCH   2   3
ATOM      3  C   UNL A   1      34.193  19.847  24.730  1.00  0.00     0.338 C 
ATOM      4  O   UNL A   1      33.921  18.664  24.618  1.00  0.00    -0.246 OA
BRANCH   3   5
ATOM      5  C   UNL A   1      33.211  20.932  24.490  1.00  0.00     0.061 A 
ATOM      6  C   UNL A   1      31.496  22.425  25.254  1.00  0.00     0.084 A 
ATOM      7  C   UNL A   1      31.339  22.955  23.970  1.00  0.00     0.022 A 
ATOM      8  C   UNL A   1      32.400  21.394  25.521  1.00  0.00     0.037 A 
ATOM      9  C   UNL A   1      32.155  22.498  22.947  1.00  0.00     0.002 A 
ATOM     10  C   UNL A   1      33.121  21.531  23.223  1.00  0.00     0.016 A 
BRANCH   6  11
ATOM     11  S   UNL A   1      30.544  23.078  26.582  1.00  0.00     0.257 S 
ATOM     12  O   UNL A   1      31.432  23.486  27.653  1.00  0.00    -0.205 OA
ATOM     13  O   UNL A   1      29.421  22.201  26.821  1.00  0.00    -0.205 OA
BRANCH  11  14
ATOM     14  N   UNL A   1      29.933  24.485  25.875  1.00  0.00    -0.123 NA
ATOM     15  H   UNL A   1      30.424  24.622  24.991  1.00  0.00     0.167 HD
BRANCH  14  16
ATOM     16  N   UNL A   1      30.046  25.713  26.623  1.00  0.00    -0.273 N 
ATOM     17  O   UNL A   1      31.178  27.613  27.152  1.00  0.00    -0.268 OA
ATOM     18  C   UNL A   1      31.035  26.638  26.423  1.00  0.00     0.266 C 
ATOM     19  H   UNL A   1      29.372  25.897  27.316  1.00  0.00     0.186 HD
BRANCH  18  20
ATOM     20  C   UNL A   1      31.910  26.486  25.247  1.00  0.00     0.045 A 
ATOM     21  C   UNL A   1      33.194  25.904  25.374  1.00  0.00     0.018 A 
ATOM     22  C   UNL A   1      31.368  26.793  23.999  1.00  0.00     0.064 A 
ATOM     23  C   UNL A   1      33.948  25.610  24.236  1.00  0.00     0.051 A 
ATOM     24  C   UNL A   1      32.115  26.441  22.902  1.00  0.00     0.166 A 
ATOM     25  C   UNL A   1      33.360  25.857  23.015  1.00  0.00     0.165 A 
ATOM     26  O   UNL A   1      31.707  26.533  21.607  1.00  0.00    -0.454 OA
ATOM     27  O   UNL A   1      33.864  25.502  21.801  1.00  0.00    -0.454 OA
ATOM     28  C   UNL A   1      32.684  25.676  20.988  1.00  0.00     0.468 C 
ENDBRANCH  18  20
ENDBRANCH  14  16
ENDBRANCH  11  14
ENDBRANCH   6  11
ENDBRANCH   3   5
ENDBRANCH   2   3
ENDBRANCH   1   2
BRANCH   1  29
ATOM     29  C   UNL A   1      37.786  19.866  25.129  1.00  0.00     0.275 C 
BRANCH  29  30
ATOM     30  O   UNL A   1      38.302  21.086  25.691  1.00  0.00    -0.458 OA
BRANCH  30  31
ATOM     31  C   UNL A   1      39.492  20.959  26.320  1.00  0.00     0.338 C 
ATOM     32  O   UNL A   1      40.202  19.969  26.363  1.00  0.00    -0.246 OA
BRANCH  31  33
ATOM     33  C   UNL A   1      39.921  22.261  26.849  1.00  0.00     0.060 A 
ATOM     34  C   UNL A   1      39.280  23.382  26.342  1.00  0.00     0.016 A 
ATOM     35  C   UNL A   1      41.035  22.410  27.667  1.00  0.00     0.016 A 
ATOM     36  C   UNL A   1      39.813  24.650  26.520  1.00  0.00     0.010 A 
ATOM     37  C   UNL A   1      41.493  23.702  27.964  1.00  0.00     0.010 A 
ATOM     38  C   UNL A   1      40.914  24.839  27.362  1.00  0.00    -0.014 A 
BRANCH  38  39
ATOM     39  C   UNL A   1      41.455  26.213  27.583  1.00  0.00     0.031 A 
ATOM     40  C   UNL A   1      42.797  26.600  27.017  1.00  0.00     0.074 A 
ATOM     41  C   UNL A   1      40.737  27.127  28.273  1.00  0.00     0.049 A 
ATOM     42  N   UNL A   1      43.521  27.665  27.252  1.00  0.00    -0.248 NA
ATOM     43  C   UNL A   1      43.414  25.654  26.075  1.00  0.00     0.031 C 
ATOM     44  C   UNL A   1      39.394  26.915  28.820  1.00  0.00     0.029 A 
ATOM     45  N   UNL A   1      41.031  28.421  28.630  1.00  0.00    -0.354 N 
ATOM     46  C   UNL A   1      44.700  27.493  26.532  1.00  0.00     0.074 A 
ATOM     47  C   UNL A   1      44.600  26.209  25.870  1.00  0.00     0.031 C 
ATOM     48  C   UNL A   1      38.967  28.044  29.402  1.00  0.00     0.029 A 
ATOM     49  C   UNL A   1      40.047  29.021  29.385  1.00  0.00     0.049 A 
ATOM     50  H   UNL A   1      41.865  28.876  28.372  1.00  0.00     0.167 HD
ATOM     51  C   UNL A   1      45.765  28.330  26.435  1.00  0.00     0.034 A 
ATOM     52  C   UNL A   1      40.030  30.195  30.047  1.00  0.00     0.034 A 
ATOM     53  C   UNL A   1      45.829  29.621  27.081  1.00  0.00     0.049 A 
ATOM     54  C   UNL A   1      41.257  31.066  30.002  1.00  0.00     0.074 A 
ATOM     55  C   UNL A   1      46.850  30.555  27.039  1.00  0.00     0.029 A 
ATOM     56  N   UNL A   1      44.832  30.163  27.884  1.00  0.00    -0.354 N 
ATOM     57  N   UNL A   1      42.387  30.867  29.363  1.00  0.00    -0.248 NA
ATOM     58  C   UNL A   1      41.211  32.314  30.772  1.00  0.00     0.031 C 
ATOM     59  C   UNL A   1      46.509  31.618  27.881  1.00  0.00     0.029 A 
ATOM     60  C   UNL A   1      45.233  31.398  28.373  1.00  0.00     0.049 A 
ATOM     61  H   UNL A   1      43.968  29.732  28.078  1.00  0.00     0.167 HD
ATOM     62  C   UNL A   1      43.176  31.981  29.634  1.00  0.00     0.074 A 
ATOM     63  C   UNL A   1      42.385  32.853  30.477  1.00  0.00     0.031 C 
ATOM     64  C   UNL A   1      44.438  32.257  29.221  1.00  0.00     0.034 A 
BRANCH  51  65
ATOM     65  C   UNL A   1      46.970  27.847  25.660  1.00  0.00     0.023 A 
ATOM     66  C   UNL A   1      47.164  28.162  24.304  1.00  0.00     0.031 A 
ATOM     67  C   UNL A   1      47.932  27.035  26.289  1.00  0.00     0.131 A 
ATOM     68  C   UNL A   1      48.248  27.605  23.605  1.00  0.00     0.055 A 
ATOM     69  C   UNL A   1      49.055  26.558  25.610  1.00  0.00     0.041 A 
ATOM     70  F   UNL A   1      47.790  26.679  27.575  1.00  0.00    -0.206 F 
ATOM     71  C   UNL A   1      49.209  26.828  24.255  1.00  0.00     0.022 A 
BRANCH  68  72
ATOM     72  S   UNL A   1      48.295  27.781  21.800  1.00  0.00     0.124 S 
ATOM     73  O   UNL A   1      48.599  26.415  21.380  1.00  0.00    -0.237 OA
ATOM     74  O   UNL A   1      46.952  28.259  21.495  1.00  0.00    -0.237 OA
ATOM     75  O   UNL A   1      49.369  28.747  21.577  1.00  0.00    -0.744 OA
ENDBRANCH  68  72
ENDBRANCH  51  65
BRANCH  52  76
ATOM     76  C   UNL A   1      38.848  30.581  30.875  1.00  0.00     0.023 A 
ATOM     77  C   UNL A   1      37.731  31.204  30.298  1.00  0.00     0.031 A 
ATOM     78  C   UNL A   1      38.837  30.373  32.268  1.00  0.00     0.131 A 
ATOM     79  C   UNL A   1      36.673  31.636  31.113  1.00  0.00     0.055 A 
ATOM     80  C   UNL A   1      37.751  30.740  33.063  1.00  0.00     0.041 A 
ATOM     81  F   UNL A   1      39.882  29.789  32.877  1.00  0.00    -0.206 F 
ATOM     82  C   UNL A   1      36.666  31.391  32.487  1.00  0.00     0.022 A 
BRANCH  79  83
ATOM     83  S   UNL A   1      35.348  32.622  30.363  1.00  0.00     0.124 S 
ATOM     84  O   UNL A   1      36.021  33.896  30.134  1.00  0.00    -0.237 OA
ATOM     85  O   UNL A   1      35.028  31.842  29.172  1.00  0.00    -0.237 OA
ATOM     86  O   UNL A   1      34.312  32.639  31.392  1.00  0.00    -0.744 OA
ENDBRANCH  79  83
ENDBRANCH  52  76
BRANCH  64  87
ATOM     87  C   UNL A   1      45.017  33.589  29.630  1.00  0.00     0.023 A 
ATOM     88  C   UNL A   1      44.775  34.763  28.895  1.00  0.00     0.031 A 
ATOM     89  C   UNL A   1      45.836  33.682  30.770  1.00  0.00     0.131 A 
ATOM     90  C   UNL A   1      45.393  35.964  29.274  1.00  0.00     0.055 A 
ATOM     91  C   UNL A   1      46.390  34.893  31.183  1.00  0.00     0.041 A 
ATOM     92  F   UNL A   1      46.109  32.592  31.506  1.00  0.00    -0.206 F 
ATOM     93  C   UNL A   1      46.182  36.041  30.424  1.00  0.00     0.022 A 
BRANCH  90  94
ATOM     94  S   UNL A   1      45.239  37.404  28.182  1.00  0.00     0.124 S 
ATOM     95  O   UNL A   1      44.257  36.942  27.207  1.00  0.00    -0.237 OA
ATOM     96  O   UNL A   1      44.786  38.446  29.099  1.00  0.00    -0.237 OA
ATOM     97  O   UNL A   1      46.593  37.586  27.660  1.00  0.00    -0.744 OA
ENDBRANCH  90  94
ENDBRANCH  64  87
ENDBRANCH  38  39
ENDBRANCH  31  33
ENDBRANCH  30  31
ENDBRANCH  29  30
ENDBRANCH   1  29
TORSDOF 18
ENDMDL
MODEL 2
REMARK VINA RESULT:     -12.1      5.012      7.909
REMARK SMILES O=C(NNS(=O)(=O)c1cccc(C(=O)OCCOC(=O)c2ccc(-c3c4nc(c(-c5cc(S(=O)(=O)[O-])ccc5F)c5ccc([nH]5)c(-c5cc(S(=O)(=O)[O-])ccc5F)c5nc(c(-c6cc(S(=O)(=O)[O-])ccc6F)c6ccc3[nH]6)C=C5)C=C4)cc2)c1)c1ccc2c(c1)OCO2
REMARK SMILES IDX 16 1 15 2 13 3 14 4 12 5 8 6 9 7 84 8 10 9 11 10 5 11 6 12
REMARK SMILES IDX 7 13 4 14 3 16 1 17 2 18 85 20 86 21 90 22 87 23 89 24 88 25
REMARK SMILES IDX 91 26 93 27 92 28 17 29 18 30 19 31 20 32 21 33 22 34 83 35
REMARK SMILES IDX 23 36 82 37 24 38 25 39 26 40 76 41 27 42 81 43 75 44 77 45
REMARK SMILES IDX 28 46 80 47 74 48 73 49 29 51 61 52 41 53 60 54 42 55 45 56
REMARK SMILES IDX 59 57 78 58 43 59 44 60 58 62 79 63 46 64 30 65 31 66 39 67
REMARK SMILES IDX 32 68 38 69 40 70 37 71 33 72 34 73 35 74 36 75 62 76 63 77
REMARK SMILES IDX 71 78 64 79 70 80 72 81 69 82 65 83 66 84 67 85 68 86 47 87
REMARK SMILES IDX 48 88 56 89 49 90 55 91 57 92 54 93 50 94 51 95 52 96 53 97
REMARK H PARENT 4 15 3 19 77 50 45 61
REMARK Flexibility Score: inf
ROOT
ATOM      1  C   UNL A   1      31.323  29.774  24.557  1.00  0.00     0.275 C 
ENDROOT
BRANCH   1   2
ATOM      2  O   UNL A   1      30.005  29.783  23.969  1.00  0.00    -0.458 OA
BRANCH   2   3
ATOM      3  C   UNL A   1      29.874  29.148  22.776  1.00  0.00     0.338 C 
ATOM      4  O   UNL A   1      29.549  29.651  21.714  1.00  0.00    -0.246 OA
BRANCH   3   5
ATOM      5  C   UNL A   1      30.269  27.724  22.912  1.00  0.00     0.061 A 
ATOM      6  C   UNL A   1      31.743  25.894  22.431  1.00  0.00     0.084 A 
ATOM      7  C   UNL A   1      30.944  25.013  23.166  1.00  0.00     0.022 A 
ATOM      8  C   UNL A   1      31.401  27.239  22.267  1.00  0.00     0.037 A 
ATOM      9  C   UNL A   1      29.821  25.503  23.815  1.00  0.00     0.002 A 
ATOM     10  C   UNL A   1      29.520  26.862  23.730  1.00  0.00     0.016 A 
BRANCH   6  11
ATOM     11  S   UNL A   1      33.231  25.306  21.699  1.00  0.00     0.257 S 
ATOM     12  O   UNL A   1      34.247  26.337  21.783  1.00  0.00    -0.205 OA
ATOM     13  O   UNL A   1      32.908  24.661  20.448  1.00  0.00    -0.205 OA
BRANCH  11  14
ATOM     14  N   UNL A   1      33.663  24.088  22.787  1.00  0.00    -0.123 NA
ATOM     15  H   UNL A   1      32.824  23.830  23.306  1.00  0.00     0.167 HD
BRANCH  14  16
ATOM     16  N   UNL A   1      34.690  24.389  23.754  1.00  0.00    -0.273 N 
ATOM     17  O   UNL A   1      35.658  24.054  25.784  1.00  0.00    -0.268 OA
ATOM     18  C   UNL A   1      34.856  23.702  24.927  1.00  0.00     0.266 C 
ATOM     19  H   UNL A   1      35.309  25.129  23.559  1.00  0.00     0.186 HD
BRANCH  18  20
ATOM     20  C   UNL A   1      34.090  22.460  25.126  1.00  0.00     0.045 A 
ATOM     21  C   UNL A   1      32.698  22.503  25.381  1.00  0.00     0.018 A 
ATOM     22  C   UNL A   1      34.754  21.252  24.904  1.00  0.00     0.064 A 
ATOM     23  C   UNL A   1      31.950  21.324  25.401  1.00  0.00     0.051 A 
ATOM     24  C   UNL A   1      33.977  20.121  24.879  1.00  0.00     0.166 A 
ATOM     25  C   UNL A   1      32.617  20.155  25.109  1.00  0.00     0.165 A 
ATOM     26  O   UNL A   1      34.411  18.874  24.549  1.00  0.00    -0.454 OA
ATOM     27  O   UNL A   1      32.043  18.933  24.929  1.00  0.00    -0.454 OA
ATOM     28  C   UNL A   1      33.143  18.238  24.303  1.00  0.00     0.468 C 
ENDBRANCH  18  20
ENDBRANCH  14  16
ENDBRANCH  11  14
ENDBRANCH   6  11
ENDBRANCH   3   5
ENDBRANCH   2   3
ENDBRANCH   1   2
BRANCH   1  29
ATOM     29  C   UNL A   1      31.369  30.557  25.872  1.00  0.00     0.275 C 
BRANCH  29  30
ATOM     30  O   UNL A   1      32.634  30.386  26.535  1.00  0.00    -0.458 OA
BRANCH  30  31
ATOM     31  C   UNL A   1      33.125  31.505  27.114  1.00  0.00     0.338 C 
ATOM     32  O   UNL A   1      32.521  32.536  27.356  1.00  0.00    -0.246 OA
BRANCH  31  33
ATOM     33  C   UNL A   1      34.500  31.271  27.574  1.00  0.00     0.060 A 
ATOM     34  C   UNL A   1      34.836  29.964  27.895  1.00  0.00     0.016 A 
ATOM     35  C   UNL A   1      35.381  32.305  27.867  1.00  0.00     0.016 A 
ATOM     36  C   UNL A   1      35.976  29.682  28.633  1.00  0.00     0.010 A 
ATOM     37  C   UNL A   1      36.602  32.004  28.489  1.00  0.00     0.010 A 
ATOM     38  C   UNL A   1      36.899  30.693  28.918  1.00  0.00    -0.014 A 
BRANCH  38  39
ATOM     39  C   UNL A   1      38.145  30.373  29.675  1.00  0.00     0.031 A 
ATOM     40  C   UNL A   1      39.187  29.466  29.071  1.00  0.00     0.074 A 
ATOM     41  C   UNL A   1      38.360  30.910  30.896  1.00  0.00     0.049 A 
ATOM     42  N   UNL A   1      40.237  28.920  29.630  1.00  0.00    -0.248 NA
ATOM     43  C   UNL A   1      39.016  29.116  27.653  1.00  0.00     0.031 C 
ATOM     44  C   UNL A   1      37.472  31.857  31.576  1.00  0.00     0.029 A 
ATOM     45  N   UNL A   1      39.395  30.742  31.785  1.00  0.00    -0.354 N 
ATOM     46  C   UNL A   1      40.819  28.118  28.652  1.00  0.00     0.074 A 
ATOM     47  C   UNL A   1      39.990  28.236  27.471  1.00  0.00     0.031 C 
ATOM     48  C   UNL A   1      38.015  32.215  32.747  1.00  0.00     0.029 A 
ATOM     49  C   UNL A   1      39.225  31.433  32.965  1.00  0.00     0.049 A 
ATOM     50  H   UNL A   1      40.181  30.181  31.598  1.00  0.00     0.167 HD
ATOM     51  C   UNL A   1      41.940  27.357  28.736  1.00  0.00     0.034 A 
ATOM     52  C   UNL A   1      39.920  31.400  34.119  1.00  0.00     0.034 A 
ATOM     53  C   UNL A   1      42.768  27.279  29.917  1.00  0.00     0.049 A 
ATOM     54  C   UNL A   1      41.106  30.478  34.221  1.00  0.00     0.074 A 
ATOM     55  C   UNL A   1      43.930  26.552  30.107  1.00  0.00     0.029 A 
ATOM     56  N   UNL A   1      42.525  27.951  31.109  1.00  0.00    -0.354 N 
ATOM     57  N   UNL A   1      41.613  29.683  33.307  1.00  0.00    -0.248 NA
ATOM     58  C   UNL A   1      41.807  30.441  35.510  1.00  0.00     0.031 C 
ATOM     59  C   UNL A   1      44.341  26.717  31.434  1.00  0.00     0.029 A 
ATOM     60  C   UNL A   1      43.494  27.624  32.047  1.00  0.00     0.049 A 
ATOM     61  H   UNL A   1      41.774  28.570  31.265  1.00  0.00     0.167 HD
ATOM     62  C   UNL A   1      42.712  29.073  33.905  1.00  0.00     0.074 A 
ATOM     63  C   UNL A   1      42.801  29.605  35.249  1.00  0.00     0.031 C 
ATOM     64  C   UNL A   1      43.568  28.156  33.389  1.00  0.00     0.034 A 
BRANCH  51  65
ATOM     65  C   UNL A   1      42.295  26.497  27.544  1.00  0.00     0.023 A 
ATOM     66  C   UNL A   1      41.858  25.166  27.423  1.00  0.00     0.031 A 
ATOM     67  C   UNL A   1      43.108  27.015  26.519  1.00  0.00     0.131 A 
ATOM     68  C   UNL A   1      42.299  24.380  26.345  1.00  0.00     0.055 A 
ATOM     69  C   UNL A   1      43.470  26.255  25.406  1.00  0.00     0.041 A 
ATOM     70  F   UNL A   1      43.577  28.271  26.589  1.00  0.00    -0.206 F 
ATOM     71  C   UNL A   1      43.079  24.923  25.322  1.00  0.00     0.022 A 
BRANCH  68  72
ATOM     72  S   UNL A   1      41.970  22.596  26.384  1.00  0.00     0.124 S 
ATOM     73  O   UNL A   1      42.541  22.165  25.110  1.00  0.00    -0.237 OA
ATOM     74  O   UNL A   1      42.685  22.170  27.581  1.00  0.00    -0.237 OA
ATOM     75  O   UNL A   1      40.513  22.518  26.464  1.00  0.00    -0.744 OA
ENDBRANCH  68  72
ENDBRANCH  51  65
BRANCH  52  76
ATOM     76  C   UNL A   1      39.470  32.201  35.298  1.00  0.00     0.023 A 
ATOM     77  C   UNL A   1      38.782  31.600  36.363  1.00  0.00     0.031 A 
ATOM     78  C   UNL A   1      39.681  33.592  35.354  1.00  0.00     0.131 A 
ATOM     79  C   UNL A   1      38.293  32.391  37.414  1.00  0.00     0.055 A 
ATOM     80  C   UNL A   1      39.255  34.363  36.436  1.00  0.00     0.041 A 
ATOM     81  F   UNL A   1      40.326  34.224  34.359  1.00  0.00    -0.206 F 
ATOM     82  C   UNL A   1      38.542  33.764  37.468  1.00  0.00     0.022 A 
BRANCH  79  83
ATOM     83  S   UNL A   1      37.231  31.614  38.662  1.00  0.00     0.124 S 
ATOM     84  O   UNL A   1      37.071  30.270  38.119  1.00  0.00    -0.237 OA
ATOM     85  O   UNL A   1      38.046  31.728  39.866  1.00  0.00    -0.237 OA
ATOM     86  O   UNL A   1      36.027  32.442  38.646  1.00  0.00    -0.744 OA
ENDBRANCH  79  83
ENDBRANCH  52  76
BRANCH  64  87
ATOM     87  C   UNL A   1      44.715  27.719  34.267  1.00  0.00     0.023 A 
ATOM     88  C   UNL A   1      44.640  26.568  35.071  1.00  0.00     0.031 A 
ATOM     89  C   UNL A   1      45.900  28.476  34.308  1.00  0.00     0.131 A 
ATOM     90  C   UNL A   1      45.704  26.242  35.925  1.00  0.00     0.055 A 
ATOM     91  C   UNL A   1      46.983  28.106  35.105  1.00  0.00     0.041 A 
ATOM     92  F   UNL A   1      46.026  29.589  33.567  1.00  0.00    -0.206 F 
ATOM     93  C   UNL A   1      46.883  26.991  35.932  1.00  0.00     0.022 A 
BRANCH  90  94
ATOM     94  S   UNL A   1      45.487  24.883  37.107  1.00  0.00     0.124 S 
ATOM     95  O   UNL A   1      46.852  24.389  37.254  1.00  0.00    -0.237 OA
ATOM     96  O   UNL A   1      44.926  25.565  38.269  1.00  0.00    -0.237 OA
ATOM     97  O   UNL A   1      44.570  23.975  36.421  1.00  0.00    -0.744 OA
ENDBRANCH  90  94
ENDBRANCH  64  87
ENDBRANCH  38  39
ENDBRANCH  31  33
ENDBRANCH  30  31
ENDBRANCH  29  30
ENDBRANCH   1  29
TORSDOF 18
ENDMDL
MODEL 3
REMARK VINA RESULT:     -12.1      5.045      7.547
REMARK SMILES O=C(NNS(=O)(=O)c1cccc(C(=O)OCCOC(=O)c2ccc(-c3c4nc(c(-c5cc(S(=O)(=O)[O-])ccc5F)c5ccc([nH]5)c(-c5cc(S(=O)(=O)[O-])ccc5F)c5nc(c(-c6cc(S(=O)(=O)[O-])ccc6F)c6ccc3[nH]6)C=C5)C=C4)cc2)c1)c1ccc2c(c1)OCO2
REMARK SMILES IDX 16 1 15 2 13 3 14 4 12 5 8 6 9 7 84 8 10 9 11 10 5 11 6 12
REMARK SMILES IDX 7 13 4 14 3 16 1 17 2 18 85 20 86 21 90 22 87 23 89 24 88 25
REMARK SMILES IDX 91 26 93 27 92 28 17 29 18 30 19 31 20 32 21 33 22 34 83 35
REMARK SMILES IDX 23 36 82 37 24 38 25 39 26 40 76 41 27 42 81 43 75 44 77 45
REMARK SMILES IDX 28 46 80 47 74 48 73 49 29 51 61 52 41 53 60 54 42 55 45 56
REMARK SMILES IDX 59 57 78 58 43 59 44 60 58 62 79 63 46 64 30 65 31 66 39 67
REMARK SMILES IDX 32 68 38 69 40 70 37 71 33 72 34 73 35 74 36 75 62 76 63 77
REMARK SMILES IDX 71 78 64 79 70 80 72 81 69 82 65 83 66 84 67 85 68 86 47 87
REMARK SMILES IDX 48 88 56 89 49 90 55 91 57 92 54 93 50 94 51 95 52 96 53 97
REMARK H PARENT 4 15 3 19 77 50 45 61
REMARK Flexibility Score: inf
ROOT
ATOM      1  C   UNL A   1      33.130  28.907  24.939  1.00  0.00     0.275 C 
ENDROOT
BRANCH   1   2
ATOM      2  O   UNL A   1      33.090  27.744  25.793  1.00  0.00    -0.458 OA
BRANCH   2   3
ATOM      3  C   UNL A   1      31.959  26.994  25.736  1.00  0.00     0.338 C 
ATOM      4  O   UNL A   1      30.857  27.364  25.369  1.00  0.00    -0.246 OA
BRANCH   3   5
ATOM      5  C   UNL A   1      32.260  25.592  26.115  1.00  0.00     0.061 A 
ATOM      6  C   UNL A   1      33.721  23.690  26.152  1.00  0.00     0.084 A 
ATOM      7  C   UNL A   1      32.759  22.922  26.817  1.00  0.00     0.022 A 
ATOM      8  C   UNL A   1      33.474  25.010  25.766  1.00  0.00     0.037 A 
ATOM      9  C   UNL A   1      31.554  23.509  27.171  1.00  0.00     0.002 A 
ATOM     10  C   UNL A   1      31.333  24.852  26.867  1.00  0.00     0.016 A 
BRANCH   6  11
ATOM     11  S   UNL A   1      35.295  22.988  25.800  1.00  0.00     0.257 S 
ATOM     12  O   UNL A   1      35.476  21.792  26.599  1.00  0.00    -0.205 OA
ATOM     13  O   UNL A   1      36.279  24.044  25.783  1.00  0.00    -0.205 OA
BRANCH  11  14
ATOM     14  N   UNL A   1      35.073  22.490  24.200  1.00  0.00    -0.123 NA
ATOM     15  H   UNL A   1      34.651  23.269  23.694  1.00  0.00     0.167 HD
BRANCH  14  16
ATOM     16  N   UNL A   1      34.250  21.330  23.968  1.00  0.00    -0.273 N 
ATOM     17  O   UNL A   1      32.243  20.398  23.441  1.00  0.00    -0.268 OA
ATOM     18  C   UNL A   1      32.959  21.390  23.515  1.00  0.00     0.266 C 
ATOM     19  H   UNL A   1      34.638  20.443  24.144  1.00  0.00     0.186 HD
BRANCH  18  20
ATOM     20  C   UNL A   1      32.445  22.684  23.035  1.00  0.00     0.045 A 
ATOM     21  C   UNL A   1      31.174  23.153  23.448  1.00  0.00     0.018 A 
ATOM     22  C   UNL A   1      33.312  23.487  22.293  1.00  0.00     0.064 A 
ATOM     23  C   UNL A   1      30.764  24.449  23.127  1.00  0.00     0.051 A 
ATOM     24  C   UNL A   1      32.897  24.771  22.043  1.00  0.00     0.166 A 
ATOM     25  C   UNL A   1      31.668  25.242  22.456  1.00  0.00     0.165 A 
ATOM     26  O   UNL A   1      33.648  25.742  21.456  1.00  0.00    -0.454 OA
ATOM     27  O   UNL A   1      31.520  26.570  22.189  1.00  0.00    -0.454 OA
ATOM     28  C   UNL A   1      32.879  26.899  21.834  1.00  0.00     0.468 C 
ENDBRANCH  18  20
ENDBRANCH  14  16
ENDBRANCH  11  14
ENDBRANCH   6  11
ENDBRANCH   3   5
ENDBRANCH   2   3
ENDBRANCH   1   2
BRANCH   1  29
ATOM     29  C   UNL A   1      32.318  30.070  25.516  1.00  0.00     0.275 C 
BRANCH  29  30
ATOM     30  O   UNL A   1      32.593  30.250  26.916  1.00  0.00    -0.458 OA
BRANCH  30  31
ATOM     31  C   UNL A   1      33.192  31.422  27.229  1.00  0.00     0.338 C 
ATOM     32  O   UNL A   1      32.677  32.527  27.264  1.00  0.00    -0.246 OA
BRANCH  31  33
ATOM     33  C   UNL A   1      34.566  31.177  27.685  1.00  0.00     0.060 A 
ATOM     34  C   UNL A   1      34.891  29.869  28.013  1.00  0.00     0.016 A 
ATOM     35  C   UNL A   1      35.458  32.205  27.969  1.00  0.00     0.016 A 
ATOM     36  C   UNL A   1      36.031  29.581  28.748  1.00  0.00     0.010 A 
ATOM     37  C   UNL A   1      36.678  31.896  28.588  1.00  0.00     0.010 A 
ATOM     38  C   UNL A   1      36.964  30.585  29.024  1.00  0.00    -0.014 A 
BRANCH  38  39
ATOM     39  C   UNL A   1      38.211  30.257  29.778  1.00  0.00     0.031 A 
ATOM     40  C   UNL A   1      39.230  29.318  29.187  1.00  0.00     0.074 A 
ATOM     41  C   UNL A   1      38.446  30.817  30.986  1.00  0.00     0.049 A 
ATOM     42  N   UNL A   1      40.273  28.764  29.750  1.00  0.00    -0.248 NA
ATOM     43  C   UNL A   1      39.040  28.939  27.779  1.00  0.00     0.031 C 
ATOM     44  C   UNL A   1      37.581  31.796  31.651  1.00  0.00     0.029 A 
ATOM     45  N   UNL A   1      39.484  30.649  31.871  1.00  0.00    -0.354 N 
ATOM     46  C   UNL A   1      40.832  27.929  28.786  1.00  0.00     0.074 A 
ATOM     47  C   UNL A   1      39.996  28.037  27.608  1.00  0.00     0.031 C 
ATOM     48  C   UNL A   1      38.140  32.169  32.810  1.00  0.00     0.029 A 
ATOM     49  C   UNL A   1      39.336  31.369  33.036  1.00  0.00     0.049 A 
ATOM     50  H   UNL A   1      40.258  30.069  31.690  1.00  0.00     0.167 HD
ATOM     51  C   UNL A   1      41.939  27.148  28.878  1.00  0.00     0.034 A 
ATOM     52  C   UNL A   1      40.040  31.348  34.185  1.00  0.00     0.034 A 
ATOM     53  C   UNL A   1      42.774  27.081  30.054  1.00  0.00     0.049 A 
ATOM     54  C   UNL A   1      41.209  30.406  34.299  1.00  0.00     0.074 A 
ATOM     55  C   UNL A   1      43.924  26.336  30.252  1.00  0.00     0.029 A 
ATOM     56  N   UNL A   1      42.554  27.784  31.233  1.00  0.00    -0.354 N 
ATOM     57  N   UNL A   1      41.693  29.581  33.399  1.00  0.00    -0.248 NA
ATOM     58  C   UNL A   1      41.919  30.384  35.582  1.00  0.00     0.031 C 
ATOM     59  C   UNL A   1      44.349  26.522  31.571  1.00  0.00     0.029 A 
ATOM     60  C   UNL A   1      43.524  27.459  32.171  1.00  0.00     0.049 A 
ATOM     61  H   UNL A   1      41.817  28.420  31.380  1.00  0.00     0.167 HD
ATOM     62  C   UNL A   1      42.785  28.963  34.002  1.00  0.00     0.074 A 
ATOM     63  C   UNL A   1      42.895  29.523  35.332  1.00  0.00     0.031 C 
ATOM     64  C   UNL A   1      43.620  28.019  33.499  1.00  0.00     0.034 A 
BRANCH  51  65
ATOM     65  C   UNL A   1      42.268  26.256  27.703  1.00  0.00     0.023 A 
ATOM     66  C   UNL A   1      41.757  24.951  27.586  1.00  0.00     0.031 A 
ATOM     67  C   UNL A   1      43.131  26.714  26.690  1.00  0.00     0.131 A 
ATOM     68  C   UNL A   1      42.174  24.129  26.526  1.00  0.00     0.055 A 
ATOM     69  C   UNL A   1      43.471  25.922  25.592  1.00  0.00     0.041 A 
ATOM     70  F   UNL A   1      43.671  27.942  26.757  1.00  0.00    -0.206 F 
ATOM     71  C   UNL A   1      43.005  24.614  25.515  1.00  0.00     0.022 A 
BRANCH  68  72
ATOM     72  S   UNL A   1      41.741  22.367  26.577  1.00  0.00     0.124 S 
ATOM     73  O   UNL A   1      42.354  21.951  27.835  1.00  0.00    -0.237 OA
ATOM     74  O   UNL A   1      40.284  22.400  26.555  1.00  0.00    -0.237 OA
ATOM     75  O   UNL A   1      42.372  21.825  25.375  1.00  0.00    -0.744 OA
ENDBRANCH  68  72
ENDBRANCH  51  65
BRANCH  52  76
ATOM     76  C   UNL A   1      39.615  32.183  35.349  1.00  0.00     0.023 A 
ATOM     77  C   UNL A   1      38.850  31.639  36.391  1.00  0.00     0.031 A 
ATOM     78  C   UNL A   1      39.929  33.555  35.412  1.00  0.00     0.131 A 
ATOM     79  C   UNL A   1      38.389  32.467  37.427  1.00  0.00     0.055 A 
ATOM     80  C   UNL A   1      39.529  34.358  36.480  1.00  0.00     0.041 A 
ATOM     81  F   UNL A   1      40.651  34.133  34.439  1.00  0.00    -0.206 F 
ATOM     82  C   UNL A   1      38.739  33.817  37.489  1.00  0.00     0.022 A 
BRANCH  79  83
ATOM     83  S   UNL A   1      37.232  31.775  38.640  1.00  0.00     0.124 S 
ATOM     84  O   UNL A   1      36.099  32.685  38.520  1.00  0.00    -0.237 OA
ATOM     85  O   UNL A   1      37.028  30.424  38.127  1.00  0.00    -0.237 OA
ATOM     86  O   UNL A   1      37.969  31.857  39.898  1.00  0.00    -0.744 OA
ENDBRANCH  79  83
ENDBRANCH  52  76
BRANCH  64  87
ATOM     87  C   UNL A   1      44.765  27.579  34.378  1.00  0.00     0.023 A 
ATOM     88  C   UNL A   1      44.673  26.449  35.211  1.00  0.00     0.031 A 
ATOM     89  C   UNL A   1      45.965  28.312  34.391  1.00  0.00     0.131 A 
ATOM     90  C   UNL A   1      45.738  26.122  36.063  1.00  0.00     0.055 A 
ATOM     91  C   UNL A   1      47.047  27.939  35.189  1.00  0.00     0.041 A 
ATOM     92  F   UNL A   1      46.107  29.404  33.623  1.00  0.00    -0.206 F 
ATOM     93  C   UNL A   1      46.932  26.846  36.042  1.00  0.00     0.022 A 
BRANCH  90  94
ATOM     94  S   UNL A   1      45.503  24.796  37.278  1.00  0.00     0.124 S 
ATOM     95  O   UNL A   1      46.861  24.287  37.438  1.00  0.00    -0.237 OA
ATOM     96  O   UNL A   1      44.953  25.514  38.424  1.00  0.00    -0.237 OA
ATOM     97  O   UNL A   1      44.573  23.883  36.616  1.00  0.00    -0.744 OA
ENDBRANCH  90  94
ENDBRANCH  64  87
ENDBRANCH  38  39
ENDBRANCH  31  33
ENDBRANCH  30  31
ENDBRANCH  29  30
ENDBRANCH   1  29
TORSDOF 18
ENDMDL
