MODEL 1
REMARK VINA RESULT:     -10.3      0.000      0.000
REMARK SMILES CCCCCCNC(=O)Oc1cccc(-c2ccc([C@@H](C)C(=O)OCCOC(=O)c3ccc(-c4c5nc(c(-c6cc(S(=O)(=O)[O-])ccc6F)c6ccc([nH]6)c(-c6cc(S(=O)(=O)[O-])ccc6F)c6nc(c(-c7cc(S(=O)(=O)[O-])ccc7F)c7ccc4[nH]7)C=C6)C=C5)cc3)cc2)c1
REMARK SMILES IDX 20 1 21 2 19 3 16 4 17 5 94 6 18 7 93 8 15 9 11 10 12 11
REMARK SMILES IDX 95 12 13 13 14 14 10 15 8 16 7 17 9 19 6 20 5 21 4 22 3 23
REMARK SMILES IDX 2 24 1 25 22 26 23 27 24 28 25 29 26 30 27 31 28 32 29 33
REMARK SMILES IDX 30 34 31 35 92 36 32 37 91 38 33 39 34 40 35 41 85 42 36 43
REMARK SMILES IDX 90 44 84 45 86 46 37 47 89 48 83 49 82 50 38 52 70 53 50 54
REMARK SMILES IDX 69 55 51 56 54 57 68 58 87 59 52 60 53 61 67 63 88 64 55 65
REMARK SMILES IDX 39 66 40 67 48 68 41 69 47 70 49 71 46 72 42 73 43 74 44 75
REMARK SMILES IDX 45 76 71 77 72 78 80 79 73 80 79 81 81 82 78 83 74 84 75 85
REMARK SMILES IDX 76 86 77 87 56 88 57 89 65 90 58 91 64 92 66 93 63 94 59 95
REMARK SMILES IDX 60 96 61 97 62 98
REMARK H PARENT 7 18 86 51 54 62
REMARK Flexibility Score: inf
ROOT
ATOM      1  C   UNL A   1      35.184  31.040  28.608  1.00  0.00     0.126 C 
ATOM      2  C   UNL A   1      36.579  31.347  28.066  1.00  0.00     0.025 C 
ENDROOT
BRANCH   1   3
ATOM      3  C   UNL A   1      34.302  30.350  27.577  1.00  0.00    -0.034 A 
ATOM      4  C   UNL A   1      32.712  29.046  25.609  1.00  0.00    -0.018 A 
ATOM      5  C   UNL A   1      32.236  30.168  26.304  1.00  0.00     0.009 A 
ATOM      6  C   UNL A   1      33.995  28.580  25.927  1.00  0.00     0.009 A 
ATOM      7  C   UNL A   1      33.016  30.812  27.270  1.00  0.00     0.005 A 
ATOM      8  C   UNL A   1      34.779  29.224  26.890  1.00  0.00     0.005 A 
BRANCH   4   9
ATOM      9  C   UNL A   1      31.907  28.403  24.556  1.00  0.00    -0.015 A 
ATOM     10  C   UNL A   1      31.403  26.526  23.102  1.00  0.00     0.133 A 
ATOM     11  C   UNL A   1      30.380  27.241  22.483  1.00  0.00     0.047 A 
ATOM     12  C   UNL A   1      32.174  27.095  24.118  1.00  0.00     0.056 A 
ATOM     13  C   UNL A   1      30.101  28.535  22.907  1.00  0.00     0.004 A 
ATOM     14  C   UNL A   1      30.859  29.109  23.932  1.00  0.00     0.009 A 
BRANCH  10  15
ATOM     15  O   UNL A   1      31.709  25.267  22.563  1.00  0.00    -0.410 OA
BRANCH  15  16
ATOM     16  C   UNL A   1      32.962  25.086  21.995  1.00  0.00     0.412 C 
ATOM     17  N   UNL A   1      33.372  23.781  22.007  1.00  0.00    -0.321 N 
ATOM     18  H   UNL A   1      34.248  23.590  21.599  1.00  0.00     0.167 HD
ATOM     19  O   UNL A   1      33.684  25.969  21.550  1.00  0.00    -0.224 OA
BRANCH  17  20
ATOM     20  C   UNL A   1      32.653  22.647  22.558  1.00  0.00     0.119 C 
BRANCH  20  21
ATOM     21  C   UNL A   1      33.079  22.318  23.988  1.00  0.00     0.021 C 
BRANCH  21  22
ATOM     22  C   UNL A   1      32.386  23.143  25.079  1.00  0.00     0.002 C 
BRANCH  22  23
ATOM     23  C   UNL A   1      31.122  22.523  25.685  1.00  0.00    -0.000 C 
BRANCH  23  24
ATOM     24  C   UNL A   1      30.533  23.262  26.889  1.00  0.00    -0.003 C 
ATOM     25  C   UNL A   1      29.241  22.647  27.402  1.00  0.00     0.004 C 
ENDBRANCH  23  24
ENDBRANCH  22  23
ENDBRANCH  21  22
ENDBRANCH  20  21
ENDBRANCH  17  20
ENDBRANCH  15  16
ENDBRANCH  10  15
ENDBRANCH   4   9
ENDBRANCH   1   3
BRANCH   1  26
ATOM     26  C   UNL A   1      34.604  32.288  29.265  1.00  0.00     0.313 C 
ATOM     27  O   UNL A   1      34.414  32.357  30.476  1.00  0.00    -0.252 OA
BRANCH  26  28
ATOM     28  O   UNL A   1      34.390  33.317  28.403  1.00  0.00    -0.462 OA
BRANCH  28  29
ATOM     29  C   UNL A   1      34.531  34.648  28.935  1.00  0.00     0.274 C 
BRANCH  29  30
ATOM     30  C   UNL A   1      33.220  35.151  29.547  1.00  0.00     0.275 C 
BRANCH  30  31
ATOM     31  O   UNL A   1      33.465  36.001  30.682  1.00  0.00    -0.458 OA
BRANCH  31  32
ATOM     32  C   UNL A   1      33.052  35.488  31.865  1.00  0.00     0.338 C 
ATOM     33  O   UNL A   1      31.906  35.399  32.267  1.00  0.00    -0.246 OA
BRANCH  32  34
ATOM     34  C   UNL A   1      34.195  34.919  32.592  1.00  0.00     0.060 A 
ATOM     35  C   UNL A   1      35.455  35.471  32.360  1.00  0.00     0.016 A 
ATOM     36  C   UNL A   1      34.055  33.783  33.391  1.00  0.00     0.016 A 
ATOM     37  C   UNL A   1      36.592  34.871  32.889  1.00  0.00     0.010 A 
ATOM     38  C   UNL A   1      35.198  33.187  33.936  1.00  0.00     0.010 A 
ATOM     39  C   UNL A   1      36.475  33.711  33.664  1.00  0.00    -0.014 A 
BRANCH  39  40
ATOM     40  C   UNL A   1      37.706  33.002  34.097  1.00  0.00     0.031 A 
ATOM     41  C   UNL A   1      38.249  31.884  33.251  1.00  0.00     0.074 A 
ATOM     42  C   UNL A   1      38.356  33.397  35.207  1.00  0.00     0.049 A 
ATOM     43  N   UNL A   1      39.283  31.110  33.463  1.00  0.00    -0.248 NA
ATOM     44  C   UNL A   1      37.531  31.599  32.000  1.00  0.00     0.031 C 
ATOM     45  C   UNL A   1      37.949  34.504  36.073  1.00  0.00     0.029 A 
ATOM     46  N   UNL A   1      39.500  32.917  35.793  1.00  0.00    -0.354 N 
ATOM     47  C   UNL A   1      39.328  30.233  32.384  1.00  0.00     0.074 A 
ATOM     48  C   UNL A   1      38.204  30.558  31.532  1.00  0.00     0.031 C 
ATOM     49  C   UNL A   1      38.832  34.620  37.079  1.00  0.00     0.029 A 
ATOM     50  C   UNL A   1      39.840  33.570  36.955  1.00  0.00     0.049 A 
ATOM     51  H   UNL A   1      40.027  32.177  35.417  1.00  0.00     0.167 HD
ATOM     52  C   UNL A   1      40.227  29.250  32.129  1.00  0.00     0.034 A 
ATOM     53  C   UNL A   1      40.835  33.330  37.832  1.00  0.00     0.034 A 
ATOM     54  C   UNL A   1      41.345  28.942  32.989  1.00  0.00     0.049 A 
ATOM     55  C   UNL A   1      41.790  32.196  37.553  1.00  0.00     0.074 A 
ATOM     56  C   UNL A   1      42.317  27.969  32.830  1.00  0.00     0.029 A 
ATOM     57  N   UNL A   1      41.638  29.601  34.178  1.00  0.00    -0.354 N 
ATOM     58  N   UNL A   1      41.811  31.362  36.538  1.00  0.00    -0.248 NA
ATOM     59  C   UNL A   1      42.857  31.974  38.537  1.00  0.00     0.031 C 
ATOM     60  C   UNL A   1      43.162  28.003  33.946  1.00  0.00     0.029 A 
ATOM     61  C   UNL A   1      42.759  29.040  34.772  1.00  0.00     0.049 A 
ATOM     62  H   UNL A   1      41.125  30.356  34.545  1.00  0.00     0.167 HD
ATOM     63  C   UNL A   1      42.907  30.532  36.753  1.00  0.00     0.074 A 
ATOM     64  C   UNL A   1      43.532  30.979  37.981  1.00  0.00     0.031 C 
ATOM     65  C   UNL A   1      43.359  29.492  36.006  1.00  0.00     0.034 A 
BRANCH  52  66
ATOM     66  C   UNL A   1      39.995  28.399  30.903  1.00  0.00     0.023 A 
ATOM     67  C   UNL A   1      40.632  28.664  29.677  1.00  0.00     0.031 A 
ATOM     68  C   UNL A   1      39.091  27.323  30.957  1.00  0.00     0.131 A 
ATOM     69  C   UNL A   1      40.310  27.899  28.542  1.00  0.00     0.055 A 
ATOM     70  C   UNL A   1      38.830  26.522  29.844  1.00  0.00     0.041 A 
ATOM     71  F   UNL A   1      38.434  27.039  32.094  1.00  0.00    -0.206 F 
ATOM     72  C   UNL A   1      39.431  26.816  28.625  1.00  0.00     0.022 A 
BRANCH  69  73
ATOM     73  S   UNL A   1      40.967  28.410  26.928  1.00  0.00     0.124 S 
ATOM     74  O   UNL A   1      41.105  27.128  26.243  1.00  0.00    -0.237 OA
ATOM     75  O   UNL A   1      39.921  29.294  26.426  1.00  0.00    -0.237 OA
ATOM     76  O   UNL A   1      42.230  29.066  27.262  1.00  0.00    -0.744 OA
ENDBRANCH  69  73
ENDBRANCH  52  66
BRANCH  53  77
ATOM     77  C   UNL A   1      40.957  34.136  39.079  1.00  0.00     0.023 A 
ATOM     78  C   UNL A   1      40.179  33.851  40.212  1.00  0.00     0.031 A 
ATOM     79  C   UNL A   1      41.814  35.251  39.133  1.00  0.00     0.131 A 
ATOM     80  C   UNL A   1      40.236  34.696  41.331  1.00  0.00     0.055 A 
ATOM     81  C   UNL A   1      41.907  36.057  40.268  1.00  0.00     0.041 A 
ATOM     82  F   UNL A   1      42.580  35.571  38.077  1.00  0.00    -0.206 F 
ATOM     83  C   UNL A   1      41.104  35.790  41.371  1.00  0.00     0.022 A 
BRANCH  80  84
ATOM     84  S   UNL A   1      39.087  34.400  42.704  1.00  0.00     0.124 S 
ATOM     85  O   UNL A   1      39.996  34.015  43.778  1.00  0.00    -0.237 OA
ATOM     86  O   UNL A   1      38.441  35.700  42.844  1.00  0.00    -0.237 OA
ATOM     87  O   UNL A   1      38.227  33.329  42.202  1.00  0.00    -0.744 OA
ENDBRANCH  80  84
ENDBRANCH  53  77
BRANCH  65  88
ATOM     88  C   UNL A   1      44.611  28.803  36.490  1.00  0.00     0.023 A 
ATOM     89  C   UNL A   1      44.564  27.779  37.452  1.00  0.00     0.031 A 
ATOM     90  C   UNL A   1      45.868  29.200  36.003  1.00  0.00     0.131 A 
ATOM     91  C   UNL A   1      45.757  27.228  37.942  1.00  0.00     0.055 A 
ATOM     92  C   UNL A   1      47.049  28.608  36.453  1.00  0.00     0.041 A 
ATOM     93  F   UNL A   1      45.969  30.173  35.084  1.00  0.00    -0.206 F 
ATOM     94  C   UNL A   1      46.999  27.627  37.439  1.00  0.00     0.022 A 
BRANCH  91  95
ATOM     95  S   UNL A   1      45.672  26.045  39.316  1.00  0.00     0.124 S 
ATOM     96  O   UNL A   1      44.464  26.477  40.013  1.00  0.00    -0.237 OA
ATOM     97  O   UNL A   1      45.583  24.766  38.621  1.00  0.00    -0.237 OA
ATOM     98  O   UNL A   1      46.920  26.271  40.042  1.00  0.00    -0.744 OA
ENDBRANCH  91  95
ENDBRANCH  65  88
ENDBRANCH  39  40
ENDBRANCH  32  34
ENDBRANCH  31  32
ENDBRANCH  30  31
ENDBRANCH  29  30
ENDBRANCH  28  29
ENDBRANCH  26  28
ENDBRANCH   1  26
TORSDOF 23
ENDMDL
MODEL 2
REMARK VINA RESULT:      -9.8      6.622     12.232
REMARK SMILES CCCCCCNC(=O)Oc1cccc(-c2ccc([C@@H](C)C(=O)OCCOC(=O)c3ccc(-c4c5nc(c(-c6cc(S(=O)(=O)[O-])ccc6F)c6ccc([nH]6)c(-c6cc(S(=O)(=O)[O-])ccc6F)c6nc(c(-c7cc(S(=O)(=O)[O-])ccc7F)c7ccc4[nH]7)C=C6)C=C5)cc3)cc2)c1
REMARK SMILES IDX 20 1 21 2 19 3 16 4 17 5 94 6 18 7 93 8 15 9 11 10 12 11
REMARK SMILES IDX 95 12 13 13 14 14 10 15 8 16 7 17 9 19 6 20 5 21 4 22 3 23
REMARK SMILES IDX 2 24 1 25 22 26 23 27 24 28 25 29 26 30 27 31 28 32 29 33
REMARK SMILES IDX 30 34 31 35 92 36 32 37 91 38 33 39 34 40 35 41 85 42 36 43
REMARK SMILES IDX 90 44 84 45 86 46 37 47 89 48 83 49 82 50 38 52 70 53 50 54
REMARK SMILES IDX 69 55 51 56 54 57 68 58 87 59 52 60 53 61 67 63 88 64 55 65
REMARK SMILES IDX 39 66 40 67 48 68 41 69 47 70 49 71 46 72 42 73 43 74 44 75
REMARK SMILES IDX 45 76 71 77 72 78 80 79 73 80 79 81 81 82 78 83 74 84 75 85
REMARK SMILES IDX 76 86 77 87 56 88 57 89 65 90 58 91 64 92 66 93 63 94 59 95
REMARK SMILES IDX 60 96 61 97 62 98
REMARK H PARENT 7 18 86 51 54 62
REMARK Flexibility Score: inf
ROOT
ATOM      1  C   UNL A   1      50.717  25.709  28.451  1.00  0.00     0.126 C 
ATOM      2  C   UNL A   1      51.796  25.980  27.404  1.00  0.00     0.025 C 
ENDROOT
BRANCH   1   3
ATOM      3  C   UNL A   1      49.311  25.856  27.886  1.00  0.00    -0.034 A 
ATOM      4  C   UNL A   1      46.680  26.057  26.821  1.00  0.00    -0.018 A 
ATOM      5  C   UNL A   1      47.658  27.020  26.532  1.00  0.00     0.009 A 
ATOM      6  C   UNL A   1      47.039  24.997  27.665  1.00  0.00     0.009 A 
ATOM      7  C   UNL A   1      48.953  26.922  27.052  1.00  0.00     0.005 A 
ATOM      8  C   UNL A   1      48.334  24.895  28.184  1.00  0.00     0.005 A 
BRANCH   4   9
ATOM      9  C   UNL A   1      45.333  26.137  26.229  1.00  0.00    -0.015 A 
ATOM     10  C   UNL A   1      43.400  27.404  25.487  1.00  0.00     0.133 A 
ATOM     11  C   UNL A   1      42.721  26.233  25.158  1.00  0.00     0.047 A 
ATOM     12  C   UNL A   1      44.686  27.368  26.030  1.00  0.00     0.056 A 
ATOM     13  C   UNL A   1      43.348  25.007  25.346  1.00  0.00     0.004 A 
ATOM     14  C   UNL A   1      44.640  24.961  25.877  1.00  0.00     0.009 A 
BRANCH  10  15
ATOM     15  O   UNL A   1      42.680  28.604  25.376  1.00  0.00    -0.410 OA
BRANCH  15  16
ATOM     16  C   UNL A   1      42.635  29.442  26.480  1.00  0.00     0.412 C 
ATOM     17  N   UNL A   1      41.482  29.310  27.206  1.00  0.00    -0.321 N 
ATOM     18  H   UNL A   1      41.403  29.869  28.013  1.00  0.00     0.167 HD
ATOM     19  O   UNL A   1      43.489  30.260  26.798  1.00  0.00    -0.224 OA
BRANCH  17  20
ATOM     20  C   UNL A   1      40.362  28.435  26.912  1.00  0.00     0.119 C 
BRANCH  20  21
ATOM     21  C   UNL A   1      39.973  27.556  28.099  1.00  0.00     0.021 C 
BRANCH  21  22
ATOM     22  C   UNL A   1      40.463  26.105  28.023  1.00  0.00     0.002 C 
BRANCH  22  23
ATOM     23  C   UNL A   1      39.504  25.110  27.359  1.00  0.00    -0.000 C 
BRANCH  23  24
ATOM     24  C   UNL A   1      40.013  23.670  27.251  1.00  0.00    -0.003 C 
ATOM     25  C   UNL A   1      41.312  23.431  28.004  1.00  0.00     0.004 C 
ENDBRANCH  23  24
ENDBRANCH  22  23
ENDBRANCH  21  22
ENDBRANCH  20  21
ENDBRANCH  17  20
ENDBRANCH  15  16
ENDBRANCH  10  15
ENDBRANCH   4   9
ENDBRANCH   1   3
BRANCH   1  26
ATOM     26  C   UNL A   1      51.022  26.503  29.717  1.00  0.00     0.313 C 
ATOM     27  O   UNL A   1      51.138  25.960  30.813  1.00  0.00    -0.252 OA
BRANCH  26  28
ATOM     28  O   UNL A   1      51.215  27.831  29.504  1.00  0.00    -0.462 OA
BRANCH  28  29
ATOM     29  C   UNL A   1      52.398  28.415  30.081  1.00  0.00     0.274 C 
BRANCH  29  30
ATOM     30  C   UNL A   1      53.279  29.070  29.014  1.00  0.00     0.275 C 
BRANCH  30  31
ATOM     31  O   UNL A   1      52.875  30.428  28.763  1.00  0.00    -0.458 OA
BRANCH  31  32
ATOM     32  C   UNL A   1      52.262  30.619  27.571  1.00  0.00     0.338 C 
ATOM     33  O   UNL A   1      52.737  30.442  26.464  1.00  0.00    -0.246 OA
BRANCH  32  34
ATOM     34  C   UNL A   1      50.852  30.972  27.782  1.00  0.00     0.060 A 
ATOM     35  C   UNL A   1      50.506  31.580  28.990  1.00  0.00     0.016 A 
ATOM     36  C   UNL A   1      49.865  30.600  26.868  1.00  0.00     0.016 A 
ATOM     37  C   UNL A   1      49.170  31.785  29.315  1.00  0.00     0.010 A 
ATOM     38  C   UNL A   1      48.520  30.820  27.188  1.00  0.00     0.010 A 
ATOM     39  C   UNL A   1      48.165  31.387  28.425  1.00  0.00    -0.014 A 
BRANCH  39  40
ATOM     40  C   UNL A   1      46.745  31.479  28.850  1.00  0.00     0.031 A 
ATOM     41  C   UNL A   1      46.074  30.273  29.448  1.00  0.00     0.074 A 
ATOM     42  C   UNL A   1      46.085  32.648  28.751  1.00  0.00     0.049 A 
ATOM     43  N   UNL A   1      44.836  30.123  29.846  1.00  0.00    -0.248 NA
ATOM     44  C   UNL A   1      46.909  29.074  29.617  1.00  0.00     0.031 C 
ATOM     45  C   UNL A   1      46.654  33.895  28.237  1.00  0.00     0.029 A 
ATOM     46  N   UNL A   1      44.796  32.980  29.083  1.00  0.00    -0.354 N 
ATOM     47  C   UNL A   1      44.737  28.811  30.295  1.00  0.00     0.074 A 
ATOM     48  C   UNL A   1      46.036  28.201  30.098  1.00  0.00     0.031 C 
ATOM     49  C   UNL A   1      45.717  34.857  28.291  1.00  0.00     0.029 A 
ATOM     50  C   UNL A   1      44.473  34.287  28.799  1.00  0.00     0.049 A 
ATOM     51  H   UNL A   1      44.163  32.344  29.487  1.00  0.00     0.167 HD
ATOM     52  C   UNL A   1      43.663  28.175  30.825  1.00  0.00     0.034 A 
ATOM     53  C   UNL A   1      43.299  34.939  28.913  1.00  0.00     0.034 A 
ATOM     54  C   UNL A   1      42.376  28.801  31.018  1.00  0.00     0.049 A 
ATOM     55  C   UNL A   1      42.103  34.195  29.454  1.00  0.00     0.074 A 
ATOM     56  C   UNL A   1      41.218  28.254  31.545  1.00  0.00     0.029 A 
ATOM     57  N   UNL A   1      42.074  30.116  30.686  1.00  0.00    -0.354 N 
ATOM     58  N   UNL A   1      42.019  32.947  29.858  1.00  0.00    -0.248 NA
ATOM     59  C   UNL A   1      40.847  34.948  29.559  1.00  0.00     0.031 C 
ATOM     60  C   UNL A   1      40.206  29.218  31.479  1.00  0.00     0.029 A 
ATOM     61  C   UNL A   1      40.744  30.389  30.973  1.00  0.00     0.049 A 
ATOM     62  H   UNL A   1      42.711  30.761  30.302  1.00  0.00     0.167 HD
ATOM     63  C   UNL A   1      40.705  32.776  30.284  1.00  0.00     0.074 A 
ATOM     64  C   UNL A   1      40.042  34.052  30.108  1.00  0.00     0.031 C 
ATOM     65  C   UNL A   1      40.098  31.666  30.776  1.00  0.00     0.034 A 
BRANCH  52  66
ATOM     66  C   UNL A   1      43.822  26.713  31.169  1.00  0.00     0.023 A 
ATOM     67  C   UNL A   1      44.055  26.276  32.486  1.00  0.00     0.031 A 
ATOM     68  C   UNL A   1      43.773  25.744  30.152  1.00  0.00     0.131 A 
ATOM     69  C   UNL A   1      44.289  24.913  32.740  1.00  0.00     0.055 A 
ATOM     70  C   UNL A   1      43.935  24.383  30.421  1.00  0.00     0.041 A 
ATOM     71  F   UNL A   1      43.579  26.105  28.873  1.00  0.00    -0.206 F 
ATOM     72  C   UNL A   1      44.207  23.963  31.719  1.00  0.00     0.022 A 
BRANCH  69  73
ATOM     73  S   UNL A   1      44.817  24.410  34.403  1.00  0.00     0.124 S 
ATOM     74  O   UNL A   1      46.058  23.695  34.118  1.00  0.00    -0.237 OA
ATOM     75  O   UNL A   1      44.959  25.689  35.090  1.00  0.00    -0.237 OA
ATOM     76  O   UNL A   1      43.718  23.569  34.873  1.00  0.00    -0.744 OA
ENDBRANCH  69  73
ENDBRANCH  52  66
BRANCH  53  77
ATOM     77  C   UNL A   1      43.171  36.354  28.462  1.00  0.00     0.023 A 
ATOM     78  C   UNL A   1      43.514  37.422  29.304  1.00  0.00     0.031 A 
ATOM     79  C   UNL A   1      42.639  36.658  27.195  1.00  0.00     0.131 A 
ATOM     80  C   UNL A   1      43.278  38.743  28.891  1.00  0.00     0.055 A 
ATOM     81  C   UNL A   1      42.456  37.974  26.768  1.00  0.00     0.041 A 
ATOM     82  F   UNL A   1      42.293  35.674  26.349  1.00  0.00    -0.206 F 
ATOM     83  C   UNL A   1      42.763  39.026  27.624  1.00  0.00     0.022 A 
BRANCH  80  84
ATOM     84  S   UNL A   1      43.566  40.089  30.074  1.00  0.00     0.124 S 
ATOM     85  O   UNL A   1      44.361  41.019  29.280  1.00  0.00    -0.237 OA
ATOM     86  O   UNL A   1      42.206  40.512  30.388  1.00  0.00    -0.237 OA
ATOM     87  O   UNL A   1      44.282  39.433  31.167  1.00  0.00    -0.744 OA
ENDBRANCH  80  84
ENDBRANCH  53  77
BRANCH  65  88
ATOM     88  C   UNL A   1      38.654  31.810  31.190  1.00  0.00     0.023 A 
ATOM     89  C   UNL A   1      38.287  32.506  32.355  1.00  0.00     0.031 A 
ATOM     90  C   UNL A   1      37.637  31.215  30.424  1.00  0.00     0.131 A 
ATOM     91  C   UNL A   1      36.943  32.540  32.753  1.00  0.00     0.055 A 
ATOM     92  C   UNL A   1      36.295  31.300  30.796  1.00  0.00     0.041 A 
ATOM     93  F   UNL A   1      37.932  30.538  29.303  1.00  0.00    -0.206 F 
ATOM     94  C   UNL A   1      35.943  31.952  31.974  1.00  0.00     0.022 A 
BRANCH  91  95
ATOM     95  S   UNL A   1      36.526  33.283  34.355  1.00  0.00     0.124 S 
ATOM     96  O   UNL A   1      37.088  32.316  35.294  1.00  0.00    -0.237 OA
ATOM     97  O   UNL A   1      37.204  34.573  34.287  1.00  0.00    -0.237 OA
ATOM     98  O   UNL A   1      35.066  33.349  34.335  1.00  0.00    -0.744 OA
ENDBRANCH  91  95
ENDBRANCH  65  88
ENDBRANCH  39  40
ENDBRANCH  32  34
ENDBRANCH  31  32
ENDBRANCH  30  31
ENDBRANCH  29  30
ENDBRANCH  28  29
ENDBRANCH  26  28
ENDBRANCH   1  26
TORSDOF 23
ENDMDL
MODEL 3
REMARK VINA RESULT:      -9.6      4.250      9.315
REMARK SMILES CCCCCCNC(=O)Oc1cccc(-c2ccc([C@@H](C)C(=O)OCCOC(=O)c3ccc(-c4c5nc(c(-c6cc(S(=O)(=O)[O-])ccc6F)c6ccc([nH]6)c(-c6cc(S(=O)(=O)[O-])ccc6F)c6nc(c(-c7cc(S(=O)(=O)[O-])ccc7F)c7ccc4[nH]7)C=C6)C=C5)cc3)cc2)c1
REMARK SMILES IDX 20 1 21 2 19 3 16 4 17 5 94 6 18 7 93 8 15 9 11 10 12 11
REMARK SMILES IDX 95 12 13 13 14 14 10 15 8 16 7 17 9 19 6 20 5 21 4 22 3 23
REMARK SMILES IDX 2 24 1 25 22 26 23 27 24 28 25 29 26 30 27 31 28 32 29 33
REMARK SMILES IDX 30 34 31 35 92 36 32 37 91 38 33 39 34 40 35 41 85 42 36 43
REMARK SMILES IDX 90 44 84 45 86 46 37 47 89 48 83 49 82 50 38 52 70 53 50 54
REMARK SMILES IDX 69 55 51 56 54 57 68 58 87 59 52 60 53 61 67 63 88 64 55 65
REMARK SMILES IDX 39 66 40 67 48 68 41 69 47 70 49 71 46 72 42 73 43 74 44 75
REMARK SMILES IDX 45 76 71 77 72 78 80 79 73 80 79 81 81 82 78 83 74 84 75 85
REMARK SMILES IDX 76 86 77 87 56 88 57 89 65 90 58 91 64 92 66 93 63 94 59 95
REMARK SMILES IDX 60 96 61 97 62 98
REMARK H PARENT 7 18 86 51 54 62
REMARK Flexibility Score: inf
ROOT
ATOM      1  C   UNL A   1      36.502  31.311  29.146  1.00  0.00     0.126 C 
ATOM      2  C   UNL A   1      37.207  32.658  29.304  1.00  0.00     0.025 C 
ENDROOT
BRANCH   1   3
ATOM      3  C   UNL A   1      37.478  30.177  28.867  1.00  0.00    -0.034 A 
ATOM      4  C   UNL A   1      39.279  28.054  28.275  1.00  0.00    -0.018 A 
ATOM      5  C   UNL A   1      38.596  28.110  29.499  1.00  0.00     0.009 A 
ATOM      6  C   UNL A   1      39.055  29.089  27.357  1.00  0.00     0.009 A 
ATOM      7  C   UNL A   1      37.708  29.150  29.791  1.00  0.00     0.005 A 
ATOM      8  C   UNL A   1      38.165  30.130  27.645  1.00  0.00     0.005 A 
BRANCH   4   9
ATOM      9  C   UNL A   1      40.174  26.929  27.951  1.00  0.00    -0.015 A 
ATOM     10  C   UNL A   1      42.124  26.005  26.841  1.00  0.00     0.133 A 
ATOM     11  C   UNL A   1      41.817  24.726  27.300  1.00  0.00     0.047 A 
ATOM     12  C   UNL A   1      41.312  27.099  27.145  1.00  0.00     0.056 A 
ATOM     13  C   UNL A   1      40.696  24.542  28.101  1.00  0.00     0.004 A 
ATOM     14  C   UNL A   1      39.883  25.632  28.421  1.00  0.00     0.009 A 
BRANCH  10  15
ATOM     15  O   UNL A   1      43.204  26.114  25.951  1.00  0.00    -0.410 OA
BRANCH  15  16
ATOM     16  C   UNL A   1      43.286  27.250  25.160  1.00  0.00     0.412 C 
ATOM     17  N   UNL A   1      44.559  27.743  25.060  1.00  0.00    -0.321 N 
ATOM     18  H   UNL A   1      44.680  28.540  24.494  1.00  0.00     0.167 HD
ATOM     19  O   UNL A   1      42.347  27.816  24.614  1.00  0.00    -0.224 OA
BRANCH  17  20
ATOM     20  C   UNL A   1      45.750  27.217  25.701  1.00  0.00     0.119 C 
BRANCH  20  21
ATOM     21  C   UNL A   1      46.699  26.536  24.716  1.00  0.00     0.021 C 
BRANCH  21  22
ATOM     22  C   UNL A   1      47.023  25.072  25.032  1.00  0.00     0.002 C 
BRANCH  22  23
ATOM     23  C   UNL A   1      45.832  24.195  25.435  1.00  0.00    -0.000 C 
BRANCH  23  24
ATOM     24  C   UNL A   1      45.171  23.411  24.300  1.00  0.00    -0.003 C 
ATOM     25  C   UNL A   1      43.808  22.848  24.669  1.00  0.00     0.004 C 
ENDBRANCH  23  24
ENDBRANCH  22  23
ENDBRANCH  21  22
ENDBRANCH  20  21
ENDBRANCH  17  20
ENDBRANCH  15  16
ENDBRANCH  10  15
ENDBRANCH   4   9
ENDBRANCH   1   3
BRANCH   1  26
ATOM     26  C   UNL A   1      35.337  31.454  28.172  1.00  0.00     0.313 C 
ATOM     27  O   UNL A   1      34.618  30.505  27.875  1.00  0.00    -0.252 OA
BRANCH  26  28
ATOM     28  O   UNL A   1      35.139  32.724  27.731  1.00  0.00    -0.462 OA
BRANCH  28  29
ATOM     29  C   UNL A   1      33.798  33.241  27.824  1.00  0.00     0.274 C 
BRANCH  29  30
ATOM     30  C   UNL A   1      33.664  34.253  28.965  1.00  0.00     0.275 C 
BRANCH  30  31
ATOM     31  O   UNL A   1      33.913  33.638  30.242  1.00  0.00    -0.458 OA
BRANCH  31  32
ATOM     32  C   UNL A   1      34.073  34.512  31.264  1.00  0.00     0.338 C 
ATOM     33  O   UNL A   1      33.390  35.490  31.507  1.00  0.00    -0.246 OA
BRANCH  32  34
ATOM     34  C   UNL A   1      35.148  34.053  32.154  1.00  0.00     0.060 A 
ATOM     35  C   UNL A   1      36.167  34.956  32.463  1.00  0.00     0.016 A 
ATOM     36  C   UNL A   1      35.224  32.725  32.577  1.00  0.00     0.016 A 
ATOM     37  C   UNL A   1      37.291  34.531  33.162  1.00  0.00     0.010 A 
ATOM     38  C   UNL A   1      36.350  32.301  33.293  1.00  0.00     0.010 A 
ATOM     39  C   UNL A   1      37.402  33.194  33.564  1.00  0.00    -0.014 A 
BRANCH  39  40
ATOM     40  C   UNL A   1      38.670  32.727  34.178  1.00  0.00     0.031 A 
ATOM     41  C   UNL A   1      38.932  33.005  35.633  1.00  0.00     0.074 A 
ATOM     42  C   UNL A   1      39.549  32.012  33.451  1.00  0.00     0.049 A 
ATOM     43  N   UNL A   1      39.986  32.723  36.355  1.00  0.00    -0.248 NA
ATOM     44  C   UNL A   1      37.863  33.695  36.371  1.00  0.00     0.031 C 
ATOM     45  C   UNL A   1      39.373  31.638  32.047  1.00  0.00     0.029 A 
ATOM     46  N   UNL A   1      40.761  31.469  33.792  1.00  0.00    -0.354 N 
ATOM     47  C   UNL A   1      39.718  33.218  37.628  1.00  0.00     0.074 A 
ATOM     48  C   UNL A   1      38.410  33.837  37.570  1.00  0.00     0.031 C 
ATOM     49  C   UNL A   1      40.439  30.923  31.648  1.00  0.00     0.029 A 
ATOM     50  C   UNL A   1      41.391  30.827  32.751  1.00  0.00     0.049 A 
ATOM     51  H   UNL A   1      41.144  31.532  34.697  1.00  0.00     0.167 HD
ATOM     52  C   UNL A   1      40.491  33.157  38.741  1.00  0.00     0.034 A 
ATOM     53  C   UNL A   1      42.608  30.252  32.690  1.00  0.00     0.034 A 
ATOM     54  C   UNL A   1      41.791  32.532  38.780  1.00  0.00     0.049 A 
ATOM     55  C   UNL A   1      43.472  30.245  33.926  1.00  0.00     0.074 A 
ATOM     56  C   UNL A   1      42.662  32.412  39.850  1.00  0.00     0.029 A 
ATOM     57  N   UNL A   1      42.414  31.923  37.697  1.00  0.00    -0.354 N 
ATOM     58  N   UNL A   1      43.214  30.734  35.118  1.00  0.00    -0.248 NA
ATOM     59  C   UNL A   1      44.790  29.607  33.809  1.00  0.00     0.031 C 
ATOM     60  C   UNL A   1      43.829  31.783  39.402  1.00  0.00     0.029 A 
ATOM     61  C   UNL A   1      43.664  31.449  38.067  1.00  0.00     0.049 A 
ATOM     62  H   UNL A   1      42.025  31.839  36.796  1.00  0.00     0.167 HD
ATOM     63  C   UNL A   1      44.330  30.440  35.897  1.00  0.00     0.074 A 
ATOM     64  C   UNL A   1      45.251  29.716  35.046  1.00  0.00     0.031 C 
ATOM     65  C   UNL A   1      44.575  30.741  37.198  1.00  0.00     0.034 A 
BRANCH  52  66
ATOM     66  C   UNL A   1      39.973  33.843  39.982  1.00  0.00     0.023 A 
ATOM     67  C   UNL A   1      39.041  33.231  40.841  1.00  0.00     0.031 A 
ATOM     68  C   UNL A   1      40.396  35.148  40.291  1.00  0.00     0.131 A 
ATOM     69  C   UNL A   1      38.520  33.947  41.933  1.00  0.00     0.055 A 
ATOM     70  C   UNL A   1      39.929  35.827  41.418  1.00  0.00     0.041 A 
ATOM     71  F   UNL A   1      41.265  35.791  39.494  1.00  0.00    -0.206 F 
ATOM     72  C   UNL A   1      38.976  35.232  42.238  1.00  0.00     0.022 A 
BRANCH  69  73
ATOM     73  S   UNL A   1      37.153  33.223  42.882  1.00  0.00     0.124 S 
ATOM     74  O   UNL A   1      36.069  34.163  42.608  1.00  0.00    -0.237 OA
ATOM     75  O   UNL A   1      37.018  31.900  42.285  1.00  0.00    -0.237 OA
ATOM     76  O   UNL A   1      37.643  33.238  44.259  1.00  0.00    -0.744 OA
ENDBRANCH  69  73
ENDBRANCH  52  66
BRANCH  53  77
ATOM     77  C   UNL A   1      43.112  29.680  31.408  1.00  0.00     0.023 A 
ATOM     78  C   UNL A   1      43.650  30.500  30.405  1.00  0.00     0.031 A 
ATOM     79  C   UNL A   1      43.002  28.302  31.145  1.00  0.00     0.131 A 
ATOM     80  C   UNL A   1      44.012  29.946  29.167  1.00  0.00     0.055 A 
ATOM     81  C   UNL A   1      43.413  27.748  29.932  1.00  0.00     0.041 A 
ATOM     82  F   UNL A   1      42.493  27.472  32.069  1.00  0.00    -0.206 F 
ATOM     83  C   UNL A   1      43.909  28.573  28.929  1.00  0.00     0.022 A 
BRANCH  80  84
ATOM     84  S   UNL A   1      44.535  31.061  27.834  1.00  0.00     0.124 S 
ATOM     85  O   UNL A   1      43.754  32.258  28.123  1.00  0.00    -0.237 OA
ATOM     86  O   UNL A   1      45.971  31.159  28.067  1.00  0.00    -0.237 OA
ATOM     87  O   UNL A   1      44.149  30.343  26.620  1.00  0.00    -0.744 OA
ENDBRANCH  80  84
ENDBRANCH  53  77
BRANCH  65  88
ATOM     88  C   UNL A   1      45.878  30.247  37.774  1.00  0.00     0.023 A 
ATOM     89  C   UNL A   1      47.051  31.021  37.719  1.00  0.00     0.031 A 
ATOM     90  C   UNL A   1      45.952  28.970  38.358  1.00  0.00     0.131 A 
ATOM     91  C   UNL A   1      48.261  30.487  38.184  1.00  0.00     0.055 A 
ATOM     92  C   UNL A   1      47.149  28.467  38.870  1.00  0.00     0.041 A 
ATOM     93  F   UNL A   1      44.863  28.189  38.436  1.00  0.00    -0.206 F 
ATOM     94  C   UNL A   1      48.315  29.220  38.772  1.00  0.00     0.022 A 
BRANCH  91  95
ATOM     95  S   UNL A   1      49.787  31.435  37.927  1.00  0.00     0.124 S 
ATOM     96  O   UNL A   1      49.695  32.448  38.974  1.00  0.00    -0.237 OA
ATOM     97  O   UNL A   1      50.819  30.420  38.110  1.00  0.00    -0.237 OA
ATOM     98  O   UNL A   1      49.652  31.941  36.562  1.00  0.00    -0.744 OA
ENDBRANCH  91  95
ENDBRANCH  65  88
ENDBRANCH  39  40
ENDBRANCH  32  34
ENDBRANCH  31  32
ENDBRANCH  30  31
ENDBRANCH  29  30
ENDBRANCH  28  29
ENDBRANCH  26  28
ENDBRANCH   1  26
TORSDOF 23
ENDMDL
