MODEL 1
REMARK VINA RESULT:     -13.1      0.000      0.000
REMARK SMILES Cc1[nH]c2ccccc2c1[C@H](C(=O)OCCOC(=O)c1ccc(-c2c3nc(c(-c4cc(S(=O)(=O)[O-])ccc4F)c4ccc([nH]4)c(-c4cc(S(=O)(=O)[O-])ccc4F)c4nc(c(-c5cc(S(=O)(=O)[O-])ccc5F)c5ccc2[nH]5)C=C4)C=C3)cc1)[NH+]1CCN(C(=O)c2ccco2)CC1
REMARK SMILES IDX 16 1 15 2 14 3 12 4 13 5 11 6 10 7 1 8 2 9 3 10 4 11 9 13
REMARK SMILES IDX 5 14 8 15 6 16 7 17 83 18 84 19 95 20 85 22 94 23 86 24
REMARK SMILES IDX 87 25 88 26 89 27 90 28 93 29 91 30 92 31 17 32 18 33 19 34
REMARK SMILES IDX 20 35 21 36 82 37 22 38 81 39 23 40 24 41 25 42 75 43 26 44
REMARK SMILES IDX 80 45 74 46 76 47 27 48 79 49 73 50 72 51 28 53 60 54 40 55
REMARK SMILES IDX 59 56 41 57 44 58 58 59 77 60 42 61 43 62 57 64 78 65 45 66
REMARK SMILES IDX 29 67 30 68 38 69 31 70 37 71 39 72 36 73 32 74 33 75 34 76
REMARK SMILES IDX 35 77 61 78 62 79 70 80 63 81 69 82 71 83 68 84 64 85 65 86
REMARK SMILES IDX 66 87 67 88 46 89 47 90 55 91 48 92 54 93 56 94 53 95 49 96
REMARK SMILES IDX 50 97 51 98 52 99
REMARK H PARENT 3 12 83 21 76 52 44 63
REMARK Flexibility Score: inf
ROOT
ATOM      1  C   UNL A   1      31.713  29.863  26.351  1.00  0.00     0.275 C 
ENDROOT
BRANCH   1   2
ATOM      2  C   UNL A   1      31.672  28.571  27.183  1.00  0.00     0.274 C 
BRANCH   2   3
ATOM      3  O   UNL A   1      32.487  27.504  26.644  1.00  0.00    -0.457 OA
BRANCH   3   4
ATOM      4  C   UNL A   1      31.818  26.492  26.037  1.00  0.00     0.370 C 
ATOM      5  O   UNL A   1      31.139  25.683  26.667  1.00  0.00    -0.245 OA
BRANCH   4   6
ATOM      6  C   UNL A   1      32.064  26.327  24.530  1.00  0.00     0.328 C 
BRANCH   6   7
ATOM      7  C   UNL A   1      31.763  27.498  23.570  1.00  0.00     0.049 A 
ATOM      8  C   UNL A   1      34.069  28.750  23.159  1.00  0.00     0.065 C 
ATOM      9  C   UNL A   1      32.620  28.458  23.019  1.00  0.00     0.022 A 
ATOM     10  N   UNL A   1      31.880  29.300  22.229  1.00  0.00    -0.358 N 
ATOM     11  C   UNL A   1      30.544  29.075  22.392  1.00  0.00     0.046 A 
ATOM     12  H   UNL A   1      32.262  29.977  21.625  1.00  0.00     0.166 HD
ATOM     13  C   UNL A   1      30.423  27.971  23.233  1.00  0.00     0.009 A 
ATOM     14  C   UNL A   1      29.453  29.790  21.884  1.00  0.00     0.027 A 
ATOM     15  C   UNL A   1      29.112  27.587  23.602  1.00  0.00     0.011 A 
ATOM     16  C   UNL A   1      28.176  29.385  22.268  1.00  0.00     0.002 A 
ATOM     17  C   UNL A   1      28.006  28.300  23.121  1.00  0.00     0.001 A 
ENDBRANCH   6   7
BRANCH   6  18
ATOM     18  N   UNL A   1      33.423  25.764  24.262  1.00  0.00    -0.316 N 
ATOM     19  C   UNL A   1      34.274  25.518  25.427  1.00  0.00     0.285 C 
ATOM     20  C   UNL A   1      33.461  24.610  23.355  1.00  0.00     0.285 C 
ATOM     21  H   UNL A   1      33.836  26.557  23.773  1.00  0.00     0.349 HD
ATOM     22  C   UNL A   1      34.049  24.187  26.157  1.00  0.00     0.181 C 
ATOM     23  C   UNL A   1      33.341  23.190  23.953  1.00  0.00     0.181 C 
ATOM     24  N   UNL A   1      33.868  23.006  25.312  1.00  0.00    -0.325 N 
ATOM     25  C   UNL A   1      33.741  21.784  26.012  1.00  0.00     0.289 C 
ATOM     26  O   UNL A   1      33.818  21.779  27.245  1.00  0.00    -0.265 OA
BRANCH  25  27
ATOM     27  C   UNL A   1      33.521  20.551  25.273  1.00  0.00     0.191 A 
ATOM     28  C   UNL A   1      34.364  19.604  24.716  1.00  0.00     0.056 A 
ATOM     29  O   UNL A   1      32.224  20.121  25.128  1.00  0.00    -0.459 OA
ATOM     30  C   UNL A   1      33.545  18.578  24.182  1.00  0.00     0.043 A 
ATOM     31  C   UNL A   1      32.251  18.943  24.457  1.00  0.00     0.196 A 
ENDBRANCH  25  27
ENDBRANCH   6  18
ENDBRANCH   4   6
ENDBRANCH   3   4
ENDBRANCH   2   3
ENDBRANCH   1   2
BRANCH   1  32
ATOM     32  O   UNL A   1      33.056  30.363  26.196  1.00  0.00    -0.458 OA
BRANCH  32  33
ATOM     33  C   UNL A   1      33.421  31.355  27.045  1.00  0.00     0.338 C 
ATOM     34  O   UNL A   1      32.747  32.317  27.375  1.00  0.00    -0.246 OA
BRANCH  33  35
ATOM     35  C   UNL A   1      34.730  31.060  27.655  1.00  0.00     0.060 A 
ATOM     36  C   UNL A   1      35.010  29.732  28.003  1.00  0.00     0.016 A 
ATOM     37  C   UNL A   1      35.639  32.077  27.946  1.00  0.00     0.016 A 
ATOM     38  C   UNL A   1      36.192  29.419  28.669  1.00  0.00     0.010 A 
ATOM     39  C   UNL A   1      36.821  31.763  28.622  1.00  0.00     0.010 A 
ATOM     40  C   UNL A   1      37.090  30.438  29.008  1.00  0.00    -0.014 A 
BRANCH  40  41
ATOM     41  C   UNL A   1      38.256  30.135  29.870  1.00  0.00     0.031 A 
ATOM     42  C   UNL A   1      39.284  29.150  29.384  1.00  0.00     0.074 A 
ATOM     43  C   UNL A   1      38.397  30.742  31.060  1.00  0.00     0.049 A 
ATOM     44  N   UNL A   1      40.353  28.699  29.988  1.00  0.00    -0.248 NA
ATOM     45  C   UNL A   1      39.069  28.595  28.039  1.00  0.00     0.031 C 
ATOM     46  C   UNL A   1      37.476  31.737  31.612  1.00  0.00     0.029 A 
ATOM     47  N   UNL A   1      39.363  30.606  32.024  1.00  0.00    -0.354 N 
ATOM     48  C   UNL A   1      40.938  27.802  29.101  1.00  0.00     0.074 A 
ATOM     49  C   UNL A   1      40.081  27.747  27.934  1.00  0.00     0.031 C 
ATOM     50  C   UNL A   1      37.921  32.116  32.823  1.00  0.00     0.029 A 
ATOM     51  C   UNL A   1      39.133  31.366  33.146  1.00  0.00     0.049 A 
ATOM     52  H   UNL A   1      40.147  30.020  31.921  1.00  0.00     0.167 HD
ATOM     53  C   UNL A   1      42.089  27.098  29.243  1.00  0.00     0.034 A 
ATOM     54  C   UNL A   1      39.811  31.427  34.308  1.00  0.00     0.034 A 
ATOM     55  C   UNL A   1      42.918  27.155  30.423  1.00  0.00     0.049 A 
ATOM     56  C   UNL A   1      41.052  30.583  34.472  1.00  0.00     0.074 A 
ATOM     57  C   UNL A   1      44.106  26.492  30.677  1.00  0.00     0.029 A 
ATOM     58  N   UNL A   1      42.641  27.914  31.555  1.00  0.00    -0.354 N 
ATOM     59  N   UNL A   1      41.602  29.745  33.623  1.00  0.00    -0.248 NA
ATOM     60  C   UNL A   1      41.768  30.706  35.747  1.00  0.00     0.031 C 
ATOM     61  C   UNL A   1      44.508  26.795  31.984  1.00  0.00     0.029 A 
ATOM     62  C   UNL A   1      43.618  27.713  32.519  1.00  0.00     0.049 A 
ATOM     63  H   UNL A   1      41.863  28.509  31.657  1.00  0.00     0.167 HD
ATOM     64  C   UNL A   1      42.748  29.265  34.253  1.00  0.00     0.074 A 
ATOM     65  C   UNL A   1      42.817  29.923  35.541  1.00  0.00     0.031 C 
ATOM     66  C   UNL A   1      43.663  28.365  33.807  1.00  0.00     0.034 A 
BRANCH  53  67
ATOM     67  C   UNL A   1      42.476  26.171  28.116  1.00  0.00     0.023 A 
ATOM     68  C   UNL A   1      41.888  24.902  27.964  1.00  0.00     0.031 A 
ATOM     69  C   UNL A   1      43.474  26.544  27.199  1.00  0.00     0.131 A 
ATOM     70  C   UNL A   1      42.352  24.027  26.968  1.00  0.00     0.055 A 
ATOM     71  C   UNL A   1      43.877  25.701  26.161  1.00  0.00     0.041 A 
ATOM     72  F   UNL A   1      44.091  27.733  27.306  1.00  0.00    -0.206 F 
ATOM     73  C   UNL A   1      43.326  24.429  26.050  1.00  0.00     0.022 A 
BRANCH  70  74
ATOM     74  S   UNL A   1      41.770  22.309  26.979  1.00  0.00     0.124 S 
ATOM     75  O   UNL A   1      42.066  21.888  25.611  1.00  0.00    -0.237 OA
ATOM     76  O   UNL A   1      42.586  21.706  28.025  1.00  0.00    -0.237 OA
ATOM     77  O   UNL A   1      40.347  22.430  27.290  1.00  0.00    -0.744 OA
ENDBRANCH  70  74
ENDBRANCH  53  67
BRANCH  54  78
ATOM     78  C   UNL A   1      39.326  32.293  35.422  1.00  0.00     0.023 A 
ATOM     79  C   UNL A   1      39.775  33.616  35.560  1.00  0.00     0.031 A 
ATOM     80  C   UNL A   1      38.443  31.791  36.393  1.00  0.00     0.131 A 
ATOM     81  C   UNL A   1      39.378  34.376  36.670  1.00  0.00     0.055 A 
ATOM     82  C   UNL A   1      38.009  32.570  37.469  1.00  0.00     0.041 A 
ATOM     83  F   UNL A   1      37.980  30.534  36.307  1.00  0.00    -0.206 F 
ATOM     84  C   UNL A   1      38.488  33.867  37.619  1.00  0.00     0.022 A 
BRANCH  81  85
ATOM     85  S   UNL A   1      40.106  36.022  36.901  1.00  0.00     0.124 S 
ATOM     86  O   UNL A   1      39.761  36.678  35.647  1.00  0.00    -0.237 OA
ATOM     87  O   UNL A   1      39.405  36.497  38.089  1.00  0.00    -0.237 OA
ATOM     88  O   UNL A   1      41.527  35.740  37.091  1.00  0.00    -0.744 OA
ENDBRANCH  81  85
ENDBRANCH  54  78
BRANCH  66  89
ATOM     89  C   UNL A   1      44.839  28.083  34.714  1.00  0.00     0.023 A 
ATOM     90  C   UNL A   1      44.798  27.070  35.688  1.00  0.00     0.031 A 
ATOM     91  C   UNL A   1      46.004  28.867  34.626  1.00  0.00     0.131 A 
ATOM     92  C   UNL A   1      45.869  26.915  36.583  1.00  0.00     0.055 A 
ATOM     93  C   UNL A   1      47.094  28.663  35.473  1.00  0.00     0.041 A 
ATOM     94  F   UNL A   1      46.099  29.850  33.717  1.00  0.00    -0.206 F 
ATOM     95  C   UNL A   1      47.022  27.695  36.470  1.00  0.00     0.022 A 
BRANCH  92  96
ATOM     96  S   UNL A   1      45.682  25.764  37.972  1.00  0.00     0.124 S 
ATOM     97  O   UNL A   1      46.360  26.477  39.050  1.00  0.00    -0.237 OA
ATOM     98  O   UNL A   1      44.232  25.654  38.093  1.00  0.00    -0.237 OA
ATOM     99  O   UNL A   1      46.359  24.554  37.507  1.00  0.00    -0.744 OA
ENDBRANCH  92  96
ENDBRANCH  66  89
ENDBRANCH  40  41
ENDBRANCH  33  35
ENDBRANCH  32  33
ENDBRANCH   1  32
TORSDOF 17
ENDMDL
MODEL 2
REMARK VINA RESULT:     -13.1      4.993     10.223
REMARK SMILES Cc1[nH]c2ccccc2c1[C@H](C(=O)OCCOC(=O)c1ccc(-c2c3nc(c(-c4cc(S(=O)(=O)[O-])ccc4F)c4ccc([nH]4)c(-c4cc(S(=O)(=O)[O-])ccc4F)c4nc(c(-c5cc(S(=O)(=O)[O-])ccc5F)c5ccc2[nH]5)C=C4)C=C3)cc1)[NH+]1CCN(C(=O)c2ccco2)CC1
REMARK SMILES IDX 16 1 15 2 14 3 12 4 13 5 11 6 10 7 1 8 2 9 3 10 4 11 9 13
REMARK SMILES IDX 5 14 8 15 6 16 7 17 83 18 84 19 95 20 85 22 94 23 86 24
REMARK SMILES IDX 87 25 88 26 89 27 90 28 93 29 91 30 92 31 17 32 18 33 19 34
REMARK SMILES IDX 20 35 21 36 82 37 22 38 81 39 23 40 24 41 25 42 75 43 26 44
REMARK SMILES IDX 80 45 74 46 76 47 27 48 79 49 73 50 72 51 28 53 60 54 40 55
REMARK SMILES IDX 59 56 41 57 44 58 58 59 77 60 42 61 43 62 57 64 78 65 45 66
REMARK SMILES IDX 29 67 30 68 38 69 31 70 37 71 39 72 36 73 32 74 33 75 34 76
REMARK SMILES IDX 35 77 61 78 62 79 70 80 63 81 69 82 71 83 68 84 64 85 65 86
REMARK SMILES IDX 66 87 67 88 46 89 47 90 55 91 48 92 54 93 56 94 53 95 49 96
REMARK SMILES IDX 50 97 51 98 52 99
REMARK H PARENT 3 12 83 21 76 52 44 63
REMARK Flexibility Score: inf
ROOT
ATOM      1  C   UNL A   1      37.017  21.362  24.352  1.00  0.00     0.275 C 
ENDROOT
BRANCH   1   2
ATOM      2  C   UNL A   1      36.605  22.606  23.548  1.00  0.00     0.274 C 
BRANCH   2   3
ATOM      3  O   UNL A   1      35.747  23.514  24.277  1.00  0.00    -0.457 OA
BRANCH   3   4
ATOM      4  C   UNL A   1      34.534  23.761  23.722  1.00  0.00     0.370 C 
ATOM      5  O   UNL A   1      34.411  24.338  22.643  1.00  0.00    -0.245 OA
BRANCH   4   6
ATOM      6  C   UNL A   1      33.312  23.403  24.582  1.00  0.00     0.328 C 
BRANCH   6   7
ATOM      7  C   UNL A   1      33.198  21.995  25.205  1.00  0.00     0.049 A 
ATOM      8  C   UNL A   1      34.287  22.148  27.622  1.00  0.00     0.065 C 
ATOM      9  C   UNL A   1      33.595  21.529  26.464  1.00  0.00     0.022 A 
ATOM     10  N   UNL A   1      33.289  20.195  26.551  1.00  0.00    -0.358 N 
ATOM     11  C   UNL A   1      32.898  19.704  25.339  1.00  0.00     0.046 A 
ATOM     12  H   UNL A   1      33.344  19.664  27.377  1.00  0.00     0.166 HD
ATOM     13  C   UNL A   1      32.843  20.787  24.465  1.00  0.00     0.009 A 
ATOM     14  C   UNL A   1      32.629  18.383  24.961  1.00  0.00     0.027 A 
ATOM     15  C   UNL A   1      32.520  20.507  23.116  1.00  0.00     0.011 A 
ATOM     16  C   UNL A   1      32.315  18.143  23.624  1.00  0.00     0.002 A 
ATOM     17  C   UNL A   1      32.266  19.189  22.711  1.00  0.00     0.001 A 
ENDBRANCH   6   7
BRANCH   6  18
ATOM     18  N   UNL A   1      33.046  24.456  25.609  1.00  0.00    -0.316 N 
ATOM     19  C   UNL A   1      34.036  25.527  25.724  1.00  0.00     0.285 C 
ATOM     20  C   UNL A   1      31.689  25.019  25.601  1.00  0.00     0.285 C 
ATOM     21  H   UNL A   1      33.142  23.891  26.453  1.00  0.00     0.349 HD
ATOM     22  C   UNL A   1      33.888  26.691  24.735  1.00  0.00     0.181 C 
ATOM     23  C   UNL A   1      31.405  26.258  24.721  1.00  0.00     0.181 C 
ATOM     24  N   UNL A   1      32.527  27.181  24.508  1.00  0.00    -0.325 N 
ATOM     25  C   UNL A   1      32.430  28.303  23.653  1.00  0.00     0.289 C 
ATOM     26  O   UNL A   1      33.460  28.804  23.190  1.00  0.00    -0.265 OA
BRANCH  25  27
ATOM     27  C   UNL A   1      31.122  28.851  23.330  1.00  0.00     0.191 A 
ATOM     28  C   UNL A   1      30.271  29.739  23.967  1.00  0.00     0.056 A 
ATOM     29  O   UNL A   1      30.585  28.531  22.107  1.00  0.00    -0.459 OA
ATOM     30  C   UNL A   1      29.159  29.938  23.111  1.00  0.00     0.043 A 
ATOM     31  C   UNL A   1      29.398  29.178  21.994  1.00  0.00     0.196 A 
ENDBRANCH  25  27
ENDBRANCH   6  18
ENDBRANCH   4   6
ENDBRANCH   3   4
ENDBRANCH   2   3
ENDBRANCH   1   2
BRANCH   1  32
ATOM     32  O   UNL A   1      37.393  21.693  25.704  1.00  0.00    -0.458 OA
BRANCH  32  33
ATOM     33  C   UNL A   1      38.687  21.461  26.033  1.00  0.00     0.338 C 
ATOM     34  O   UNL A   1      39.319  20.437  25.831  1.00  0.00    -0.246 OA
BRANCH  33  35
ATOM     35  C   UNL A   1      39.314  22.684  26.564  1.00  0.00     0.060 A 
ATOM     36  C   UNL A   1      38.832  23.921  26.113  1.00  0.00     0.016 A 
ATOM     37  C   UNL A   1      40.403  22.621  27.435  1.00  0.00     0.016 A 
ATOM     38  C   UNL A   1      39.455  25.101  26.512  1.00  0.00     0.010 A 
ATOM     39  C   UNL A   1      41.032  23.805  27.827  1.00  0.00     0.010 A 
ATOM     40  C   UNL A   1      40.577  25.047  27.348  1.00  0.00    -0.014 A 
BRANCH  40  41
ATOM     41  C   UNL A   1      41.347  26.281  27.627  1.00  0.00     0.031 A 
ATOM     42  C   UNL A   1      40.680  27.400  28.379  1.00  0.00     0.074 A 
ATOM     43  C   UNL A   1      42.624  26.390  27.225  1.00  0.00     0.049 A 
ATOM     44  N   UNL A   1      41.143  28.583  28.690  1.00  0.00    -0.248 NA
ATOM     45  C   UNL A   1      39.303  27.150  28.832  1.00  0.00     0.031 C 
ATOM     46  C   UNL A   1      43.377  25.353  26.518  1.00  0.00     0.029 A 
ATOM     47  N   UNL A   1      43.513  27.427  27.346  1.00  0.00    -0.354 N 
ATOM     48  C   UNL A   1      40.113  29.224  29.372  1.00  0.00     0.074 A 
ATOM     49  C   UNL A   1      38.990  28.309  29.392  1.00  0.00     0.031 C 
ATOM     50  C   UNL A   1      44.613  25.812  26.262  1.00  0.00     0.029 A 
ATOM     51  C   UNL A   1      44.728  27.184  26.753  1.00  0.00     0.049 A 
ATOM     52  H   UNL A   1      43.301  28.267  27.815  1.00  0.00     0.167 HD
ATOM     53  C   UNL A   1      40.110  30.457  29.936  1.00  0.00     0.034 A 
ATOM     54  C   UNL A   1      45.800  27.987  26.603  1.00  0.00     0.034 A 
ATOM     55  C   UNL A   1      41.235  31.360  29.888  1.00  0.00     0.049 A 
ATOM     56  C   UNL A   1      45.750  29.381  27.179  1.00  0.00     0.074 A 
ATOM     57  C   UNL A   1      41.349  32.629  30.427  1.00  0.00     0.029 A 
ATOM     58  N   UNL A   1      42.444  31.092  29.253  1.00  0.00    -0.354 N 
ATOM     59  N   UNL A   1      44.774  29.975  27.829  1.00  0.00    -0.248 NA
ATOM     60  C   UNL A   1      46.951  30.207  27.011  1.00  0.00     0.031 C 
ATOM     61  C   UNL A   1      42.594  33.154  30.060  1.00  0.00     0.029 A 
ATOM     62  C   UNL A   1      43.294  32.182  29.362  1.00  0.00     0.049 A 
ATOM     63  H   UNL A   1      42.663  30.250  28.793  1.00  0.00     0.167 HD
ATOM     64  C   UNL A   1      45.260  31.234  28.175  1.00  0.00     0.074 A 
ATOM     65  C   UNL A   1      46.619  31.302  27.677  1.00  0.00     0.031 C 
ATOM     66  C   UNL A   1      44.642  32.241  28.845  1.00  0.00     0.034 A 
BRANCH  53  67
ATOM     67  C   UNL A   1      38.831  30.911  30.599  1.00  0.00     0.023 A 
ATOM     68  C   UNL A   1      37.826  31.590  29.887  1.00  0.00     0.031 A 
ATOM     69  C   UNL A   1      38.627  30.694  31.974  1.00  0.00     0.131 A 
ATOM     70  C   UNL A   1      36.702  32.090  30.562  1.00  0.00     0.055 A 
ATOM     71  C   UNL A   1      37.470  31.124  32.625  1.00  0.00     0.041 A 
ATOM     72  F   UNL A   1      39.561  30.073  32.713  1.00  0.00    -0.206 F 
ATOM     73  C   UNL A   1      36.505  31.839  31.923  1.00  0.00     0.022 A 
BRANCH  70  74
ATOM     74  S   UNL A   1      35.571  33.194  29.671  1.00  0.00     0.124 S 
ATOM     75  O   UNL A   1      35.259  34.188  30.697  1.00  0.00    -0.237 OA
ATOM     76  O   UNL A   1      36.393  33.658  28.561  1.00  0.00    -0.237 OA
ATOM     77  O   UNL A   1      34.458  32.321  29.302  1.00  0.00    -0.744 OA
ENDBRANCH  70  74
ENDBRANCH  53  67
BRANCH  54  78
ATOM     78  C   UNL A   1      47.001  27.514  25.856  1.00  0.00     0.023 A 
ATOM     79  C   UNL A   1      47.202  27.861  24.511  1.00  0.00     0.031 A 
ATOM     80  C   UNL A   1      47.941  26.665  26.466  1.00  0.00     0.131 A 
ATOM     81  C   UNL A   1      48.289  27.323  23.806  1.00  0.00     0.055 A 
ATOM     82  C   UNL A   1      49.050  26.174  25.774  1.00  0.00     0.041 A 
ATOM     83  F   UNL A   1      47.799  26.305  27.751  1.00  0.00    -0.206 F 
ATOM     84  C   UNL A   1      49.221  26.492  24.431  1.00  0.00     0.022 A 
BRANCH  81  85
ATOM     85  S   UNL A   1      48.425  27.663  22.028  1.00  0.00     0.124 S 
ATOM     86  O   UNL A   1      49.595  28.530  21.980  1.00  0.00    -0.237 OA
ATOM     87  O   UNL A   1      48.594  26.323  21.477  1.00  0.00    -0.237 OA
ATOM     88  O   UNL A   1      47.153  28.309  21.708  1.00  0.00    -0.744 OA
ENDBRANCH  81  85
ENDBRANCH  54  78
BRANCH  66  89
ATOM     89  C   UNL A   1      45.460  33.484  29.113  1.00  0.00     0.023 A 
ATOM     90  C   UNL A   1      45.469  34.571  28.222  1.00  0.00     0.031 A 
ATOM     91  C   UNL A   1      46.272  33.563  30.258  1.00  0.00     0.131 A 
ATOM     92  C   UNL A   1      46.328  35.658  28.452  1.00  0.00     0.055 A 
ATOM     93  C   UNL A   1      47.072  34.677  30.518  1.00  0.00     0.041 A 
ATOM     94  F   UNL A   1      46.306  32.554  31.143  1.00  0.00    -0.206 F 
ATOM     95  C   UNL A   1      47.117  35.724  29.603  1.00  0.00     0.022 A 
BRANCH  92  96
ATOM     96  S   UNL A   1      46.491  36.926  27.165  1.00  0.00     0.124 S 
ATOM     97  O   UNL A   1      47.558  37.765  27.699  1.00  0.00    -0.237 OA
ATOM     98  O   UNL A   1      46.831  36.134  25.988  1.00  0.00    -0.237 OA
ATOM     99  O   UNL A   1      45.169  37.550  27.131  1.00  0.00    -0.744 OA
ENDBRANCH  92  96
ENDBRANCH  66  89
ENDBRANCH  40  41
ENDBRANCH  33  35
ENDBRANCH  32  33
ENDBRANCH   1  32
TORSDOF 17
ENDMDL
MODEL 3
REMARK VINA RESULT:     -12.9      2.006      2.236
REMARK SMILES Cc1[nH]c2ccccc2c1[C@H](C(=O)OCCOC(=O)c1ccc(-c2c3nc(c(-c4cc(S(=O)(=O)[O-])ccc4F)c4ccc([nH]4)c(-c4cc(S(=O)(=O)[O-])ccc4F)c4nc(c(-c5cc(S(=O)(=O)[O-])ccc5F)c5ccc2[nH]5)C=C4)C=C3)cc1)[NH+]1CCN(C(=O)c2ccco2)CC1
REMARK SMILES IDX 16 1 15 2 14 3 12 4 13 5 11 6 10 7 1 8 2 9 3 10 4 11 9 13
REMARK SMILES IDX 5 14 8 15 6 16 7 17 83 18 84 19 95 20 85 22 94 23 86 24
REMARK SMILES IDX 87 25 88 26 89 27 90 28 93 29 91 30 92 31 17 32 18 33 19 34
REMARK SMILES IDX 20 35 21 36 82 37 22 38 81 39 23 40 24 41 25 42 75 43 26 44
REMARK SMILES IDX 80 45 74 46 76 47 27 48 79 49 73 50 72 51 28 53 60 54 40 55
REMARK SMILES IDX 59 56 41 57 44 58 58 59 77 60 42 61 43 62 57 64 78 65 45 66
REMARK SMILES IDX 29 67 30 68 38 69 31 70 37 71 39 72 36 73 32 74 33 75 34 76
REMARK SMILES IDX 35 77 61 78 62 79 70 80 63 81 69 82 71 83 68 84 64 85 65 86
REMARK SMILES IDX 66 87 67 88 46 89 47 90 55 91 48 92 54 93 56 94 53 95 49 96
REMARK SMILES IDX 50 97 51 98 52 99
REMARK H PARENT 3 12 83 21 76 52 44 63
REMARK Flexibility Score: inf
ROOT
ATOM      1  C   UNL A   1      31.816  29.848  26.859  1.00  0.00     0.275 C 
ENDROOT
BRANCH   1   2
ATOM      2  C   UNL A   1      31.745  28.419  27.421  1.00  0.00     0.274 C 
BRANCH   2   3
ATOM      3  O   UNL A   1      32.552  27.465  26.693  1.00  0.00    -0.457 OA
BRANCH   3   4
ATOM      4  C   UNL A   1      31.878  26.459  26.081  1.00  0.00     0.370 C 
ATOM      5  O   UNL A   1      31.197  25.649  26.707  1.00  0.00    -0.245 OA
BRANCH   4   6
ATOM      6  C   UNL A   1      32.121  26.303  24.572  1.00  0.00     0.328 C 
BRANCH   6   7
ATOM      7  C   UNL A   1      31.827  27.484  23.621  1.00  0.00     0.049 A 
ATOM      8  C   UNL A   1      34.135  28.741  23.241  1.00  0.00     0.065 C 
ATOM      9  C   UNL A   1      32.688  28.449  23.086  1.00  0.00     0.022 A 
ATOM     10  N   UNL A   1      31.954  29.298  22.298  1.00  0.00    -0.358 N 
ATOM     11  C   UNL A   1      30.616  29.070  22.448  1.00  0.00     0.046 A 
ATOM     12  H   UNL A   1      32.340  29.981  21.704  1.00  0.00     0.166 HD
ATOM     13  C   UNL A   1      30.489  27.958  23.278  1.00  0.00     0.009 A 
ATOM     14  C   UNL A   1      29.530  29.790  21.938  1.00  0.00     0.027 A 
ATOM     15  C   UNL A   1      29.175  27.570  23.632  1.00  0.00     0.011 A 
ATOM     16  C   UNL A   1      28.250  29.380  22.308  1.00  0.00     0.002 A 
ATOM     17  C   UNL A   1      28.073  28.288  23.149  1.00  0.00     0.001 A 
ENDBRANCH   6   7
BRANCH   6  18
ATOM     18  N   UNL A   1      33.475  25.732  24.299  1.00  0.00    -0.316 N 
ATOM     19  C   UNL A   1      34.329  25.481  25.459  1.00  0.00     0.285 C 
ATOM     20  C   UNL A   1      33.503  24.579  23.390  1.00  0.00     0.285 C 
ATOM     21  H   UNL A   1      33.892  26.524  23.808  1.00  0.00     0.349 HD
ATOM     22  C   UNL A   1      34.100  24.151  26.190  1.00  0.00     0.181 C 
ATOM     23  C   UNL A   1      33.377  23.159  23.988  1.00  0.00     0.181 C 
ATOM     24  N   UNL A   1      33.908  22.971  25.345  1.00  0.00    -0.325 N 
ATOM     25  C   UNL A   1      33.777  21.749  26.045  1.00  0.00     0.289 C 
ATOM     26  O   UNL A   1      33.859  21.743  27.277  1.00  0.00    -0.265 OA
BRANCH  25  27
ATOM     27  C   UNL A   1      33.547  20.518  25.306  1.00  0.00     0.191 A 
ATOM     28  C   UNL A   1      34.382  19.570  24.739  1.00  0.00     0.056 A 
ATOM     29  O   UNL A   1      32.247  20.093  25.171  1.00  0.00    -0.459 OA
ATOM     30  C   UNL A   1      33.555  18.547  24.211  1.00  0.00     0.043 A 
ATOM     31  C   UNL A   1      32.264  18.916  24.498  1.00  0.00     0.196 A 
ENDBRANCH  25  27
ENDBRANCH   6  18
ENDBRANCH   4   6
ENDBRANCH   3   4
ENDBRANCH   2   3
ENDBRANCH   1   2
BRANCH   1  32
ATOM     32  O   UNL A   1      33.167  30.235  26.538  1.00  0.00    -0.458 OA
BRANCH  32  33
ATOM     33  C   UNL A   1      33.677  31.262  27.261  1.00  0.00     0.338 C 
ATOM     34  O   UNL A   1      33.096  32.284  27.588  1.00  0.00    -0.246 OA
BRANCH  33  35
ATOM     35  C   UNL A   1      35.031  30.935  27.744  1.00  0.00     0.060 A 
ATOM     36  C   UNL A   1      35.326  29.592  28.017  1.00  0.00     0.016 A 
ATOM     37  C   UNL A   1      35.973  31.934  27.992  1.00  0.00     0.016 A 
ATOM     38  C   UNL A   1      36.558  29.246  28.566  1.00  0.00     0.010 A 
ATOM     39  C   UNL A   1      37.206  31.586  28.550  1.00  0.00     0.010 A 
ATOM     40  C   UNL A   1      37.493  30.245  28.862  1.00  0.00    -0.014 A 
BRANCH  40  41
ATOM     41  C   UNL A   1      38.727  29.901  29.607  1.00  0.00     0.031 A 
ATOM     42  C   UNL A   1      39.681  28.902  29.013  1.00  0.00     0.074 A 
ATOM     43  C   UNL A   1      38.990  30.484  30.789  1.00  0.00     0.049 A 
ATOM     44  N   UNL A   1      40.790  28.417  29.509  1.00  0.00    -0.248 NA
ATOM     45  C   UNL A   1      39.330  28.376  27.685  1.00  0.00     0.031 C 
ATOM     46  C   UNL A   1      38.149  31.489  31.439  1.00  0.00     0.029 A 
ATOM     47  N   UNL A   1      40.038  30.310  31.657  1.00  0.00    -0.354 N 
ATOM     48  C   UNL A   1      41.270  27.523  28.556  1.00  0.00     0.074 A 
ATOM     49  C   UNL A   1      40.307  27.508  27.474  1.00  0.00     0.031 C 
ATOM     50  C   UNL A   1      38.712  31.836  32.609  1.00  0.00     0.029 A 
ATOM     51  C   UNL A   1      39.930  31.054  32.806  1.00  0.00     0.049 A 
ATOM     52  H   UNL A   1      40.795  29.708  31.472  1.00  0.00     0.167 HD
ATOM     53  C   UNL A   1      42.412  26.792  28.580  1.00  0.00     0.034 A 
ATOM     54  C   UNL A   1      40.715  31.080  33.902  1.00  0.00     0.034 A 
ATOM     55  C   UNL A   1      43.348  26.810  29.679  1.00  0.00     0.049 A 
ATOM     56  C   UNL A   1      41.945  30.206  33.937  1.00  0.00     0.074 A 
ATOM     57  C   UNL A   1      44.538  26.116  29.812  1.00  0.00     0.029 A 
ATOM     58  N   UNL A   1      43.194  27.555  30.844  1.00  0.00    -0.354 N 
ATOM     59  N   UNL A   1      42.394  29.370  33.028  1.00  0.00    -0.248 NA
ATOM     60  C   UNL A   1      42.779  30.290  35.142  1.00  0.00     0.031 C 
ATOM     61  C   UNL A   1      45.066  26.387  31.080  1.00  0.00     0.029 A 
ATOM     62  C   UNL A   1      44.251  27.315  31.709  1.00  0.00     0.049 A 
ATOM     63  H   UNL A   1      42.444  28.165  31.027  1.00  0.00     0.167 HD
ATOM     64  C   UNL A   1      43.582  28.854  33.540  1.00  0.00     0.074 A 
ATOM     65  C   UNL A   1      43.785  29.489  34.827  1.00  0.00     0.031 C 
ATOM     66  C   UNL A   1      44.430  27.942  32.998  1.00  0.00     0.034 A 
BRANCH  53  67
ATOM     67  C   UNL A   1      42.671  25.876  27.408  1.00  0.00     0.023 A 
ATOM     68  C   UNL A   1      42.149  24.571  27.356  1.00  0.00     0.031 A 
ATOM     69  C   UNL A   1      43.483  26.300  26.341  1.00  0.00     0.131 A 
ATOM     70  C   UNL A   1      42.502  23.715  26.301  1.00  0.00     0.055 A 
ATOM     71  C   UNL A   1      43.767  25.471  25.254  1.00  0.00     0.041 A 
ATOM     72  F   UNL A   1      44.031  27.526  26.345  1.00  0.00    -0.206 F 
ATOM     73  C   UNL A   1      43.287  24.165  25.237  1.00  0.00     0.022 A 
BRANCH  70  74
ATOM     74  S   UNL A   1      42.040  21.964  26.409  1.00  0.00     0.124 S 
ATOM     75  O   UNL A   1      42.845  21.379  25.339  1.00  0.00    -0.237 OA
ATOM     76  O   UNL A   1      42.435  21.617  27.769  1.00  0.00    -0.237 OA
ATOM     77  O   UNL A   1      40.600  21.972  26.160  1.00  0.00    -0.744 OA
ENDBRANCH  70  74
ENDBRANCH  53  67
BRANCH  54  78
ATOM     78  C   UNL A   1      40.356  31.937  35.069  1.00  0.00     0.023 A 
ATOM     79  C   UNL A   1      39.393  31.524  36.003  1.00  0.00     0.031 A 
ATOM     80  C   UNL A   1      40.937  33.206  35.237  1.00  0.00     0.131 A 
ATOM     81  C   UNL A   1      39.005  32.391  37.036  1.00  0.00     0.055 A 
ATOM     82  C   UNL A   1      40.585  34.044  36.297  1.00  0.00     0.041 A 
ATOM     83  F   UNL A   1      41.865  33.649  34.375  1.00  0.00    -0.206 F 
ATOM     84  C   UNL A   1      39.603  33.643  37.197  1.00  0.00     0.022 A 
BRANCH  81  85
ATOM     85  S   UNL A   1      37.644  31.888  38.125  1.00  0.00     0.124 S 
ATOM     86  O   UNL A   1      36.615  32.863  37.785  1.00  0.00    -0.237 OA
ATOM     87  O   UNL A   1      37.399  30.517  37.689  1.00  0.00    -0.237 OA
ATOM     88  O   UNL A   1      38.214  32.021  39.464  1.00  0.00    -0.744 OA
ENDBRANCH  81  85
ENDBRANCH  54  78
BRANCH  66  89
ATOM     89  C   UNL A   1      45.678  27.619  33.787  1.00  0.00     0.023 A 
ATOM     90  C   UNL A   1      46.874  28.336  33.609  1.00  0.00     0.031 A 
ATOM     91  C   UNL A   1      45.680  26.551  34.703  1.00  0.00     0.131 A 
ATOM     92  C   UNL A   1      48.040  27.932  34.280  1.00  0.00     0.055 A 
ATOM     93  C   UNL A   1      46.824  26.197  35.419  1.00  0.00     0.041 A 
ATOM     94  F   UNL A   1      44.567  25.829  34.912  1.00  0.00    -0.206 F 
ATOM     95  C   UNL A   1      48.017  26.878  35.195  1.00  0.00     0.022 A 
BRANCH  92  96
ATOM     96  S   UNL A   1      49.612  28.726  33.846  1.00  0.00     0.124 S 
ATOM     97  O   UNL A   1      50.586  27.800  34.416  1.00  0.00    -0.237 OA
ATOM     98  O   UNL A   1      49.549  28.768  32.389  1.00  0.00    -0.237 OA
ATOM     99  O   UNL A   1      49.532  30.027  34.508  1.00  0.00    -0.744 OA
ENDBRANCH  92  96
ENDBRANCH  66  89
ENDBRANCH  40  41
ENDBRANCH  33  35
ENDBRANCH  32  33
ENDBRANCH   1  32
TORSDOF 17
ENDMDL
