MODEL 1
REMARK VINA RESULT:     -11.4      0.000      0.000
REMARK SMILES CN(CCS(C)(=O)=O)C(=O)Nc1cccc(C(=O)OCCOC(=O)c2ccc(-c3c4nc(c(-c5cc(S(=O)(=O)[O-])ccc5F)c5ccc([nH]5)c(-c5cc(S(=O)(=O)[O-])ccc5F)c5nc(c(-c6cc(S(=O)(=O)[O-])ccc6F)c6ccc3[nH]6)C=C5)C=C4)cc2)c1
REMARK SMILES IDX 20 1 19 2 17 3 18 4 16 5 12 6 13 7 88 8 14 9 15 10 11 11
REMARK SMILES IDX 9 12 10 13 2 15 1 16 3 17 4 18 5 19 6 20 7 21 8 22 21 23
REMARK SMILES IDX 22 24 23 25 24 26 25 27 26 28 87 29 27 30 86 31 28 32 29 33
REMARK SMILES IDX 30 34 80 35 31 36 85 37 79 38 81 39 32 40 84 41 78 42 77 43
REMARK SMILES IDX 33 45 65 46 45 47 64 48 46 49 49 50 63 51 82 52 47 53 48 54
REMARK SMILES IDX 62 56 83 57 50 58 34 59 35 60 43 61 36 62 42 63 44 64 41 65
REMARK SMILES IDX 37 66 38 67 39 68 40 69 66 70 67 71 75 72 68 73 74 74 76 75
REMARK SMILES IDX 73 76 69 77 70 78 71 79 72 80 51 81 52 82 60 83 53 84 59 85
REMARK SMILES IDX 61 86 58 87 54 88 55 89 56 90 57 91
REMARK H PARENT 11 14 81 44 49 55
REMARK Flexibility Score: inf
ROOT
ATOM      1  C   UNL A   1      34.927  21.290  24.641  1.00  0.00     0.275 C 
ENDROOT
BRANCH   1   2
ATOM      2  O   UNL A   1      34.691  22.535  25.338  1.00  0.00    -0.458 OA
BRANCH   2   3
ATOM      3  C   UNL A   1      33.445  22.739  25.858  1.00  0.00     0.338 C 
ATOM      4  O   UNL A   1      33.039  22.396  26.946  1.00  0.00    -0.246 OA
BRANCH   3   5
ATOM      5  C   UNL A   1      32.633  23.474  24.853  1.00  0.00     0.062 A 
ATOM      6  C   UNL A   1      32.500  25.473  23.486  1.00  0.00     0.043 A 
ATOM      7  C   UNL A   1      31.249  25.033  23.028  1.00  0.00     0.026 A 
ATOM      8  C   UNL A   1      33.166  24.668  24.379  1.00  0.00     0.041 A 
ATOM      9  C   UNL A   1      30.713  23.810  23.451  1.00  0.00     0.003 A 
ATOM     10  C   UNL A   1      31.419  23.015  24.353  1.00  0.00     0.016 A 
BRANCH   6  11
ATOM     11  N   UNL A   1      32.971  26.698  23.007  1.00  0.00    -0.308 N 
ATOM     12  C   UNL A   1      32.827  28.024  23.153  1.00  0.00     0.321 C 
ATOM     13  O   UNL A   1      33.737  28.649  22.582  1.00  0.00    -0.248 OA
ATOM     14  H   UNL A   1      33.652  26.527  22.316  1.00  0.00     0.171 HD
BRANCH  12  15
ATOM     15  N   UNL A   1      31.879  28.699  23.861  1.00  0.00    -0.327 N 
ATOM     16  C   UNL A   1      32.406  29.453  25.003  1.00  0.00     0.148 C 
BRANCH  15  17
ATOM     17  C   UNL A   1      30.426  28.812  23.771  1.00  0.00     0.137 C 
BRANCH  17  18
ATOM     18  C   UNL A   1      29.646  30.069  23.404  1.00  0.00     0.158 C 
BRANCH  18  19
ATOM     19  S   UNL A   1      27.972  30.086  22.856  1.00  0.00     0.149 S 
ATOM     20  C   UNL A   1      27.970  30.653  21.169  1.00  0.00     0.158 C 
ATOM     21  O   UNL A   1      27.584  28.684  22.804  1.00  0.00    -0.229 OA
ATOM     22  O   UNL A   1      27.205  31.004  23.673  1.00  0.00    -0.229 OA
ENDBRANCH  18  19
ENDBRANCH  17  18
ENDBRANCH  15  17
ENDBRANCH  12  15
ENDBRANCH   6  11
ENDBRANCH   3   5
ENDBRANCH   2   3
ENDBRANCH   1   2
BRANCH   1  23
ATOM     23  C   UNL A   1      36.267  20.652  25.022  1.00  0.00     0.275 C 
BRANCH  23  24
ATOM     24  O   UNL A   1      37.191  21.675  25.421  1.00  0.00    -0.458 OA
BRANCH  24  25
ATOM     25  C   UNL A   1      38.418  21.228  25.779  1.00  0.00     0.338 C 
ATOM     26  O   UNL A   1      38.969  20.202  25.420  1.00  0.00    -0.246 OA
BRANCH  25  27
ATOM     27  C   UNL A   1      39.117  22.323  26.458  1.00  0.00     0.060 A 
ATOM     28  C   UNL A   1      38.699  23.600  26.113  1.00  0.00     0.016 A 
ATOM     29  C   UNL A   1      40.215  22.147  27.290  1.00  0.00     0.016 A 
ATOM     30  C   UNL A   1      39.390  24.718  26.534  1.00  0.00     0.010 A 
ATOM     31  C   UNL A   1      40.877  23.284  27.780  1.00  0.00     0.010 A 
ATOM     32  C   UNL A   1      40.482  24.580  27.387  1.00  0.00    -0.014 A 
BRANCH  32  33
ATOM     33  C   UNL A   1      41.252  25.799  27.746  1.00  0.00     0.031 A 
ATOM     34  C   UNL A   1      40.602  26.842  28.609  1.00  0.00     0.074 A 
ATOM     35  C   UNL A   1      42.548  25.923  27.390  1.00  0.00     0.049 A 
ATOM     36  N   UNL A   1      41.000  28.053  28.885  1.00  0.00    -0.248 NA
ATOM     37  C   UNL A   1      39.324  26.470  29.236  1.00  0.00     0.031 C 
ATOM     38  C   UNL A   1      43.328  24.917  26.664  1.00  0.00     0.029 A 
ATOM     39  N   UNL A   1      43.447  26.936  27.609  1.00  0.00    -0.354 N 
ATOM     40  C   UNL A   1      39.989  28.616  29.657  1.00  0.00     0.074 A 
ATOM     41  C   UNL A   1      38.960  27.610  29.802  1.00  0.00     0.031 C 
ATOM     42  C   UNL A   1      44.593  25.345  26.536  1.00  0.00     0.029 A 
ATOM     43  C   UNL A   1      44.683  26.705  27.049  1.00  0.00     0.049 A 
ATOM     44  H   UNL A   1      43.229  27.750  28.119  1.00  0.00     0.167 HD
ATOM     45  C   UNL A   1      39.932  29.864  30.181  1.00  0.00     0.034 A 
ATOM     46  C   UNL A   1      45.745  27.523  26.898  1.00  0.00     0.034 A 
ATOM     47  C   UNL A   1      41.003  30.822  30.051  1.00  0.00     0.049 A 
ATOM     48  C   UNL A   1      45.624  28.938  27.402  1.00  0.00     0.074 A 
ATOM     49  C   UNL A   1      41.062  32.120  30.524  1.00  0.00     0.029 A 
ATOM     50  N   UNL A   1      42.210  30.579  29.404  1.00  0.00    -0.354 N 
ATOM     51  N   UNL A   1      44.620  29.502  28.036  1.00  0.00    -0.248 NA
ATOM     52  C   UNL A   1      46.760  29.831  27.152  1.00  0.00     0.031 C 
ATOM     53  C   UNL A   1      42.272  32.683  30.103  1.00  0.00     0.029 A 
ATOM     54  C   UNL A   1      43.006  31.712  29.441  1.00  0.00     0.049 A 
ATOM     55  H   UNL A   1      42.462  29.727  28.982  1.00  0.00     0.167 HD
ATOM     56  C   UNL A   1      45.016  30.814  28.278  1.00  0.00     0.074 A 
ATOM     57  C   UNL A   1      46.354  30.948  27.737  1.00  0.00     0.031 C 
ATOM     58  C   UNL A   1      44.337  31.818  28.889  1.00  0.00     0.034 A 
BRANCH  45  59
ATOM     59  C   UNL A   1      38.646  30.280  30.855  1.00  0.00     0.023 A 
ATOM     60  C   UNL A   1      37.631  30.977  30.178  1.00  0.00     0.031 A 
ATOM     61  C   UNL A   1      38.459  30.014  32.224  1.00  0.00     0.131 A 
ATOM     62  C   UNL A   1      36.516  31.451  30.886  1.00  0.00     0.055 A 
ATOM     63  C   UNL A   1      37.307  30.412  32.904  1.00  0.00     0.041 A 
ATOM     64  F   UNL A   1      39.405  29.377  32.932  1.00  0.00    -0.206 F 
ATOM     65  C   UNL A   1      36.333  31.150  32.238  1.00  0.00     0.022 A 
BRANCH  62  66
ATOM     66  S   UNL A   1      35.385  32.600  30.054  1.00  0.00     0.124 S 
ATOM     67  O   UNL A   1      34.267  32.644  30.993  1.00  0.00    -0.237 OA
ATOM     68  O   UNL A   1      36.186  33.815  29.956  1.00  0.00    -0.237 OA
ATOM     69  O   UNL A   1      35.097  31.938  28.783  1.00  0.00    -0.744 OA
ENDBRANCH  62  66
ENDBRANCH  45  59
BRANCH  46  70
ATOM     70  C   UNL A   1      46.957  27.066  26.155  1.00  0.00     0.023 A 
ATOM     71  C   UNL A   1      48.023  26.436  26.815  1.00  0.00     0.031 A 
ATOM     72  C   UNL A   1      47.084  27.289  24.770  1.00  0.00     0.131 A 
ATOM     73  C   UNL A   1      49.179  26.082  26.099  1.00  0.00     0.055 A 
ATOM     74  C   UNL A   1      48.207  26.875  24.051  1.00  0.00     0.041 A 
ATOM     75  F   UNL A   1      46.103  27.899  24.085  1.00  0.00    -0.206 F 
ATOM     76  C   UNL A   1      49.269  26.278  24.719  1.00  0.00     0.022 A 
BRANCH  73  77
ATOM     77  S   UNL A   1      50.607  25.442  27.016  1.00  0.00     0.124 S 
ATOM     78  O   UNL A   1      50.939  26.575  27.873  1.00  0.00    -0.237 OA
ATOM     79  O   UNL A   1      50.041  24.277  27.684  1.00  0.00    -0.237 OA
ATOM     80  O   UNL A   1      51.581  25.146  25.967  1.00  0.00    -0.744 OA
ENDBRANCH  73  77
ENDBRANCH  46  70
BRANCH  58  81
ATOM     81  C   UNL A   1      45.061  33.129  29.050  1.00  0.00     0.023 A 
ATOM     82  C   UNL A   1      44.972  34.147  28.087  1.00  0.00     0.031 A 
ATOM     83  C   UNL A   1      45.844  33.361  30.195  1.00  0.00     0.131 A 
ATOM     84  C   UNL A   1      45.693  35.336  28.264  1.00  0.00     0.055 A 
ATOM     85  C   UNL A   1      46.509  34.570  30.395  1.00  0.00     0.041 A 
ATOM     86  F   UNL A   1      45.965  32.418  31.143  1.00  0.00    -0.206 F 
ATOM     87  C   UNL A   1      46.444  35.562  29.421  1.00  0.00     0.022 A 
BRANCH  84  88
ATOM     88  S   UNL A   1      45.700  36.557  26.924  1.00  0.00     0.124 S 
ATOM     89  O   UNL A   1      46.154  35.758  25.790  1.00  0.00    -0.237 OA
ATOM     90  O   UNL A   1      44.306  36.986  26.883  1.00  0.00    -0.237 OA
ATOM     91  O   UNL A   1      46.647  37.569  27.387  1.00  0.00    -0.744 OA
ENDBRANCH  84  88
ENDBRANCH  58  81
ENDBRANCH  32  33
ENDBRANCH  25  27
ENDBRANCH  24  25
ENDBRANCH  23  24
ENDBRANCH   1  23
TORSDOF 19
ENDMDL
MODEL 2
REMARK VINA RESULT:     -11.3      4.876     10.112
REMARK SMILES CN(CCS(C)(=O)=O)C(=O)Nc1cccc(C(=O)OCCOC(=O)c2ccc(-c3c4nc(c(-c5cc(S(=O)(=O)[O-])ccc5F)c5ccc([nH]5)c(-c5cc(S(=O)(=O)[O-])ccc5F)c5nc(c(-c6cc(S(=O)(=O)[O-])ccc6F)c6ccc3[nH]6)C=C5)C=C4)cc2)c1
REMARK SMILES IDX 20 1 19 2 17 3 18 4 16 5 12 6 13 7 88 8 14 9 15 10 11 11
REMARK SMILES IDX 9 12 10 13 2 15 1 16 3 17 4 18 5 19 6 20 7 21 8 22 21 23
REMARK SMILES IDX 22 24 23 25 24 26 25 27 26 28 87 29 27 30 86 31 28 32 29 33
REMARK SMILES IDX 30 34 80 35 31 36 85 37 79 38 81 39 32 40 84 41 78 42 77 43
REMARK SMILES IDX 33 45 65 46 45 47 64 48 46 49 49 50 63 51 82 52 47 53 48 54
REMARK SMILES IDX 62 56 83 57 50 58 34 59 35 60 43 61 36 62 42 63 44 64 41 65
REMARK SMILES IDX 37 66 38 67 39 68 40 69 66 70 67 71 75 72 68 73 74 74 76 75
REMARK SMILES IDX 73 76 69 77 70 78 71 79 72 80 51 81 52 82 60 83 53 84 59 85
REMARK SMILES IDX 61 86 58 87 54 88 55 89 56 90 57 91
REMARK H PARENT 11 14 81 44 49 55
REMARK Flexibility Score: inf
ROOT
ATOM      1  C   UNL A   1      31.407  28.663  25.162  1.00  0.00     0.275 C 
ENDROOT
BRANCH   1   2
ATOM      2  O   UNL A   1      31.281  27.478  25.980  1.00  0.00    -0.458 OA
BRANCH   2   3
ATOM      3  C   UNL A   1      30.780  26.354  25.388  1.00  0.00     0.338 C 
ATOM      4  O   UNL A   1      29.645  25.935  25.452  1.00  0.00    -0.246 OA
BRANCH   3   5
ATOM      5  C   UNL A   1      31.874  25.698  24.625  1.00  0.00     0.062 A 
ATOM      6  C   UNL A   1      34.157  24.887  24.731  1.00  0.00     0.043 A 
ATOM      7  C   UNL A   1      34.061  24.545  23.373  1.00  0.00     0.026 A 
ATOM      8  C   UNL A   1      33.049  25.443  25.324  1.00  0.00     0.041 A 
ATOM      9  C   UNL A   1      32.872  24.745  22.660  1.00  0.00     0.003 A 
ATOM     10  C   UNL A   1      31.765  25.306  23.295  1.00  0.00     0.016 A 
BRANCH   6  11
ATOM     11  N   UNL A   1      35.373  24.643  25.375  1.00  0.00    -0.308 N 
ATOM     12  C   UNL A   1      36.259  23.671  25.642  1.00  0.00     0.321 C 
ATOM     13  O   UNL A   1      37.325  24.132  26.083  1.00  0.00    -0.248 OA
ATOM     14  H   UNL A   1      35.695  25.484  25.773  1.00  0.00     0.171 HD
BRANCH  12  15
ATOM     15  N   UNL A   1      36.131  22.330  25.439  1.00  0.00    -0.327 N 
ATOM     16  C   UNL A   1      37.285  21.709  24.782  1.00  0.00     0.148 C 
BRANCH  15  17
ATOM     17  C   UNL A   1      35.071  21.357  25.689  1.00  0.00     0.137 C 
BRANCH  17  18
ATOM     18  C   UNL A   1      34.337  20.541  24.630  1.00  0.00     0.158 C 
BRANCH  18  19
ATOM     19  S   UNL A   1      32.587  20.500  24.432  1.00  0.00     0.149 S 
ATOM     20  C   UNL A   1      31.909  21.818  25.418  1.00  0.00     0.158 C 
ATOM     21  O   UNL A   1      32.360  20.886  23.047  1.00  0.00    -0.229 OA
ATOM     22  O   UNL A   1      32.076  19.232  24.907  1.00  0.00    -0.229 OA
ENDBRANCH  18  19
ENDBRANCH  17  18
ENDBRANCH  15  17
ENDBRANCH  12  15
ENDBRANCH   6  11
ENDBRANCH   3   5
ENDBRANCH   2   3
ENDBRANCH   1   2
BRANCH   1  23
ATOM     23  C   UNL A   1      32.695  29.440  25.454  1.00  0.00     0.275 C 
BRANCH  23  24
ATOM     24  O   UNL A   1      32.732  29.805  26.841  1.00  0.00    -0.458 OA
BRANCH  24  25
ATOM     25  C   UNL A   1      33.216  31.045  27.093  1.00  0.00     0.338 C 
ATOM     26  O   UNL A   1      32.595  32.093  27.121  1.00  0.00    -0.246 OA
BRANCH  25  27
ATOM     27  C   UNL A   1      34.578  30.901  27.615  1.00  0.00     0.060 A 
ATOM     28  C   UNL A   1      34.947  29.609  27.966  1.00  0.00     0.016 A 
ATOM     29  C   UNL A   1      35.424  31.968  27.887  1.00  0.00     0.016 A 
ATOM     30  C   UNL A   1      36.126  29.359  28.638  1.00  0.00     0.010 A 
ATOM     31  C   UNL A   1      36.657  31.709  28.505  1.00  0.00     0.010 A 
ATOM     32  C   UNL A   1      37.008  30.403  28.906  1.00  0.00    -0.014 A 
BRANCH  32  33
ATOM     33  C   UNL A   1      38.223  30.106  29.708  1.00  0.00     0.031 A 
ATOM     34  C   UNL A   1      39.294  29.238  29.114  1.00  0.00     0.074 A 
ATOM     35  C   UNL A   1      38.412  30.690  30.910  1.00  0.00     0.049 A 
ATOM     36  N   UNL A   1      40.331  28.693  29.687  1.00  0.00    -0.248 NA
ATOM     37  C   UNL A   1      39.168  28.932  27.680  1.00  0.00     0.031 C 
ATOM     38  C   UNL A   1      37.505  31.657  31.536  1.00  0.00     0.029 A 
ATOM     39  N   UNL A   1      39.438  30.576  31.813  1.00  0.00    -0.354 N 
ATOM     40  C   UNL A   1      40.944  27.922  28.706  1.00  0.00     0.074 A 
ATOM     41  C   UNL A   1      40.157  28.070  27.501  1.00  0.00     0.031 C 
ATOM     42  C   UNL A   1      38.034  32.076  32.695  1.00  0.00     0.029 A 
ATOM     43  C   UNL A   1      39.247  31.314  32.960  1.00  0.00     0.049 A 
ATOM     44  H   UNL A   1      40.237  30.021  31.656  1.00  0.00     0.167 HD
ATOM     45  C   UNL A   1      42.056  27.155  28.816  1.00  0.00     0.034 A 
ATOM     46  C   UNL A   1      39.928  31.320  34.124  1.00  0.00     0.034 A 
ATOM     47  C   UNL A   1      42.838  27.072  30.025  1.00  0.00     0.049 A 
ATOM     48  C   UNL A   1      41.104  30.387  34.258  1.00  0.00     0.074 A 
ATOM     49  C   UNL A   1      43.975  26.324  30.268  1.00  0.00     0.029 A 
ATOM     50  N   UNL A   1      42.566  27.772  31.195  1.00  0.00    -0.354 N 
ATOM     51  N   UNL A   1      41.616  29.574  33.362  1.00  0.00    -0.248 NA
ATOM     52  C   UNL A   1      41.777  30.352  35.562  1.00  0.00     0.031 C 
ATOM     53  C   UNL A   1      44.347  26.516  31.603  1.00  0.00     0.029 A 
ATOM     54  C   UNL A   1      43.496  27.450  32.170  1.00  0.00     0.049 A 
ATOM     55  H   UNL A   1      41.821  28.405  31.313  1.00  0.00     0.167 HD
ATOM     56  C   UNL A   1      42.687  28.946  33.990  1.00  0.00     0.074 A 
ATOM     57  C   UNL A   1      42.755  29.487  35.332  1.00  0.00     0.031 C 
ATOM     58  C   UNL A   1      43.537  28.005  33.504  1.00  0.00     0.034 A 
BRANCH  45  59
ATOM     59  C   UNL A   1      42.427  26.291  27.635  1.00  0.00     0.023 A 
ATOM     60  C   UNL A   1      41.933  24.985  27.471  1.00  0.00     0.031 A 
ATOM     61  C   UNL A   1      43.340  26.772  26.678  1.00  0.00     0.131 A 
ATOM     62  C   UNL A   1      42.413  24.182  26.423  1.00  0.00     0.055 A 
ATOM     63  C   UNL A   1      43.747  25.999  25.589  1.00  0.00     0.041 A 
ATOM     64  F   UNL A   1      43.869  28.000  26.796  1.00  0.00    -0.206 F 
ATOM     65  C   UNL A   1      43.294  24.689  25.466  1.00  0.00     0.022 A 
BRANCH  62  66
ATOM     66  S   UNL A   1      41.989  22.419  26.421  1.00  0.00     0.124 S 
ATOM     67  O   UNL A   1      42.523  21.986  27.711  1.00  0.00    -0.237 OA
ATOM     68  O   UNL A   1      40.536  22.444  26.307  1.00  0.00    -0.237 OA
ATOM     69  O   UNL A   1      42.698  21.897  25.255  1.00  0.00    -0.744 OA
ENDBRANCH  62  66
ENDBRANCH  45  59
BRANCH  46  70
ATOM     70  C   UNL A   1      39.459  32.147  35.275  1.00  0.00     0.023 A 
ATOM     71  C   UNL A   1      39.915  33.461  35.464  1.00  0.00     0.031 A 
ATOM     72  C   UNL A   1      38.571  31.618  36.233  1.00  0.00     0.131 A 
ATOM     73  C   UNL A   1      39.509  34.187  36.596  1.00  0.00     0.055 A 
ATOM     74  C   UNL A   1      38.119  32.367  37.320  1.00  0.00     0.041 A 
ATOM     75  F   UNL A   1      38.111  30.362  36.114  1.00  0.00    -0.206 F 
ATOM     76  C   UNL A   1      38.599  33.657  37.513  1.00  0.00     0.022 A 
BRANCH  73  77
ATOM     77  S   UNL A   1      40.262  35.808  36.904  1.00  0.00     0.124 S 
ATOM     78  O   UNL A   1      39.667  36.617  35.846  1.00  0.00    -0.237 OA
ATOM     79  O   UNL A   1      39.814  36.097  38.261  1.00  0.00    -0.237 OA
ATOM     80  O   UNL A   1      41.694  35.550  36.763  1.00  0.00    -0.744 OA
ENDBRANCH  73  77
ENDBRANCH  46  70
BRANCH  58  81
ATOM     81  C   UNL A   1      44.643  27.549  34.419  1.00  0.00     0.023 A 
ATOM     82  C   UNL A   1      44.473  26.477  35.309  1.00  0.00     0.031 A 
ATOM     83  C   UNL A   1      45.890  28.199  34.387  1.00  0.00     0.131 A 
ATOM     84  C   UNL A   1      45.521  26.114  36.167  1.00  0.00     0.055 A 
ATOM     85  C   UNL A   1      46.948  27.792  35.199  1.00  0.00     0.041 A 
ATOM     86  F   UNL A   1      46.102  29.232  33.557  1.00  0.00    -0.206 F 
ATOM     87  C   UNL A   1      46.764  26.751  36.103  1.00  0.00     0.022 A 
BRANCH  84  88
ATOM     88  S   UNL A   1      45.214  24.845  37.425  1.00  0.00     0.124 S 
ATOM     89  O   UNL A   1      43.875  25.195  37.887  1.00  0.00    -0.237 OA
ATOM     90  O   UNL A   1      45.321  23.609  36.657  1.00  0.00    -0.237 OA
ATOM     91  O   UNL A   1      46.282  25.064  38.399  1.00  0.00    -0.744 OA
ENDBRANCH  84  88
ENDBRANCH  58  81
ENDBRANCH  32  33
ENDBRANCH  25  27
ENDBRANCH  24  25
ENDBRANCH  23  24
ENDBRANCH   1  23
TORSDOF 19
ENDMDL
MODEL 3
REMARK VINA RESULT:     -11.3      5.018      8.206
REMARK SMILES CN(CCS(C)(=O)=O)C(=O)Nc1cccc(C(=O)OCCOC(=O)c2ccc(-c3c4nc(c(-c5cc(S(=O)(=O)[O-])ccc5F)c5ccc([nH]5)c(-c5cc(S(=O)(=O)[O-])ccc5F)c5nc(c(-c6cc(S(=O)(=O)[O-])ccc6F)c6ccc3[nH]6)C=C5)C=C4)cc2)c1
REMARK SMILES IDX 20 1 19 2 17 3 18 4 16 5 12 6 13 7 88 8 14 9 15 10 11 11
REMARK SMILES IDX 9 12 10 13 2 15 1 16 3 17 4 18 5 19 6 20 7 21 8 22 21 23
REMARK SMILES IDX 22 24 23 25 24 26 25 27 26 28 87 29 27 30 86 31 28 32 29 33
REMARK SMILES IDX 30 34 80 35 31 36 85 37 79 38 81 39 32 40 84 41 78 42 77 43
REMARK SMILES IDX 33 45 65 46 45 47 64 48 46 49 49 50 63 51 82 52 47 53 48 54
REMARK SMILES IDX 62 56 83 57 50 58 34 59 35 60 43 61 36 62 42 63 44 64 41 65
REMARK SMILES IDX 37 66 38 67 39 68 40 69 66 70 67 71 75 72 68 73 74 74 76 75
REMARK SMILES IDX 73 76 69 77 70 78 71 79 72 80 51 81 52 82 60 83 53 84 59 85
REMARK SMILES IDX 61 86 58 87 54 88 55 89 56 90 57 91
REMARK H PARENT 11 14 81 44 49 55
REMARK Flexibility Score: inf
ROOT
ATOM      1  C   UNL A   1      31.063  31.310  26.360  1.00  0.00     0.275 C 
ENDROOT
BRANCH   1   2
ATOM      2  O   UNL A   1      31.923  30.396  25.643  1.00  0.00    -0.458 OA
BRANCH   2   3
ATOM      3  C   UNL A   1      32.158  29.176  26.208  1.00  0.00     0.338 C 
ATOM      4  O   UNL A   1      32.914  28.923  27.121  1.00  0.00    -0.246 OA
BRANCH   3   5
ATOM      5  C   UNL A   1      31.317  28.167  25.513  1.00  0.00     0.062 A 
ATOM      6  C   UNL A   1      30.231  26.008  25.718  1.00  0.00     0.043 A 
ATOM      7  C   UNL A   1      29.812  26.132  24.385  1.00  0.00     0.026 A 
ATOM      8  C   UNL A   1      30.963  27.042  26.251  1.00  0.00     0.041 A 
ATOM      9  C   UNL A   1      30.112  27.277  23.636  1.00  0.00     0.003 A 
ATOM     10  C   UNL A   1      30.852  28.310  24.211  1.00  0.00     0.016 A 
BRANCH   6  11
ATOM     11  N   UNL A   1      29.880  24.841  26.401  1.00  0.00    -0.308 N 
ATOM     12  C   UNL A   1      30.331  23.618  26.720  1.00  0.00     0.321 C 
ATOM     13  O   UNL A   1      29.627  23.083  27.593  1.00  0.00    -0.248 OA
ATOM     14  H   UNL A   1      28.981  24.958  26.786  1.00  0.00     0.171 HD
BRANCH  12  15
ATOM     15  N   UNL A   1      31.438  22.976  26.252  1.00  0.00    -0.327 N 
ATOM     16  C   UNL A   1      32.535  22.887  27.220  1.00  0.00     0.148 C 
BRANCH  15  17
ATOM     17  C   UNL A   1      31.808  22.383  24.969  1.00  0.00     0.137 C 
BRANCH  17  18
ATOM     18  C   UNL A   1      32.071  23.144  23.674  1.00  0.00     0.158 C 
BRANCH  18  19
ATOM     19  S   UNL A   1      33.617  23.864  23.231  1.00  0.00     0.149 S 
ATOM     20  C   UNL A   1      33.429  25.631  23.334  1.00  0.00     0.158 C 
ATOM     21  O   UNL A   1      34.521  23.499  24.312  1.00  0.00    -0.229 OA
ATOM     22  O   UNL A   1      33.951  23.493  21.872  1.00  0.00    -0.229 OA
ENDBRANCH  18  19
ENDBRANCH  17  18
ENDBRANCH  15  17
ENDBRANCH  12  15
ENDBRANCH   6  11
ENDBRANCH   3   5
ENDBRANCH   2   3
ENDBRANCH   1   2
BRANCH   1  23
ATOM     23  C   UNL A   1      31.682  32.704  26.504  1.00  0.00     0.275 C 
BRANCH  23  24
ATOM     24  O   UNL A   1      32.385  32.791  27.752  1.00  0.00    -0.458 OA
BRANCH  24  25
ATOM     25  C   UNL A   1      33.348  33.742  27.800  1.00  0.00     0.338 C 
ATOM     26  O   UNL A   1      33.203  34.951  27.743  1.00  0.00    -0.246 OA
BRANCH  25  27
ATOM     27  C   UNL A   1      34.596  33.100  28.221  1.00  0.00     0.060 A 
ATOM     28  C   UNL A   1      34.485  31.766  28.588  1.00  0.00     0.016 A 
ATOM     29  C   UNL A   1      35.799  33.773  28.389  1.00  0.00     0.016 A 
ATOM     30  C   UNL A   1      35.538  31.095  29.177  1.00  0.00     0.010 A 
ATOM     31  C   UNL A   1      36.894  33.073  28.920  1.00  0.00     0.010 A 
ATOM     32  C   UNL A   1      36.765  31.732  29.339  1.00  0.00    -0.014 A 
BRANCH  32  33
ATOM     33  C   UNL A   1      37.844  31.005  30.057  1.00  0.00     0.031 A 
ATOM     34  C   UNL A   1      38.059  31.279  31.517  1.00  0.00     0.074 A 
ATOM     35  C   UNL A   1      38.553  30.040  29.435  1.00  0.00     0.049 A 
ATOM     36  N   UNL A   1      39.045  30.917  32.291  1.00  0.00    -0.248 NA
ATOM     37  C   UNL A   1      37.026  32.080  32.193  1.00  0.00     0.031 C 
ATOM     38  C   UNL A   1      38.346  29.590  28.055  1.00  0.00     0.029 A 
ATOM     39  N   UNL A   1      39.574  29.243  29.887  1.00  0.00    -0.354 N 
ATOM     40  C   UNL A   1      38.792  31.505  33.526  1.00  0.00     0.074 A 
ATOM     41  C   UNL A   1      37.558  32.248  33.393  1.00  0.00     0.031 C 
ATOM     42  C   UNL A   1      39.183  28.576  27.789  1.00  0.00     0.029 A 
ATOM     43  C   UNL A   1      40.072  28.390  28.928  1.00  0.00     0.049 A 
ATOM     44  H   UNL A   1      39.918  29.277  30.809  1.00  0.00     0.167 HD
ATOM     45  C   UNL A   1      39.536  31.433  34.656  1.00  0.00     0.034 A 
ATOM     46  C   UNL A   1      41.167  27.603  28.935  1.00  0.00     0.034 A 
ATOM     47  C   UNL A   1      40.737  30.641  34.758  1.00  0.00     0.049 A 
ATOM     48  C   UNL A   1      42.034  27.612  30.168  1.00  0.00     0.074 A 
ATOM     49  C   UNL A   1      41.585  30.495  35.840  1.00  0.00     0.029 A 
ATOM     50  N   UNL A   1      41.257  29.853  33.737  1.00  0.00    -0.354 N 
ATOM     51  N   UNL A   1      41.851  28.258  31.298  1.00  0.00    -0.248 NA
ATOM     52  C   UNL A   1      43.263  26.812  30.121  1.00  0.00     0.031 C 
ATOM     53  C   UNL A   1      42.652  29.677  35.451  1.00  0.00     0.029 A 
ATOM     54  C   UNL A   1      42.428  29.243  34.155  1.00  0.00     0.049 A 
ATOM     55  H   UNL A   1      40.851  29.745  32.846  1.00  0.00     0.167 HD
ATOM     56  C   UNL A   1      42.933  27.923  32.105  1.00  0.00     0.074 A 
ATOM     57  C   UNL A   1      43.753  27.007  31.337  1.00  0.00     0.031 C 
ATOM     58  C   UNL A   1      43.227  28.335  33.364  1.00  0.00     0.034 A 
BRANCH  45  59
ATOM     59  C   UNL A   1      39.117  32.294  35.823  1.00  0.00     0.023 A 
ATOM     60  C   UNL A   1      39.537  33.628  35.964  1.00  0.00     0.031 A 
ATOM     61  C   UNL A   1      38.319  31.745  36.844  1.00  0.00     0.131 A 
ATOM     62  C   UNL A   1      39.222  34.339  37.134  1.00  0.00     0.055 A 
ATOM     63  C   UNL A   1      37.937  32.486  37.963  1.00  0.00     0.041 A 
ATOM     64  F   UNL A   1      37.911  30.468  36.780  1.00  0.00    -0.206 F 
ATOM     65  C   UNL A   1      38.403  33.788  38.121  1.00  0.00     0.022 A 
BRANCH  62  66
ATOM     66  S   UNL A   1      40.030  35.939  37.416  1.00  0.00     0.124 S 
ATOM     67  O   UNL A   1      39.260  36.462  38.543  1.00  0.00    -0.237 OA
ATOM     68  O   UNL A   1      41.405  35.551  37.707  1.00  0.00    -0.237 OA
ATOM     69  O   UNL A   1      39.836  36.650  36.154  1.00  0.00    -0.744 OA
ENDBRANCH  62  66
ENDBRANCH  45  59
BRANCH  46  70
ATOM     70  C   UNL A   1      41.560  26.834  27.717  1.00  0.00     0.023 A 
ATOM     71  C   UNL A   1      41.327  25.454  27.618  1.00  0.00     0.031 A 
ATOM     72  C   UNL A   1      42.215  27.466  26.642  1.00  0.00     0.131 A 
ATOM     73  C   UNL A   1      41.773  24.748  26.488  1.00  0.00     0.055 A 
ATOM     74  C   UNL A   1      42.596  26.773  25.493  1.00  0.00     0.041 A 
ATOM     75  F   UNL A   1      42.478  28.783  26.683  1.00  0.00    -0.206 F 
ATOM     76  C   UNL A   1      42.387  25.400  25.417  1.00  0.00     0.022 A 
BRANCH  73  77
ATOM     77  S   UNL A   1      41.622  22.940  26.479  1.00  0.00     0.124 S 
ATOM     78  O   UNL A   1      42.404  22.585  25.300  1.00  0.00    -0.237 OA
ATOM     79  O   UNL A   1      42.203  22.581  27.767  1.00  0.00    -0.237 OA
ATOM     80  O   UNL A   1      40.182  22.720  26.363  1.00  0.00    -0.744 OA
ENDBRANCH  73  77
ENDBRANCH  46  70
BRANCH  58  81
ATOM     81  C   UNL A   1      44.460  27.749  34.002  1.00  0.00     0.023 A 
ATOM     82  C   UNL A   1      44.416  26.550  34.733  1.00  0.00     0.031 A 
ATOM     83  C   UNL A   1      45.698  28.401  33.865  1.00  0.00     0.131 A 
ATOM     84  C   UNL A   1      45.582  26.063  35.339  1.00  0.00     0.055 A 
ATOM     85  C   UNL A   1      46.866  27.879  34.418  1.00  0.00     0.041 A 
ATOM     86  F   UNL A   1      45.791  29.552  33.180  1.00  0.00    -0.206 F 
ATOM     87  C   UNL A   1      46.811  26.708  35.169  1.00  0.00     0.022 A 
BRANCH  84  88
ATOM     88  S   UNL A   1      45.460  24.613  36.420  1.00  0.00     0.124 S 
ATOM     89  O   UNL A   1      46.664  24.743  37.236  1.00  0.00    -0.237 OA
ATOM     90  O   UNL A   1      44.195  24.841  37.110  1.00  0.00    -0.237 OA
ATOM     91  O   UNL A   1      45.463  23.489  35.486  1.00  0.00    -0.744 OA
ENDBRANCH  84  88
ENDBRANCH  58  81
ENDBRANCH  32  33
ENDBRANCH  25  27
ENDBRANCH  24  25
ENDBRANCH  23  24
ENDBRANCH   1  23
TORSDOF 19
ENDMDL
