MODEL 1
REMARK VINA RESULT:     -13.5      0.000      0.000
REMARK SMILES O=C(OCCOC(=O)[C@@H]1CCCC[C@@H]1C(=O)Nc1cccc(C(F)(F)F)c1)c1ccc(-c2c3nc(c(-c4cc(S(=O)(=O)[O-])ccc4F)c4ccc([nH]4)c(-c4cc(S(=O)(=O)[O-])ccc4F)c4nc(c(-c5cc(S(=O)(=O)[O-])ccc5F)c5ccc2[nH]5)C=C4)C=C3)cc1
REMARK SMILES IDX 4 1 3 2 2 3 1 4 28 5 29 6 90 7 30 8 89 9 31 10 32 11 33 12
REMARK SMILES IDX 83 13 34 14 88 15 82 16 84 17 35 18 87 19 81 20 80 21 36 23
REMARK SMILES IDX 68 24 48 25 67 26 49 27 52 28 66 29 85 30 50 31 51 32 65 34
REMARK SMILES IDX 86 35 53 36 37 37 38 38 46 39 39 40 45 41 47 42 44 43 40 44
REMARK SMILES IDX 41 45 42 46 43 47 69 48 70 49 78 50 71 51 77 52 79 53 76 54
REMARK SMILES IDX 72 55 73 56 74 57 75 58 54 59 55 60 63 61 56 62 62 63 64 64
REMARK SMILES IDX 61 65 57 66 58 67 59 68 60 69 5 70 6 71 7 72 8 73 9 74 10 75
REMARK SMILES IDX 14 76 11 77 13 78 12 79 15 80 16 81 17 82 18 84 19 85 27 86
REMARK SMILES IDX 20 87 22 88 21 89 23 90 24 91 25 92 26 93
REMARK H PARENT 84 22 52 33 17 83
REMARK Flexibility Score: inf
ROOT
ATOM      1  C   UNL A   1      31.407  31.970  26.832  1.00  0.00     0.275 C 
ENDROOT
BRANCH   1   2
ATOM      2  O   UNL A   1      32.128  33.246  26.976  1.00  0.00    -0.458 OA
BRANCH   2   3
ATOM      3  C   UNL A   1      32.808  33.879  27.989  1.00  0.00     0.338 C 
ATOM      4  O   UNL A   1      32.451  34.995  28.355  1.00  0.00    -0.246 OA
BRANCH   3   5
ATOM      5  C   UNL A   1      34.119  33.382  28.525  1.00  0.00     0.060 A 
ATOM      6  C   UNL A   1      34.197  31.675  28.840  1.00  0.00     0.016 A 
ATOM      7  C   UNL A   1      35.660  34.346  28.486  1.00  0.00     0.016 A 
ATOM      8  C   UNL A   1      35.621  30.816  29.102  1.00  0.00     0.010 A 
ATOM      9  C   UNL A   1      37.249  33.411  28.684  1.00  0.00     0.010 A 
ATOM     10  C   UNL A   1      37.172  31.584  29.109  1.00  0.00    -0.014 A 
BRANCH  10  11
ATOM     11  C   UNL A   1      37.873  30.616  30.140  1.00  0.00     0.031 A 
ATOM     12  C   UNL A   1      37.784  30.588  31.727  1.00  0.00     0.074 A 
ATOM     13  C   UNL A   1      38.505  29.571  29.598  1.00  0.00     0.049 A 
ATOM     14  N   UNL A   1      38.782  30.306  32.554  1.00  0.00    -0.248 NA
ATOM     15  C   UNL A   1      36.624  31.118  32.452  1.00  0.00     0.031 C 
ATOM     16  C   UNL A   1      38.319  29.128  28.233  1.00  0.00     0.029 A 
ATOM     17  N   UNL A   1      39.482  28.759  30.087  1.00  0.00    -0.354 N 
ATOM     18  C   UNL A   1      38.516  30.997  33.750  1.00  0.00     0.074 A 
ATOM     19  C   UNL A   1      37.169  31.504  33.607  1.00  0.00     0.031 C 
ATOM     20  C   UNL A   1      39.264  28.250  27.907  1.00  0.00     0.029 A 
ATOM     21  C   UNL A   1      40.142  28.138  29.052  1.00  0.00     0.049 A 
ATOM     22  H   UNL A   1      39.686  28.635  31.042  1.00  0.00     0.167 HD
ATOM     23  C   UNL A   1      39.387  31.258  34.774  1.00  0.00     0.034 A 
ATOM     24  C   UNL A   1      41.385  27.648  28.988  1.00  0.00     0.034 A 
ATOM     25  C   UNL A   1      40.689  30.618  34.844  1.00  0.00     0.049 A 
ATOM     26  C   UNL A   1      42.206  27.693  30.228  1.00  0.00     0.074 A 
ATOM     27  C   UNL A   1      41.593  30.576  35.895  1.00  0.00     0.029 A 
ATOM     28  N   UNL A   1      41.250  29.865  33.819  1.00  0.00    -0.354 N 
ATOM     29  N   UNL A   1      41.986  28.362  31.337  1.00  0.00    -0.248 NA
ATOM     30  C   UNL A   1      43.410  26.869  30.227  1.00  0.00     0.031 C 
ATOM     31  C   UNL A   1      42.701  29.818  35.498  1.00  0.00     0.029 A 
ATOM     32  C   UNL A   1      42.457  29.323  34.226  1.00  0.00     0.049 A 
ATOM     33  H   UNL A   1      40.847  29.735  32.930  1.00  0.00     0.167 HD
ATOM     34  C   UNL A   1      43.007  27.988  32.197  1.00  0.00     0.074 A 
ATOM     35  C   UNL A   1      43.825  27.031  31.472  1.00  0.00     0.031 C 
ATOM     36  C   UNL A   1      43.247  28.383  33.472  1.00  0.00     0.034 A 
BRANCH  23  37
ATOM     37  C   UNL A   1      39.014  32.236  35.893  1.00  0.00     0.023 A 
ATOM     38  C   UNL A   1      39.424  33.575  35.865  1.00  0.00     0.031 A 
ATOM     39  C   UNL A   1      38.209  31.856  36.995  1.00  0.00     0.131 A 
ATOM     40  C   UNL A   1      39.157  34.435  36.946  1.00  0.00     0.055 A 
ATOM     41  C   UNL A   1      37.834  32.755  38.009  1.00  0.00     0.041 A 
ATOM     42  F   UNL A   1      37.758  30.596  37.120  1.00  0.00    -0.206 F 
ATOM     43  C   UNL A   1      38.333  34.050  38.002  1.00  0.00     0.022 A 
BRANCH  40  44
ATOM     44  S   UNL A   1      40.060  36.004  37.012  1.00  0.00     0.124 S 
ATOM     45  O   UNL A   1      39.460  36.625  38.191  1.00  0.00    -0.237 OA
ATOM     46  O   UNL A   1      41.444  35.566  37.162  1.00  0.00    -0.237 OA
ATOM     47  O   UNL A   1      39.738  36.643  35.739  1.00  0.00    -0.744 OA
ENDBRANCH  40  44
ENDBRANCH  23  37
BRANCH  24  48
ATOM     48  C   UNL A   1      41.874  27.073  27.720  1.00  0.00     0.023 A 
ATOM     49  C   UNL A   1      41.773  25.694  27.523  1.00  0.00     0.031 A 
ATOM     50  C   UNL A   1      42.389  27.865  26.680  1.00  0.00     0.131 A 
ATOM     51  C   UNL A   1      42.255  25.126  26.342  1.00  0.00     0.055 A 
ATOM     52  C   UNL A   1      42.810  27.302  25.475  1.00  0.00     0.041 A 
ATOM     53  F   UNL A   1      42.452  29.202  26.807  1.00  0.00    -0.206 F 
ATOM     54  C   UNL A   1      42.762  25.918  25.310  1.00  0.00     0.022 A 
BRANCH  51  55
ATOM     55  S   UNL A   1      42.293  23.323  26.242  1.00  0.00     0.124 S 
ATOM     56  O   UNL A   1      42.857  23.114  24.913  1.00  0.00    -0.237 OA
ATOM     57  O   UNL A   1      43.161  22.980  27.365  1.00  0.00    -0.237 OA
ATOM     58  O   UNL A   1      40.891  22.946  26.396  1.00  0.00    -0.744 OA
ENDBRANCH  51  55
ENDBRANCH  24  48
BRANCH  36  59
ATOM     59  C   UNL A   1      44.403  27.712  34.161  1.00  0.00     0.023 A 
ATOM     60  C   UNL A   1      44.229  26.527  34.892  1.00  0.00     0.031 A 
ATOM     61  C   UNL A   1      45.672  28.314  34.151  1.00  0.00     0.131 A 
ATOM     62  C   UNL A   1      45.281  26.040  35.674  1.00  0.00     0.055 A 
ATOM     63  C   UNL A   1      46.743  27.768  34.855  1.00  0.00     0.041 A 
ATOM     64  F   UNL A   1      45.883  29.456  33.475  1.00  0.00    -0.206 F 
ATOM     65  C   UNL A   1      46.544  26.638  35.643  1.00  0.00     0.022 A 
BRANCH  62  66
ATOM     66  S   UNL A   1      44.916  24.726  36.866  1.00  0.00     0.124 S 
ATOM     67  O   UNL A   1      46.211  24.547  37.518  1.00  0.00    -0.237 OA
ATOM     68  O   UNL A   1      43.870  25.330  37.685  1.00  0.00    -0.237 OA
ATOM     69  O   UNL A   1      44.483  23.613  36.024  1.00  0.00    -0.744 OA
ENDBRANCH  62  66
ENDBRANCH  36  59
ENDBRANCH  10  11
ENDBRANCH   3   5
ENDBRANCH   2   3
ENDBRANCH   1   2
BRANCH   1  70
ATOM     70  C   UNL A   1      32.182  30.802  26.152  1.00  0.00     0.274 C 
BRANCH  70  71
ATOM     71  O   UNL A   1      31.346  29.713  25.738  1.00  0.00    -0.462 OA
BRANCH  71  72
ATOM     72  C   UNL A   1      31.651  28.548  26.349  1.00  0.00     0.309 C 
ATOM     73  O   UNL A   1      31.479  28.336  27.545  1.00  0.00    -0.252 OA
BRANCH  72  74
ATOM     74  C   UNL A   1      32.201  27.499  25.387  1.00  0.00     0.111 C 
ATOM     75  C   UNL A   1      32.182  27.940  23.909  1.00  0.00     0.016 C 
ATOM     76  C   UNL A   1      32.466  25.828  25.839  1.00  0.00     0.093 C 
ATOM     77  C   UNL A   1      33.279  27.363  22.993  1.00  0.00     0.001 C 
ATOM     78  C   UNL A   1      34.000  25.837  24.791  1.00  0.00     0.014 C 
ATOM     79  C   UNL A   1      33.741  25.957  23.307  1.00  0.00     0.001 C 
BRANCH  76  80
ATOM     80  C   UNL A   1      31.465  24.046  26.705  1.00  0.00     0.228 C 
ATOM     81  O   UNL A   1      30.327  23.869  27.239  1.00  0.00    -0.274 OA
ATOM     82  N   UNL A   1      32.170  22.483  26.973  1.00  0.00    -0.326 N 
ATOM     83  H   UNL A   1      31.589  21.920  27.534  1.00  0.00     0.169 HD
BRANCH  82  84
ATOM     84  C   UNL A   1      33.502  21.711  26.557  1.00  0.00     0.041 A 
ATOM     85  C   UNL A   1      33.573  20.522  25.791  1.00  0.00     0.026 A 
ATOM     86  C   UNL A   1      34.743  22.357  26.603  1.00  0.00     0.039 A 
ATOM     87  C   UNL A   1      34.592  20.102  24.928  1.00  0.00     0.003 A 
ATOM     88  C   UNL A   1      35.794  21.997  25.676  1.00  0.00     0.058 A 
ATOM     89  C   UNL A   1      35.700  20.878  24.832  1.00  0.00     0.013 A 
BRANCH  88  90
ATOM     90  C   UNL A   1      36.988  22.878  25.455  1.00  0.00     0.416 C 
ATOM     91  F   UNL A   1      37.296  23.637  26.538  1.00  0.00    -0.166 F 
ATOM     92  F   UNL A   1      38.120  22.165  25.166  1.00  0.00    -0.166 F 
ATOM     93  F   UNL A   1      36.828  23.730  24.408  1.00  0.00    -0.166 F 
ENDBRANCH  88  90
ENDBRANCH  82  84
ENDBRANCH  76  80
ENDBRANCH  72  74
ENDBRANCH  71  72
ENDBRANCH  70  71
ENDBRANCH   1  70
TORSDOF 17
ENDMDL
MODEL 2
REMARK VINA RESULT:     -13.0      5.138     10.548
REMARK SMILES O=C(OCCOC(=O)[C@@H]1CCCC[C@@H]1C(=O)Nc1cccc(C(F)(F)F)c1)c1ccc(-c2c3nc(c(-c4cc(S(=O)(=O)[O-])ccc4F)c4ccc([nH]4)c(-c4cc(S(=O)(=O)[O-])ccc4F)c4nc(c(-c5cc(S(=O)(=O)[O-])ccc5F)c5ccc2[nH]5)C=C4)C=C3)cc1
REMARK SMILES IDX 4 1 3 2 2 3 1 4 28 5 29 6 90 7 30 8 89 9 31 10 32 11 33 12
REMARK SMILES IDX 83 13 34 14 88 15 82 16 84 17 35 18 87 19 81 20 80 21 36 23
REMARK SMILES IDX 68 24 48 25 67 26 49 27 52 28 66 29 85 30 50 31 51 32 65 34
REMARK SMILES IDX 86 35 53 36 37 37 38 38 46 39 39 40 45 41 47 42 44 43 40 44
REMARK SMILES IDX 41 45 42 46 43 47 69 48 70 49 78 50 71 51 77 52 79 53 76 54
REMARK SMILES IDX 72 55 73 56 74 57 75 58 54 59 55 60 63 61 56 62 62 63 64 64
REMARK SMILES IDX 61 65 57 66 58 67 59 68 60 69 5 70 6 71 7 72 8 73 9 74 10 75
REMARK SMILES IDX 14 76 11 77 13 78 12 79 15 80 16 81 17 82 18 84 19 85 27 86
REMARK SMILES IDX 20 87 22 88 21 89 23 90 24 91 25 92 26 93
REMARK H PARENT 84 22 52 33 17 83
REMARK Flexibility Score: inf
ROOT
ATOM      1  C   UNL A   1      36.438  21.638  25.485  1.00  0.00     0.275 C 
ENDROOT
BRANCH   1   2
ATOM      2  O   UNL A   1      37.501  20.619  25.515  1.00  0.00    -0.458 OA
BRANCH   2   3
ATOM      3  C   UNL A   1      38.860  20.626  25.726  1.00  0.00     0.338 C 
ATOM      4  O   UNL A   1      39.486  19.571  25.677  1.00  0.00    -0.246 OA
BRANCH   3   5
ATOM      5  C   UNL A   1      39.598  21.824  26.246  1.00  0.00     0.060 A 
ATOM      6  C   UNL A   1      38.903  23.363  25.837  1.00  0.00     0.016 A 
ATOM      7  C   UNL A   1      40.875  21.746  27.536  1.00  0.00     0.016 A 
ATOM      8  C   UNL A   1      39.315  24.823  26.568  1.00  0.00     0.010 A 
ATOM      9  C   UNL A   1      41.285  23.323  28.420  1.00  0.00     0.010 A 
ATOM     10  C   UNL A   1      40.519  24.923  27.806  1.00  0.00    -0.014 A 
BRANCH  10  11
ATOM     11  C   UNL A   1      41.022  26.385  27.482  1.00  0.00     0.031 A 
ATOM     12  C   UNL A   1      42.173  26.865  26.495  1.00  0.00     0.074 A 
ATOM     13  C   UNL A   1      40.270  27.368  27.983  1.00  0.00     0.049 A 
ATOM     14  N   UNL A   1      43.003  27.876  26.708  1.00  0.00    -0.248 NA
ATOM     15  C   UNL A   1      42.590  26.068  25.336  1.00  0.00     0.031 C 
ATOM     16  C   UNL A   1      38.931  27.185  28.498  1.00  0.00     0.029 A 
ATOM     17  N   UNL A   1      40.549  28.679  28.225  1.00  0.00    -0.354 N 
ATOM     18  C   UNL A   1      44.189  27.573  26.013  1.00  0.00     0.074 A 
ATOM     19  C   UNL A   1      43.869  26.418  25.202  1.00  0.00     0.031 C 
ATOM     20  C   UNL A   1      38.546  28.271  29.163  1.00  0.00     0.029 A 
ATOM     21  C   UNL A   1      39.667  29.187  29.151  1.00  0.00     0.049 A 
ATOM     22  H   UNL A   1      41.276  29.188  27.799  1.00  0.00     0.167 HD
ATOM     23  C   UNL A   1      45.420  28.151  26.169  1.00  0.00     0.034 A 
ATOM     24  C   UNL A   1      39.801  30.207  30.004  1.00  0.00     0.034 A 
ATOM     25  C   UNL A   1      45.594  29.364  26.950  1.00  0.00     0.049 A 
ATOM     26  C   UNL A   1      41.059  30.999  29.938  1.00  0.00     0.074 A 
ATOM     27  C   UNL A   1      46.692  30.208  27.030  1.00  0.00     0.029 A 
ATOM     28  N   UNL A   1      44.611  29.927  27.757  1.00  0.00    -0.354 N 
ATOM     29  N   UNL A   1      42.182  30.709  29.321  1.00  0.00    -0.248 NA
ATOM     30  C   UNL A   1      41.043  32.282  30.631  1.00  0.00     0.031 C 
ATOM     31  C   UNL A   1      46.378  31.263  27.896  1.00  0.00     0.029 A 
ATOM     32  C   UNL A   1      45.060  31.120  28.298  1.00  0.00     0.049 A 
ATOM     33  H   UNL A   1      43.724  29.534  27.920  1.00  0.00     0.167 HD
ATOM     34  C   UNL A   1      42.996  31.816  29.508  1.00  0.00     0.074 A 
ATOM     35  C   UNL A   1      42.222  32.769  30.282  1.00  0.00     0.031 C 
ATOM     36  C   UNL A   1      44.262  32.036  29.073  1.00  0.00     0.034 A 
BRANCH  23  37
ATOM     37  C   UNL A   1      46.664  27.540  25.517  1.00  0.00     0.023 A 
ATOM     38  C   UNL A   1      47.118  27.963  24.261  1.00  0.00     0.031 A 
ATOM     39  C   UNL A   1      47.444  26.545  26.157  1.00  0.00     0.131 A 
ATOM     40  C   UNL A   1      48.203  27.325  23.634  1.00  0.00     0.055 A 
ATOM     41  C   UNL A   1      48.606  26.002  25.581  1.00  0.00     0.041 A 
ATOM     42  F   UNL A   1      47.101  26.069  27.366  1.00  0.00    -0.206 F 
ATOM     43  C   UNL A   1      48.977  26.374  24.296  1.00  0.00     0.022 A 
BRANCH  40  44
ATOM     44  S   UNL A   1      48.462  27.651  21.870  1.00  0.00     0.124 S 
ATOM     45  O   UNL A   1      47.217  28.335  21.525  1.00  0.00    -0.237 OA
ATOM     46  O   UNL A   1      49.661  28.482  21.876  1.00  0.00    -0.237 OA
ATOM     47  O   UNL A   1      48.623  26.320  21.291  1.00  0.00    -0.744 OA
ENDBRANCH  40  44
ENDBRANCH  23  37
BRANCH  24  48
ATOM     48  C   UNL A   1      38.706  30.514  30.945  1.00  0.00     0.023 A 
ATOM     49  C   UNL A   1      37.602  31.232  30.482  1.00  0.00     0.031 A 
ATOM     50  C   UNL A   1      38.707  30.067  32.277  1.00  0.00     0.131 A 
ATOM     51  C   UNL A   1      36.568  31.557  31.361  1.00  0.00     0.055 A 
ATOM     52  C   UNL A   1      37.642  30.338  33.137  1.00  0.00     0.041 A 
ATOM     53  F   UNL A   1      39.725  29.326  32.748  1.00  0.00    -0.206 F 
ATOM     54  C   UNL A   1      36.571  31.107  32.683  1.00  0.00     0.022 A 
BRANCH  51  55
ATOM     55  S   UNL A   1      35.278  32.668  30.756  1.00  0.00     0.124 S 
ATOM     56  O   UNL A   1      34.325  32.640  31.859  1.00  0.00    -0.237 OA
ATOM     57  O   UNL A   1      36.017  33.915  30.581  1.00  0.00    -0.237 OA
ATOM     58  O   UNL A   1      34.832  32.026  29.523  1.00  0.00    -0.744 OA
ENDBRANCH  51  55
ENDBRANCH  24  48
BRANCH  36  59
ATOM     59  C   UNL A   1      44.833  33.393  29.377  1.00  0.00     0.023 A 
ATOM     60  C   UNL A   1      44.652  34.474  28.502  1.00  0.00     0.031 A 
ATOM     61  C   UNL A   1      45.636  33.578  30.515  1.00  0.00     0.131 A 
ATOM     62  C   UNL A   1      45.357  35.663  28.721  1.00  0.00     0.055 A 
ATOM     63  C   UNL A   1      46.256  34.798  30.778  1.00  0.00     0.041 A 
ATOM     64  F   UNL A   1      45.847  32.568  31.375  1.00  0.00    -0.206 F 
ATOM     65  C   UNL A   1      46.138  35.841  29.865  1.00  0.00     0.022 A 
BRANCH  62  66
ATOM     66  S   UNL A   1      45.375  36.897  27.395  1.00  0.00     0.124 S 
ATOM     67  O   UNL A   1      43.991  36.855  26.930  1.00  0.00    -0.237 OA
ATOM     68  O   UNL A   1      45.770  38.110  28.104  1.00  0.00    -0.237 OA
ATOM     69  O   UNL A   1      46.364  36.373  26.455  1.00  0.00    -0.744 OA
ENDBRANCH  62  66
ENDBRANCH  36  59
ENDBRANCH  10  11
ENDBRANCH   3   5
ENDBRANCH   2   3
ENDBRANCH   1   2
BRANCH   1  70
ATOM     70  C   UNL A   1      34.970  21.116  25.487  1.00  0.00     0.274 C 
BRANCH  70  71
ATOM     71  O   UNL A   1      34.387  21.013  24.181  1.00  0.00    -0.462 OA
BRANCH  71  72
ATOM     72  C   UNL A   1      33.050  21.206  24.179  1.00  0.00     0.309 C 
ATOM     73  O   UNL A   1      32.238  20.372  23.792  1.00  0.00    -0.252 OA
BRANCH  72  74
ATOM     74  C   UNL A   1      32.647  22.565  24.745  1.00  0.00     0.111 C 
ATOM     75  C   UNL A   1      31.538  22.489  25.814  1.00  0.00     0.016 C 
ATOM     76  C   UNL A   1      33.097  24.086  24.001  1.00  0.00     0.093 C 
ATOM     77  C   UNL A   1      31.546  23.575  26.908  1.00  0.00     0.001 C 
ATOM     78  C   UNL A   1      33.315  24.799  25.703  1.00  0.00     0.014 C 
ATOM     79  C   UNL A   1      32.032  24.944  26.487  1.00  0.00     0.001 C 
BRANCH  76  80
ATOM     80  C   UNL A   1      33.024  25.215  22.091  1.00  0.00     0.228 C 
ATOM     81  O   UNL A   1      33.195  24.876  20.880  1.00  0.00    -0.274 OA
ATOM     82  N   UNL A   1      32.862  26.932  21.903  1.00  0.00    -0.326 N 
ATOM     83  H   UNL A   1      33.042  27.210  20.976  1.00  0.00     0.169 HD
BRANCH  82  84
ATOM     84  C   UNL A   1      32.502  28.184  22.824  1.00  0.00     0.041 A 
ATOM     85  C   UNL A   1      31.246  28.836  22.892  1.00  0.00     0.026 A 
ATOM     86  C   UNL A   1      33.300  28.510  23.927  1.00  0.00     0.039 A 
ATOM     87  C   UNL A   1      30.668  29.499  23.980  1.00  0.00     0.003 A 
ATOM     88  C   UNL A   1      32.720  29.130  25.097  1.00  0.00     0.058 A 
ATOM     89  C   UNL A   1      31.398  29.605  25.118  1.00  0.00     0.013 A 
BRANCH  88  90
ATOM     90  C   UNL A   1      33.446  29.175  26.410  1.00  0.00     0.416 C 
ATOM     91  F   UNL A   1      33.067  28.187  27.261  1.00  0.00    -0.166 F 
ATOM     92  F   UNL A   1      34.800  29.044  26.265  1.00  0.00    -0.166 F 
ATOM     93  F   UNL A   1      33.271  30.352  27.068  1.00  0.00    -0.166 F 
ENDBRANCH  88  90
ENDBRANCH  82  84
ENDBRANCH  76  80
ENDBRANCH  72  74
ENDBRANCH  71  72
ENDBRANCH  70  71
ENDBRANCH   1  70
TORSDOF 17
ENDMDL
MODEL 3
REMARK VINA RESULT:     -13.0      8.888     15.136
REMARK SMILES O=C(OCCOC(=O)[C@@H]1CCCC[C@@H]1C(=O)Nc1cccc(C(F)(F)F)c1)c1ccc(-c2c3nc(c(-c4cc(S(=O)(=O)[O-])ccc4F)c4ccc([nH]4)c(-c4cc(S(=O)(=O)[O-])ccc4F)c4nc(c(-c5cc(S(=O)(=O)[O-])ccc5F)c5ccc2[nH]5)C=C4)C=C3)cc1
REMARK SMILES IDX 4 1 3 2 2 3 1 4 28 5 29 6 90 7 30 8 89 9 31 10 32 11 33 12
REMARK SMILES IDX 83 13 34 14 88 15 82 16 84 17 35 18 87 19 81 20 80 21 36 23
REMARK SMILES IDX 68 24 48 25 67 26 49 27 52 28 66 29 85 30 50 31 51 32 65 34
REMARK SMILES IDX 86 35 53 36 37 37 38 38 46 39 39 40 45 41 47 42 44 43 40 44
REMARK SMILES IDX 41 45 42 46 43 47 69 48 70 49 78 50 71 51 77 52 79 53 76 54
REMARK SMILES IDX 72 55 73 56 74 57 75 58 54 59 55 60 63 61 56 62 62 63 64 64
REMARK SMILES IDX 61 65 57 66 58 67 59 68 60 69 5 70 6 71 7 72 8 73 9 74 10 75
REMARK SMILES IDX 14 76 11 77 13 78 12 79 15 80 16 81 17 82 18 84 19 85 27 86
REMARK SMILES IDX 20 87 22 88 21 89 23 90 24 91 25 92 26 93
REMARK H PARENT 84 22 52 33 17 83
REMARK Flexibility Score: inf
ROOT
ATOM      1  C   UNL A   1      44.171  39.258  26.873  1.00  0.00     0.275 C 
ENDROOT
BRANCH   1   2
ATOM      2  O   UNL A   1      44.139  37.785  26.907  1.00  0.00    -0.458 OA
BRANCH   2   3
ATOM      3  C   UNL A   1      43.172  36.830  27.113  1.00  0.00     0.338 C 
ATOM      4  O   UNL A   1      42.002  37.082  26.839  1.00  0.00    -0.246 OA
BRANCH   3   5
ATOM      5  C   UNL A   1      43.426  35.564  27.878  1.00  0.00     0.060 A 
ATOM      6  C   UNL A   1      43.742  34.158  26.907  1.00  0.00     0.016 A 
ATOM      7  C   UNL A   1      43.794  35.512  29.657  1.00  0.00     0.016 A 
ATOM      8  C   UNL A   1      44.393  32.719  27.492  1.00  0.00     0.010 A 
ATOM      9  C   UNL A   1      44.593  33.972  30.312  1.00  0.00     0.010 A 
ATOM     10  C   UNL A   1      44.790  32.501  29.162  1.00  0.00    -0.014 A 
BRANCH  10  11
ATOM     11  C   UNL A   1      44.521  30.947  29.233  1.00  0.00     0.031 A 
ATOM     12  C   UNL A   1      45.454  29.736  28.794  1.00  0.00     0.074 A 
ATOM     13  C   UNL A   1      43.422  30.591  29.904  1.00  0.00     0.049 A 
ATOM     14  N   UNL A   1      45.043  28.607  28.233  1.00  0.00    -0.248 NA
ATOM     15  C   UNL A   1      46.915  29.854  28.747  1.00  0.00     0.031 C 
ATOM     16  C   UNL A   1      42.689  31.470  30.788  1.00  0.00     0.029 A 
ATOM     17  N   UNL A   1      42.687  29.445  29.880  1.00  0.00    -0.354 N 
ATOM     18  C   UNL A   1      46.110  28.143  27.441  1.00  0.00     0.074 A 
ATOM     19  C   UNL A   1      47.235  28.984  27.789  1.00  0.00     0.031 C 
ATOM     20  C   UNL A   1      41.513  30.930  31.094  1.00  0.00     0.029 A 
ATOM     21  C   UNL A   1      41.420  29.687  30.359  1.00  0.00     0.049 A 
ATOM     22  H   UNL A   1      43.015  28.571  29.567  1.00  0.00     0.167 HD
ATOM     23  C   UNL A   1      46.067  27.196  26.453  1.00  0.00     0.034 A 
ATOM     24  C   UNL A   1      40.269  29.051  30.119  1.00  0.00     0.034 A 
ATOM     25  C   UNL A   1      44.898  26.357  26.258  1.00  0.00     0.049 A 
ATOM     26  C   UNL A   1      40.319  27.838  29.259  1.00  0.00     0.074 A 
ATOM     27  C   UNL A   1      44.755  25.215  25.484  1.00  0.00     0.029 A 
ATOM     28  N   UNL A   1      43.675  26.554  26.890  1.00  0.00    -0.354 N 
ATOM     29  N   UNL A   1      41.297  27.415  28.490  1.00  0.00    -0.248 NA
ATOM     30  C   UNL A   1      39.134  26.988  29.284  1.00  0.00     0.031 C 
ATOM     31  C   UNL A   1      43.447  24.738  25.635  1.00  0.00     0.029 A 
ATOM     32  C   UNL A   1      42.795  25.538  26.559  1.00  0.00     0.049 A 
ATOM     33  H   UNL A   1      43.465  27.308  27.487  1.00  0.00     0.167 HD
ATOM     34  C   UNL A   1      40.859  26.202  27.979  1.00  0.00     0.074 A 
ATOM     35  C   UNL A   1      39.540  25.972  28.541  1.00  0.00     0.031 C 
ATOM     36  C   UNL A   1      41.486  25.348  27.133  1.00  0.00     0.034 A 
BRANCH  23  37
ATOM     37  C   UNL A   1      47.260  26.984  25.515  1.00  0.00     0.023 A 
ATOM     38  C   UNL A   1      47.341  27.623  24.272  1.00  0.00     0.031 A 
ATOM     39  C   UNL A   1      48.360  26.161  25.864  1.00  0.00     0.131 A 
ATOM     40  C   UNL A   1      48.393  27.342  23.382  1.00  0.00     0.055 A 
ATOM     41  C   UNL A   1      49.474  25.986  25.024  1.00  0.00     0.041 A 
ATOM     42  F   UNL A   1      48.389  25.502  27.035  1.00  0.00    -0.206 F 
ATOM     43  C   UNL A   1      49.482  26.559  23.759  1.00  0.00     0.022 A 
BRANCH  40  44
ATOM     44  S   UNL A   1      48.207  27.888  21.665  1.00  0.00     0.124 S 
ATOM     45  O   UNL A   1      46.896  28.533  21.714  1.00  0.00    -0.237 OA
ATOM     46  O   UNL A   1      49.347  28.781  21.493  1.00  0.00    -0.237 OA
ATOM     47  O   UNL A   1      48.261  26.646  20.898  1.00  0.00    -0.744 OA
ENDBRANCH  40  44
ENDBRANCH  23  37
BRANCH  24  48
ATOM     48  C   UNL A   1      39.021  29.556  30.726  1.00  0.00     0.023 A 
ATOM     49  C   UNL A   1      38.236  30.455  30.002  1.00  0.00     0.031 A 
ATOM     50  C   UNL A   1      38.565  29.127  31.984  1.00  0.00     0.131 A 
ATOM     51  C   UNL A   1      37.067  30.967  30.567  1.00  0.00     0.055 A 
ATOM     52  C   UNL A   1      37.363  29.590  32.519  1.00  0.00     0.041 A 
ATOM     53  F   UNL A   1      39.263  28.220  32.690  1.00  0.00    -0.206 F 
ATOM     54  C   UNL A   1      36.616  30.534  31.816  1.00  0.00     0.022 A 
BRANCH  51  55
ATOM     55  S   UNL A   1      36.216  32.284  29.672  1.00  0.00     0.124 S 
ATOM     56  O   UNL A   1      37.259  32.742  28.761  1.00  0.00    -0.237 OA
ATOM     57  O   UNL A   1      35.105  31.560  29.060  1.00  0.00    -0.237 OA
ATOM     58  O   UNL A   1      35.845  33.223  30.726  1.00  0.00    -0.744 OA
ENDBRANCH  51  55
ENDBRANCH  24  48
BRANCH  36  59
ATOM     59  C   UNL A   1      40.762  24.063  26.841  1.00  0.00     0.023 A 
ATOM     60  C   UNL A   1      39.571  24.048  26.101  1.00  0.00     0.031 A 
ATOM     61  C   UNL A   1      41.230  22.855  27.384  1.00  0.00     0.131 A 
ATOM     62  C   UNL A   1      38.828  22.866  26.016  1.00  0.00     0.055 A 
ATOM     63  C   UNL A   1      40.534  21.661  27.212  1.00  0.00     0.041 A 
ATOM     64  F   UNL A   1      42.360  22.823  28.111  1.00  0.00    -0.206 F 
ATOM     65  C   UNL A   1      39.312  21.666  26.545  1.00  0.00     0.022 A 
BRANCH  62  66
ATOM     66  S   UNL A   1      37.142  22.967  25.362  1.00  0.00     0.124 S 
ATOM     67  O   UNL A   1      36.479  21.881  26.078  1.00  0.00    -0.237 OA
ATOM     68  O   UNL A   1      36.741  24.318  25.742  1.00  0.00    -0.237 OA
ATOM     69  O   UNL A   1      37.320  22.749  23.927  1.00  0.00    -0.744 OA
ENDBRANCH  62  66
ENDBRANCH  36  59
ENDBRANCH  10  11
ENDBRANCH   3   5
ENDBRANCH   2   3
ENDBRANCH   1   2
BRANCH   1  70
ATOM     70  C   UNL A   1      45.510  39.917  26.426  1.00  0.00     0.274 C 
BRANCH  70  71
ATOM     71  O   UNL A   1      45.420  40.634  25.188  1.00  0.00    -0.462 OA
BRANCH  71  72
ATOM     72  C   UNL A   1      44.936  41.886  25.333  1.00  0.00     0.309 C 
ATOM     73  O   UNL A   1      45.351  42.690  26.162  1.00  0.00    -0.252 OA
BRANCH  72  74
ATOM     74  C   UNL A   1      43.834  42.216  24.329  1.00  0.00     0.111 C 
ATOM     75  C   UNL A   1      42.488  41.531  24.636  1.00  0.00     0.016 C 
ATOM     76  C   UNL A   1      44.145  42.969  22.778  1.00  0.00     0.093 C 
ATOM     77  C   UNL A   1      41.210  42.273  24.198  1.00  0.00     0.001 C 
ATOM     78  C   UNL A   1      42.570  43.933  22.985  1.00  0.00     0.014 C 
ATOM     79  C   UNL A   1      41.315  43.095  22.933  1.00  0.00     0.001 C 
BRANCH  76  80
ATOM     80  C   UNL A   1      45.342  42.769  20.919  1.00  0.00     0.228 C 
ATOM     81  O   UNL A   1      46.541  42.419  20.697  1.00  0.00    -0.274 OA
ATOM     82  N   UNL A   1      44.866  43.243  19.319  1.00  0.00    -0.326 N 
ATOM     83  H   UNL A   1      45.630  43.228  18.698  1.00  0.00     0.169 HD
BRANCH  82  84
ATOM     84  C   UNL A   1      43.528  43.698  18.580  1.00  0.00     0.041 A 
ATOM     85  C   UNL A   1      42.207  43.344  18.951  1.00  0.00     0.026 A 
ATOM     86  C   UNL A   1      43.531  44.800  17.716  1.00  0.00     0.039 A 
ATOM     87  C   UNL A   1      41.028  44.078  18.777  1.00  0.00     0.003 A 
ATOM     88  C   UNL A   1      42.350  45.623  17.569  1.00  0.00     0.058 A 
ATOM     89  C   UNL A   1      41.109  45.261  18.118  1.00  0.00     0.013 A 
BRANCH  88  90
ATOM     90  C   UNL A   1      42.409  46.986  16.944  1.00  0.00     0.416 C 
ATOM     91  F   UNL A   1      41.893  47.958  17.739  1.00  0.00    -0.166 F 
ATOM     92  F   UNL A   1      43.689  47.378  16.659  1.00  0.00    -0.166 F 
ATOM     93  F   UNL A   1      41.746  47.051  15.759  1.00  0.00    -0.166 F 
ENDBRANCH  88  90
ENDBRANCH  82  84
ENDBRANCH  76  80
ENDBRANCH  72  74
ENDBRANCH  71  72
ENDBRANCH  70  71
ENDBRANCH   1  70
TORSDOF 17
ENDMDL
