MODEL 1
REMARK VINA RESULT:     -13.3      0.000      0.000
REMARK SMILES O=C(OCCOC(=O)[C@H](c1c[nH]c2cc(F)ccc12)[NH+]1CCN(c2ccccc2)CC1)c1ccc(-c2c3nc(c(-c4cc(S(=O)(=O)[O-])ccc4F)c4ccc([nH]4)c(-c4cc(S(=O)(=O)[O-])ccc4F)c4nc(c(-c5cc(S(=O)(=O)[O-])ccc5F)c5ccc2[nH]5)C=C4)C=C3)cc1
REMARK SMILES IDX 4 1 3 2 2 3 1 4 32 5 33 6 94 7 34 8 93 9 35 10 36 11 37 12
REMARK SMILES IDX 87 13 38 14 92 15 86 16 88 17 39 18 91 19 85 20 84 21 40 23
REMARK SMILES IDX 72 24 52 25 71 26 53 27 56 28 70 29 89 30 54 31 55 32 69 34
REMARK SMILES IDX 90 35 57 36 41 37 42 38 50 39 43 40 49 41 51 42 48 43 44 44
REMARK SMILES IDX 45 45 46 46 47 47 73 48 74 49 82 50 75 51 81 52 83 53 80 54
REMARK SMILES IDX 76 55 77 56 78 57 79 58 58 59 59 60 67 61 60 62 66 63 68 64
REMARK SMILES IDX 65 65 61 66 62 67 63 68 64 69 5 70 6 71 7 72 8 73 9 74 20 75
REMARK SMILES IDX 21 76 31 77 22 79 30 80 23 81 24 82 25 83 29 84 26 85 28 86
REMARK SMILES IDX 27 87 10 88 11 89 19 90 12 91 13 92 18 93 14 95 17 96 15 97
REMARK SMILES IDX 16 98
REMARK H PARENT 88 22 56 33 20 78 12 94
REMARK Flexibility Score: inf
ROOT
ATOM      1  C   UNL A   1      32.109  30.355  26.896  1.00  0.00     0.275 C 
ENDROOT
BRANCH   1   2
ATOM      2  O   UNL A   1      33.436  30.909  26.774  1.00  0.00    -0.458 OA
BRANCH   2   3
ATOM      3  C   UNL A   1      34.274  31.452  27.690  1.00  0.00     0.338 C 
ATOM      4  O   UNL A   1      33.963  32.534  28.190  1.00  0.00    -0.246 OA
BRANCH   3   5
ATOM      5  C   UNL A   1      35.599  30.871  28.082  1.00  0.00     0.060 A 
ATOM      6  C   UNL A   1      35.874  29.516  28.234  1.00  0.00     0.016 A 
ATOM      7  C   UNL A   1      36.642  31.783  28.362  1.00  0.00     0.016 A 
ATOM      8  C   UNL A   1      37.169  29.081  28.543  1.00  0.00     0.010 A 
ATOM      9  C   UNL A   1      37.940  31.354  28.697  1.00  0.00     0.010 A 
ATOM     10  C   UNL A   1      38.222  29.991  28.762  1.00  0.00    -0.014 A 
BRANCH  10  11
ATOM     11  C   UNL A   1      39.523  29.441  29.242  1.00  0.00     0.031 A 
ATOM     12  C   UNL A   1      39.925  29.819  30.633  1.00  0.00     0.074 A 
ATOM     13  C   UNL A   1      40.249  28.537  28.552  1.00  0.00     0.049 A 
ATOM     14  N   UNL A   1      40.842  29.307  31.406  1.00  0.00    -0.248 NA
ATOM     15  C   UNL A   1      39.170  30.932  31.227  1.00  0.00     0.031 C 
ATOM     16  C   UNL A   1      39.992  28.120  27.182  1.00  0.00     0.029 A 
ATOM     17  N   UNL A   1      41.306  27.742  28.937  1.00  0.00    -0.354 N 
ATOM     18  C   UNL A   1      40.769  30.030  32.588  1.00  0.00     0.074 A 
ATOM     19  C   UNL A   1      39.708  31.001  32.430  1.00  0.00     0.031 C 
ATOM     20  C   UNL A   1      40.742  27.040  26.896  1.00  0.00     0.029 A 
ATOM     21  C   UNL A   1      41.629  26.757  28.020  1.00  0.00     0.049 A 
ATOM     22  H   UNL A   1      41.789  27.865  29.786  1.00  0.00     0.167 HD
ATOM     23  C   UNL A   1      41.550  29.929  33.690  1.00  0.00     0.034 A 
ATOM     24  C   UNL A   1      42.538  25.756  28.084  1.00  0.00     0.034 A 
ATOM     25  C   UNL A   1      42.698  29.069  33.769  1.00  0.00     0.049 A 
ATOM     26  C   UNL A   1      43.452  25.720  29.292  1.00  0.00     0.074 A 
ATOM     27  C   UNL A   1      43.659  28.994  34.759  1.00  0.00     0.029 A 
ATOM     28  N   UNL A   1      43.069  28.158  32.784  1.00  0.00    -0.354 N 
ATOM     29  N   UNL A   1      43.395  26.433  30.395  1.00  0.00    -0.248 NA
ATOM     30  C   UNL A   1      44.584  24.785  29.241  1.00  0.00     0.031 C 
ATOM     31  C   UNL A   1      44.651  28.102  34.337  1.00  0.00     0.029 A 
ATOM     32  C   UNL A   1      44.261  27.543  33.129  1.00  0.00     0.049 A 
ATOM     33  H   UNL A   1      42.558  27.977  31.962  1.00  0.00     0.167 HD
ATOM     34  C   UNL A   1      44.492  26.039  31.160  1.00  0.00     0.074 A 
ATOM     35  C   UNL A   1      45.162  24.994  30.415  1.00  0.00     0.031 C 
ATOM     36  C   UNL A   1      44.921  26.513  32.359  1.00  0.00     0.034 A 
BRANCH  23  37
ATOM     37  C   UNL A   1      41.248  30.919  34.786  1.00  0.00     0.023 A 
ATOM     38  C   UNL A   1      40.156  30.733  35.654  1.00  0.00     0.031 A 
ATOM     39  C   UNL A   1      41.927  32.148  34.824  1.00  0.00     0.131 A 
ATOM     40  C   UNL A   1      39.698  31.809  36.428  1.00  0.00     0.055 A 
ATOM     41  C   UNL A   1      41.526  33.179  35.675  1.00  0.00     0.041 A 
ATOM     42  F   UNL A   1      42.946  32.393  33.986  1.00  0.00    -0.206 F 
ATOM     43  C   UNL A   1      40.389  33.022  36.463  1.00  0.00     0.022 A 
BRANCH  40  44
ATOM     44  S   UNL A   1      38.055  31.680  37.191  1.00  0.00     0.124 S 
ATOM     45  O   UNL A   1      38.324  32.150  38.549  1.00  0.00    -0.237 OA
ATOM     46  O   UNL A   1      37.249  32.565  36.358  1.00  0.00    -0.237 OA
ATOM     47  O   UNL A   1      37.737  30.257  37.083  1.00  0.00    -0.744 OA
ENDBRANCH  40  44
ENDBRANCH  23  37
BRANCH  24  48
ATOM     48  C   UNL A   1      42.720  24.755  26.974  1.00  0.00     0.023 A 
ATOM     49  C   UNL A   1      42.158  23.464  27.044  1.00  0.00     0.031 A 
ATOM     50  C   UNL A   1      43.547  25.034  25.869  1.00  0.00     0.131 A 
ATOM     51  C   UNL A   1      42.459  22.502  26.059  1.00  0.00     0.055 A 
ATOM     52  C   UNL A   1      43.785  24.098  24.858  1.00  0.00     0.041 A 
ATOM     53  F   UNL A   1      44.153  26.226  25.756  1.00  0.00    -0.206 F 
ATOM     54  C   UNL A   1      43.252  22.819  24.956  1.00  0.00     0.022 A 
BRANCH  51  55
ATOM     55  S   UNL A   1      41.894  20.787  26.287  1.00  0.00     0.124 S 
ATOM     56  O   UNL A   1      40.469  20.905  26.007  1.00  0.00    -0.237 OA
ATOM     57  O   UNL A   1      42.688  20.069  25.296  1.00  0.00    -0.237 OA
ATOM     58  O   UNL A   1      42.234  20.498  27.678  1.00  0.00    -0.744 OA
ENDBRANCH  51  55
ENDBRANCH  24  48
BRANCH  36  59
ATOM     59  C   UNL A   1      46.159  25.882  32.949  1.00  0.00     0.023 A 
ATOM     60  C   UNL A   1      46.094  24.763  33.800  1.00  0.00     0.031 A 
ATOM     61  C   UNL A   1      47.428  26.400  32.633  1.00  0.00     0.131 A 
ATOM     62  C   UNL A   1      47.273  24.228  34.341  1.00  0.00     0.055 A 
ATOM     63  C   UNL A   1      48.599  25.824  33.124  1.00  0.00     0.041 A 
ATOM     64  F   UNL A   1      47.549  27.467  31.829  1.00  0.00    -0.206 F 
ATOM     65  C   UNL A   1      48.525  24.739  33.993  1.00  0.00     0.022 A 
BRANCH  62  66
ATOM     66  S   UNL A   1      47.147  22.904  35.574  1.00  0.00     0.124 S 
ATOM     67  O   UNL A   1      45.729  22.941  35.918  1.00  0.00    -0.237 OA
ATOM     68  O   UNL A   1      47.591  21.734  34.824  1.00  0.00    -0.237 OA
ATOM     69  O   UNL A   1      48.053  23.338  36.638  1.00  0.00    -0.744 OA
ENDBRANCH  62  66
ENDBRANCH  36  59
ENDBRANCH  10  11
ENDBRANCH   3   5
ENDBRANCH   2   3
ENDBRANCH   1   2
BRANCH   1  70
ATOM     70  C   UNL A   1      32.089  28.865  27.205  1.00  0.00     0.274 C 
BRANCH  70  71
ATOM     71  O   UNL A   1      31.506  28.118  26.128  1.00  0.00    -0.457 OA
BRANCH  71  72
ATOM     72  C   UNL A   1      32.367  27.613  25.201  1.00  0.00     0.370 C 
ATOM     73  O   UNL A   1      33.530  27.995  25.092  1.00  0.00    -0.245 OA
BRANCH  72  74
ATOM     74  C   UNL A   1      31.707  26.498  24.357  1.00  0.00     0.328 C 
BRANCH  74  75
ATOM     75  N   UNL A   1      31.718  25.119  24.927  1.00  0.00    -0.316 N 
ATOM     76  C   UNL A   1      31.791  24.018  23.953  1.00  0.00     0.284 C 
ATOM     77  C   UNL A   1      32.648  24.780  26.005  1.00  0.00     0.284 C 
ATOM     78  H   UNL A   1      30.792  25.195  25.348  1.00  0.00     0.349 HD
ATOM     79  C   UNL A   1      33.148  23.466  23.482  1.00  0.00     0.178 C 
ATOM     80  C   UNL A   1      34.104  24.609  25.554  1.00  0.00     0.178 C 
ATOM     81  N   UNL A   1      34.228  23.652  24.454  1.00  0.00    -0.360 N 
BRANCH  81  82
ATOM     82  C   UNL A   1      35.143  22.616  24.517  1.00  0.00     0.037 A 
ATOM     83  C   UNL A   1      34.708  21.305  24.758  1.00  0.00     0.026 A 
ATOM     84  C   UNL A   1      36.518  22.859  24.454  1.00  0.00     0.026 A 
ATOM     85  C   UNL A   1      35.623  20.265  24.923  1.00  0.00     0.002 A 
ATOM     86  C   UNL A   1      37.437  21.825  24.631  1.00  0.00     0.002 A 
ATOM     87  C   UNL A   1      36.989  20.527  24.863  1.00  0.00     0.000 A 
ENDBRANCH  81  82
ENDBRANCH  74  75
BRANCH  74  88
ATOM     88  C   UNL A   1      30.284  26.901  23.970  1.00  0.00     0.046 A 
ATOM     89  C   UNL A   1      29.120  26.275  24.391  1.00  0.00     0.094 A 
ATOM     90  C   UNL A   1      29.849  28.054  23.216  1.00  0.00     0.009 A 
ATOM     91  N   UNL A   1      28.050  26.872  23.803  1.00  0.00    -0.361 N 
ATOM     92  C   UNL A   1      28.454  27.990  23.120  1.00  0.00     0.049 A 
ATOM     93  C   UNL A   1      30.491  29.167  22.620  1.00  0.00     0.014 A 
ATOM     94  H   UNL A   1      27.121  26.550  23.859  1.00  0.00     0.166 HD
ATOM     95  C   UNL A   1      27.680  28.940  22.447  1.00  0.00     0.065 A 
ATOM     96  C   UNL A   1      29.726  30.151  21.973  1.00  0.00     0.040 A 
ATOM     97  C   UNL A   1      28.348  30.023  21.888  1.00  0.00     0.125 A 
ATOM     98  F   UNL A   1      27.634  30.971  21.264  1.00  0.00    -0.207 F 
ENDBRANCH  74  88
ENDBRANCH  72  74
ENDBRANCH  71  72
ENDBRANCH  70  71
ENDBRANCH   1  70
TORSDOF 17
ENDMDL
MODEL 2
REMARK VINA RESULT:     -13.3      4.878     10.313
REMARK SMILES O=C(OCCOC(=O)[C@H](c1c[nH]c2cc(F)ccc12)[NH+]1CCN(c2ccccc2)CC1)c1ccc(-c2c3nc(c(-c4cc(S(=O)(=O)[O-])ccc4F)c4ccc([nH]4)c(-c4cc(S(=O)(=O)[O-])ccc4F)c4nc(c(-c5cc(S(=O)(=O)[O-])ccc5F)c5ccc2[nH]5)C=C4)C=C3)cc1
REMARK SMILES IDX 4 1 3 2 2 3 1 4 32 5 33 6 94 7 34 8 93 9 35 10 36 11 37 12
REMARK SMILES IDX 87 13 38 14 92 15 86 16 88 17 39 18 91 19 85 20 84 21 40 23
REMARK SMILES IDX 72 24 52 25 71 26 53 27 56 28 70 29 89 30 54 31 55 32 69 34
REMARK SMILES IDX 90 35 57 36 41 37 42 38 50 39 43 40 49 41 51 42 48 43 44 44
REMARK SMILES IDX 45 45 46 46 47 47 73 48 74 49 82 50 75 51 81 52 83 53 80 54
REMARK SMILES IDX 76 55 77 56 78 57 79 58 58 59 59 60 67 61 60 62 66 63 68 64
REMARK SMILES IDX 65 65 61 66 62 67 63 68 64 69 5 70 6 71 7 72 8 73 9 74 20 75
REMARK SMILES IDX 21 76 31 77 22 79 30 80 23 81 24 82 25 83 29 84 26 85 28 86
REMARK SMILES IDX 27 87 10 88 11 89 19 90 12 91 13 92 18 93 14 95 17 96 15 97
REMARK SMILES IDX 16 98
REMARK H PARENT 88 22 56 33 20 78 12 94
REMARK Flexibility Score: inf
ROOT
ATOM      1  C   UNL A   1      37.399  22.011  24.685  1.00  0.00     0.275 C 
ENDROOT
BRANCH   1   2
ATOM      2  O   UNL A   1      38.153  21.602  25.847  1.00  0.00    -0.458 OA
BRANCH   2   3
ATOM      3  C   UNL A   1      39.378  21.963  26.298  1.00  0.00     0.338 C 
ATOM      4  O   UNL A   1      40.268  21.112  26.301  1.00  0.00    -0.246 OA
BRANCH   3   5
ATOM      5  C   UNL A   1      39.711  23.305  26.876  1.00  0.00     0.060 A 
ATOM      6  C   UNL A   1      39.103  24.508  26.530  1.00  0.00     0.016 A 
ATOM      7  C   UNL A   1      40.763  23.355  27.819  1.00  0.00     0.016 A 
ATOM      8  C   UNL A   1      39.451  25.697  27.182  1.00  0.00     0.010 A 
ATOM      9  C   UNL A   1      41.135  24.551  28.460  1.00  0.00     0.010 A 
ATOM     10  C   UNL A   1      40.459  25.733  28.167  1.00  0.00    -0.014 A 
BRANCH  10  11
ATOM     11  C   UNL A   1      40.870  27.069  28.687  1.00  0.00     0.031 A 
ATOM     12  C   UNL A   1      42.256  27.515  28.338  1.00  0.00     0.074 A 
ATOM     13  C   UNL A   1      40.025  27.917  29.310  1.00  0.00     0.049 A 
ATOM     14  N   UNL A   1      42.798  28.698  28.419  1.00  0.00    -0.248 NA
ATOM     15  C   UNL A   1      43.143  26.464  27.819  1.00  0.00     0.031 C 
ATOM     16  C   UNL A   1      38.674  27.594  29.742  1.00  0.00     0.029 A 
ATOM     17  N   UNL A   1      40.149  29.254  29.616  1.00  0.00    -0.354 N 
ATOM     18  C   UNL A   1      44.094  28.538  27.949  1.00  0.00     0.074 A 
ATOM     19  C   UNL A   1      44.244  27.149  27.572  1.00  0.00     0.031 C 
ATOM     20  C   UNL A   1      38.037  28.724  30.096  1.00  0.00     0.029 A 
ATOM     21  C   UNL A   1      38.969  29.844  30.035  1.00  0.00     0.049 A 
ATOM     22  H   UNL A   1      40.999  29.746  29.545  1.00  0.00     0.167 HD
ATOM     23  C   UNL A   1      45.088  29.455  27.883  1.00  0.00     0.034 A 
ATOM     24  C   UNL A   1      38.687  31.133  30.339  1.00  0.00     0.034 A 
ATOM     25  C   UNL A   1      44.969  30.788  28.407  1.00  0.00     0.049 A 
ATOM     26  C   UNL A   1      39.838  32.119  30.336  1.00  0.00     0.074 A 
ATOM     27  C   UNL A   1      45.947  31.754  28.549  1.00  0.00     0.029 A 
ATOM     28  N   UNL A   1      43.796  31.329  28.926  1.00  0.00    -0.354 N 
ATOM     29  N   UNL A   1      41.073  31.949  29.919  1.00  0.00    -0.248 NA
ATOM     30  C   UNL A   1      39.572  33.451  30.896  1.00  0.00     0.031 C 
ATOM     31  C   UNL A   1      45.387  32.844  29.225  1.00  0.00     0.029 A 
ATOM     32  C   UNL A   1      44.036  32.601  29.418  1.00  0.00     0.049 A 
ATOM     33  H   UNL A   1      42.923  30.874  28.941  1.00  0.00     0.167 HD
ATOM     34  C   UNL A   1      41.732  33.150  30.181  1.00  0.00     0.074 A 
ATOM     35  C   UNL A   1      40.746  34.049  30.744  1.00  0.00     0.031 C 
ATOM     36  C   UNL A   1      43.037  33.474  29.993  1.00  0.00     0.034 A 
BRANCH  23  37
ATOM     37  C   UNL A   1      46.411  28.937  27.381  1.00  0.00     0.023 A 
ATOM     38  C   UNL A   1      46.666  28.806  26.003  1.00  0.00     0.031 A 
ATOM     39  C   UNL A   1      47.332  28.380  28.284  1.00  0.00     0.131 A 
ATOM     40  C   UNL A   1      47.744  28.021  25.571  1.00  0.00     0.055 A 
ATOM     41  C   UNL A   1      48.461  27.688  27.844  1.00  0.00     0.041 A 
ATOM     42  F   UNL A   1      47.113  28.438  29.607  1.00  0.00    -0.206 F 
ATOM     43  C   UNL A   1      48.657  27.482  26.481  1.00  0.00     0.022 A 
BRANCH  40  44
ATOM     44  S   UNL A   1      47.794  27.512  23.829  1.00  0.00     0.124 S 
ATOM     45  O   UNL A   1      49.168  27.852  23.463  1.00  0.00    -0.237 OA
ATOM     46  O   UNL A   1      47.488  26.088  23.906  1.00  0.00    -0.237 OA
ATOM     47  O   UNL A   1      46.767  28.340  23.201  1.00  0.00    -0.744 OA
ENDBRANCH  40  44
ENDBRANCH  23  37
BRANCH  24  48
ATOM     48  C   UNL A   1      37.312  31.584  30.755  1.00  0.00     0.023 A 
ATOM     49  C   UNL A   1      36.448  32.245  29.858  1.00  0.00     0.031 A 
ATOM     50  C   UNL A   1      36.875  31.457  32.087  1.00  0.00     0.131 A 
ATOM     51  C   UNL A   1      35.225  32.780  30.310  1.00  0.00     0.055 A 
ATOM     52  C   UNL A   1      35.629  31.927  32.514  1.00  0.00     0.041 A 
ATOM     53  F   UNL A   1      37.660  30.880  33.010  1.00  0.00    -0.206 F 
ATOM     54  C   UNL A   1      34.803  32.605  31.628  1.00  0.00     0.022 A 
BRANCH  51  55
ATOM     55  S   UNL A   1      34.232  33.808  29.184  1.00  0.00     0.124 S 
ATOM     56  O   UNL A   1      35.244  34.692  28.620  1.00  0.00    -0.237 OA
ATOM     57  O   UNL A   1      33.667  32.814  28.278  1.00  0.00    -0.237 OA
ATOM     58  O   UNL A   1      33.267  34.453  30.073  1.00  0.00    -0.744 OA
ENDBRANCH  51  55
ENDBRANCH  24  48
BRANCH  36  59
ATOM     59  C   UNL A   1      43.465  34.870  30.377  1.00  0.00     0.023 A 
ATOM     60  C   UNL A   1      43.381  35.950  29.479  1.00  0.00     0.031 A 
ATOM     61  C   UNL A   1      43.943  35.125  31.674  1.00  0.00     0.131 A 
ATOM     62  C   UNL A   1      43.813  37.224  29.876  1.00  0.00     0.055 A 
ATOM     63  C   UNL A   1      44.312  36.406  32.083  1.00  0.00     0.041 A 
ATOM     64  F   UNL A   1      44.047  34.132  32.571  1.00  0.00    -0.206 F 
ATOM     65  C   UNL A   1      44.259  37.463  31.179  1.00  0.00     0.022 A 
BRANCH  62  66
ATOM     66  S   UNL A   1      43.863  38.556  28.645  1.00  0.00     0.124 S 
ATOM     67  O   UNL A   1      43.627  39.739  29.466  1.00  0.00    -0.237 OA
ATOM     68  O   UNL A   1      45.206  38.420  28.093  1.00  0.00    -0.237 OA
ATOM     69  O   UNL A   1      42.778  38.214  27.726  1.00  0.00    -0.744 OA
ENDBRANCH  62  66
ENDBRANCH  36  59
ENDBRANCH  10  11
ENDBRANCH   3   5
ENDBRANCH   2   3
ENDBRANCH   1   2
BRANCH   1  70
ATOM     70  C   UNL A   1      35.990  21.438  24.632  1.00  0.00     0.274 C 
BRANCH  70  71
ATOM     71  O   UNL A   1      35.027  22.453  24.318  1.00  0.00    -0.457 OA
BRANCH  71  72
ATOM     72  C   UNL A   1      34.092  22.722  25.272  1.00  0.00     0.370 C 
ATOM     73  O   UNL A   1      34.383  22.970  26.440  1.00  0.00    -0.245 OA
BRANCH  72  74
ATOM     74  C   UNL A   1      32.660  22.708  24.687  1.00  0.00     0.328 C 
BRANCH  74  75
ATOM     75  N   UNL A   1      32.229  23.914  23.921  1.00  0.00    -0.316 N 
ATOM     76  C   UNL A   1      30.941  24.505  24.319  1.00  0.00     0.284 C 
ATOM     77  C   UNL A   1      33.156  25.030  23.730  1.00  0.00     0.284 C 
ATOM     78  H   UNL A   1      32.165  23.426  23.027  1.00  0.00     0.349 HD
ATOM     79  C   UNL A   1      30.871  25.592  25.405  1.00  0.00     0.178 C 
ATOM     80  C   UNL A   1      33.370  25.895  24.978  1.00  0.00     0.178 C 
ATOM     81  N   UNL A   1      32.104  26.374  25.536  1.00  0.00    -0.360 N 
BRANCH  81  82
ATOM     82  C   UNL A   1      31.919  27.715  25.824  1.00  0.00     0.037 A 
ATOM     83  C   UNL A   1      31.466  28.593  24.830  1.00  0.00     0.026 A 
ATOM     84  C   UNL A   1      32.280  28.245  27.067  1.00  0.00     0.026 A 
ATOM     85  C   UNL A   1      31.368  29.963  25.075  1.00  0.00     0.002 A 
ATOM     86  C   UNL A   1      32.196  29.615  27.312  1.00  0.00     0.002 A 
ATOM     87  C   UNL A   1      31.738  30.474  26.316  1.00  0.00     0.000 A 
ENDBRANCH  81  82
ENDBRANCH  74  75
BRANCH  74  88
ATOM     88  C   UNL A   1      32.441  21.444  23.856  1.00  0.00     0.046 A 
ATOM     89  C   UNL A   1      32.200  21.402  22.490  1.00  0.00     0.094 A 
ATOM     90  C   UNL A   1      32.561  20.064  24.268  1.00  0.00     0.009 A 
ATOM     91  N   UNL A   1      32.002  20.113  22.108  1.00  0.00    -0.361 N 
ATOM     92  C   UNL A   1      32.263  19.269  23.156  1.00  0.00     0.049 A 
ATOM     93  C   UNL A   1      32.915  19.400  25.467  1.00  0.00     0.014 A 
ATOM     94  H   UNL A   1      31.713  19.827  21.211  1.00  0.00     0.166 HD
ATOM     95  C   UNL A   1      32.267  17.871  23.182  1.00  0.00     0.065 A 
ATOM     96  C   UNL A   1      32.963  17.997  25.501  1.00  0.00     0.040 A 
ATOM     97  C   UNL A   1      32.635  17.258  24.374  1.00  0.00     0.125 A 
ATOM     98  F   UNL A   1      32.682  15.919  24.426  1.00  0.00    -0.207 F 
ENDBRANCH  74  88
ENDBRANCH  72  74
ENDBRANCH  71  72
ENDBRANCH  70  71
ENDBRANCH   1  70
TORSDOF 17
ENDMDL
MODEL 3
REMARK VINA RESULT:     -13.1      4.574      9.519
REMARK SMILES O=C(OCCOC(=O)[C@H](c1c[nH]c2cc(F)ccc12)[NH+]1CCN(c2ccccc2)CC1)c1ccc(-c2c3nc(c(-c4cc(S(=O)(=O)[O-])ccc4F)c4ccc([nH]4)c(-c4cc(S(=O)(=O)[O-])ccc4F)c4nc(c(-c5cc(S(=O)(=O)[O-])ccc5F)c5ccc2[nH]5)C=C4)C=C3)cc1
REMARK SMILES IDX 4 1 3 2 2 3 1 4 32 5 33 6 94 7 34 8 93 9 35 10 36 11 37 12
REMARK SMILES IDX 87 13 38 14 92 15 86 16 88 17 39 18 91 19 85 20 84 21 40 23
REMARK SMILES IDX 72 24 52 25 71 26 53 27 56 28 70 29 89 30 54 31 55 32 69 34
REMARK SMILES IDX 90 35 57 36 41 37 42 38 50 39 43 40 49 41 51 42 48 43 44 44
REMARK SMILES IDX 45 45 46 46 47 47 73 48 74 49 82 50 75 51 81 52 83 53 80 54
REMARK SMILES IDX 76 55 77 56 78 57 79 58 58 59 59 60 67 61 60 62 66 63 68 64
REMARK SMILES IDX 65 65 61 66 62 67 63 68 64 69 5 70 6 71 7 72 8 73 9 74 20 75
REMARK SMILES IDX 21 76 31 77 22 79 30 80 23 81 24 82 25 83 29 84 26 85 28 86
REMARK SMILES IDX 27 87 10 88 11 89 19 90 12 91 13 92 18 93 14 95 17 96 15 97
REMARK SMILES IDX 16 98
REMARK H PARENT 88 22 56 33 20 78 12 94
REMARK Flexibility Score: inf
ROOT
ATOM      1  C   UNL A   1      37.216  21.837  24.492  1.00  0.00     0.275 C 
ENDROOT
BRANCH   1   2
ATOM      2  O   UNL A   1      37.824  21.857  25.801  1.00  0.00    -0.458 OA
BRANCH   2   3
ATOM      3  C   UNL A   1      39.074  22.184  26.209  1.00  0.00     0.338 C 
ATOM      4  O   UNL A   1      39.953  21.325  26.128  1.00  0.00    -0.246 OA
BRANCH   3   5
ATOM      5  C   UNL A   1      39.451  23.494  26.833  1.00  0.00     0.060 A 
ATOM      6  C   UNL A   1      38.850  24.720  26.564  1.00  0.00     0.016 A 
ATOM      7  C   UNL A   1      40.538  23.486  27.736  1.00  0.00     0.016 A 
ATOM      8  C   UNL A   1      39.243  25.874  27.254  1.00  0.00     0.010 A 
ATOM      9  C   UNL A   1      40.954  24.646  28.415  1.00  0.00     0.010 A 
ATOM     10  C   UNL A   1      40.287  25.850  28.200  1.00  0.00    -0.014 A 
BRANCH  10  11
ATOM     11  C   UNL A   1      40.740  27.155  28.763  1.00  0.00     0.031 A 
ATOM     12  C   UNL A   1      42.143  27.562  28.438  1.00  0.00     0.074 A 
ATOM     13  C   UNL A   1      39.919  28.013  29.403  1.00  0.00     0.049 A 
ATOM     14  N   UNL A   1      42.725  28.723  28.558  1.00  0.00    -0.248 NA
ATOM     15  C   UNL A   1      42.998  26.496  27.895  1.00  0.00     0.031 C 
ATOM     16  C   UNL A   1      38.553  27.725  29.816  1.00  0.00     0.029 A 
ATOM     17  N   UNL A   1      40.086  29.336  29.751  1.00  0.00    -0.354 N 
ATOM     18  C   UNL A   1      44.019  28.532  28.094  1.00  0.00     0.074 A 
ATOM     19  C   UNL A   1      44.124  27.149  27.678  1.00  0.00     0.031 C 
ATOM     20  C   UNL A   1      37.953  28.866  30.197  1.00  0.00     0.029 A 
ATOM     21  C   UNL A   1      38.924  29.954  30.177  1.00  0.00     0.049 A 
ATOM     22  H   UNL A   1      40.954  29.799  29.701  1.00  0.00     0.167 HD
ATOM     23  C   UNL A   1      45.045  29.415  28.063  1.00  0.00     0.034 A 
ATOM     24  C   UNL A   1      38.684  31.242  30.517  1.00  0.00     0.034 A 
ATOM     25  C   UNL A   1      44.967  30.735  28.626  1.00  0.00     0.049 A 
ATOM     26  C   UNL A   1      39.868  32.187  30.552  1.00  0.00     0.074 A 
ATOM     27  C   UNL A   1      45.977  31.662  28.804  1.00  0.00     0.029 A 
ATOM     28  N   UNL A   1      43.809  31.301  29.151  1.00  0.00    -0.354 N 
ATOM     29  N   UNL A   1      41.100  31.987  30.141  1.00  0.00    -0.248 NA
ATOM     30  C   UNL A   1      39.644  33.511  31.149  1.00  0.00     0.031 C 
ATOM     31  C   UNL A   1      45.449  32.750  29.508  1.00  0.00     0.029 A 
ATOM     32  C   UNL A   1      44.088  32.549  29.683  1.00  0.00     0.049 A 
ATOM     33  H   UNL A   1      42.921  30.876  29.146  1.00  0.00     0.167 HD
ATOM     34  C   UNL A   1      41.798  33.155  30.443  1.00  0.00     0.074 A 
ATOM     35  C   UNL A   1      40.839  34.071  31.025  1.00  0.00     0.031 C 
ATOM     36  C   UNL A   1      43.115  33.439  30.275  1.00  0.00     0.034 A 
BRANCH  23  37
ATOM     37  C   UNL A   1      46.353  28.866  27.557  1.00  0.00     0.023 A 
ATOM     38  C   UNL A   1      46.621  28.779  26.178  1.00  0.00     0.031 A 
ATOM     39  C   UNL A   1      47.240  28.237  28.447  1.00  0.00     0.131 A 
ATOM     40  C   UNL A   1      47.675  27.971  25.727  1.00  0.00     0.055 A 
ATOM     41  C   UNL A   1      48.347  27.520  27.993  1.00  0.00     0.041 A 
ATOM     42  F   UNL A   1      47.006  28.252  29.769  1.00  0.00    -0.206 F 
ATOM     43  C   UNL A   1      48.554  27.360  26.626  1.00  0.00     0.022 A 
BRANCH  40  44
ATOM     44  S   UNL A   1      47.728  27.530  23.967  1.00  0.00     0.124 S 
ATOM     45  O   UNL A   1      46.782  28.487  23.396  1.00  0.00    -0.237 OA
ATOM     46  O   UNL A   1      49.131  27.742  23.630  1.00  0.00    -0.237 OA
ATOM     47  O   UNL A   1      47.283  26.138  23.948  1.00  0.00    -0.744 OA
ENDBRANCH  40  44
ENDBRANCH  23  37
BRANCH  24  48
ATOM     48  C   UNL A   1      37.322  31.729  30.936  1.00  0.00     0.023 A 
ATOM     49  C   UNL A   1      36.438  32.331  30.017  1.00  0.00     0.031 A 
ATOM     50  C   UNL A   1      36.918  31.697  32.284  1.00  0.00     0.131 A 
ATOM     51  C   UNL A   1      35.228  32.902  30.462  1.00  0.00     0.055 A 
ATOM     52  C   UNL A   1      35.686  32.202  32.709  1.00  0.00     0.041 A 
ATOM     53  F   UNL A   1      37.725  31.180  33.224  1.00  0.00    -0.206 F 
ATOM     54  C   UNL A   1      34.839  32.822  31.799  1.00  0.00     0.022 A 
BRANCH  51  55
ATOM     55  S   UNL A   1      34.211  33.856  29.293  1.00  0.00     0.124 S 
ATOM     56  O   UNL A   1      33.725  32.811  28.401  1.00  0.00    -0.237 OA
ATOM     57  O   UNL A   1      33.221  34.464  30.174  1.00  0.00    -0.237 OA
ATOM     58  O   UNL A   1      35.163  34.791  28.696  1.00  0.00    -0.744 OA
ENDBRANCH  51  55
ENDBRANCH  24  48
BRANCH  36  59
ATOM     59  C   UNL A   1      43.588  34.808  30.704  1.00  0.00     0.023 A 
ATOM     60  C   UNL A   1      43.534  35.919  29.843  1.00  0.00     0.031 A 
ATOM     61  C   UNL A   1      44.080  35.003  32.006  1.00  0.00     0.131 A 
ATOM     62  C   UNL A   1      44.006  37.166  30.282  1.00  0.00     0.055 A 
ATOM     63  C   UNL A   1      44.490  36.258  32.457  1.00  0.00     0.041 A 
ATOM     64  F   UNL A   1      44.157  33.977  32.869  1.00  0.00    -0.206 F 
ATOM     65  C   UNL A   1      44.465  37.346  31.589  1.00  0.00     0.022 A 
BRANCH  62  66
ATOM     66  S   UNL A   1      44.092  38.536  29.096  1.00  0.00     0.124 S 
ATOM     67  O   UNL A   1      45.521  38.597  28.804  1.00  0.00    -0.237 OA
ATOM     68  O   UNL A   1      43.238  38.065  28.011  1.00  0.00    -0.237 OA
ATOM     69  O   UNL A   1      43.567  39.675  29.849  1.00  0.00    -0.744 OA
ENDBRANCH  62  66
ENDBRANCH  36  59
ENDBRANCH  10  11
ENDBRANCH   3   5
ENDBRANCH   2   3
ENDBRANCH   1   2
BRANCH   1  70
ATOM     70  C   UNL A   1      36.387  23.075  24.178  1.00  0.00     0.274 C 
BRANCH  70  71
ATOM     71  O   UNL A   1      35.898  23.691  25.377  1.00  0.00    -0.457 OA
BRANCH  71  72
ATOM     72  C   UNL A   1      34.691  24.319  25.291  1.00  0.00     0.370 C 
ATOM     73  O   UNL A   1      34.408  25.313  25.956  1.00  0.00    -0.245 OA
BRANCH  72  74
ATOM     74  C   UNL A   1      33.773  23.649  24.243  1.00  0.00     0.328 C 
BRANCH  74  75
ATOM     75  N   UNL A   1      32.735  22.706  24.755  1.00  0.00    -0.316 N 
ATOM     76  C   UNL A   1      32.088  21.851  23.747  1.00  0.00     0.284 C 
ATOM     77  C   UNL A   1      33.030  21.846  25.901  1.00  0.00     0.284 C 
ATOM     78  H   UNL A   1      32.112  23.441  25.088  1.00  0.00     0.349 HD
ATOM     79  C   UNL A   1      32.671  20.473  23.385  1.00  0.00     0.178 C 
ATOM     80  C   UNL A   1      33.953  20.663  25.584  1.00  0.00     0.178 C 
ATOM     81  N   UNL A   1      33.456  19.865  24.462  1.00  0.00    -0.360 N 
BRANCH  81  82
ATOM     82  C   UNL A   1      33.336  18.491  24.569  1.00  0.00     0.037 A 
ATOM     83  C   UNL A   1      32.584  17.928  25.610  1.00  0.00     0.026 A 
ATOM     84  C   UNL A   1      34.042  17.633  23.720  1.00  0.00     0.026 A 
ATOM     85  C   UNL A   1      32.533  16.545  25.791  1.00  0.00     0.002 A 
ATOM     86  C   UNL A   1      34.004  16.252  23.905  1.00  0.00     0.002 A 
ATOM     87  C   UNL A   1      33.248  15.708  24.939  1.00  0.00     0.000 A 
ENDBRANCH  81  82
ENDBRANCH  74  75
BRANCH  74  88
ATOM     88  C   UNL A   1      33.132  24.709  23.348  1.00  0.00     0.046 A 
ATOM     89  C   UNL A   1      33.499  24.999  22.041  1.00  0.00     0.094 A 
ATOM     90  C   UNL A   1      31.964  25.520  23.608  1.00  0.00     0.009 A 
ATOM     91  N   UNL A   1      32.746  26.033  21.582  1.00  0.00    -0.361 N 
ATOM     92  C   UNL A   1      31.769  26.341  22.492  1.00  0.00     0.049 A 
ATOM     93  C   UNL A   1      31.032  25.629  24.668  1.00  0.00     0.014 A 
ATOM     94  H   UNL A   1      32.882  26.493  20.721  1.00  0.00     0.166 HD
ATOM     95  C   UNL A   1      30.731  27.273  22.390  1.00  0.00     0.065 A 
ATOM     96  C   UNL A   1      29.961  26.532  24.566  1.00  0.00     0.040 A 
ATOM     97  C   UNL A   1      29.830  27.339  23.445  1.00  0.00     0.125 A 
ATOM     98  F   UNL A   1      28.803  28.198  23.367  1.00  0.00    -0.207 F 
ENDBRANCH  74  88
ENDBRANCH  72  74
ENDBRANCH  71  72
ENDBRANCH  70  71
ENDBRANCH   1  70
TORSDOF 17
ENDMDL
