MODEL 1
REMARK VINA RESULT:     -11.5      0.000      0.000
REMARK SMILES C[C@H]1[C@H](C(=O)OCCOC(=O)c2ccc(-c3c4nc(c(-c5cc(S(=O)(=O)[O-])ccc5F)c5ccc([nH]5)c(-c5cc(S(=O)(=O)[O-])ccc5F)c5nc(c(-c6cc(S(=O)(=O)[O-])ccc6F)c6ccc3[nH]6)C=C5)C=C4)cc2)CC[N@@H+]1CC(=O)N1CCCC1
REMARK SMILES IDX 8 1 7 2 6 3 4 4 5 5 3 6 1 7 2 8 77 9 75 10 76 11 78 13 79 14
REMARK SMILES IDX 80 15 81 16 82 17 85 18 83 19 84 20 9 21 10 22 11 23 12 24
REMARK SMILES IDX 13 25 74 26 14 27 73 28 15 29 16 30 17 31 67 32 18 33 72 34
REMARK SMILES IDX 66 35 68 36 19 37 71 38 65 39 64 40 20 42 52 43 32 44 51 45
REMARK SMILES IDX 33 46 36 47 50 48 69 49 34 50 35 51 49 53 70 54 37 55 21 56
REMARK SMILES IDX 22 57 30 58 23 59 29 60 31 61 28 62 24 63 25 64 26 65 27 66
REMARK SMILES IDX 53 67 54 68 62 69 55 70 61 71 63 72 60 73 56 74 57 75 58 76
REMARK SMILES IDX 59 77 38 78 39 79 47 80 40 81 46 82 48 83 45 84 41 85 42 86
REMARK SMILES IDX 43 87 44 88
REMARK H PARENT 77 12 68 41 36 52
REMARK Flexibility Score: inf
ROOT
ATOM      1  C   UNL A   1      32.131  29.404  25.991  1.00  0.00     0.275 C 
ENDROOT
BRANCH   1   2
ATOM      2  C   UNL A   1      31.307  29.841  24.778  1.00  0.00     0.274 C 
BRANCH   2   3
ATOM      3  O   UNL A   1      31.734  29.175  23.569  1.00  0.00    -0.462 OA
BRANCH   3   4
ATOM      4  C   UNL A   1      30.773  28.905  22.649  1.00  0.00     0.315 C 
ATOM      5  O   UNL A   1      30.340  29.722  21.844  1.00  0.00    -0.252 OA
BRANCH   4   6
ATOM      6  C   UNL A   1      30.203  27.503  22.753  1.00  0.00     0.162 C 
ATOM      7  C   UNL A   1      31.625  25.365  22.681  1.00  0.00     0.076 C 
ATOM      8  C   UNL A   1      31.013  26.470  23.551  1.00  0.00     0.195 C 
ATOM      9  N   UNL A   1      30.063  25.808  24.451  1.00  0.00    -0.324 N 
ATOM     10  C   UNL A   1      28.846  27.559  23.439  1.00  0.00     0.083 C 
ATOM     11  C   UNL A   1      28.709  26.198  24.081  1.00  0.00     0.264 C 
ATOM     12  H   UNL A   1      30.144  24.802  24.304  1.00  0.00     0.348 HD
BRANCH   9  13
ATOM     13  C   UNL A   1      30.386  25.840  25.882  1.00  0.00     0.364 C 
BRANCH  13  14
ATOM     14  C   UNL A   1      30.841  24.518  26.526  1.00  0.00     0.277 C 
ATOM     15  O   UNL A   1      30.021  23.773  27.073  1.00  0.00    -0.268 OA
ATOM     16  N   UNL A   1      32.163  24.138  26.383  1.00  0.00    -0.338 N 
ATOM     17  C   UNL A   1      33.297  24.993  26.092  1.00  0.00     0.119 C 
ATOM     18  C   UNL A   1      32.603  22.793  26.702  1.00  0.00     0.119 C 
ATOM     19  C   UNL A   1      34.455  24.052  25.827  1.00  0.00     0.023 C 
ATOM     20  C   UNL A   1      34.126  22.852  26.706  1.00  0.00     0.023 C 
ENDBRANCH  13  14
ENDBRANCH   9  13
ENDBRANCH   4   6
ENDBRANCH   3   4
ENDBRANCH   2   3
ENDBRANCH   1   2
BRANCH   1  21
ATOM     21  O   UNL A   1      33.359  30.136  26.056  1.00  0.00    -0.458 OA
BRANCH  21  22
ATOM     22  C   UNL A   1      33.389  31.162  26.936  1.00  0.00     0.338 C 
ATOM     23  O   UNL A   1      32.541  32.006  27.151  1.00  0.00    -0.246 OA
BRANCH  22  24
ATOM     24  C   UNL A   1      34.600  30.989  27.732  1.00  0.00     0.060 A 
ATOM     25  C   UNL A   1      34.852  29.735  28.293  1.00  0.00     0.016 A 
ATOM     26  C   UNL A   1      35.499  32.042  27.862  1.00  0.00     0.016 A 
ATOM     27  C   UNL A   1      36.033  29.506  28.975  1.00  0.00     0.010 A 
ATOM     28  C   UNL A   1      36.688  31.813  28.537  1.00  0.00     0.010 A 
ATOM     29  C   UNL A   1      36.958  30.543  29.080  1.00  0.00    -0.014 A 
BRANCH  29  30
ATOM     30  C   UNL A   1      38.222  30.335  29.797  1.00  0.00     0.031 A 
ATOM     31  C   UNL A   1      39.212  29.392  29.204  1.00  0.00     0.074 A 
ATOM     32  C   UNL A   1      38.399  30.929  30.988  1.00  0.00     0.049 A 
ATOM     33  N   UNL A   1      40.251  28.832  29.755  1.00  0.00    -0.248 NA
ATOM     34  C   UNL A   1      38.979  29.005  27.803  1.00  0.00     0.031 C 
ATOM     35  C   UNL A   1      37.490  31.912  31.584  1.00  0.00     0.029 A 
ATOM     36  N   UNL A   1      39.381  30.768  31.926  1.00  0.00    -0.354 N 
ATOM     37  C   UNL A   1      40.781  27.996  28.781  1.00  0.00     0.074 A 
ATOM     38  C   UNL A   1      39.935  28.110  27.613  1.00  0.00     0.031 C 
ATOM     39  C   UNL A   1      37.943  32.242  32.804  1.00  0.00     0.029 A 
ATOM     40  C   UNL A   1      39.129  31.444  33.097  1.00  0.00     0.049 A 
ATOM     41  H   UNL A   1      40.187  30.222  31.778  1.00  0.00     0.167 HD
ATOM     42  C   UNL A   1      41.873  27.203  28.879  1.00  0.00     0.034 A 
ATOM     43  C   UNL A   1      39.758  31.370  34.285  1.00  0.00     0.034 A 
ATOM     44  C   UNL A   1      42.660  27.119  30.084  1.00  0.00     0.049 A 
ATOM     45  C   UNL A   1      40.929  30.424  34.395  1.00  0.00     0.074 A 
ATOM     46  C   UNL A   1      43.783  26.354  30.335  1.00  0.00     0.029 A 
ATOM     47  N   UNL A   1      42.391  27.831  31.250  1.00  0.00    -0.354 N 
ATOM     48  N   UNL A   1      41.417  29.610  33.484  1.00  0.00    -0.248 NA
ATOM     49  C   UNL A   1      41.632  30.382  35.680  1.00  0.00     0.031 C 
ATOM     50  C   UNL A   1      44.150  26.552  31.670  1.00  0.00     0.029 A 
ATOM     51  C   UNL A   1      43.313  27.506  32.230  1.00  0.00     0.049 A 
ATOM     52  H   UNL A   1      41.653  28.472  31.362  1.00  0.00     0.167 HD
ATOM     53  C   UNL A   1      42.513  28.992  34.075  1.00  0.00     0.074 A 
ATOM     54  C   UNL A   1      42.608  29.524  35.421  1.00  0.00     0.031 C 
ATOM     55  C   UNL A   1      43.372  28.076  33.557  1.00  0.00     0.034 A 
BRANCH  42  56
ATOM     56  C   UNL A   1      42.206  26.334  27.693  1.00  0.00     0.023 A 
ATOM     57  C   UNL A   1      41.697  25.029  27.563  1.00  0.00     0.031 A 
ATOM     58  C   UNL A   1      43.101  26.789  26.708  1.00  0.00     0.131 A 
ATOM     59  C   UNL A   1      42.149  24.199  26.525  1.00  0.00     0.055 A 
ATOM     60  C   UNL A   1      43.480  25.988  25.630  1.00  0.00     0.041 A 
ATOM     61  F   UNL A   1      43.647  28.012  26.794  1.00  0.00    -0.206 F 
ATOM     62  C   UNL A   1      43.018  24.678  25.543  1.00  0.00     0.022 A 
BRANCH  59  63
ATOM     63  S   UNL A   1      41.714  22.439  26.572  1.00  0.00     0.124 S 
ATOM     64  O   UNL A   1      42.315  22.020  27.837  1.00  0.00    -0.237 OA
ATOM     65  O   UNL A   1      40.257  22.472  26.539  1.00  0.00    -0.237 OA
ATOM     66  O   UNL A   1      42.354  21.895  25.376  1.00  0.00    -0.744 OA
ENDBRANCH  59  63
ENDBRANCH  42  56
BRANCH  43  67
ATOM     67  C   UNL A   1      39.278  32.165  35.450  1.00  0.00     0.023 A 
ATOM     68  C   UNL A   1      39.704  33.488  35.643  1.00  0.00     0.031 A 
ATOM     69  C   UNL A   1      38.399  31.614  36.400  1.00  0.00     0.131 A 
ATOM     70  C   UNL A   1      39.284  34.201  36.777  1.00  0.00     0.055 A 
ATOM     71  C   UNL A   1      37.940  32.345  37.498  1.00  0.00     0.041 A 
ATOM     72  F   UNL A   1      37.956  30.353  36.266  1.00  0.00    -0.206 F 
ATOM     73  C   UNL A   1      38.395  33.645  37.698  1.00  0.00     0.022 A 
BRANCH  70  74
ATOM     74  S   UNL A   1      39.992  35.844  37.077  1.00  0.00     0.124 S 
ATOM     75  O   UNL A   1      41.404  35.528  37.265  1.00  0.00    -0.237 OA
ATOM     76  O   UNL A   1      39.650  36.551  35.847  1.00  0.00    -0.237 OA
ATOM     77  O   UNL A   1      39.291  36.303  38.274  1.00  0.00    -0.744 OA
ENDBRANCH  70  74
ENDBRANCH  43  67
BRANCH  55  78
ATOM     78  C   UNL A   1      44.532  27.663  34.423  1.00  0.00     0.023 A 
ATOM     79  C   UNL A   1      44.450  26.573  35.304  1.00  0.00     0.031 A 
ATOM     80  C   UNL A   1      45.753  28.352  34.319  1.00  0.00     0.131 A 
ATOM     81  C   UNL A   1      45.567  26.222  36.074  1.00  0.00     0.055 A 
ATOM     82  C   UNL A   1      46.876  27.963  35.046  1.00  0.00     0.041 A 
ATOM     83  F   UNL A   1      45.877  29.401  33.489  1.00  0.00    -0.206 F 
ATOM     84  C   UNL A   1      46.785  26.897  35.935  1.00  0.00     0.022 A 
BRANCH  81  85
ATOM     85  S   UNL A   1      45.397  24.902  37.305  1.00  0.00     0.124 S 
ATOM     86  O   UNL A   1      45.434  23.705  36.470  1.00  0.00    -0.237 OA
ATOM     87  O   UNL A   1      46.560  25.118  38.160  1.00  0.00    -0.237 OA
ATOM     88  O   UNL A   1      44.107  25.182  37.932  1.00  0.00    -0.744 OA
ENDBRANCH  81  85
ENDBRANCH  55  78
ENDBRANCH  29  30
ENDBRANCH  22  24
ENDBRANCH  21  22
ENDBRANCH   1  21
TORSDOF 16
ENDMDL
MODEL 2
REMARK VINA RESULT:     -11.4      1.381      1.692
REMARK SMILES C[C@H]1[C@H](C(=O)OCCOC(=O)c2ccc(-c3c4nc(c(-c5cc(S(=O)(=O)[O-])ccc5F)c5ccc([nH]5)c(-c5cc(S(=O)(=O)[O-])ccc5F)c5nc(c(-c6cc(S(=O)(=O)[O-])ccc6F)c6ccc3[nH]6)C=C5)C=C4)cc2)CC[N@@H+]1CC(=O)N1CCCC1
REMARK SMILES IDX 8 1 7 2 6 3 4 4 5 5 3 6 1 7 2 8 77 9 75 10 76 11 78 13 79 14
REMARK SMILES IDX 80 15 81 16 82 17 85 18 83 19 84 20 9 21 10 22 11 23 12 24
REMARK SMILES IDX 13 25 74 26 14 27 73 28 15 29 16 30 17 31 67 32 18 33 72 34
REMARK SMILES IDX 66 35 68 36 19 37 71 38 65 39 64 40 20 42 52 43 32 44 51 45
REMARK SMILES IDX 33 46 36 47 50 48 69 49 34 50 35 51 49 53 70 54 37 55 21 56
REMARK SMILES IDX 22 57 30 58 23 59 29 60 31 61 28 62 24 63 25 64 26 65 27 66
REMARK SMILES IDX 53 67 54 68 62 69 55 70 61 71 63 72 60 73 56 74 57 75 58 76
REMARK SMILES IDX 59 77 38 78 39 79 47 80 40 81 46 82 48 83 45 84 41 85 42 86
REMARK SMILES IDX 43 87 44 88
REMARK H PARENT 77 12 68 41 36 52
REMARK Flexibility Score: inf
ROOT
ATOM      1  C   UNL A   1      31.780  30.079  25.877  1.00  0.00     0.275 C 
ENDROOT
BRANCH   1   2
ATOM      2  C   UNL A   1      31.724  29.654  24.408  1.00  0.00     0.274 C 
BRANCH   2   3
ATOM      3  O   UNL A   1      30.378  29.695  23.886  1.00  0.00    -0.462 OA
BRANCH   3   4
ATOM      4  C   UNL A   1      30.163  29.072  22.699  1.00  0.00     0.315 C 
ATOM      5  O   UNL A   1      30.100  29.650  21.620  1.00  0.00    -0.252 OA
BRANCH   4   6
ATOM      6  C   UNL A   1      29.915  27.581  22.827  1.00  0.00     0.162 C 
ATOM      7  C   UNL A   1      31.739  25.794  22.556  1.00  0.00     0.076 C 
ATOM      8  C   UNL A   1      31.004  26.742  23.512  1.00  0.00     0.195 C 
ATOM      9  N   UNL A   1      30.314  25.890  24.487  1.00  0.00    -0.324 N 
ATOM     10  C   UNL A   1      28.656  27.346  23.649  1.00  0.00     0.083 C 
ATOM     11  C   UNL A   1      28.878  25.986  24.268  1.00  0.00     0.264 C 
ATOM     12  H   UNL A   1      30.590  24.925  24.308  1.00  0.00     0.348 HD
BRANCH   9  13
ATOM     13  C   UNL A   1      30.772  25.986  25.878  1.00  0.00     0.364 C 
BRANCH  13  14
ATOM     14  C   UNL A   1      31.437  24.738  26.484  1.00  0.00     0.277 C 
ATOM     15  O   UNL A   1      30.775  23.940  27.156  1.00  0.00    -0.268 OA
ATOM     16  N   UNL A   1      32.758  24.477  26.167  1.00  0.00    -0.338 N 
ATOM     17  C   UNL A   1      33.753  25.423  25.701  1.00  0.00     0.119 C 
ATOM     18  C   UNL A   1      33.366  23.191  26.453  1.00  0.00     0.119 C 
ATOM     19  C   UNL A   1      34.950  24.585  25.300  1.00  0.00     0.023 C 
ATOM     20  C   UNL A   1      34.863  23.393  26.244  1.00  0.00     0.023 C 
ENDBRANCH  13  14
ENDBRANCH   9  13
ENDBRANCH   4   6
ENDBRANCH   3   4
ENDBRANCH   2   3
ENDBRANCH   1   2
BRANCH   1  21
ATOM     21  O   UNL A   1      33.137  30.206  26.314  1.00  0.00    -0.458 OA
BRANCH  21  22
ATOM     22  C   UNL A   1      33.418  31.295  27.063  1.00  0.00     0.338 C 
ATOM     23  O   UNL A   1      32.708  32.251  27.313  1.00  0.00    -0.246 OA
BRANCH  22  24
ATOM     24  C   UNL A   1      34.718  31.050  27.678  1.00  0.00     0.060 A 
ATOM     25  C   UNL A   1      35.578  32.136  27.866  1.00  0.00     0.016 A 
ATOM     26  C   UNL A   1      35.046  29.773  28.119  1.00  0.00     0.016 A 
ATOM     27  C   UNL A   1      36.778  31.961  28.529  1.00  0.00     0.010 A 
ATOM     28  C   UNL A   1      36.245  29.597  28.793  1.00  0.00     0.010 A 
ATOM     29  C   UNL A   1      37.101  30.693  29.007  1.00  0.00    -0.014 A 
BRANCH  29  30
ATOM     30  C   UNL A   1      38.367  30.472  29.716  1.00  0.00     0.031 A 
ATOM     31  C   UNL A   1      39.349  29.528  29.112  1.00  0.00     0.074 A 
ATOM     32  C   UNL A   1      38.554  31.055  30.912  1.00  0.00     0.049 A 
ATOM     33  N   UNL A   1      40.387  28.957  29.653  1.00  0.00    -0.248 NA
ATOM     34  C   UNL A   1      39.107  29.154  27.709  1.00  0.00     0.031 C 
ATOM     35  C   UNL A   1      37.653  32.039  31.521  1.00  0.00     0.029 A 
ATOM     36  N   UNL A   1      39.539  30.880  31.844  1.00  0.00    -0.354 N 
ATOM     37  C   UNL A   1      40.907  28.126  28.670  1.00  0.00     0.074 A 
ATOM     38  C   UNL A   1      40.056  28.255  27.506  1.00  0.00     0.031 C 
ATOM     39  C   UNL A   1      38.115  32.356  32.741  1.00  0.00     0.029 A 
ATOM     40  C   UNL A   1      39.296  31.548  33.021  1.00  0.00     0.049 A 
ATOM     41  H   UNL A   1      40.341  30.331  31.688  1.00  0.00     0.167 HD
ATOM     42  C   UNL A   1      41.995  27.325  28.756  1.00  0.00     0.034 A 
ATOM     43  C   UNL A   1      39.931  31.460  34.206  1.00  0.00     0.034 A 
ATOM     44  C   UNL A   1      42.787  27.227  29.956  1.00  0.00     0.049 A 
ATOM     45  C   UNL A   1      41.096  30.507  34.302  1.00  0.00     0.074 A 
ATOM     46  C   UNL A   1      43.906  26.453  30.197  1.00  0.00     0.029 A 
ATOM     47  N   UNL A   1      42.528  27.931  31.130  1.00  0.00    -0.354 N 
ATOM     48  N   UNL A   1      41.575  29.697  33.383  1.00  0.00    -0.248 NA
ATOM     49  C   UNL A   1      41.805  30.450  35.584  1.00  0.00     0.031 C 
ATOM     50  C   UNL A   1      44.281  26.637  31.531  1.00  0.00     0.029 A 
ATOM     51  C   UNL A   1      43.452  27.592  32.103  1.00  0.00     0.049 A 
ATOM     52  H   UNL A   1      41.794  28.576  31.251  1.00  0.00     0.167 HD
ATOM     53  C   UNL A   1      42.670  29.068  33.963  1.00  0.00     0.074 A 
ATOM     54  C   UNL A   1      42.775  29.588  35.313  1.00  0.00     0.031 C 
ATOM     55  C   UNL A   1      43.521  28.151  33.434  1.00  0.00     0.034 A 
BRANCH  42  56
ATOM     56  C   UNL A   1      42.317  26.464  27.562  1.00  0.00     0.023 A 
ATOM     57  C   UNL A   1      41.807  25.159  27.428  1.00  0.00     0.031 A 
ATOM     58  C   UNL A   1      43.203  26.925  26.572  1.00  0.00     0.131 A 
ATOM     59  C   UNL A   1      42.250  24.337  26.381  1.00  0.00     0.055 A 
ATOM     60  C   UNL A   1      43.572  26.131  25.484  1.00  0.00     0.041 A 
ATOM     61  F   UNL A   1      43.750  28.148  26.660  1.00  0.00    -0.206 F 
ATOM     62  C   UNL A   1      43.109  24.823  25.393  1.00  0.00     0.022 A 
BRANCH  59  63
ATOM     63  S   UNL A   1      41.816  22.576  26.420  1.00  0.00     0.124 S 
ATOM     64  O   UNL A   1      40.356  22.632  26.404  1.00  0.00    -0.237 OA
ATOM     65  O   UNL A   1      42.448  22.067  25.209  1.00  0.00    -0.237 OA
ATOM     66  O   UNL A   1      42.401  22.106  27.674  1.00  0.00    -0.744 OA
ENDBRANCH  59  63
ENDBRANCH  42  56
BRANCH  43  67
ATOM     67  C   UNL A   1      39.461  32.249  35.379  1.00  0.00     0.023 A 
ATOM     68  C   UNL A   1      38.733  31.640  36.412  1.00  0.00     0.031 A 
ATOM     69  C   UNL A   1      39.718  33.629  35.484  1.00  0.00     0.131 A 
ATOM     70  C   UNL A   1      38.252  32.412  37.481  1.00  0.00     0.055 A 
ATOM     71  C   UNL A   1      39.285  34.383  36.577  1.00  0.00     0.041 A 
ATOM     72  F   UNL A   1      40.413  34.265  34.527  1.00  0.00    -0.206 F 
ATOM     73  C   UNL A   1      38.535  33.775  37.579  1.00  0.00     0.022 A 
BRANCH  70  74
ATOM     74  S   UNL A   1      37.170  31.620  38.703  1.00  0.00     0.124 S 
ATOM     75  O   UNL A   1      37.992  31.677  39.908  1.00  0.00    -0.237 OA
ATOM     76  O   UNL A   1      36.000  32.491  38.681  1.00  0.00    -0.237 OA
ATOM     77  O   UNL A   1      36.960  30.282  38.155  1.00  0.00    -0.744 OA
ENDBRANCH  70  74
ENDBRANCH  43  67
BRANCH  55  78
ATOM     78  C   UNL A   1      44.682  27.723  34.291  1.00  0.00     0.023 A 
ATOM     79  C   UNL A   1      44.614  26.598  35.128  1.00  0.00     0.031 A 
ATOM     80  C   UNL A   1      45.892  28.437  34.223  1.00  0.00     0.131 A 
ATOM     81  C   UNL A   1      45.732  26.236  35.892  1.00  0.00     0.055 A 
ATOM     82  C   UNL A   1      47.017  28.039  34.943  1.00  0.00     0.041 A 
ATOM     83  F   UNL A   1      46.003  29.520  33.437  1.00  0.00    -0.206 F 
ATOM     84  C   UNL A   1      46.939  26.937  35.788  1.00  0.00     0.022 A 
BRANCH  81  85
ATOM     85  S   UNL A   1      45.577  24.865  37.067  1.00  0.00     0.124 S 
ATOM     86  O   UNL A   1      45.345  23.731  36.179  1.00  0.00    -0.237 OA
ATOM     87  O   UNL A   1      46.868  24.887  37.747  1.00  0.00    -0.237 OA
ATOM     88  O   UNL A   1      44.436  25.251  37.895  1.00  0.00    -0.744 OA
ENDBRANCH  81  85
ENDBRANCH  55  78
ENDBRANCH  29  30
ENDBRANCH  22  24
ENDBRANCH  21  22
ENDBRANCH   1  21
TORSDOF 16
ENDMDL
MODEL 3
REMARK VINA RESULT:     -11.3      4.769      9.965
REMARK SMILES C[C@H]1[C@H](C(=O)OCCOC(=O)c2ccc(-c3c4nc(c(-c5cc(S(=O)(=O)[O-])ccc5F)c5ccc([nH]5)c(-c5cc(S(=O)(=O)[O-])ccc5F)c5nc(c(-c6cc(S(=O)(=O)[O-])ccc6F)c6ccc3[nH]6)C=C5)C=C4)cc2)CC[N@@H+]1CC(=O)N1CCCC1
REMARK SMILES IDX 8 1 7 2 6 3 4 4 5 5 3 6 1 7 2 8 77 9 75 10 76 11 78 13 79 14
REMARK SMILES IDX 80 15 81 16 82 17 85 18 83 19 84 20 9 21 10 22 11 23 12 24
REMARK SMILES IDX 13 25 74 26 14 27 73 28 15 29 16 30 17 31 67 32 18 33 72 34
REMARK SMILES IDX 66 35 68 36 19 37 71 38 65 39 64 40 20 42 52 43 32 44 51 45
REMARK SMILES IDX 33 46 36 47 50 48 69 49 34 50 35 51 49 53 70 54 37 55 21 56
REMARK SMILES IDX 22 57 30 58 23 59 29 60 31 61 28 62 24 63 25 64 26 65 27 66
REMARK SMILES IDX 53 67 54 68 62 69 55 70 61 71 63 72 60 73 56 74 57 75 58 76
REMARK SMILES IDX 59 77 38 78 39 79 47 80 40 81 46 82 48 83 45 84 41 85 42 86
REMARK SMILES IDX 43 87 44 88
REMARK H PARENT 77 12 68 41 36 52
REMARK Flexibility Score: inf
ROOT
ATOM      1  C   UNL A   1      36.339  20.798  24.994  1.00  0.00     0.275 C 
ENDROOT
BRANCH   1   2
ATOM      2  C   UNL A   1      34.924  21.067  25.511  1.00  0.00     0.274 C 
BRANCH   2   3
ATOM      3  O   UNL A   1      34.098  21.706  24.513  1.00  0.00    -0.462 OA
BRANCH   3   4
ATOM      4  C   UNL A   1      33.527  22.888  24.858  1.00  0.00     0.315 C 
ATOM      5  O   UNL A   1      34.123  23.806  25.410  1.00  0.00    -0.252 OA
BRANCH   4   6
ATOM      6  C   UNL A   1      32.037  22.952  24.580  1.00  0.00     0.162 C 
ATOM      7  C   UNL A   1      30.227  22.708  26.386  1.00  0.00     0.076 C 
ATOM      8  C   UNL A   1      31.156  23.659  25.621  1.00  0.00     0.195 C 
ATOM      9  N   UNL A   1      30.285  24.571  24.871  1.00  0.00    -0.324 N 
ATOM     10  C   UNL A   1      31.798  23.705  23.279  1.00  0.00     0.083 C 
ATOM     11  C   UNL A   1      30.413  24.287  23.449  1.00  0.00     0.264 C 
ATOM     12  H   UNL A   1      29.321  24.372  25.139  1.00  0.00     0.348 HD
BRANCH   9  13
ATOM     13  C   UNL A   1      30.326  25.985  25.263  1.00  0.00     0.364 C 
BRANCH  13  14
ATOM     14  C   UNL A   1      30.459  27.021  24.134  1.00  0.00     0.277 C 
ATOM     15  O   UNL A   1      29.461  27.406  23.515  1.00  0.00    -0.268 OA
ATOM     16  N   UNL A   1      31.699  27.588  23.905  1.00  0.00    -0.338 N 
ATOM     17  C   UNL A   1      32.994  27.048  24.271  1.00  0.00     0.119 C 
ATOM     18  C   UNL A   1      31.852  28.766  23.070  1.00  0.00     0.119 C 
ATOM     19  C   UNL A   1      33.988  28.157  23.990  1.00  0.00     0.023 C 
ATOM     20  C   UNL A   1      33.351  28.898  22.822  1.00  0.00     0.023 C 
ENDBRANCH  13  14
ENDBRANCH   9  13
ENDBRANCH   4   6
ENDBRANCH   3   4
ENDBRANCH   2   3
ENDBRANCH   1   2
BRANCH   1  21
ATOM     21  O   UNL A   1      37.246  21.800  25.466  1.00  0.00    -0.458 OA
BRANCH  21  22
ATOM     22  C   UNL A   1      38.469  21.362  25.837  1.00  0.00     0.338 C 
ATOM     23  O   UNL A   1      38.982  20.277  25.639  1.00  0.00    -0.246 OA
BRANCH  22  24
ATOM     24  C   UNL A   1      39.167  22.512  26.405  1.00  0.00     0.060 A 
ATOM     25  C   UNL A   1      40.241  22.276  27.266  1.00  0.00     0.016 A 
ATOM     26  C   UNL A   1      38.796  23.799  26.033  1.00  0.00     0.016 A 
ATOM     27  C   UNL A   1      40.985  23.336  27.750  1.00  0.00     0.010 A 
ATOM     28  C   UNL A   1      39.546  24.863  26.509  1.00  0.00     0.010 A 
ATOM     29  C   UNL A   1      40.646  24.629  27.356  1.00  0.00    -0.014 A 
BRANCH  29  30
ATOM     30  C   UNL A   1      41.414  25.778  27.850  1.00  0.00     0.031 A 
ATOM     31  C   UNL A   1      40.686  26.822  28.624  1.00  0.00     0.074 A 
ATOM     32  C   UNL A   1      42.711  25.885  27.516  1.00  0.00     0.049 A 
ATOM     33  N   UNL A   1      41.054  28.035  28.923  1.00  0.00    -0.248 NA
ATOM     34  C   UNL A   1      39.342  26.455  29.101  1.00  0.00     0.031 C 
ATOM     35  C   UNL A   1      43.489  24.860  26.815  1.00  0.00     0.029 A 
ATOM     36  N   UNL A   1      43.591  26.917  27.688  1.00  0.00    -0.354 N 
ATOM     37  C   UNL A   1      39.975  28.594  29.595  1.00  0.00     0.074 A 
ATOM     38  C   UNL A   1      38.932  27.592  29.640  1.00  0.00     0.031 C 
ATOM     39  C   UNL A   1      44.726  25.331  26.589  1.00  0.00     0.029 A 
ATOM     40  C   UNL A   1      44.800  26.708  27.065  1.00  0.00     0.049 A 
ATOM     41  H   UNL A   1      43.381  27.728  28.204  1.00  0.00     0.167 HD
ATOM     42  C   UNL A   1      39.879  29.842  30.111  1.00  0.00     0.034 A 
ATOM     43  C   UNL A   1      45.819  27.562  26.857  1.00  0.00     0.034 A 
ATOM     44  C   UNL A   1      40.950  30.802  30.011  1.00  0.00     0.049 A 
ATOM     45  C   UNL A   1      45.663  28.971  27.376  1.00  0.00     0.074 A 
ATOM     46  C   UNL A   1      40.996  32.103  30.473  1.00  0.00     0.029 A 
ATOM     47  N   UNL A   1      42.172  30.555  29.389  1.00  0.00    -0.354 N 
ATOM     48  N   UNL A   1      44.633  29.513  27.987  1.00  0.00    -0.248 NA
ATOM     49  C   UNL A   1      46.796  29.881  27.180  1.00  0.00     0.031 C 
ATOM     50  C   UNL A   1      42.214  32.662  30.073  1.00  0.00     0.029 A 
ATOM     51  C   UNL A   1      42.968  31.686  29.437  1.00  0.00     0.049 A 
ATOM     52  H   UNL A   1      42.433  29.700  28.976  1.00  0.00     0.167 HD
ATOM     53  C   UNL A   1      45.012  30.816  28.289  1.00  0.00     0.074 A 
ATOM     54  C   UNL A   1      46.363  30.978  27.785  1.00  0.00     0.031 C 
ATOM     55  C   UNL A   1      44.318  31.791  28.930  1.00  0.00     0.034 A 
BRANCH  42  56
ATOM     56  C   UNL A   1      38.566  30.233  30.739  1.00  0.00     0.023 A 
ATOM     57  C   UNL A   1      37.550  30.868  30.002  1.00  0.00     0.031 A 
ATOM     58  C   UNL A   1      38.349  30.032  32.114  1.00  0.00     0.131 A 
ATOM     59  C   UNL A   1      36.407  31.352  30.656  1.00  0.00     0.055 A 
ATOM     60  C   UNL A   1      37.171  30.438  32.742  1.00  0.00     0.041 A 
ATOM     61  F   UNL A   1      39.294  29.462  32.879  1.00  0.00    -0.206 F 
ATOM     62  C   UNL A   1      36.198  31.118  32.016  1.00  0.00     0.022 A 
BRANCH  59  63
ATOM     63  S   UNL A   1      35.275  32.431  29.736  1.00  0.00     0.124 S 
ATOM     64  O   UNL A   1      34.776  31.525  28.705  1.00  0.00    -0.237 OA
ATOM     65  O   UNL A   1      34.313  32.825  30.759  1.00  0.00    -0.237 OA
ATOM     66  O   UNL A   1      36.142  33.502  29.249  1.00  0.00    -0.744 OA
ENDBRANCH  59  63
ENDBRANCH  42  56
BRANCH  43  67
ATOM     67  C   UNL A   1      47.030  27.132  26.104  1.00  0.00     0.023 A 
ATOM     68  C   UNL A   1      48.095  26.492  26.757  1.00  0.00     0.031 A 
ATOM     69  C   UNL A   1      47.154  27.365  24.722  1.00  0.00     0.131 A 
ATOM     70  C   UNL A   1      49.250  26.144  26.040  1.00  0.00     0.055 A 
ATOM     71  C   UNL A   1      48.283  26.968  24.001  1.00  0.00     0.041 A 
ATOM     72  F   UNL A   1      46.166  27.971  24.043  1.00  0.00    -0.206 F 
ATOM     73  C   UNL A   1      49.346  26.364  24.665  1.00  0.00     0.022 A 
BRANCH  70  74
ATOM     74  S   UNL A   1      50.668  25.478  26.953  1.00  0.00     0.124 S 
ATOM     75  O   UNL A   1      50.069  24.340  27.642  1.00  0.00    -0.237 OA
ATOM     76  O   UNL A   1      51.599  25.159  25.876  1.00  0.00    -0.237 OA
ATOM     77  O   UNL A   1      51.070  26.587  27.815  1.00  0.00    -0.744 OA
ENDBRANCH  70  74
ENDBRANCH  43  67
BRANCH  55  78
ATOM     78  C   UNL A   1      45.043  33.084  29.194  1.00  0.00     0.023 A 
ATOM     79  C   UNL A   1      44.999  34.159  28.292  1.00  0.00     0.031 A 
ATOM     80  C   UNL A   1      45.751  33.247  30.398  1.00  0.00     0.131 A 
ATOM     81  C   UNL A   1      45.680  35.345  28.598  1.00  0.00     0.055 A 
ATOM     82  C   UNL A   1      46.379  34.448  30.721  1.00  0.00     0.041 A 
ATOM     83  F   UNL A   1      45.821  32.245  31.290  1.00  0.00    -0.206 F 
ATOM     84  C   UNL A   1      46.352  35.503  29.815  1.00  0.00     0.022 A 
BRANCH  81  85
ATOM     85  S   UNL A   1      45.724  36.668  27.359  1.00  0.00     0.124 S 
ATOM     86  O   UNL A   1      46.519  36.061  26.297  1.00  0.00    -0.237 OA
ATOM     87  O   UNL A   1      44.309  36.865  27.061  1.00  0.00    -0.237 OA
ATOM     88  O   UNL A   1      46.368  37.775  28.062  1.00  0.00    -0.744 OA
ENDBRANCH  81  85
ENDBRANCH  55  78
ENDBRANCH  29  30
ENDBRANCH  22  24
ENDBRANCH  21  22
ENDBRANCH   1  21
TORSDOF 16
ENDMDL
