MODEL 1
REMARK VINA RESULT:     -11.5      0.000      0.000
REMARK SMILES C[C@H]1SCCC[C@@]1(C(=O)OCCOC(=O)c1ccc(-c2c3nc(c(-c4cc(S(=O)(=O)[O-])ccc4F)c4ccc([nH]4)c(-c4cc(S(=O)(=O)[O-])ccc4F)c4nc(c(-c5cc(S(=O)(=O)[O-])ccc5F)c5ccc2[nH]5)C=C4)C=C3)cc1)[NH+]1CCCC1
REMARK SMILES IDX 12 1 11 2 10 3 8 4 9 5 7 6 1 7 2 8 3 9 4 10 6 11 5 12 79 13
REMARK SMILES IDX 80 14 83 15 81 17 82 18 13 19 14 20 15 21 16 22 17 23 78 24
REMARK SMILES IDX 18 25 77 26 19 27 20 28 21 29 71 30 22 31 76 32 70 33 72 34
REMARK SMILES IDX 23 35 75 36 69 37 68 38 24 40 56 41 36 42 55 43 37 44 40 45
REMARK SMILES IDX 54 46 73 47 38 48 39 49 53 51 74 52 41 53 25 54 26 55 34 56
REMARK SMILES IDX 27 57 33 58 35 59 32 60 28 61 29 62 30 63 31 64 57 65 58 66
REMARK SMILES IDX 66 67 59 68 65 69 67 70 64 71 60 72 61 73 62 74 63 75 42 76
REMARK SMILES IDX 43 77 51 78 44 79 50 80 52 81 49 82 45 83 46 84 47 85 48 86
REMARK H PARENT 79 16 72 39 40 50
REMARK Flexibility Score: inf
ROOT
ATOM      1  C   UNL A   1      35.829  20.894  25.105  1.00  0.00     0.275 C 
ENDROOT
BRANCH   1   2
ATOM      2  C   UNL A   1      34.603  21.530  24.456  1.00  0.00     0.274 C 
BRANCH   2   3
ATOM      3  O   UNL A   1      34.625  22.962  24.643  1.00  0.00    -0.457 OA
BRANCH   3   4
ATOM      4  C   UNL A   1      33.986  23.731  23.713  1.00  0.00     0.369 C 
ATOM      5  O   UNL A   1      34.197  23.611  22.510  1.00  0.00    -0.245 OA
BRANCH   4   6
ATOM      6  C   UNL A   1      33.108  24.896  24.352  1.00  0.00     0.207 C 
ATOM      7  C   UNL A   1      31.656  25.505  22.248  1.00  0.00     0.027 C 
ATOM      8  C   UNL A   1      32.841  25.902  23.138  1.00  0.00     0.117 C 
ATOM      9  S   UNL A   1      32.626  27.699  23.495  1.00  0.00    -0.152 SA
ATOM     10  C   UNL A   1      33.972  27.929  24.663  1.00  0.00     0.070 C 
ATOM     11  C   UNL A   1      34.067  25.523  25.409  1.00  0.00     0.083 C 
ATOM     12  C   UNL A   1      33.805  26.966  25.822  1.00  0.00     0.018 C 
BRANCH   6  13
ATOM     13  N   UNL A   1      31.851  24.334  24.946  1.00  0.00    -0.320 N 
ATOM     14  C   UNL A   1      31.611  24.441  26.382  1.00  0.00     0.263 C 
ATOM     15  C   UNL A   1      31.349  23.031  24.507  1.00  0.00     0.263 C 
ATOM     16  H   UNL A   1      31.312  25.060  24.475  1.00  0.00     0.349 HD
ATOM     17  C   UNL A   1      31.579  23.022  26.904  1.00  0.00     0.067 C 
ATOM     18  C   UNL A   1      31.021  22.220  25.753  1.00  0.00     0.067 C 
ENDBRANCH   6  13
ENDBRANCH   4   6
ENDBRANCH   3   4
ENDBRANCH   2   3
ENDBRANCH   1   2
BRANCH   1  19
ATOM     19  O   UNL A   1      36.839  21.902  25.230  1.00  0.00    -0.458 OA
BRANCH  19  20
ATOM     20  C   UNL A   1      38.074  21.480  25.592  1.00  0.00     0.338 C 
ATOM     21  O   UNL A   1      38.541  20.370  25.411  1.00  0.00    -0.246 OA
BRANCH  20  22
ATOM     22  C   UNL A   1      38.793  22.600  26.248  1.00  0.00     0.060 A 
ATOM     23  C   UNL A   1      38.313  23.905  26.153  1.00  0.00     0.016 A 
ATOM     24  C   UNL A   1      40.004  22.368  26.900  1.00  0.00     0.016 A 
ATOM     25  C   UNL A   1      39.078  24.976  26.611  1.00  0.00     0.010 A 
ATOM     26  C   UNL A   1      40.716  23.440  27.459  1.00  0.00     0.010 A 
ATOM     27  C   UNL A   1      40.284  24.769  27.288  1.00  0.00    -0.014 A 
BRANCH  27  28
ATOM     28  C   UNL A   1      41.112  25.928  27.749  1.00  0.00     0.031 A 
ATOM     29  C   UNL A   1      40.503  26.977  28.647  1.00  0.00     0.074 A 
ATOM     30  C   UNL A   1      42.410  26.054  27.401  1.00  0.00     0.049 A 
ATOM     31  N   UNL A   1      40.927  28.183  28.929  1.00  0.00    -0.248 NA
ATOM     32  C   UNL A   1      39.226  26.627  29.287  1.00  0.00     0.031 C 
ATOM     33  C   UNL A   1      43.176  25.098  26.597  1.00  0.00     0.029 A 
ATOM     34  N   UNL A   1      43.326  27.040  27.689  1.00  0.00    -0.354 N 
ATOM     35  C   UNL A   1      39.927  28.769  29.701  1.00  0.00     0.074 A 
ATOM     36  C   UNL A   1      38.879  27.779  29.841  1.00  0.00     0.031 C 
ATOM     37  C   UNL A   1      44.447  25.513  26.505  1.00  0.00     0.029 A 
ATOM     38  C   UNL A   1      44.563  26.826  27.125  1.00  0.00     0.049 A 
ATOM     39  H   UNL A   1      43.116  27.824  28.246  1.00  0.00     0.167 HD
ATOM     40  C   UNL A   1      39.887  30.019  30.230  1.00  0.00     0.034 A 
ATOM     41  C   UNL A   1      45.652  27.619  27.044  1.00  0.00     0.034 A 
ATOM     42  C   UNL A   1      40.979  30.961  30.147  1.00  0.00     0.049 A 
ATOM     43  C   UNL A   1      45.590  29.004  27.626  1.00  0.00     0.074 A 
ATOM     44  C   UNL A   1      41.053  32.247  30.656  1.00  0.00     0.029 A 
ATOM     45  N   UNL A   1      42.202  30.712  29.533  1.00  0.00    -0.354 N 
ATOM     46  N   UNL A   1      44.592  29.598  28.237  1.00  0.00    -0.248 NA
ATOM     47  C   UNL A   1      46.793  29.835  27.481  1.00  0.00     0.031 C 
ATOM     48  C   UNL A   1      42.296  32.792  30.307  1.00  0.00     0.029 A 
ATOM     49  C   UNL A   1      43.026  31.823  29.637  1.00  0.00     0.049 A 
ATOM     50  H   UNL A   1      42.447  29.868  29.089  1.00  0.00     0.167 HD
ATOM     51  C   UNL A   1      45.043  30.879  28.540  1.00  0.00     0.074 A 
ATOM     52  C   UNL A   1      46.413  30.958  28.076  1.00  0.00     0.031 C 
ATOM     53  C   UNL A   1      44.380  31.900  29.140  1.00  0.00     0.034 A 
BRANCH  40  54
ATOM     54  C   UNL A   1      38.590  30.460  30.871  1.00  0.00     0.023 A 
ATOM     55  C   UNL A   1      37.543  31.045  30.138  1.00  0.00     0.031 A 
ATOM     56  C   UNL A   1      38.425  30.338  32.265  1.00  0.00     0.131 A 
ATOM     57  C   UNL A   1      36.423  31.564  30.809  1.00  0.00     0.055 A 
ATOM     58  C   UNL A   1      37.270  30.776  32.915  1.00  0.00     0.041 A 
ATOM     59  F   UNL A   1      39.397  29.807  33.023  1.00  0.00    -0.206 F 
ATOM     60  C   UNL A   1      36.268  31.412  32.189  1.00  0.00     0.022 A 
BRANCH  57  61
ATOM     61  S   UNL A   1      35.253  32.591  29.878  1.00  0.00     0.124 S 
ATOM     62  O   UNL A   1      34.285  32.950  30.912  1.00  0.00    -0.237 OA
ATOM     63  O   UNL A   1      36.102  33.673  29.392  1.00  0.00    -0.237 OA
ATOM     64  O   UNL A   1      34.745  31.687  28.848  1.00  0.00    -0.744 OA
ENDBRANCH  57  61
ENDBRANCH  40  54
BRANCH  41  65
ATOM     65  C   UNL A   1      46.849  27.158  26.281  1.00  0.00     0.023 A 
ATOM     66  C   UNL A   1      47.078  27.564  24.957  1.00  0.00     0.031 A 
ATOM     67  C   UNL A   1      47.786  26.294  26.878  1.00  0.00     0.131 A 
ATOM     68  C   UNL A   1      48.210  27.094  24.270  1.00  0.00     0.055 A 
ATOM     69  C   UNL A   1      48.936  25.875  26.211  1.00  0.00     0.041 A 
ATOM     70  F   UNL A   1      47.611  25.872  28.142  1.00  0.00    -0.206 F 
ATOM     71  C   UNL A   1      49.150  26.270  24.896  1.00  0.00     0.022 A 
BRANCH  68  72
ATOM     72  S   UNL A   1      48.418  27.534  22.523  1.00  0.00     0.124 S 
ATOM     73  O   UNL A   1      47.195  28.281  22.257  1.00  0.00    -0.237 OA
ATOM     74  O   UNL A   1      49.653  28.311  22.547  1.00  0.00    -0.237 OA
ATOM     75  O   UNL A   1      48.515  26.237  21.854  1.00  0.00    -0.744 OA
ENDBRANCH  68  72
ENDBRANCH  41  65
BRANCH  53  76
ATOM     76  C   UNL A   1      45.150  33.182  29.337  1.00  0.00     0.023 A 
ATOM     77  C   UNL A   1      45.141  34.201  28.368  1.00  0.00     0.031 A 
ATOM     78  C   UNL A   1      45.924  33.372  30.494  1.00  0.00     0.131 A 
ATOM     79  C   UNL A   1      45.935  35.344  28.550  1.00  0.00     0.055 A 
ATOM     80  C   UNL A   1      46.672  34.534  30.693  1.00  0.00     0.041 A 
ATOM     81  F   UNL A   1      45.969  32.429  31.449  1.00  0.00    -0.206 F 
ATOM     82  C   UNL A   1      46.691  35.521  29.712  1.00  0.00     0.022 A 
BRANCH  79  83
ATOM     83  S   UNL A   1      46.040  36.558  27.206  1.00  0.00     0.124 S 
ATOM     84  O   UNL A   1      44.771  37.268  27.338  1.00  0.00    -0.237 OA
ATOM     85  O   UNL A   1      47.234  37.316  27.563  1.00  0.00    -0.237 OA
ATOM     86  O   UNL A   1      46.166  35.734  26.006  1.00  0.00    -0.744 OA
ENDBRANCH  79  83
ENDBRANCH  53  76
ENDBRANCH  27  28
ENDBRANCH  20  22
ENDBRANCH  19  20
ENDBRANCH   1  19
TORSDOF 15
ENDMDL
MODEL 2
REMARK VINA RESULT:     -11.5      1.387      1.700
REMARK SMILES C[C@H]1SCCC[C@@]1(C(=O)OCCOC(=O)c1ccc(-c2c3nc(c(-c4cc(S(=O)(=O)[O-])ccc4F)c4ccc([nH]4)c(-c4cc(S(=O)(=O)[O-])ccc4F)c4nc(c(-c5cc(S(=O)(=O)[O-])ccc5F)c5ccc2[nH]5)C=C4)C=C3)cc1)[NH+]1CCCC1
REMARK SMILES IDX 12 1 11 2 10 3 8 4 9 5 7 6 1 7 2 8 3 9 4 10 6 11 5 12 79 13
REMARK SMILES IDX 80 14 83 15 81 17 82 18 13 19 14 20 15 21 16 22 17 23 78 24
REMARK SMILES IDX 18 25 77 26 19 27 20 28 21 29 71 30 22 31 76 32 70 33 72 34
REMARK SMILES IDX 23 35 75 36 69 37 68 38 24 40 56 41 36 42 55 43 37 44 40 45
REMARK SMILES IDX 54 46 73 47 38 48 39 49 53 51 74 52 41 53 25 54 26 55 34 56
REMARK SMILES IDX 27 57 33 58 35 59 32 60 28 61 29 62 30 63 31 64 57 65 58 66
REMARK SMILES IDX 66 67 59 68 65 69 67 70 64 71 60 72 61 73 62 74 63 75 42 76
REMARK SMILES IDX 43 77 51 78 44 79 50 80 52 81 49 82 45 83 46 84 47 85 48 86
REMARK H PARENT 79 16 72 39 40 50
REMARK Flexibility Score: inf
ROOT
ATOM      1  C   UNL A   1      36.300  21.822  24.427  1.00  0.00     0.275 C 
ENDROOT
BRANCH   1   2
ATOM      2  C   UNL A   1      34.933  22.452  24.681  1.00  0.00     0.274 C 
BRANCH   2   3
ATOM      3  O   UNL A   1      34.990  23.877  24.456  1.00  0.00    -0.457 OA
BRANCH   3   4
ATOM      4  C   UNL A   1      34.051  24.426  23.630  1.00  0.00     0.369 C 
ATOM      5  O   UNL A   1      34.058  24.236  22.418  1.00  0.00    -0.245 OA
BRANCH   4   6
ATOM      6  C   UNL A   1      33.091  25.461  24.366  1.00  0.00     0.207 C 
ATOM      7  C   UNL A   1      31.590  26.141  22.318  1.00  0.00     0.027 C 
ATOM      8  C   UNL A   1      32.745  26.546  23.242  1.00  0.00     0.117 C 
ATOM      9  S   UNL A   1      32.398  28.285  23.754  1.00  0.00    -0.152 SA
ATOM     10  C   UNL A   1      33.727  28.513  24.942  1.00  0.00     0.070 C 
ATOM     11  C   UNL A   1      34.004  26.064  25.476  1.00  0.00     0.083 C 
ATOM     12  C   UNL A   1      33.637  27.442  26.011  1.00  0.00     0.018 C 
BRANCH   6  13
ATOM     13  N   UNL A   1      31.882  24.758  24.905  1.00  0.00    -0.320 N 
ATOM     14  C   UNL A   1      31.652  24.701  26.345  1.00  0.00     0.263 C 
ATOM     15  C   UNL A   1      31.463  23.475  24.337  1.00  0.00     0.263 C 
ATOM     16  H   UNL A   1      31.289  25.490  24.513  1.00  0.00     0.349 HD
ATOM     17  C   UNL A   1      31.722  23.237  26.719  1.00  0.00     0.067 C 
ATOM     18  C   UNL A   1      31.205  22.521  25.495  1.00  0.00     0.067 C 
ENDBRANCH   6  13
ENDBRANCH   4   6
ENDBRANCH   3   4
ENDBRANCH   2   3
ENDBRANCH   1   2
BRANCH   1  19
ATOM     19  O   UNL A   1      36.883  21.502  25.696  1.00  0.00    -0.458 OA
BRANCH  19  20
ATOM     20  C   UNL A   1      38.218  21.270  25.706  1.00  0.00     0.338 C 
ATOM     21  O   UNL A   1      38.784  20.284  25.271  1.00  0.00    -0.246 OA
BRANCH  20  22
ATOM     22  C   UNL A   1      38.904  22.429  26.332  1.00  0.00     0.060 A 
ATOM     23  C   UNL A   1      38.459  23.728  26.097  1.00  0.00     0.016 A 
ATOM     24  C   UNL A   1      40.052  22.231  27.099  1.00  0.00     0.016 A 
ATOM     25  C   UNL A   1      39.206  24.822  26.533  1.00  0.00     0.010 A 
ATOM     26  C   UNL A   1      40.737  23.334  27.631  1.00  0.00     0.010 A 
ATOM     27  C   UNL A   1      40.347  24.651  27.323  1.00  0.00    -0.014 A 
BRANCH  27  28
ATOM     28  C   UNL A   1      41.158  25.832  27.761  1.00  0.00     0.031 A 
ATOM     29  C   UNL A   1      40.534  26.887  28.641  1.00  0.00     0.074 A 
ATOM     30  C   UNL A   1      42.454  25.970  27.409  1.00  0.00     0.049 A 
ATOM     31  N   UNL A   1      40.939  28.104  28.900  1.00  0.00    -0.248 NA
ATOM     32  C   UNL A   1      39.264  26.529  29.290  1.00  0.00     0.031 C 
ATOM     33  C   UNL A   1      43.233  25.012  26.622  1.00  0.00     0.029 A 
ATOM     34  N   UNL A   1      43.354  26.976  27.677  1.00  0.00    -0.354 N 
ATOM     35  C   UNL A   1      39.932  28.689  29.663  1.00  0.00     0.074 A 
ATOM     36  C   UNL A   1      38.899  27.685  29.823  1.00  0.00     0.031 C 
ATOM     37  C   UNL A   1      44.497  25.445  26.519  1.00  0.00     0.029 A 
ATOM     38  C   UNL A   1      44.594  26.771  27.115  1.00  0.00     0.049 A 
ATOM     39  H   UNL A   1      43.133  27.766  28.220  1.00  0.00     0.167 HD
ATOM     40  C   UNL A   1      39.873  29.948  30.169  1.00  0.00     0.034 A 
ATOM     41  C   UNL A   1      45.670  27.578  27.018  1.00  0.00     0.034 A 
ATOM     42  C   UNL A   1      40.951  30.905  30.067  1.00  0.00     0.049 A 
ATOM     43  C   UNL A   1      45.588  28.973  27.574  1.00  0.00     0.074 A 
ATOM     44  C   UNL A   1      41.005  32.201  30.552  1.00  0.00     0.029 A 
ATOM     45  N   UNL A   1      42.176  30.663  29.456  1.00  0.00    -0.354 N 
ATOM     46  N   UNL A   1      44.581  29.563  28.176  1.00  0.00    -0.248 NA
ATOM     47  C   UNL A   1      46.777  29.819  27.413  1.00  0.00     0.031 C 
ATOM     48  C   UNL A   1      42.239  32.758  30.191  1.00  0.00     0.029 A 
ATOM     49  C   UNL A   1      42.983  31.789  29.538  1.00  0.00     0.049 A 
ATOM     50  H   UNL A   1      42.434  29.815  29.026  1.00  0.00     0.167 HD
ATOM     51  C   UNL A   1      45.013  30.856  28.455  1.00  0.00     0.074 A 
ATOM     52  C   UNL A   1      46.381  30.947  27.987  1.00  0.00     0.031 C 
ATOM     53  C   UNL A   1      44.335  31.878  29.036  1.00  0.00     0.034 A 
BRANCH  40  54
ATOM     54  C   UNL A   1      38.571  30.380  30.804  1.00  0.00     0.023 A 
ATOM     55  C   UNL A   1      37.532  30.980  30.070  1.00  0.00     0.031 A 
ATOM     56  C   UNL A   1      38.391  30.234  32.193  1.00  0.00     0.131 A 
ATOM     57  C   UNL A   1      36.407  31.490  30.738  1.00  0.00     0.055 A 
ATOM     58  C   UNL A   1      37.230  30.664  32.839  1.00  0.00     0.041 A 
ATOM     59  F   UNL A   1      39.353  29.688  32.953  1.00  0.00    -0.206 F 
ATOM     60  C   UNL A   1      36.237  31.314  32.114  1.00  0.00     0.022 A 
BRANCH  57  61
ATOM     61  S   UNL A   1      35.248  32.536  29.813  1.00  0.00     0.124 S 
ATOM     62  O   UNL A   1      36.124  33.610  29.350  1.00  0.00    -0.237 OA
ATOM     63  O   UNL A   1      34.754  31.626  28.787  1.00  0.00    -0.237 OA
ATOM     64  O   UNL A   1      34.267  32.936  30.820  1.00  0.00    -0.744 OA
ENDBRANCH  57  61
ENDBRANCH  40  54
BRANCH  41  65
ATOM     65  C   UNL A   1      46.873  27.123  26.262  1.00  0.00     0.023 A 
ATOM     66  C   UNL A   1      47.962  26.517  26.908  1.00  0.00     0.031 A 
ATOM     67  C   UNL A   1      46.946  27.295  24.866  1.00  0.00     0.131 A 
ATOM     68  C   UNL A   1      49.082  26.118  26.159  1.00  0.00     0.055 A 
ATOM     69  C   UNL A   1      48.035  26.846  24.121  1.00  0.00     0.041 A 
ATOM     70  F   UNL A   1      45.933  27.873  24.200  1.00  0.00    -0.206 F 
ATOM     71  C   UNL A   1      49.116  26.259  24.769  1.00  0.00     0.022 A 
BRANCH  68  72
ATOM     72  S   UNL A   1      50.526  25.451  27.033  1.00  0.00     0.124 S 
ATOM     73  O   UNL A   1      50.891  26.566  27.898  1.00  0.00    -0.237 OA
ATOM     74  O   UNL A   1      49.967  24.279  27.698  1.00  0.00    -0.237 OA
ATOM     75  O   UNL A   1      51.471  25.161  25.956  1.00  0.00    -0.744 OA
ENDBRANCH  68  72
ENDBRANCH  41  65
BRANCH  53  76
ATOM     76  C   UNL A   1      45.085  33.175  29.209  1.00  0.00     0.023 A 
ATOM     77  C   UNL A   1      45.054  34.178  28.225  1.00  0.00     0.031 A 
ATOM     78  C   UNL A   1      45.863  33.396  30.358  1.00  0.00     0.131 A 
ATOM     79  C   UNL A   1      45.831  35.336  28.383  1.00  0.00     0.055 A 
ATOM     80  C   UNL A   1      46.593  34.572  30.534  1.00  0.00     0.041 A 
ATOM     81  F   UNL A   1      45.930  32.468  31.327  1.00  0.00    -0.206 F 
ATOM     82  C   UNL A   1      46.590  35.544  29.538  1.00  0.00     0.022 A 
BRANCH  79  83
ATOM     83  S   UNL A   1      45.907  36.531  27.021  1.00  0.00     0.124 S 
ATOM     84  O   UNL A   1      46.236  35.676  25.884  1.00  0.00    -0.237 OA
ATOM     85  O   UNL A   1      44.563  37.097  27.025  1.00  0.00    -0.237 OA
ATOM     86  O   UNL A   1      46.967  37.451  27.429  1.00  0.00    -0.744 OA
ENDBRANCH  79  83
ENDBRANCH  53  76
ENDBRANCH  27  28
ENDBRANCH  20  22
ENDBRANCH  19  20
ENDBRANCH   1  19
TORSDOF 15
ENDMDL
MODEL 3
REMARK VINA RESULT:     -11.3      5.267     10.035
REMARK SMILES C[C@H]1SCCC[C@@]1(C(=O)OCCOC(=O)c1ccc(-c2c3nc(c(-c4cc(S(=O)(=O)[O-])ccc4F)c4ccc([nH]4)c(-c4cc(S(=O)(=O)[O-])ccc4F)c4nc(c(-c5cc(S(=O)(=O)[O-])ccc5F)c5ccc2[nH]5)C=C4)C=C3)cc1)[NH+]1CCCC1
REMARK SMILES IDX 12 1 11 2 10 3 8 4 9 5 7 6 1 7 2 8 3 9 4 10 6 11 5 12 79 13
REMARK SMILES IDX 80 14 83 15 81 17 82 18 13 19 14 20 15 21 16 22 17 23 78 24
REMARK SMILES IDX 18 25 77 26 19 27 20 28 21 29 71 30 22 31 76 32 70 33 72 34
REMARK SMILES IDX 23 35 75 36 69 37 68 38 24 40 56 41 36 42 55 43 37 44 40 45
REMARK SMILES IDX 54 46 73 47 38 48 39 49 53 51 74 52 41 53 25 54 26 55 34 56
REMARK SMILES IDX 27 57 33 58 35 59 32 60 28 61 29 62 30 63 31 64 57 65 58 66
REMARK SMILES IDX 66 67 59 68 65 69 67 70 64 71 60 72 61 73 62 74 63 75 42 76
REMARK SMILES IDX 43 77 51 78 44 79 50 80 52 81 49 82 45 83 46 84 47 85 48 86
REMARK H PARENT 79 16 72 39 40 50
REMARK Flexibility Score: inf
ROOT
ATOM      1  C   UNL A   1      31.676  29.629  25.341  1.00  0.00     0.275 C 
ENDROOT
BRANCH   1   2
ATOM      2  C   UNL A   1      31.442  28.336  26.118  1.00  0.00     0.274 C 
BRANCH   2   3
ATOM      3  O   UNL A   1      32.301  27.290  25.617  1.00  0.00    -0.457 OA
BRANCH   3   4
ATOM      4  C   UNL A   1      31.986  26.001  25.942  1.00  0.00     0.369 C 
ATOM      5  O   UNL A   1      31.238  25.729  26.876  1.00  0.00    -0.245 OA
BRANCH   4   6
ATOM      6  C   UNL A   1      32.821  24.921  25.123  1.00  0.00     0.207 C 
ATOM      7  C   UNL A   1      31.196  22.872  25.391  1.00  0.00     0.027 C 
ATOM      8  C   UNL A   1      32.499  23.535  25.855  1.00  0.00     0.117 C 
ATOM      9  S   UNL A   1      33.775  22.203  25.851  1.00  0.00    -0.152 SA
ATOM     10  C   UNL A   1      35.229  23.187  26.238  1.00  0.00     0.070 C 
ATOM     11  C   UNL A   1      34.298  25.360  25.361  1.00  0.00     0.083 C 
ATOM     12  C   UNL A   1      35.376  24.294  25.213  1.00  0.00     0.018 C 
BRANCH   6  13
ATOM     13  N   UNL A   1      32.419  24.937  23.680  1.00  0.00    -0.320 N 
ATOM     14  C   UNL A   1      33.422  25.169  22.645  1.00  0.00     0.263 C 
ATOM     15  C   UNL A   1      31.189  25.615  23.266  1.00  0.00     0.263 C 
ATOM     16  H   UNL A   1      32.232  23.935  23.727  1.00  0.00     0.349 HD
ATOM     17  C   UNL A   1      33.034  26.467  21.973  1.00  0.00     0.067 C 
ATOM     18  C   UNL A   1      31.527  26.493  22.068  1.00  0.00     0.067 C 
ENDBRANCH   6  13
ENDBRANCH   4   6
ENDBRANCH   3   4
ENDBRANCH   2   3
ENDBRANCH   1   2
BRANCH   1  19
ATOM     19  O   UNL A   1      32.994  30.099  25.649  1.00  0.00    -0.458 OA
BRANCH  19  20
ATOM     20  C   UNL A   1      33.112  30.901  26.734  1.00  0.00     0.338 C 
ATOM     21  O   UNL A   1      32.264  31.661  27.168  1.00  0.00    -0.246 OA
BRANCH  20  22
ATOM     22  C   UNL A   1      34.455  30.705  27.335  1.00  0.00     0.060 A 
ATOM     23  C   UNL A   1      34.932  29.423  27.602  1.00  0.00     0.016 A 
ATOM     24  C   UNL A   1      35.220  31.808  27.713  1.00  0.00     0.016 A 
ATOM     25  C   UNL A   1      36.109  29.243  28.328  1.00  0.00     0.010 A 
ATOM     26  C   UNL A   1      36.459  31.617  28.343  1.00  0.00     0.010 A 
ATOM     27  C   UNL A   1      36.906  30.330  28.698  1.00  0.00    -0.014 A 
BRANCH  27  28
ATOM     28  C   UNL A   1      38.152  30.127  29.503  1.00  0.00     0.031 A 
ATOM     29  C   UNL A   1      39.260  29.254  28.966  1.00  0.00     0.074 A 
ATOM     30  C   UNL A   1      38.328  30.727  30.700  1.00  0.00     0.049 A 
ATOM     31  N   UNL A   1      40.275  28.716  29.592  1.00  0.00    -0.248 NA
ATOM     32  C   UNL A   1      39.192  28.919  27.536  1.00  0.00     0.031 C 
ATOM     33  C   UNL A   1      37.390  31.656  31.335  1.00  0.00     0.029 A 
ATOM     34  N   UNL A   1      39.368  30.652  31.597  1.00  0.00    -0.354 N 
ATOM     35  C   UNL A   1      40.914  27.904  28.657  1.00  0.00     0.074 A 
ATOM     36  C   UNL A   1      40.166  28.029  27.423  1.00  0.00     0.031 C 
ATOM     37  C   UNL A   1      37.918  32.104  32.484  1.00  0.00     0.029 A 
ATOM     38  C   UNL A   1      39.168  31.399  32.737  1.00  0.00     0.049 A 
ATOM     39  H   UNL A   1      40.178  30.116  31.440  1.00  0.00     0.167 HD
ATOM     40  C   UNL A   1      42.012  27.123  28.821  1.00  0.00     0.034 A 
ATOM     41  C   UNL A   1      39.863  31.462  33.892  1.00  0.00     0.034 A 
ATOM     42  C   UNL A   1      42.790  27.078  30.038  1.00  0.00     0.049 A 
ATOM     43  C   UNL A   1      41.072  30.584  34.063  1.00  0.00     0.074 A 
ATOM     44  C   UNL A   1      43.926  26.334  30.312  1.00  0.00     0.029 A 
ATOM     45  N   UNL A   1      42.528  27.827  31.180  1.00  0.00    -0.354 N 
ATOM     46  N   UNL A   1      41.590  29.720  33.222  1.00  0.00    -0.248 NA
ATOM     47  C   UNL A   1      41.772  30.670  35.351  1.00  0.00     0.031 C 
ATOM     48  C   UNL A   1      44.319  26.593  31.631  1.00  0.00     0.029 A 
ATOM     49  C   UNL A   1      43.468  27.549  32.162  1.00  0.00     0.049 A 
ATOM     50  H   UNL A   1      41.782  28.462  31.278  1.00  0.00     0.167 HD
ATOM     51  C   UNL A   1      42.672  29.149  33.885  1.00  0.00     0.074 A 
ATOM     52  C   UNL A   1      42.752  29.793  35.181  1.00  0.00     0.031 C 
ATOM     53  C   UNL A   1      43.517  28.174  33.464  1.00  0.00     0.034 A 
BRANCH  40  54
ATOM     54  C   UNL A   1      42.381  26.197  27.684  1.00  0.00     0.023 A 
ATOM     55  C   UNL A   1      41.944  24.862  27.621  1.00  0.00     0.031 A 
ATOM     56  C   UNL A   1      43.240  26.653  26.665  1.00  0.00     0.131 A 
ATOM     57  C   UNL A   1      42.435  24.011  26.618  1.00  0.00     0.055 A 
ATOM     58  C   UNL A   1      43.655  25.825  25.621  1.00  0.00     0.041 A 
ATOM     59  F   UNL A   1      43.710  27.910  26.680  1.00  0.00    -0.206 F 
ATOM     60  C   UNL A   1      43.268  24.489  25.603  1.00  0.00     0.022 A 
BRANCH  57  61
ATOM     61  S   UNL A   1      42.108  22.231  26.753  1.00  0.00     0.124 S 
ATOM     62  O   UNL A   1      43.219  21.667  25.990  1.00  0.00    -0.237 OA
ATOM     63  O   UNL A   1      42.147  22.014  28.195  1.00  0.00    -0.237 OA
ATOM     64  O   UNL A   1      40.794  22.075  26.133  1.00  0.00    -0.744 OA
ENDBRANCH  57  61
ENDBRANCH  40  54
BRANCH  41  65
ATOM     65  C   UNL A   1      39.360  32.305  35.015  1.00  0.00     0.023 A 
ATOM     66  C   UNL A   1      38.710  31.740  36.124  1.00  0.00     0.031 A 
ATOM     67  C   UNL A   1      39.525  33.703  34.988  1.00  0.00     0.131 A 
ATOM     68  C   UNL A   1      38.236  32.573  37.152  1.00  0.00     0.055 A 
ATOM     69  C   UNL A   1      39.103  34.518  36.037  1.00  0.00     0.041 A 
ATOM     70  F   UNL A   1      40.136  34.293  33.947  1.00  0.00    -0.206 F 
ATOM     71  C   UNL A   1      38.449  33.954  37.126  1.00  0.00     0.022 A 
BRANCH  68  72
ATOM     72  S   UNL A   1      37.292  31.832  38.512  1.00  0.00     0.124 S 
ATOM     73  O   UNL A   1      36.119  32.696  38.565  1.00  0.00    -0.237 OA
ATOM     74  O   UNL A   1      37.069  30.474  38.027  1.00  0.00    -0.237 OA
ATOM     75  O   UNL A   1      38.198  31.940  39.654  1.00  0.00    -0.744 OA
ENDBRANCH  68  72
ENDBRANCH  41  65
BRANCH  53  76
ATOM     76  C   UNL A   1      44.610  27.767  34.420  1.00  0.00     0.023 A 
ATOM     77  C   UNL A   1      44.466  26.656  35.269  1.00  0.00     0.031 A 
ATOM     78  C   UNL A   1      45.795  28.516  34.501  1.00  0.00     0.131 A 
ATOM     79  C   UNL A   1      45.470  26.357  36.204  1.00  0.00     0.055 A 
ATOM     80  C   UNL A   1      46.813  28.184  35.397  1.00  0.00     0.041 A 
ATOM     81  F   UNL A   1      45.982  29.588  33.714  1.00  0.00    -0.206 F 
ATOM     82  C   UNL A   1      46.647  27.107  36.263  1.00  0.00     0.022 A 
BRANCH  79  83
ATOM     83  S   UNL A   1      45.180  25.028  37.403  1.00  0.00     0.124 S 
ATOM     84  O   UNL A   1      46.525  24.495  37.598  1.00  0.00    -0.237 OA
ATOM     85  O   UNL A   1      44.609  25.748  38.536  1.00  0.00    -0.237 OA
ATOM     86  O   UNL A   1      44.254  24.134  36.710  1.00  0.00    -0.744 OA
ENDBRANCH  79  83
ENDBRANCH  53  76
ENDBRANCH  27  28
ENDBRANCH  20  22
ENDBRANCH  19  20
ENDBRANCH   1  19
TORSDOF 15
ENDMDL
