MODEL 1
REMARK VINA RESULT:     -12.8      0.000      0.000
REMARK SMILES O=C(OCCOC(=O)[C@@H]1[C@H](C(=O)Nc2cccc(Cl)c2F)[C@@H]2C=C[C@H]1C2)c1ccc(-c2c3nc(c(-c4cc(S(=O)(=O)[O-])ccc4F)c4ccc([nH]4)c(-c4cc(S(=O)(=O)[O-])ccc4F)c4nc(c(-c5cc(S(=O)(=O)[O-])ccc5F)c5ccc2[nH]5)C=C4)C=C3)cc1
REMARK SMILES IDX 4 1 3 2 2 3 1 4 27 5 28 6 89 7 29 8 88 9 30 10 31 11 32 12
REMARK SMILES IDX 82 13 33 14 87 15 81 16 83 17 34 18 86 19 80 20 79 21 35 23
REMARK SMILES IDX 67 24 47 25 66 26 48 27 51 28 65 29 84 30 49 31 50 32 64 34
REMARK SMILES IDX 85 35 52 36 36 37 37 38 45 39 38 40 44 41 46 42 43 43 39 44
REMARK SMILES IDX 40 45 41 46 42 47 68 48 69 49 77 50 70 51 76 52 78 53 75 54
REMARK SMILES IDX 71 55 72 56 73 57 74 58 53 59 54 60 62 61 55 62 61 63 63 64
REMARK SMILES IDX 60 65 56 66 57 67 58 68 59 69 5 70 6 71 7 72 8 73 9 74 10 75
REMARK SMILES IDX 25 76 22 77 24 78 26 79 23 80 11 81 12 82 13 83 14 85 15 86
REMARK SMILES IDX 20 87 16 88 18 89 21 90 17 91 19 92
REMARK H PARENT 83 22 51 33 13 84
REMARK Flexibility Score: inf
ROOT
ATOM      1  C   UNL A   1      33.489  28.012  24.610  1.00  0.00     0.275 C 
ENDROOT
BRANCH   1   2
ATOM      2  O   UNL A   1      33.366  29.490  24.821  1.00  0.00    -0.458 OA
BRANCH   2   3
ATOM      3  C   UNL A   1      32.799  30.147  25.946  1.00  0.00     0.338 C 
ATOM      4  O   UNL A   1      31.635  30.524  25.936  1.00  0.00    -0.246 OA
BRANCH   3   5
ATOM      5  C   UNL A   1      33.789  30.648  27.053  1.00  0.00     0.060 A 
ATOM      6  C   UNL A   1      34.415  29.641  27.699  1.00  0.00     0.016 A 
ATOM      7  C   UNL A   1      34.263  31.868  27.531  1.00  0.00     0.016 A 
ATOM      8  C   UNL A   1      35.434  29.670  28.691  1.00  0.00     0.010 A 
ATOM      9  C   UNL A   1      35.447  31.935  28.453  1.00  0.00     0.010 A 
ATOM     10  C   UNL A   1      36.129  30.787  28.964  1.00  0.00    -0.014 A 
BRANCH  10  11
ATOM     11  C   UNL A   1      37.409  30.561  29.803  1.00  0.00     0.031 A 
ATOM     12  C   UNL A   1      38.445  29.698  29.181  1.00  0.00     0.074 A 
ATOM     13  C   UNL A   1      37.875  31.243  30.913  1.00  0.00     0.049 A 
ATOM     14  N   UNL A   1      39.483  29.115  29.706  1.00  0.00    -0.248 NA
ATOM     15  C   UNL A   1      38.308  29.544  27.730  1.00  0.00     0.031 C 
ATOM     16  C   UNL A   1      37.436  32.539  31.431  1.00  0.00     0.029 A 
ATOM     17  N   UNL A   1      38.841  30.927  31.869  1.00  0.00    -0.354 N 
ATOM     18  C   UNL A   1      40.108  28.482  28.648  1.00  0.00     0.074 A 
ATOM     19  C   UNL A   1      39.290  28.703  27.473  1.00  0.00     0.031 C 
ATOM     20  C   UNL A   1      37.876  32.772  32.677  1.00  0.00     0.029 A 
ATOM     21  C   UNL A   1      38.791  31.713  33.029  1.00  0.00     0.049 A 
ATOM     22  H   UNL A   1      39.504  30.211  31.741  1.00  0.00     0.167 HD
ATOM     23  C   UNL A   1      41.281  27.809  28.651  1.00  0.00     0.034 A 
ATOM     24  C   UNL A   1      39.423  31.641  34.226  1.00  0.00     0.034 A 
ATOM     25  C   UNL A   1      42.102  27.647  29.818  1.00  0.00     0.049 A 
ATOM     26  C   UNL A   1      40.543  30.647  34.321  1.00  0.00     0.074 A 
ATOM     27  C   UNL A   1      43.229  26.862  29.973  1.00  0.00     0.029 A 
ATOM     28  N   UNL A   1      41.898  28.297  31.032  1.00  0.00    -0.354 N 
ATOM     29  N   UNL A   1      41.010  29.875  33.368  1.00  0.00    -0.248 NA
ATOM     30  C   UNL A   1      41.269  30.553  35.592  1.00  0.00     0.031 C 
ATOM     31  C   UNL A   1      43.667  26.986  31.294  1.00  0.00     0.029 A 
ATOM     32  C   UNL A   1      42.863  27.907  31.947  1.00  0.00     0.049 A 
ATOM     33  H   UNL A   1      41.174  28.940  31.213  1.00  0.00     0.167 HD
ATOM     34  C   UNL A   1      42.133  29.262  33.901  1.00  0.00     0.074 A 
ATOM     35  C   UNL A   1      42.265  29.743  35.262  1.00  0.00     0.031 C 
ATOM     36  C   UNL A   1      42.985  28.397  33.301  1.00  0.00     0.034 A 
BRANCH  23  37
ATOM     37  C   UNL A   1      41.616  27.116  27.362  1.00  0.00     0.023 A 
ATOM     38  C   UNL A   1      41.360  25.746  27.181  1.00  0.00     0.031 A 
ATOM     39  C   UNL A   1      42.415  27.780  26.417  1.00  0.00     0.131 A 
ATOM     40  C   UNL A   1      42.039  25.052  26.170  1.00  0.00     0.055 A 
ATOM     41  C   UNL A   1      42.984  27.104  25.339  1.00  0.00     0.041 A 
ATOM     42  F   UNL A   1      42.723  29.077  26.573  1.00  0.00    -0.206 F 
ATOM     43  C   UNL A   1      42.823  25.725  25.229  1.00  0.00     0.022 A 
BRANCH  40  44
ATOM     44  S   UNL A   1      42.110  23.240  26.278  1.00  0.00     0.124 S 
ATOM     45  O   UNL A   1      42.975  23.052  27.442  1.00  0.00    -0.237 OA
ATOM     46  O   UNL A   1      40.710  22.877  26.461  1.00  0.00    -0.237 OA
ATOM     47  O   UNL A   1      42.699  22.844  25.001  1.00  0.00    -0.744 OA
ENDBRANCH  40  44
ENDBRANCH  23  37
BRANCH  24  48
ATOM     48  C   UNL A   1      39.060  32.488  35.429  1.00  0.00     0.023 A 
ATOM     49  C   UNL A   1      39.527  33.809  35.605  1.00  0.00     0.031 A 
ATOM     50  C   UNL A   1      38.363  31.916  36.514  1.00  0.00     0.131 A 
ATOM     51  C   UNL A   1      39.349  34.479  36.838  1.00  0.00     0.055 A 
ATOM     52  C   UNL A   1      38.155  32.599  37.722  1.00  0.00     0.041 A 
ATOM     53  F   UNL A   1      37.902  30.657  36.433  1.00  0.00    -0.206 F 
ATOM     54  C   UNL A   1      38.662  33.882  37.895  1.00  0.00     0.022 A 
BRANCH  51  55
ATOM     55  S   UNL A   1      40.127  36.107  37.092  1.00  0.00     0.124 S 
ATOM     56  O   UNL A   1      39.870  36.764  35.816  1.00  0.00    -0.237 OA
ATOM     57  O   UNL A   1      39.389  36.618  38.241  1.00  0.00    -0.237 OA
ATOM     58  O   UNL A   1      41.529  35.781  37.352  1.00  0.00    -0.744 OA
ENDBRANCH  51  55
ENDBRANCH  24  48
BRANCH  36  59
ATOM     59  C   UNL A   1      44.172  27.947  34.105  1.00  0.00     0.023 A 
ATOM     60  C   UNL A   1      44.125  26.791  34.899  1.00  0.00     0.031 A 
ATOM     61  C   UNL A   1      45.372  28.677  34.056  1.00  0.00     0.131 A 
ATOM     62  C   UNL A   1      45.247  26.421  35.651  1.00  0.00     0.055 A 
ATOM     63  C   UNL A   1      46.508  28.264  34.749  1.00  0.00     0.041 A 
ATOM     64  F   UNL A   1      45.462  29.797  33.320  1.00  0.00    -0.206 F 
ATOM     65  C   UNL A   1      46.446  27.134  35.561  1.00  0.00     0.022 A 
BRANCH  62  66
ATOM     66  S   UNL A   1      45.087  25.042  36.814  1.00  0.00     0.124 S 
ATOM     67  O   UNL A   1      46.471  24.600  36.948  1.00  0.00    -0.237 OA
ATOM     68  O   UNL A   1      44.507  25.687  37.987  1.00  0.00    -0.237 OA
ATOM     69  O   UNL A   1      44.201  24.110  36.119  1.00  0.00    -0.744 OA
ENDBRANCH  62  66
ENDBRANCH  36  59
ENDBRANCH  10  11
ENDBRANCH   3   5
ENDBRANCH   2   3
ENDBRANCH   1   2
BRANCH   1  70
ATOM     70  C   UNL A   1      32.984  26.964  25.663  1.00  0.00     0.274 C 
BRANCH  70  71
ATOM     71  O   UNL A   1      34.017  26.097  26.053  1.00  0.00    -0.462 OA
BRANCH  71  72
ATOM     72  C   UNL A   1      33.771  24.858  25.597  1.00  0.00     0.310 C 
ATOM     73  O   UNL A   1      32.746  24.208  25.799  1.00  0.00    -0.252 OA
BRANCH  72  74
ATOM     74  C   UNL A   1      34.950  24.433  24.846  1.00  0.00     0.119 C 
ATOM     75  C   UNL A   1      34.754  23.681  23.463  1.00  0.00     0.100 C 
ATOM     76  C   UNL A   1      35.999  23.647  25.677  1.00  0.00     0.027 C 
ATOM     77  C   UNL A   1      36.109  22.678  23.669  1.00  0.00     0.025 C 
ATOM     78  C   UNL A   1      35.768  22.174  25.891  1.00  0.00    -0.027 C 
ATOM     79  C   UNL A   1      37.051  23.510  24.573  1.00  0.00     0.017 C 
ATOM     80  C   UNL A   1      36.027  21.601  24.716  1.00  0.00    -0.027 C 
BRANCH  75  81
ATOM     81  C   UNL A   1      33.221  23.783  22.388  1.00  0.00     0.229 C 
ATOM     82  O   UNL A   1      33.121  22.774  21.646  1.00  0.00    -0.274 OA
ATOM     83  N   UNL A   1      32.041  24.657  22.124  1.00  0.00    -0.323 N 
ATOM     84  H   UNL A   1      31.621  24.353  21.288  1.00  0.00     0.170 HD
BRANCH  83  85
ATOM     85  C   UNL A   1      31.219  25.863  22.661  1.00  0.00     0.078 A 
ATOM     86  C   UNL A   1      31.476  27.181  22.231  1.00  0.00     0.029 A 
ATOM     87  C   UNL A   1      30.124  25.802  23.571  1.00  0.00     0.165 A 
ATOM     88  C   UNL A   1      30.507  28.224  22.371  1.00  0.00     0.004 A 
ATOM     89  C   UNL A   1      29.109  26.790  23.631  1.00  0.00     0.078 A 
ATOM     90  F   UNL A   1      30.038  24.811  24.476  1.00  0.00    -0.203 F 
ATOM     91  C   UNL A   1      29.275  27.995  22.978  1.00  0.00     0.024 A 
ATOM     92  Cl  UNL A   1      27.616  26.482  24.448  1.00  0.00    -0.081 Cl
ENDBRANCH  83  85
ENDBRANCH  75  81
ENDBRANCH  72  74
ENDBRANCH  71  72
ENDBRANCH  70  71
ENDBRANCH   1  70
TORSDOF 16
ENDMDL
MODEL 2
REMARK VINA RESULT:     -12.7      1.459      2.002
REMARK SMILES O=C(OCCOC(=O)[C@@H]1[C@H](C(=O)Nc2cccc(Cl)c2F)[C@@H]2C=C[C@H]1C2)c1ccc(-c2c3nc(c(-c4cc(S(=O)(=O)[O-])ccc4F)c4ccc([nH]4)c(-c4cc(S(=O)(=O)[O-])ccc4F)c4nc(c(-c5cc(S(=O)(=O)[O-])ccc5F)c5ccc2[nH]5)C=C4)C=C3)cc1
REMARK SMILES IDX 4 1 3 2 2 3 1 4 27 5 28 6 89 7 29 8 88 9 30 10 31 11 32 12
REMARK SMILES IDX 82 13 33 14 87 15 81 16 83 17 34 18 86 19 80 20 79 21 35 23
REMARK SMILES IDX 67 24 47 25 66 26 48 27 51 28 65 29 84 30 49 31 50 32 64 34
REMARK SMILES IDX 85 35 52 36 36 37 37 38 45 39 38 40 44 41 46 42 43 43 39 44
REMARK SMILES IDX 40 45 41 46 42 47 68 48 69 49 77 50 70 51 76 52 78 53 75 54
REMARK SMILES IDX 71 55 72 56 73 57 74 58 53 59 54 60 62 61 55 62 61 63 63 64
REMARK SMILES IDX 60 65 56 66 57 67 58 68 59 69 5 70 6 71 7 72 8 73 9 74 10 75
REMARK SMILES IDX 25 76 22 77 24 78 26 79 23 80 11 81 12 82 13 83 14 85 15 86
REMARK SMILES IDX 20 87 16 88 18 89 21 90 17 91 19 92
REMARK H PARENT 83 22 51 33 13 84
REMARK Flexibility Score: inf
ROOT
ATOM      1  C   UNL A   1      31.584  30.427  25.565  1.00  0.00     0.275 C 
ENDROOT
BRANCH   1   2
ATOM      2  O   UNL A   1      31.401  31.534  26.559  1.00  0.00    -0.458 OA
BRANCH   2   3
ATOM      3  C   UNL A   1      32.424  32.236  27.250  1.00  0.00     0.338 C 
ATOM      4  O   UNL A   1      32.369  33.450  27.395  1.00  0.00    -0.246 OA
BRANCH   3   5
ATOM      5  C   UNL A   1      33.756  31.460  27.534  1.00  0.00     0.060 A 
ATOM      6  C   UNL A   1      34.664  32.196  28.209  1.00  0.00     0.016 A 
ATOM      7  C   UNL A   1      34.259  30.176  27.335  1.00  0.00     0.016 A 
ATOM      8  C   UNL A   1      35.941  31.843  28.728  1.00  0.00     0.010 A 
ATOM      9  C   UNL A   1      35.523  29.723  28.007  1.00  0.00     0.010 A 
ATOM     10  C   UNL A   1      36.337  30.563  28.829  1.00  0.00    -0.014 A 
BRANCH  10  11
ATOM     11  C   UNL A   1      37.583  30.342  29.720  1.00  0.00     0.031 A 
ATOM     12  C   UNL A   1      38.646  29.481  29.141  1.00  0.00     0.074 A 
ATOM     13  C   UNL A   1      38.001  31.025  30.848  1.00  0.00     0.049 A 
ATOM     14  N   UNL A   1      39.663  28.902  29.709  1.00  0.00    -0.248 NA
ATOM     15  C   UNL A   1      38.570  29.327  27.686  1.00  0.00     0.031 C 
ATOM     16  C   UNL A   1      37.536  32.320  31.347  1.00  0.00     0.029 A 
ATOM     17  N   UNL A   1      38.927  30.713  31.843  1.00  0.00    -0.354 N 
ATOM     18  C   UNL A   1      40.333  28.270  28.678  1.00  0.00     0.074 A 
ATOM     19  C   UNL A   1      39.563  28.488  27.470  1.00  0.00     0.031 C 
ATOM     20  C   UNL A   1      37.924  32.554  32.610  1.00  0.00     0.029 A 
ATOM     21  C   UNL A   1      38.828  31.498  32.999  1.00  0.00     0.049 A 
ATOM     22  H   UNL A   1      39.597  29.998  31.742  1.00  0.00     0.167 HD
ATOM     23  C   UNL A   1      41.507  27.601  28.730  1.00  0.00     0.034 A 
ATOM     24  C   UNL A   1      39.409  31.429  34.222  1.00  0.00     0.034 A 
ATOM     25  C   UNL A   1      42.280  27.442  29.929  1.00  0.00     0.049 A 
ATOM     26  C   UNL A   1      40.528  30.438  34.362  1.00  0.00     0.074 A 
ATOM     27  C   UNL A   1      43.402  26.661  30.130  1.00  0.00     0.029 A 
ATOM     28  N   UNL A   1      42.024  28.092  31.133  1.00  0.00    -0.354 N 
ATOM     29  N   UNL A   1      41.036  29.667  33.430  1.00  0.00    -0.248 NA
ATOM     30  C   UNL A   1      41.201  30.347  35.663  1.00  0.00     0.031 C 
ATOM     31  C   UNL A   1      43.784  26.786  31.469  1.00  0.00     0.029 A 
ATOM     32  C   UNL A   1      42.951  27.705  32.088  1.00  0.00     0.049 A 
ATOM     33  H   UNL A   1      41.291  28.732  31.284  1.00  0.00     0.167 HD
ATOM     34  C   UNL A   1      42.138  29.058  34.009  1.00  0.00     0.074 A 
ATOM     35  C   UNL A   1      42.213  29.540  35.374  1.00  0.00     0.031 C 
ATOM     36  C   UNL A   1      43.016  28.195  33.445  1.00  0.00     0.034 A 
BRANCH  23  37
ATOM     37  C   UNL A   1      41.897  26.909  27.455  1.00  0.00     0.023 A 
ATOM     38  C   UNL A   1      41.565  25.563  27.223  1.00  0.00     0.031 A 
ATOM     39  C   UNL A   1      42.812  27.531  26.592  1.00  0.00     0.131 A 
ATOM     40  C   UNL A   1      42.273  24.841  26.254  1.00  0.00     0.055 A 
ATOM     41  C   UNL A   1      43.419  26.836  25.547  1.00  0.00     0.041 A 
ATOM     42  F   UNL A   1      43.194  28.802  26.801  1.00  0.00    -0.206 F 
ATOM     43  C   UNL A   1      43.174  25.474  25.394  1.00  0.00     0.022 A 
BRANCH  40  44
ATOM     44  S   UNL A   1      42.212  23.027  26.326  1.00  0.00     0.124 S 
ATOM     45  O   UNL A   1      42.712  22.666  25.000  1.00  0.00    -0.237 OA
ATOM     46  O   UNL A   1      43.098  22.723  27.444  1.00  0.00    -0.237 OA
ATOM     47  O   UNL A   1      40.797  22.741  26.551  1.00  0.00    -0.744 OA
ENDBRANCH  40  44
ENDBRANCH  23  37
BRANCH  24  48
ATOM     48  C   UNL A   1      38.995  32.275  35.408  1.00  0.00     0.023 A 
ATOM     49  C   UNL A   1      39.450  33.598  35.602  1.00  0.00     0.031 A 
ATOM     50  C   UNL A   1      38.257  31.701  36.464  1.00  0.00     0.131 A 
ATOM     51  C   UNL A   1      39.219  34.268  36.826  1.00  0.00     0.055 A 
ATOM     52  C   UNL A   1      37.997  32.384  37.662  1.00  0.00     0.041 A 
ATOM     53  F   UNL A   1      37.804  30.441  36.366  1.00  0.00    -0.206 F 
ATOM     54  C   UNL A   1      38.492  33.669  37.855  1.00  0.00     0.022 A 
BRANCH  51  55
ATOM     55  S   UNL A   1      39.980  35.899  37.111  1.00  0.00     0.124 S 
ATOM     56  O   UNL A   1      39.654  36.601  35.875  1.00  0.00    -0.237 OA
ATOM     57  O   UNL A   1      39.285  36.351  38.311  1.00  0.00    -0.237 OA
ATOM     58  O   UNL A   1      41.397  35.590  37.295  1.00  0.00    -0.744 OA
ENDBRANCH  51  55
ENDBRANCH  24  48
BRANCH  36  59
ATOM     59  C   UNL A   1      44.171  27.749  34.298  1.00  0.00     0.023 A 
ATOM     60  C   UNL A   1      44.056  26.664  35.179  1.00  0.00     0.031 A 
ATOM     61  C   UNL A   1      45.408  28.410  34.207  1.00  0.00     0.131 A 
ATOM     62  C   UNL A   1      45.149  26.297  35.973  1.00  0.00     0.055 A 
ATOM     63  C   UNL A   1      46.514  27.994  34.945  1.00  0.00     0.041 A 
ATOM     64  F   UNL A   1      45.564  29.461  33.386  1.00  0.00    -0.206 F 
ATOM     65  C   UNL A   1      46.385  26.936  35.842  1.00  0.00     0.022 A 
BRANCH  62  66
ATOM     66  S   UNL A   1      44.907  25.024  37.238  1.00  0.00     0.124 S 
ATOM     67  O   UNL A   1      43.523  25.256  37.637  1.00  0.00    -0.237 OA
ATOM     68  O   UNL A   1      45.160  23.793  36.496  1.00  0.00    -0.237 OA
ATOM     69  O   UNL A   1      45.909  25.354  38.250  1.00  0.00    -0.744 OA
ENDBRANCH  62  66
ENDBRANCH  36  59
ENDBRANCH  10  11
ENDBRANCH   3   5
ENDBRANCH   2   3
ENDBRANCH   1   2
BRANCH   1  70
ATOM     70  C   UNL A   1      31.383  28.916  25.937  1.00  0.00     0.274 C 
BRANCH  70  71
ATOM     71  O   UNL A   1      32.437  28.129  25.449  1.00  0.00    -0.462 OA
BRANCH  71  72
ATOM     72  C   UNL A   1      32.363  26.893  25.967  1.00  0.00     0.310 C 
ATOM     73  O   UNL A   1      31.496  26.487  26.739  1.00  0.00    -0.252 OA
BRANCH  72  74
ATOM     74  C   UNL A   1      33.510  26.142  25.459  1.00  0.00     0.119 C 
ATOM     75  C   UNL A   1      33.822  26.169  23.904  1.00  0.00     0.100 C 
ATOM     76  C   UNL A   1      33.583  24.668  25.940  1.00  0.00     0.027 C 
ATOM     77  C   UNL A   1      34.383  24.567  23.858  1.00  0.00     0.025 C 
ATOM     78  C   UNL A   1      32.757  23.645  25.206  1.00  0.00    -0.027 C 
ATOM     79  C   UNL A   1      34.925  24.323  25.288  1.00  0.00     0.017 C 
ATOM     80  C   UNL A   1      33.371  23.468  24.037  1.00  0.00    -0.027 C 
BRANCH  75  81
ATOM     81  C   UNL A   1      33.258  27.504  22.715  1.00  0.00     0.229 C 
ATOM     82  O   UNL A   1      34.200  27.868  21.965  1.00  0.00    -0.274 OA
ATOM     83  N   UNL A   1      32.046  28.282  22.327  1.00  0.00    -0.323 N 
ATOM     84  H   UNL A   1      32.336  29.035  21.764  1.00  0.00     0.170 HD
BRANCH  83  85
ATOM     85  C   UNL A   1      30.500  28.361  22.471  1.00  0.00     0.078 A 
ATOM     86  C   UNL A   1      29.748  27.279  22.975  1.00  0.00     0.029 A 
ATOM     87  C   UNL A   1      29.680  29.490  22.180  1.00  0.00     0.165 A 
ATOM     88  C   UNL A   1      28.430  27.453  23.499  1.00  0.00     0.004 A 
ATOM     89  C   UNL A   1      28.417  29.709  22.786  1.00  0.00     0.078 A 
ATOM     90  F   UNL A   1      30.052  30.386  21.250  1.00  0.00    -0.203 F 
ATOM     91  C   UNL A   1      27.807  28.698  23.502  1.00  0.00     0.024 A 
ATOM     92  Cl  UNL A   1      27.653  31.259  22.713  1.00  0.00    -0.081 Cl
ENDBRANCH  83  85
ENDBRANCH  75  81
ENDBRANCH  72  74
ENDBRANCH  71  72
ENDBRANCH  70  71
ENDBRANCH   1  70
TORSDOF 16
ENDMDL
MODEL 3
REMARK VINA RESULT:     -12.7      4.750      9.651
REMARK SMILES O=C(OCCOC(=O)[C@@H]1[C@H](C(=O)Nc2cccc(Cl)c2F)[C@@H]2C=C[C@H]1C2)c1ccc(-c2c3nc(c(-c4cc(S(=O)(=O)[O-])ccc4F)c4ccc([nH]4)c(-c4cc(S(=O)(=O)[O-])ccc4F)c4nc(c(-c5cc(S(=O)(=O)[O-])ccc5F)c5ccc2[nH]5)C=C4)C=C3)cc1
REMARK SMILES IDX 4 1 3 2 2 3 1 4 27 5 28 6 89 7 29 8 88 9 30 10 31 11 32 12
REMARK SMILES IDX 82 13 33 14 87 15 81 16 83 17 34 18 86 19 80 20 79 21 35 23
REMARK SMILES IDX 67 24 47 25 66 26 48 27 51 28 65 29 84 30 49 31 50 32 64 34
REMARK SMILES IDX 85 35 52 36 36 37 37 38 45 39 38 40 44 41 46 42 43 43 39 44
REMARK SMILES IDX 40 45 41 46 42 47 68 48 69 49 77 50 70 51 76 52 78 53 75 54
REMARK SMILES IDX 71 55 72 56 73 57 74 58 53 59 54 60 62 61 55 62 61 63 63 64
REMARK SMILES IDX 60 65 56 66 57 67 58 68 59 69 5 70 6 71 7 72 8 73 9 74 10 75
REMARK SMILES IDX 25 76 22 77 24 78 26 79 23 80 11 81 12 82 13 83 14 85 15 86
REMARK SMILES IDX 20 87 16 88 18 89 21 90 17 91 19 92
REMARK H PARENT 83 22 51 33 13 84
REMARK Flexibility Score: inf
ROOT
ATOM      1  C   UNL A   1      35.144  22.660  23.665  1.00  0.00     0.275 C 
ENDROOT
BRANCH   1   2
ATOM      2  O   UNL A   1      36.223  21.799  24.249  1.00  0.00    -0.458 OA
BRANCH   2   3
ATOM      3  C   UNL A   1      36.637  21.756  25.608  1.00  0.00     0.338 C 
ATOM      4  O   UNL A   1      35.837  21.534  26.505  1.00  0.00    -0.246 OA
BRANCH   3   5
ATOM      5  C   UNL A   1      38.067  22.311  25.935  1.00  0.00     0.060 A 
ATOM      6  C   UNL A   1      38.176  23.642  25.736  1.00  0.00     0.016 A 
ATOM      7  C   UNL A   1      39.268  21.820  26.443  1.00  0.00     0.016 A 
ATOM      8  C   UNL A   1      39.257  24.530  25.992  1.00  0.00     0.010 A 
ATOM      9  C   UNL A   1      40.365  22.748  26.878  1.00  0.00     0.010 A 
ATOM     10  C   UNL A   1      40.308  24.170  26.748  1.00  0.00    -0.014 A 
BRANCH  10  11
ATOM     11  C   UNL A   1      41.205  25.345  27.207  1.00  0.00     0.031 A 
ATOM     12  C   UNL A   1      40.552  26.356  28.076  1.00  0.00     0.074 A 
ATOM     13  C   UNL A   1      42.582  25.477  27.172  1.00  0.00     0.049 A 
ATOM     14  N   UNL A   1      40.931  27.555  28.407  1.00  0.00    -0.248 NA
ATOM     15  C   UNL A   1      39.320  25.890  28.719  1.00  0.00     0.031 C 
ATOM     16  C   UNL A   1      43.587  24.435  26.958  1.00  0.00     0.029 A 
ATOM     17  N   UNL A   1      43.421  26.585  27.294  1.00  0.00    -0.354 N 
ATOM     18  C   UNL A   1      39.954  28.012  29.271  1.00  0.00     0.074 A 
ATOM     19  C   UNL A   1      38.939  26.981  29.353  1.00  0.00     0.031 C 
ATOM     20  C   UNL A   1      44.801  24.939  26.688  1.00  0.00     0.029 A 
ATOM     21  C   UNL A   1      44.738  26.369  26.867  1.00  0.00     0.049 A 
ATOM     22  H   UNL A   1      43.113  27.450  27.652  1.00  0.00     0.167 HD
ATOM     23  C   UNL A   1      39.926  29.173  29.964  1.00  0.00     0.034 A 
ATOM     24  C   UNL A   1      45.798  27.192  26.675  1.00  0.00     0.034 A 
ATOM     25  C   UNL A   1      40.969  30.159  29.907  1.00  0.00     0.049 A 
ATOM     26  C   UNL A   1      45.639  28.598  27.176  1.00  0.00     0.074 A 
ATOM     27  C   UNL A   1      40.978  31.431  30.445  1.00  0.00     0.029 A 
ATOM     28  N   UNL A   1      42.203  29.977  29.287  1.00  0.00    -0.354 N 
ATOM     29  N   UNL A   1      44.614  29.108  27.816  1.00  0.00    -0.248 NA
ATOM     30  C   UNL A   1      46.772  29.516  27.009  1.00  0.00     0.031 C 
ATOM     31  C   UNL A   1      42.186  32.042  30.097  1.00  0.00     0.029 A 
ATOM     32  C   UNL A   1      42.967  31.127  29.407  1.00  0.00     0.049 A 
ATOM     33  H   UNL A   1      42.490  29.153  28.831  1.00  0.00     0.167 HD
ATOM     34  C   UNL A   1      45.007  30.381  28.198  1.00  0.00     0.074 A 
ATOM     35  C   UNL A   1      46.358  30.566  27.705  1.00  0.00     0.031 C 
ATOM     36  C   UNL A   1      44.314  31.298  28.913  1.00  0.00     0.034 A 
BRANCH  23  37
ATOM     37  C   UNL A   1      38.651  29.432  30.712  1.00  0.00     0.023 A 
ATOM     38  C   UNL A   1      37.612  30.191  30.145  1.00  0.00     0.031 A 
ATOM     39  C   UNL A   1      38.587  29.127  32.081  1.00  0.00     0.131 A 
ATOM     40  C   UNL A   1      36.642  30.757  30.983  1.00  0.00     0.055 A 
ATOM     41  C   UNL A   1      37.547  29.590  32.884  1.00  0.00     0.041 A 
ATOM     42  F   UNL A   1      39.578  28.444  32.676  1.00  0.00    -0.206 F 
ATOM     43  C   UNL A   1      36.583  30.437  32.342  1.00  0.00     0.022 A 
BRANCH  40  44
ATOM     44  S   UNL A   1      35.646  32.129  30.332  1.00  0.00     0.124 S 
ATOM     45  O   UNL A   1      34.987  31.494  29.191  1.00  0.00    -0.237 OA
ATOM     46  O   UNL A   1      34.784  32.460  31.460  1.00  0.00    -0.237 OA
ATOM     47  O   UNL A   1      36.643  33.140  29.985  1.00  0.00    -0.744 OA
ENDBRANCH  40  44
ENDBRANCH  23  37
BRANCH  24  48
ATOM     48  C   UNL A   1      47.088  26.770  26.002  1.00  0.00     0.023 A 
ATOM     49  C   UNL A   1      48.148  26.147  26.697  1.00  0.00     0.031 A 
ATOM     50  C   UNL A   1      47.344  27.143  24.666  1.00  0.00     0.131 A 
ATOM     51  C   UNL A   1      49.410  25.974  26.084  1.00  0.00     0.055 A 
ATOM     52  C   UNL A   1      48.587  26.934  24.049  1.00  0.00     0.041 A 
ATOM     53  F   UNL A   1      46.395  27.757  23.941  1.00  0.00    -0.206 F 
ATOM     54  C   UNL A   1      49.634  26.361  24.762  1.00  0.00     0.022 A 
BRANCH  51  55
ATOM     55  S   UNL A   1      50.805  25.340  27.070  1.00  0.00     0.124 S 
ATOM     56  O   UNL A   1      51.264  26.545  27.750  1.00  0.00    -0.237 OA
ATOM     57  O   UNL A   1      50.153  24.338  27.905  1.00  0.00    -0.237 OA
ATOM     58  O   UNL A   1      51.722  24.805  26.064  1.00  0.00    -0.744 OA
ENDBRANCH  51  55
ENDBRANCH  24  48
BRANCH  36  59
ATOM     59  C   UNL A   1      45.027  32.578  29.248  1.00  0.00     0.023 A 
ATOM     60  C   UNL A   1      44.892  33.723  28.449  1.00  0.00     0.031 A 
ATOM     61  C   UNL A   1      45.835  32.653  30.395  1.00  0.00     0.131 A 
ATOM     62  C   UNL A   1      45.594  34.888  28.783  1.00  0.00     0.055 A 
ATOM     63  C   UNL A   1      46.472  33.836  30.763  1.00  0.00     0.041 A 
ATOM     64  F   UNL A   1      46.004  31.580  31.185  1.00  0.00    -0.206 F 
ATOM     65  C   UNL A   1      46.361  34.961  29.949  1.00  0.00     0.022 A 
BRANCH  62  66
ATOM     66  S   UNL A   1      45.554  36.280  27.625  1.00  0.00     0.124 S 
ATOM     67  O   UNL A   1      44.475  35.891  26.723  1.00  0.00    -0.237 OA
ATOM     68  O   UNL A   1      45.275  37.410  28.505  1.00  0.00    -0.237 OA
ATOM     69  O   UNL A   1      46.892  36.271  27.035  1.00  0.00    -0.744 OA
ENDBRANCH  62  66
ENDBRANCH  36  59
ENDBRANCH  10  11
ENDBRANCH   3   5
ENDBRANCH   2   3
ENDBRANCH   1   2
BRANCH   1  70
ATOM     70  C   UNL A   1      35.178  24.227  23.746  1.00  0.00     0.274 C 
BRANCH  70  71
ATOM     71  O   UNL A   1      34.446  24.694  24.849  1.00  0.00    -0.462 OA
BRANCH  71  72
ATOM     72  C   UNL A   1      33.731  25.775  24.499  1.00  0.00     0.310 C 
ATOM     73  O   UNL A   1      33.393  26.075  23.355  1.00  0.00    -0.252 OA
BRANCH  72  74
ATOM     74  C   UNL A   1      33.457  26.525  25.723  1.00  0.00     0.119 C 
ATOM     75  C   UNL A   1      32.032  26.393  26.407  1.00  0.00     0.100 C 
ATOM     76  C   UNL A   1      33.819  28.033  25.653  1.00  0.00     0.027 C 
ATOM     77  C   UNL A   1      31.993  28.006  26.937  1.00  0.00     0.025 C 
ATOM     78  C   UNL A   1      32.825  28.968  25.015  1.00  0.00    -0.027 C 
ATOM     79  C   UNL A   1      33.486  28.376  27.108  1.00  0.00     0.017 C 
ATOM     80  C   UNL A   1      31.829  29.078  25.894  1.00  0.00    -0.027 C 
BRANCH  75  81
ATOM     81  C   UNL A   1      30.855  24.952  26.173  1.00  0.00     0.229 C 
ATOM     82  O   UNL A   1      29.676  25.280  26.464  1.00  0.00    -0.274 OA
ATOM     83  N   UNL A   1      30.831  23.529  25.727  1.00  0.00    -0.323 N 
ATOM     84  H   UNL A   1      29.967  23.142  25.996  1.00  0.00     0.170 HD
BRANCH  83  85
ATOM     85  C   UNL A   1      31.646  22.421  25.002  1.00  0.00     0.078 A 
ATOM     86  C   UNL A   1      32.299  21.396  25.718  1.00  0.00     0.029 A 
ATOM     87  C   UNL A   1      31.796  22.266  23.593  1.00  0.00     0.165 A 
ATOM     88  C   UNL A   1      32.689  20.170  25.096  1.00  0.00     0.004 A 
ATOM     89  C   UNL A   1      32.079  21.022  22.975  1.00  0.00     0.078 A 
ATOM     90  F   UNL A   1      31.734  23.332  22.776  1.00  0.00    -0.203 F 
ATOM     91  C   UNL A   1      32.477  19.943  23.739  1.00  0.00     0.024 A 
ATOM     92  Cl  UNL A   1      31.856  20.805  21.273  1.00  0.00    -0.081 Cl
ENDBRANCH  83  85
ENDBRANCH  75  81
ENDBRANCH  72  74
ENDBRANCH  71  72
ENDBRANCH  70  71
ENDBRANCH   1  70
TORSDOF 16
ENDMDL
