MODEL 1
REMARK VINA RESULT:     -12.1      0.000      0.000
REMARK SMILES O=C(OCCOC(=O)[C@@H]1C[C@@H]2CC[C@H]1N2C(=O)c1ccncc1Cl)c1ccc(-c2c3nc(c(-c4cc(S(=O)(=O)[O-])ccc4F)c4ccc([nH]4)c(-c4cc(S(=O)(=O)[O-])ccc4F)c4nc(c(-c5cc(S(=O)(=O)[O-])ccc5F)c5ccc2[nH]5)C=C4)C=C3)cc1
REMARK SMILES IDX 4 1 3 2 2 3 1 4 25 5 26 6 87 7 27 8 86 9 28 10 29 11 30 12
REMARK SMILES IDX 80 13 31 14 85 15 79 16 81 17 32 18 84 19 78 20 77 21 33 23
REMARK SMILES IDX 65 24 45 25 64 26 46 27 49 28 63 29 82 30 47 31 48 32 62 34
REMARK SMILES IDX 83 35 50 36 34 37 35 38 43 39 36 40 42 41 44 42 41 43 37 44
REMARK SMILES IDX 38 45 39 46 40 47 66 48 67 49 75 50 68 51 74 52 76 53 73 54
REMARK SMILES IDX 69 55 70 56 71 57 72 58 51 59 52 60 60 61 53 62 59 63 61 64
REMARK SMILES IDX 58 65 54 66 55 67 56 68 57 69 5 70 6 71 7 72 8 73 9 74 10 75
REMARK SMILES IDX 14 76 11 77 13 78 15 79 12 80 16 81 17 82 18 83 19 84 23 85
REMARK SMILES IDX 20 86 22 87 24 88 21 89
REMARK H PARENT 81 22 49 33
REMARK Flexibility Score: inf
ROOT
ATOM      1  C   UNL A   1      32.137  33.077  26.794  1.00  0.00     0.275 C 
ENDROOT
BRANCH   1   2
ATOM      2  O   UNL A   1      32.547  33.691  28.024  1.00  0.00    -0.458 OA
BRANCH   2   3
ATOM      3  C   UNL A   1      33.774  34.157  28.364  1.00  0.00     0.338 C 
ATOM      4  O   UNL A   1      34.045  35.329  28.110  1.00  0.00    -0.246 OA
BRANCH   3   5
ATOM      5  C   UNL A   1      34.883  33.257  28.828  1.00  0.00     0.060 A 
ATOM      6  C   UNL A   1      34.745  31.975  29.368  1.00  0.00     0.016 A 
ATOM      7  C   UNL A   1      36.190  33.743  28.639  1.00  0.00     0.016 A 
ATOM      8  C   UNL A   1      35.853  31.158  29.611  1.00  0.00     0.010 A 
ATOM      9  C   UNL A   1      37.306  32.931  28.873  1.00  0.00     0.010 A 
ATOM     10  C   UNL A   1      37.139  31.629  29.362  1.00  0.00    -0.014 A 
BRANCH  10  11
ATOM     11  C   UNL A   1      38.291  30.897  29.933  1.00  0.00     0.031 A 
ATOM     12  C   UNL A   1      38.625  31.222  31.361  1.00  0.00     0.074 A 
ATOM     13  C   UNL A   1      38.967  29.957  29.247  1.00  0.00     0.049 A 
ATOM     14  N   UNL A   1      39.640  30.851  32.092  1.00  0.00    -0.248 NA
ATOM     15  C   UNL A   1      37.689  32.132  32.043  1.00  0.00     0.031 C 
ATOM     16  C   UNL A   1      38.680  29.516  27.880  1.00  0.00     0.029 A 
ATOM     17  N   UNL A   1      40.040  29.188  29.622  1.00  0.00    -0.354 N 
ATOM     18  C   UNL A   1      39.486  31.526  33.299  1.00  0.00     0.074 A 
ATOM     19  C   UNL A   1      38.328  32.378  33.170  1.00  0.00     0.031 C 
ATOM     20  C   UNL A   1      39.551  28.546  27.538  1.00  0.00     0.029 A 
ATOM     21  C   UNL A   1      40.481  28.326  28.643  1.00  0.00     0.049 A 
ATOM     22  H   UNL A   1      40.457  29.248  30.511  1.00  0.00     0.167 HD
ATOM     23  C   UNL A   1      40.233  31.425  34.423  1.00  0.00     0.034 A 
ATOM     24  C   UNL A   1      41.533  27.481  28.653  1.00  0.00     0.034 A 
ATOM     25  C   UNL A   1      41.373  30.557  34.515  1.00  0.00     0.049 A 
ATOM     26  C   UNL A   1      42.404  27.439  29.886  1.00  0.00     0.074 A 
ATOM     27  C   UNL A   1      42.235  30.366  35.576  1.00  0.00     0.029 A 
ATOM     28  N   UNL A   1      41.810  29.730  33.485  1.00  0.00    -0.354 N 
ATOM     29  N   UNL A   1      42.286  28.116  31.006  1.00  0.00    -0.248 NA
ATOM     30  C   UNL A   1      43.553  26.525  29.850  1.00  0.00     0.031 C 
ATOM     31  C   UNL A   1      43.232  29.474  35.165  1.00  0.00     0.029 A 
ATOM     32  C   UNL A   1      42.940  29.040  33.880  1.00  0.00     0.049 A 
ATOM     33  H   UNL A   1      41.377  29.648  32.605  1.00  0.00     0.167 HD
ATOM     34  C   UNL A   1      43.327  27.684  31.821  1.00  0.00     0.074 A 
ATOM     35  C   UNL A   1      44.066  26.695  31.061  1.00  0.00     0.031 C 
ATOM     36  C   UNL A   1      43.641  28.055  33.089  1.00  0.00     0.034 A 
BRANCH  23  37
ATOM     37  C   UNL A   1      39.855  32.335  35.569  1.00  0.00     0.023 A 
ATOM     38  C   UNL A   1      39.093  31.871  36.657  1.00  0.00     0.031 A 
ATOM     39  C   UNL A   1      40.118  33.712  35.492  1.00  0.00     0.131 A 
ATOM     40  C   UNL A   1      38.495  32.790  37.532  1.00  0.00     0.055 A 
ATOM     41  C   UNL A   1      39.618  34.610  36.438  1.00  0.00     0.041 A 
ATOM     42  F   UNL A   1      40.818  34.220  34.465  1.00  0.00    -0.206 F 
ATOM     43  C   UNL A   1      38.775  34.155  37.448  1.00  0.00     0.022 A 
BRANCH  40  44
ATOM     44  S   UNL A   1      37.160  32.202  38.614  1.00  0.00     0.124 S 
ATOM     45  O   UNL A   1      37.169  30.766  38.338  1.00  0.00    -0.237 OA
ATOM     46  O   UNL A   1      37.625  32.598  39.937  1.00  0.00    -0.237 OA
ATOM     47  O   UNL A   1      35.981  32.915  38.124  1.00  0.00    -0.744 OA
ENDBRANCH  40  44
ENDBRANCH  23  37
BRANCH  24  48
ATOM     48  C   UNL A   1      41.895  26.666  27.457  1.00  0.00     0.023 A 
ATOM     49  C   UNL A   1      41.672  25.280  27.403  1.00  0.00     0.031 A 
ATOM     50  C   UNL A   1      42.573  27.261  26.383  1.00  0.00     0.131 A 
ATOM     51  C   UNL A   1      42.139  24.537  26.302  1.00  0.00     0.055 A 
ATOM     52  C   UNL A   1      43.001  26.526  25.274  1.00  0.00     0.041 A 
ATOM     53  F   UNL A   1      42.823  28.581  26.393  1.00  0.00    -0.206 F 
ATOM     54  C   UNL A   1      42.780  25.155  25.228  1.00  0.00     0.022 A 
BRANCH  51  55
ATOM     55  S   UNL A   1      41.971  22.729  26.318  1.00  0.00     0.124 S 
ATOM     56  O   UNL A   1      42.697  22.380  27.532  1.00  0.00    -0.237 OA
ATOM     57  O   UNL A   1      40.523  22.554  26.360  1.00  0.00    -0.237 OA
ATOM     58  O   UNL A   1      42.607  22.317  25.068  1.00  0.00    -0.744 OA
ENDBRANCH  51  55
ENDBRANCH  24  48
BRANCH  36  59
ATOM     59  C   UNL A   1      44.775  27.328  33.761  1.00  0.00     0.023 A 
ATOM     60  C   UNL A   1      44.579  26.138  34.479  1.00  0.00     0.031 A 
ATOM     61  C   UNL A   1      46.086  27.820  33.621  1.00  0.00     0.131 A 
ATOM     62  C   UNL A   1      45.681  25.489  35.053  1.00  0.00     0.055 A 
ATOM     63  C   UNL A   1      47.182  27.139  34.144  1.00  0.00     0.041 A 
ATOM     64  F   UNL A   1      46.319  28.957  32.947  1.00  0.00    -0.206 F 
ATOM     65  C   UNL A   1      46.982  25.969  34.871  1.00  0.00     0.022 A 
BRANCH  62  66
ATOM     66  S   UNL A   1      45.390  24.033  36.094  1.00  0.00     0.124 S 
ATOM     67  O   UNL A   1      46.677  23.348  36.020  1.00  0.00    -0.237 OA
ATOM     68  O   UNL A   1      45.059  24.631  37.383  1.00  0.00    -0.237 OA
ATOM     69  O   UNL A   1      44.285  23.350  35.425  1.00  0.00    -0.744 OA
ENDBRANCH  62  66
ENDBRANCH  36  59
ENDBRANCH  10  11
ENDBRANCH   3   5
ENDBRANCH   2   3
ENDBRANCH   1   2
BRANCH   1  70
ATOM     70  C   UNL A   1      31.964  31.554  26.887  1.00  0.00     0.274 C 
BRANCH  70  71
ATOM     71  O   UNL A   1      33.194  30.803  26.844  1.00  0.00    -0.462 OA
BRANCH  71  72
ATOM     72  C   UNL A   1      33.052  29.446  26.767  1.00  0.00     0.311 C 
ATOM     73  O   UNL A   1      33.636  28.668  27.504  1.00  0.00    -0.252 OA
BRANCH  72  74
ATOM     74  C   UNL A   1      32.033  29.047  25.709  1.00  0.00     0.124 C 
ATOM     75  C   UNL A   1      31.536  27.593  25.915  1.00  0.00     0.042 C 
ATOM     76  C   UNL A   1      32.545  28.993  24.247  1.00  0.00     0.100 C 
ATOM     77  C   UNL A   1      31.898  26.896  24.606  1.00  0.00     0.086 C 
ATOM     78  C   UNL A   1      33.862  28.196  24.151  1.00  0.00     0.028 C 
ATOM     79  N   UNL A   1      31.656  27.977  23.684  1.00  0.00    -0.332 N 
ATOM     80  C   UNL A   1      33.422  26.762  24.526  1.00  0.00     0.027 C 
BRANCH  79  81
ATOM     81  C   UNL A   1      30.780  27.891  22.638  1.00  0.00     0.256 C 
ATOM     82  O   UNL A   1      31.003  27.196  21.647  1.00  0.00    -0.269 OA
BRANCH  81  83
ATOM     83  C   UNL A   1      29.484  28.582  22.696  1.00  0.00     0.061 A 
ATOM     84  C   UNL A   1      29.495  29.930  22.323  1.00  0.00     0.035 A 
ATOM     85  C   UNL A   1      28.319  28.026  23.215  1.00  0.00     0.072 A 
ATOM     86  C   UNL A   1      28.321  30.645  22.438  1.00  0.00     0.112 A 
ATOM     87  C   UNL A   1      27.183  28.822  23.238  1.00  0.00     0.132 A 
ATOM     88  Cl  UNL A   1      28.216  26.475  23.945  1.00  0.00    -0.082 Cl
ATOM     89  N   UNL A   1      27.154  30.116  22.859  1.00  0.00    -0.263 NA
ENDBRANCH  81  83
ENDBRANCH  79  81
ENDBRANCH  72  74
ENDBRANCH  71  72
ENDBRANCH  70  71
ENDBRANCH   1  70
TORSDOF 16
ENDMDL
MODEL 2
REMARK VINA RESULT:     -11.9      5.741     11.108
REMARK SMILES O=C(OCCOC(=O)[C@@H]1C[C@@H]2CC[C@H]1N2C(=O)c1ccncc1Cl)c1ccc(-c2c3nc(c(-c4cc(S(=O)(=O)[O-])ccc4F)c4ccc([nH]4)c(-c4cc(S(=O)(=O)[O-])ccc4F)c4nc(c(-c5cc(S(=O)(=O)[O-])ccc5F)c5ccc2[nH]5)C=C4)C=C3)cc1
REMARK SMILES IDX 4 1 3 2 2 3 1 4 25 5 26 6 87 7 27 8 86 9 28 10 29 11 30 12
REMARK SMILES IDX 80 13 31 14 85 15 79 16 81 17 32 18 84 19 78 20 77 21 33 23
REMARK SMILES IDX 65 24 45 25 64 26 46 27 49 28 63 29 82 30 47 31 48 32 62 34
REMARK SMILES IDX 83 35 50 36 34 37 35 38 43 39 36 40 42 41 44 42 41 43 37 44
REMARK SMILES IDX 38 45 39 46 40 47 66 48 67 49 75 50 68 51 74 52 76 53 73 54
REMARK SMILES IDX 69 55 70 56 71 57 72 58 51 59 52 60 60 61 53 62 59 63 61 64
REMARK SMILES IDX 58 65 54 66 55 67 56 68 57 69 5 70 6 71 7 72 8 73 9 74 10 75
REMARK SMILES IDX 14 76 11 77 13 78 15 79 12 80 16 81 17 82 18 83 19 84 23 85
REMARK SMILES IDX 20 86 22 87 24 88 21 89
REMARK H PARENT 81 22 49 33
REMARK Flexibility Score: inf
ROOT
ATOM      1  C   UNL A   1      38.966  19.147  25.743  1.00  0.00     0.275 C 
ENDROOT
BRANCH   1   2
ATOM      2  O   UNL A   1      40.393  19.186  25.592  1.00  0.00    -0.458 OA
BRANCH   2   3
ATOM      3  C   UNL A   1      41.316  19.685  26.451  1.00  0.00     0.338 C 
ATOM      4  O   UNL A   1      41.906  18.903  27.194  1.00  0.00    -0.246 OA
BRANCH   3   5
ATOM      5  C   UNL A   1      41.489  21.158  26.690  1.00  0.00     0.060 A 
ATOM      6  C   UNL A   1      41.205  22.187  25.787  1.00  0.00     0.016 A 
ATOM      7  C   UNL A   1      41.924  21.526  27.976  1.00  0.00     0.016 A 
ATOM      8  C   UNL A   1      41.244  23.530  26.171  1.00  0.00     0.010 A 
ATOM      9  C   UNL A   1      41.961  22.868  28.373  1.00  0.00     0.010 A 
ATOM     10  C   UNL A   1      41.618  23.879  27.465  1.00  0.00    -0.014 A 
BRANCH  10  11
ATOM     11  C   UNL A   1      41.978  25.285  27.752  1.00  0.00     0.031 A 
ATOM     12  C   UNL A   1      43.321  25.729  27.247  1.00  0.00     0.074 A 
ATOM     13  C   UNL A   1      41.140  26.138  28.370  1.00  0.00     0.049 A 
ATOM     14  N   UNL A   1      43.968  26.843  27.448  1.00  0.00    -0.248 NA
ATOM     15  C   UNL A   1      44.051  24.745  26.429  1.00  0.00     0.031 C 
ATOM     16  C   UNL A   1      39.787  25.828  28.838  1.00  0.00     0.029 A 
ATOM     17  N   UNL A   1      41.309  27.459  28.704  1.00  0.00    -0.354 N 
ATOM     18  C   UNL A   1      45.199  26.668  26.823  1.00  0.00     0.074 A 
ATOM     19  C   UNL A   1      45.231  25.321  26.306  1.00  0.00     0.031 C 
ATOM     20  C   UNL A   1      39.247  26.935  29.387  1.00  0.00     0.029 A 
ATOM     21  C   UNL A   1      40.228  28.017  29.347  1.00  0.00     0.049 A 
ATOM     22  H   UNL A   1      42.130  27.962  28.501  1.00  0.00     0.167 HD
ATOM     23  C   UNL A   1      46.204  27.562  26.674  1.00  0.00     0.034 A 
ATOM     24  C   UNL A   1      40.078  29.256  29.859  1.00  0.00     0.034 A 
ATOM     25  C   UNL A   1      46.130  28.899  27.195  1.00  0.00     0.049 A 
ATOM     26  C   UNL A   1      41.240  30.217  29.756  1.00  0.00     0.074 A 
ATOM     27  C   UNL A   1      47.074  29.904  27.141  1.00  0.00     0.029 A 
ATOM     28  N   UNL A   1      45.031  29.411  27.877  1.00  0.00    -0.354 N 
ATOM     29  N   UNL A   1      42.420  30.032  29.209  1.00  0.00    -0.248 NA
ATOM     30  C   UNL A   1      41.048  31.548  30.345  1.00  0.00     0.031 C 
ATOM     31  C   UNL A   1      46.573  31.002  27.848  1.00  0.00     0.029 A 
ATOM     32  C   UNL A   1      45.281  30.714  28.265  1.00  0.00     0.049 A 
ATOM     33  H   UNL A   1      44.198  28.918  28.056  1.00  0.00     0.167 HD
ATOM     34  C   UNL A   1      43.100  31.235  29.360  1.00  0.00     0.074 A 
ATOM     35  C   UNL A   1      42.201  32.136  30.055  1.00  0.00     0.031 C 
ATOM     36  C   UNL A   1      44.348  31.578  28.951  1.00  0.00     0.034 A 
BRANCH  23  37
ATOM     37  C   UNL A   1      47.457  27.063  25.992  1.00  0.00     0.023 A 
ATOM     38  C   UNL A   1      48.372  26.224  26.655  1.00  0.00     0.031 A 
ATOM     39  C   UNL A   1      47.820  27.563  24.731  1.00  0.00     0.131 A 
ATOM     40  C   UNL A   1      49.657  26.038  26.125  1.00  0.00     0.055 A 
ATOM     41  C   UNL A   1      49.058  27.273  24.154  1.00  0.00     0.041 A 
ATOM     42  F   UNL A   1      47.001  28.388  24.060  1.00  0.00    -0.206 F 
ATOM     43  C   UNL A   1      49.998  26.532  24.865  1.00  0.00     0.022 A 
BRANCH  40  44
ATOM     44  S   UNL A   1      50.943  25.358  27.213  1.00  0.00     0.124 S 
ATOM     45  O   UNL A   1      50.201  24.329  27.939  1.00  0.00    -0.237 OA
ATOM     46  O   UNL A   1      51.937  24.873  26.264  1.00  0.00    -0.237 OA
ATOM     47  O   UNL A   1      51.354  26.506  28.019  1.00  0.00    -0.744 OA
ENDBRANCH  40  44
ENDBRANCH  23  37
BRANCH  24  48
ATOM     48  C   UNL A   1      38.841  29.660  30.589  1.00  0.00     0.023 A 
ATOM     49  C   UNL A   1      37.850  30.456  29.993  1.00  0.00     0.031 A 
ATOM     50  C   UNL A   1      38.689  29.332  31.944  1.00  0.00     0.131 A 
ATOM     51  C   UNL A   1      36.759  30.909  30.760  1.00  0.00     0.055 A 
ATOM     52  C   UNL A   1      37.585  29.751  32.691  1.00  0.00     0.041 A 
ATOM     53  F   UNL A   1      39.616  28.584  32.564  1.00  0.00    -0.206 F 
ATOM     54  C   UNL A   1      36.609  30.541  32.097  1.00  0.00     0.022 A 
BRANCH  51  55
ATOM     55  S   UNL A   1      35.566  32.055  30.013  1.00  0.00     0.124 S 
ATOM     56  O   UNL A   1      34.688  32.339  31.142  1.00  0.00    -0.237 OA
ATOM     57  O   UNL A   1      36.423  33.150  29.573  1.00  0.00    -0.237 OA
ATOM     58  O   UNL A   1      34.966  31.269  28.936  1.00  0.00    -0.744 OA
ENDBRANCH  51  55
ENDBRANCH  24  48
BRANCH  36  59
ATOM     59  C   UNL A   1      44.779  33.005  29.165  1.00  0.00     0.023 A 
ATOM     60  C   UNL A   1      44.560  34.004  28.204  1.00  0.00     0.031 A 
ATOM     61  C   UNL A   1      45.369  33.369  30.390  1.00  0.00     0.131 A 
ATOM     62  C   UNL A   1      44.952  35.322  28.476  1.00  0.00     0.055 A 
ATOM     63  C   UNL A   1      45.703  34.690  30.676  1.00  0.00     0.041 A 
ATOM     64  F   UNL A   1      45.602  32.446  31.336  1.00  0.00    -0.206 F 
ATOM     65  C   UNL A   1      45.500  35.674  29.714  1.00  0.00     0.022 A 
BRANCH  62  66
ATOM     66  S   UNL A   1      44.790  36.567  27.169  1.00  0.00     0.124 S 
ATOM     67  O   UNL A   1      45.062  37.804  27.896  1.00  0.00    -0.237 OA
ATOM     68  O   UNL A   1      45.810  36.152  26.212  1.00  0.00    -0.237 OA
ATOM     69  O   UNL A   1      43.410  36.408  26.714  1.00  0.00    -0.744 OA
ENDBRANCH  62  66
ENDBRANCH  36  59
ENDBRANCH  10  11
ENDBRANCH   3   5
ENDBRANCH   2   3
ENDBRANCH   1   2
BRANCH   1  70
ATOM     70  C   UNL A   1      38.230  20.263  24.987  1.00  0.00     0.274 C 
BRANCH  70  71
ATOM     71  O   UNL A   1      38.001  21.462  25.754  1.00  0.00    -0.462 OA
BRANCH  71  72
ATOM     72  C   UNL A   1      37.149  22.368  25.187  1.00  0.00     0.311 C 
ATOM     73  O   UNL A   1      37.456  23.528  24.962  1.00  0.00    -0.252 OA
BRANCH  72  74
ATOM     74  C   UNL A   1      35.817  21.731  24.815  1.00  0.00     0.124 C 
ATOM     75  C   UNL A   1      35.003  22.630  23.851  1.00  0.00     0.042 C 
ATOM     76  C   UNL A   1      34.806  21.525  25.972  1.00  0.00     0.100 C 
ATOM     77  C   UNL A   1      33.699  22.884  24.604  1.00  0.00     0.086 C 
ATOM     78  C   UNL A   1      34.650  22.813  26.805  1.00  0.00     0.028 C 
ATOM     79  N   UNL A   1      33.540  21.602  25.245  1.00  0.00    -0.332 N 
ATOM     80  C   UNL A   1      33.993  23.791  25.803  1.00  0.00     0.027 C 
BRANCH  79  81
ATOM     81  C   UNL A   1      32.437  20.811  25.079  1.00  0.00     0.256 C 
ATOM     82  O   UNL A   1      31.333  21.119  25.524  1.00  0.00    -0.269 OA
BRANCH  81  83
ATOM     83  C   UNL A   1      32.522  19.577  24.285  1.00  0.00     0.061 A 
ATOM     84  C   UNL A   1      33.025  18.456  24.953  1.00  0.00     0.035 A 
ATOM     85  C   UNL A   1      32.268  19.502  22.919  1.00  0.00     0.072 A 
ATOM     86  C   UNL A   1      33.201  17.294  24.229  1.00  0.00     0.112 A 
ATOM     87  C   UNL A   1      32.432  18.271  22.302  1.00  0.00     0.132 A 
ATOM     88  Cl  UNL A   1      31.894  20.847  21.918  1.00  0.00    -0.082 Cl
ATOM     89  N   UNL A   1      32.888  17.164  22.925  1.00  0.00    -0.263 NA
ENDBRANCH  81  83
ENDBRANCH  79  81
ENDBRANCH  72  74
ENDBRANCH  71  72
ENDBRANCH  70  71
ENDBRANCH   1  70
TORSDOF 16
ENDMDL
MODEL 3
REMARK VINA RESULT:     -11.8      5.621     11.064
REMARK SMILES O=C(OCCOC(=O)[C@@H]1C[C@@H]2CC[C@H]1N2C(=O)c1ccncc1Cl)c1ccc(-c2c3nc(c(-c4cc(S(=O)(=O)[O-])ccc4F)c4ccc([nH]4)c(-c4cc(S(=O)(=O)[O-])ccc4F)c4nc(c(-c5cc(S(=O)(=O)[O-])ccc5F)c5ccc2[nH]5)C=C4)C=C3)cc1
REMARK SMILES IDX 4 1 3 2 2 3 1 4 25 5 26 6 87 7 27 8 86 9 28 10 29 11 30 12
REMARK SMILES IDX 80 13 31 14 85 15 79 16 81 17 32 18 84 19 78 20 77 21 33 23
REMARK SMILES IDX 65 24 45 25 64 26 46 27 49 28 63 29 82 30 47 31 48 32 62 34
REMARK SMILES IDX 83 35 50 36 34 37 35 38 43 39 36 40 42 41 44 42 41 43 37 44
REMARK SMILES IDX 38 45 39 46 40 47 66 48 67 49 75 50 68 51 74 52 76 53 73 54
REMARK SMILES IDX 69 55 70 56 71 57 72 58 51 59 52 60 60 61 53 62 59 63 61 64
REMARK SMILES IDX 58 65 54 66 55 67 56 68 57 69 5 70 6 71 7 72 8 73 9 74 10 75
REMARK SMILES IDX 14 76 11 77 13 78 15 79 12 80 16 81 17 82 18 83 19 84 23 85
REMARK SMILES IDX 20 86 22 87 24 88 21 89
REMARK H PARENT 81 22 49 33
REMARK Flexibility Score: inf
ROOT
ATOM      1  C   UNL A   1      39.468  19.616  25.401  1.00  0.00     0.275 C 
ENDROOT
BRANCH   1   2
ATOM      2  O   UNL A   1      40.044  19.961  26.669  1.00  0.00    -0.458 OA
BRANCH   2   3
ATOM      3  C   UNL A   1      41.232  20.567  26.917  1.00  0.00     0.338 C 
ATOM      4  O   UNL A   1      42.217  19.860  27.122  1.00  0.00    -0.246 OA
BRANCH   3   5
ATOM      5  C   UNL A   1      41.352  22.042  27.171  1.00  0.00     0.060 A 
ATOM      6  C   UNL A   1      40.866  23.071  26.359  1.00  0.00     0.016 A 
ATOM      7  C   UNL A   1      41.967  22.410  28.383  1.00  0.00     0.016 A 
ATOM      8  C   UNL A   1      40.886  24.405  26.774  1.00  0.00     0.010 A 
ATOM      9  C   UNL A   1      41.986  23.742  28.811  1.00  0.00     0.010 A 
ATOM     10  C   UNL A   1      41.441  24.749  28.002  1.00  0.00    -0.014 A 
BRANCH  10  11
ATOM     11  C   UNL A   1      41.758  26.169  28.272  1.00  0.00     0.031 A 
ATOM     12  C   UNL A   1      43.124  26.624  27.843  1.00  0.00     0.074 A 
ATOM     13  C   UNL A   1      40.868  27.022  28.811  1.00  0.00     0.049 A 
ATOM     14  N   UNL A   1      43.737  27.755  28.054  1.00  0.00    -0.248 NA
ATOM     15  C   UNL A   1      43.922  25.632  27.100  1.00  0.00     0.031 C 
ATOM     16  C   UNL A   1      39.492  26.699  29.199  1.00  0.00     0.029 A 
ATOM     17  N   UNL A   1      40.992  28.354  29.118  1.00  0.00    -0.354 N 
ATOM     18  C   UNL A   1      45.009  27.587  27.514  1.00  0.00     0.074 A 
ATOM     19  C   UNL A   1      45.097  26.227  27.037  1.00  0.00     0.031 C 
ATOM     20  C   UNL A   1      38.899  27.810  29.681  1.00  0.00     0.029 A 
ATOM     21  C   UNL A   1      39.862  28.908  29.674  1.00  0.00     0.049 A 
ATOM     22  H   UNL A   1      41.816  28.867  28.954  1.00  0.00     0.167 HD
ATOM     23  C   UNL A   1      46.006  28.495  27.405  1.00  0.00     0.034 A 
ATOM     24  C   UNL A   1      39.658  30.158  30.141  1.00  0.00     0.034 A 
ATOM     25  C   UNL A   1      45.875  29.844  27.882  1.00  0.00     0.049 A 
ATOM     26  C   UNL A   1      40.807  31.137  30.086  1.00  0.00     0.074 A 
ATOM     27  C   UNL A   1      46.803  30.865  27.862  1.00  0.00     0.029 A 
ATOM     28  N   UNL A   1      44.726  30.354  28.478  1.00  0.00    -0.354 N 
ATOM     29  N   UNL A   1      42.024  30.960  29.622  1.00  0.00    -0.248 NA
ATOM     30  C   UNL A   1      40.556  32.480  30.624  1.00  0.00     0.031 C 
ATOM     31  C   UNL A   1      46.239  31.972  28.504  1.00  0.00     0.029 A 
ATOM     32  C   UNL A   1      44.927  31.670  28.844  1.00  0.00     0.049 A 
ATOM     33  H   UNL A   1      43.892  29.850  28.617  1.00  0.00     0.167 HD
ATOM     34  C   UNL A   1      42.672  32.180  29.782  1.00  0.00     0.074 A 
ATOM     35  C   UNL A   1      41.714  33.082  30.393  1.00  0.00     0.031 C 
ATOM     36  C   UNL A   1      43.938  32.535  29.445  1.00  0.00     0.034 A 
BRANCH  23  37
ATOM     37  C   UNL A   1      47.308  28.002  26.819  1.00  0.00     0.023 A 
ATOM     38  C   UNL A   1      47.561  28.056  25.436  1.00  0.00     0.031 A 
ATOM     39  C   UNL A   1      48.233  27.322  27.629  1.00  0.00     0.131 A 
ATOM     40  C   UNL A   1      48.620  27.315  24.891  1.00  0.00     0.055 A 
ATOM     41  C   UNL A   1      49.354  26.687  27.090  1.00  0.00     0.041 A 
ATOM     42  F   UNL A   1      48.035  27.214  28.952  1.00  0.00    -0.206 F 
ATOM     43  C   UNL A   1      49.536  26.654  25.711  1.00  0.00     0.022 A 
BRANCH  40  44
ATOM     44  S   UNL A   1      48.632  27.026  23.097  1.00  0.00     0.124 S 
ATOM     45  O   UNL A   1      47.654  28.009  22.635  1.00  0.00    -0.237 OA
ATOM     46  O   UNL A   1      50.020  27.294  22.742  1.00  0.00    -0.237 OA
ATOM     47  O   UNL A   1      48.210  25.632  22.971  1.00  0.00    -0.744 OA
ENDBRANCH  40  44
ENDBRANCH  23  37
BRANCH  24  48
ATOM     48  C   UNL A   1      38.370  30.558  30.778  1.00  0.00     0.023 A 
ATOM     49  C   UNL A   1      37.375  31.257  30.075  1.00  0.00     0.031 A 
ATOM     50  C   UNL A   1      38.165  30.330  32.147  1.00  0.00     0.131 A 
ATOM     51  C   UNL A   1      36.229  31.715  30.752  1.00  0.00     0.055 A 
ATOM     52  C   UNL A   1      37.008  30.752  32.806  1.00  0.00     0.041 A 
ATOM     53  F   UNL A   1      39.092  29.677  32.867  1.00  0.00    -0.206 F 
ATOM     54  C   UNL A   1      36.029  31.446  32.107  1.00  0.00     0.022 A 
BRANCH  51  55
ATOM     55  S   UNL A   1      35.025  32.741  29.861  1.00  0.00     0.124 S 
ATOM     56  O   UNL A   1      34.149  33.169  30.945  1.00  0.00    -0.237 OA
ATOM     57  O   UNL A   1      35.873  33.773  29.274  1.00  0.00    -0.237 OA
ATOM     58  O   UNL A   1      34.427  31.813  28.904  1.00  0.00    -0.744 OA
ENDBRANCH  51  55
ENDBRANCH  24  48
BRANCH  36  59
ATOM     59  C   UNL A   1      44.330  33.975  29.646  1.00  0.00     0.023 A 
ATOM     60  C   UNL A   1      44.238  34.925  28.618  1.00  0.00     0.031 A 
ATOM     61  C   UNL A   1      44.747  34.403  30.920  1.00  0.00     0.131 A 
ATOM     62  C   UNL A   1      44.584  36.258  28.876  1.00  0.00     0.055 A 
ATOM     63  C   UNL A   1      45.033  35.739  31.185  1.00  0.00     0.041 A 
ATOM     64  F   UNL A   1      44.854  33.527  31.932  1.00  0.00    -0.206 F 
ATOM     65  C   UNL A   1      44.958  36.675  30.158  1.00  0.00     0.022 A 
BRANCH  62  66
ATOM     66  S   UNL A   1      44.594  37.440  27.501  1.00  0.00     0.124 S 
ATOM     67  O   UNL A   1      44.995  38.675  28.168  1.00  0.00    -0.237 OA
ATOM     68  O   UNL A   1      45.577  36.856  26.594  1.00  0.00    -0.237 OA
ATOM     69  O   UNL A   1      43.215  37.416  27.020  1.00  0.00    -0.744 OA
ENDBRANCH  62  66
ENDBRANCH  36  59
ENDBRANCH  10  11
ENDBRANCH   3   5
ENDBRANCH   2   3
ENDBRANCH   1   2
BRANCH   1  70
ATOM     70  C   UNL A   1      38.144  20.336  25.104  1.00  0.00     0.274 C 
BRANCH  70  71
ATOM     71  O   UNL A   1      37.994  21.616  25.750  1.00  0.00    -0.462 OA
BRANCH  71  72
ATOM     72  C   UNL A   1      37.117  22.477  25.151  1.00  0.00     0.311 C 
ATOM     73  O   UNL A   1      37.392  23.637  24.886  1.00  0.00    -0.252 OA
BRANCH  72  74
ATOM     74  C   UNL A   1      35.805  21.789  24.800  1.00  0.00     0.124 C 
ATOM     75  C   UNL A   1      34.961  22.638  23.817  1.00  0.00     0.042 C 
ATOM     76  C   UNL A   1      34.805  21.582  25.966  1.00  0.00     0.100 C 
ATOM     77  C   UNL A   1      33.652  22.871  24.568  1.00  0.00     0.086 C 
ATOM     78  C   UNL A   1      34.610  22.885  26.767  1.00  0.00     0.028 C 
ATOM     79  N   UNL A   1      33.534  21.601  25.242  1.00  0.00    -0.332 N 
ATOM     80  C   UNL A   1      33.920  23.816  25.742  1.00  0.00     0.027 C 
BRANCH  79  81
ATOM     81  C   UNL A   1      32.457  20.772  25.100  1.00  0.00     0.256 C 
ATOM     82  O   UNL A   1      31.359  21.029  25.594  1.00  0.00    -0.269 OA
BRANCH  81  83
ATOM     83  C   UNL A   1      32.556  19.559  24.276  1.00  0.00     0.061 A 
ATOM     84  C   UNL A   1      33.085  18.432  24.913  1.00  0.00     0.035 A 
ATOM     85  C   UNL A   1      32.292  19.512  22.911  1.00  0.00     0.072 A 
ATOM     86  C   UNL A   1      33.276  17.291  24.161  1.00  0.00     0.112 A 
ATOM     87  C   UNL A   1      32.473  18.299  22.263  1.00  0.00     0.132 A 
ATOM     88  Cl  UNL A   1      31.886  20.873  21.945  1.00  0.00    -0.082 Cl
ATOM     89  N   UNL A   1      32.953  17.186  22.856  1.00  0.00    -0.263 NA
ENDBRANCH  81  83
ENDBRANCH  79  81
ENDBRANCH  72  74
ENDBRANCH  71  72
ENDBRANCH  70  71
ENDBRANCH   1  70
TORSDOF 16
ENDMDL
