MODEL 1
REMARK VINA RESULT:     -10.6      0.000      0.000
REMARK SMILES CC(C)C[C@H](NC(=O)[C@@H](NC(=O)[C@H](C)NC(=O)CNC(=O)OCc1ccccc1)C(C)C)C(=O)OCCOC(=O)c1ccc(-c2c3nc(c(-c4cc(S(=O)(=O)[O-])ccc4F)c4ccc([nH]4)c(-c4cc(S(=O)(=O)[O-])ccc4F)c4nc(c(-c5cc(S(=O)(=O)[O-])ccc5F)c5ccc2[nH]5)C=C4)C=C3)cc1
REMARK SMILES IDX 5 1 4 2 2 3 1 4 3 5 33 6 34 7 35 8 36 9 37 10 38 11 39 12
REMARK SMILES IDX 40 13 41 14 42 15 103 16 43 17 102 18 44 19 45 20 46 21
REMARK SMILES IDX 96 22 47 23 101 24 95 25 97 26 48 27 100 28 94 29 93 30
REMARK SMILES IDX 49 32 81 33 61 34 80 35 62 36 65 37 79 38 98 39 63 40 64 41
REMARK SMILES IDX 78 43 99 44 66 45 50 46 51 47 59 48 52 49 58 50 60 51 57 52
REMARK SMILES IDX 53 53 54 54 55 55 56 56 82 57 83 58 91 59 84 60 90 61 92 62
REMARK SMILES IDX 89 63 85 64 86 65 87 66 88 67 67 68 68 69 76 70 69 71 75 72
REMARK SMILES IDX 77 73 74 74 70 75 71 76 72 77 73 78 6 79 7 80 8 82 9 83
REMARK SMILES IDX 10 84 11 85 12 87 13 88 14 89 15 90 16 91 17 93 18 94 19 95
REMARK SMILES IDX 20 96 21 98 22 99 23 100 24 101 25 102 29 103 26 104 28 105
REMARK SMILES IDX 27 106 30 107 31 108 32 109
REMARK H PARENT 97 31 65 42 6 81 10 86 15 92 19 97
REMARK Flexibility Score: inf
ROOT
ATOM      1  C   UNL A   1      36.602  21.341  25.159  1.00  0.00     0.192 C 
ENDROOT
BRANCH   1   2
ATOM      2  C   UNL A   1      36.983  22.850  25.087  1.00  0.00     0.040 C 
BRANCH   2   3
ATOM      3  C   UNL A   1      36.144  23.753  24.165  1.00  0.00    -0.015 C 
ATOM      4  C   UNL A   1      35.427  22.942  23.096  1.00  0.00     0.007 C 
ATOM      5  C   UNL A   1      35.127  24.520  25.028  1.00  0.00     0.007 C 
ENDBRANCH   2   3
ENDBRANCH   1   2
BRANCH   1   6
ATOM      6  C   UNL A   1      38.031  20.665  25.317  1.00  0.00     0.328 C 
ATOM      7  O   UNL A   1      38.220  19.509  24.933  1.00  0.00    -0.250 OA
BRANCH   6   8
ATOM      8  O   UNL A   1      39.009  21.405  25.916  1.00  0.00    -0.461 OA
BRANCH   8   9
ATOM      9  C   UNL A   1      40.263  20.691  26.131  1.00  0.00     0.274 C 
BRANCH   9  10
ATOM     10  C   UNL A   1      41.544  21.579  26.064  1.00  0.00     0.275 C 
BRANCH  10  11
ATOM     11  O   UNL A   1      42.799  20.874  26.150  1.00  0.00    -0.458 OA
BRANCH  11  12
ATOM     12  C   UNL A   1      43.818  21.691  25.868  1.00  0.00     0.338 C 
ATOM     13  O   UNL A   1      44.849  21.333  25.350  1.00  0.00    -0.246 OA
BRANCH  12  14
ATOM     14  C   UNL A   1      43.662  23.079  26.244  1.00  0.00     0.060 A 
ATOM     15  C   UNL A   1      43.324  24.430  25.058  1.00  0.00     0.016 A 
ATOM     16  C   UNL A   1      43.772  23.486  27.996  1.00  0.00     0.016 A 
ATOM     17  C   UNL A   1      43.088  26.112  25.646  1.00  0.00     0.010 A 
ATOM     18  C   UNL A   1      43.560  25.190  28.537  1.00  0.00     0.010 A 
ATOM     19  C   UNL A   1      43.180  26.504  27.404  1.00  0.00    -0.014 A 
BRANCH  19  20
ATOM     20  C   UNL A   1      43.293  27.949  27.924  1.00  0.00     0.031 A 
ATOM     21  C   UNL A   1      44.642  28.685  28.052  1.00  0.00     0.074 A 
ATOM     22  C   UNL A   1      42.196  28.630  28.319  1.00  0.00     0.049 A 
ATOM     23  N   UNL A   1      44.922  29.840  28.627  1.00  0.00    -0.248 NA
ATOM     24  C   UNL A   1      45.831  28.048  27.473  1.00  0.00     0.031 C 
ATOM     25  C   UNL A   1      40.831  28.151  28.189  1.00  0.00     0.029 A 
ATOM     26  N   UNL A   1      42.046  29.848  28.949  1.00  0.00    -0.354 N 
ATOM     27  C   UNL A   1      46.306  30.029  28.502  1.00  0.00     0.074 A 
ATOM     28  C   UNL A   1      46.817  28.838  27.867  1.00  0.00     0.031 C 
ATOM     29  C   UNL A   1      39.987  29.003  28.787  1.00  0.00     0.029 A 
ATOM     30  C   UNL A   1      40.747  30.114  29.334  1.00  0.00     0.049 A 
ATOM     31  H   UNL A   1      42.792  30.469  29.108  1.00  0.00     0.167 HD
ATOM     32  C   UNL A   1      47.082  31.100  28.834  1.00  0.00     0.034 A 
ATOM     33  C   UNL A   1      40.198  31.124  30.037  1.00  0.00     0.034 A 
ATOM     34  C   UNL A   1      46.555  32.332  29.385  1.00  0.00     0.049 A 
ATOM     35  C   UNL A   1      41.056  32.295  30.411  1.00  0.00     0.074 A 
ATOM     36  C   UNL A   1      47.226  33.512  29.664  1.00  0.00     0.029 A 
ATOM     37  N   UNL A   1      45.228  32.547  29.732  1.00  0.00    -0.354 N 
ATOM     38  N   UNL A   1      42.350  32.444  30.256  1.00  0.00    -0.248 NA
ATOM     39  C   UNL A   1      40.370  33.460  30.978  1.00  0.00     0.031 C 
ATOM     40  C   UNL A   1      46.326  34.406  30.254  1.00  0.00     0.029 A 
ATOM     41  C   UNL A   1      45.070  33.825  30.252  1.00  0.00     0.049 A 
ATOM     42  H   UNL A   1      44.504  31.888  29.626  1.00  0.00     0.167 HD
ATOM     43  C   UNL A   1      42.625  33.749  30.651  1.00  0.00     0.074 A 
ATOM     44  C   UNL A   1      41.359  34.339  31.041  1.00  0.00     0.031 C 
ATOM     45  C   UNL A   1      43.814  34.402  30.667  1.00  0.00     0.034 A 
BRANCH  32  46
ATOM     46  C   UNL A   1      48.593  31.006  28.629  1.00  0.00     0.023 A 
ATOM     47  C   UNL A   1      49.250  31.583  27.527  1.00  0.00     0.031 A 
ATOM     48  C   UNL A   1      49.397  30.339  29.576  1.00  0.00     0.131 A 
ATOM     49  C   UNL A   1      50.637  31.414  27.358  1.00  0.00     0.055 A 
ATOM     50  C   UNL A   1      50.788  30.258  29.453  1.00  0.00     0.041 A 
ATOM     51  F   UNL A   1      48.844  29.751  30.650  1.00  0.00    -0.206 F 
ATOM     52  C   UNL A   1      51.416  30.782  28.329  1.00  0.00     0.022 A 
BRANCH  49  53
ATOM     53  S   UNL A   1      51.392  31.894  25.777  1.00  0.00     0.124 S 
ATOM     54  O   UNL A   1      52.711  32.353  26.206  1.00  0.00    -0.237 OA
ATOM     55  O   UNL A   1      51.361  30.648  25.022  1.00  0.00    -0.237 OA
ATOM     56  O   UNL A   1      50.507  32.947  25.279  1.00  0.00    -0.744 OA
ENDBRANCH  49  53
ENDBRANCH  32  46
BRANCH  33  57
ATOM     57  C   UNL A   1      38.737  31.099  30.344  1.00  0.00     0.023 A 
ATOM     58  C   UNL A   1      37.812  31.732  29.502  1.00  0.00     0.031 A 
ATOM     59  C   UNL A   1      38.241  30.398  31.459  1.00  0.00     0.131 A 
ATOM     60  C   UNL A   1      36.441  31.676  29.796  1.00  0.00     0.055 A 
ATOM     61  C   UNL A   1      36.872  30.301  31.721  1.00  0.00     0.041 A 
ATOM     62  F   UNL A   1      39.084  29.762  32.288  1.00  0.00    -0.206 F 
ATOM     63  C   UNL A   1      35.963  30.951  30.890  1.00  0.00     0.022 A 
BRANCH  60  64
ATOM     64  S   UNL A   1      35.294  32.618  28.754  1.00  0.00     0.124 S 
ATOM     65  O   UNL A   1      34.282  31.616  28.440  1.00  0.00    -0.237 OA
ATOM     66  O   UNL A   1      34.880  33.688  29.656  1.00  0.00    -0.237 OA
ATOM     67  O   UNL A   1      36.127  33.041  27.630  1.00  0.00    -0.744 OA
ENDBRANCH  60  64
ENDBRANCH  33  57
BRANCH  45  68
ATOM     68  C   UNL A   1      43.781  35.852  31.082  1.00  0.00     0.023 A 
ATOM     69  C   UNL A   1      43.711  36.886  30.134  1.00  0.00     0.031 A 
ATOM     70  C   UNL A   1      43.901  36.206  32.438  1.00  0.00     0.131 A 
ATOM     71  C   UNL A   1      43.874  38.217  30.541  1.00  0.00     0.055 A 
ATOM     72  C   UNL A   1      43.970  37.539  32.845  1.00  0.00     0.041 A 
ATOM     73  F   UNL A   1      43.978  35.262  33.389  1.00  0.00    -0.206 F 
ATOM     74  C   UNL A   1      43.981  38.554  31.892  1.00  0.00     0.022 A 
BRANCH  71  75
ATOM     75  S   UNL A   1      44.123  39.480  29.263  1.00  0.00     0.124 S 
ATOM     76  O   UNL A   1      43.708  38.770  28.056  1.00  0.00    -0.237 OA
ATOM     77  O   UNL A   1      43.239  40.552  29.707  1.00  0.00    -0.237 OA
ATOM     78  O   UNL A   1      45.552  39.776  29.349  1.00  0.00    -0.744 OA
ENDBRANCH  71  75
ENDBRANCH  45  68
ENDBRANCH  19  20
ENDBRANCH  12  14
ENDBRANCH  11  12
ENDBRANCH  10  11
ENDBRANCH   9  10
ENDBRANCH   8   9
ENDBRANCH   6   8
ENDBRANCH   1   6
BRANCH   1  79
ATOM     79  N   UNL A   1      35.375  21.061  25.964  1.00  0.00    -0.341 N 
ATOM     80  C   UNL A   1      34.118  20.521  25.771  1.00  0.00     0.243 C 
ATOM     81  H   UNL A   1      35.497  21.341  26.900  1.00  0.00     0.164 HD
ATOM     82  O   UNL A   1      33.383  20.748  26.757  1.00  0.00    -0.273 OA
BRANCH  80  83
ATOM     83  C   UNL A   1      33.435  19.590  24.562  1.00  0.00     0.174 C 
BRANCH  83  84
ATOM     84  N   UNL A   1      32.821  20.355  23.358  1.00  0.00    -0.342 N 
ATOM     85  C   UNL A   1      32.174  21.474  22.700  1.00  0.00     0.242 C 
ATOM     86  H   UNL A   1      32.938  19.714  22.620  1.00  0.00     0.164 HD
ATOM     87  O   UNL A   1      31.915  20.751  21.674  1.00  0.00    -0.273 OA
BRANCH  85  88
ATOM     88  C   UNL A   1      31.780  23.599  23.125  1.00  0.00     0.168 C 
ATOM     89  C   UNL A   1      30.287  24.479  23.167  1.00  0.00     0.041 C 
BRANCH  88  90
ATOM     90  N   UNL A   1      32.533  24.987  22.270  1.00  0.00    -0.343 N 
ATOM     91  C   UNL A   1      33.276  26.111  22.225  1.00  0.00     0.240 C 
ATOM     92  H   UNL A   1      32.253  24.859  21.336  1.00  0.00     0.164 HD
ATOM     93  O   UNL A   1      33.575  26.492  21.079  1.00  0.00    -0.273 OA
BRANCH  91  94
ATOM     94  C   UNL A   1      33.528  27.081  23.339  1.00  0.00     0.219 C 
BRANCH  94  95
ATOM     95  N   UNL A   1      32.575  28.132  23.048  1.00  0.00    -0.312 N 
ATOM     96  C   UNL A   1      31.563  28.387  23.913  1.00  0.00     0.407 C 
ATOM     97  H   UNL A   1      32.662  28.661  22.223  1.00  0.00     0.167 HD
ATOM     98  O   UNL A   1      30.572  29.027  23.604  1.00  0.00    -0.225 OA
BRANCH  96  99
ATOM     99  O   UNL A   1      31.831  27.793  25.090  1.00  0.00    -0.445 OA
BRANCH  99 100
ATOM    100  C   UNL A   1      30.766  27.472  25.969  1.00  0.00     0.270 C 
BRANCH 100 101
ATOM    101  C   UNL A   1      30.833  26.038  26.357  1.00  0.00    -0.011 A 
ATOM    102  C   UNL A   1      29.651  25.299  26.494  1.00  0.00     0.007 A 
ATOM    103  C   UNL A   1      32.078  25.417  26.454  1.00  0.00     0.007 A 
ATOM    104  C   UNL A   1      29.721  23.930  26.710  1.00  0.00     0.000 A 
ATOM    105  C   UNL A   1      32.142  24.049  26.666  1.00  0.00     0.000 A 
ATOM    106  C   UNL A   1      30.967  23.308  26.792  1.00  0.00     0.000 A 
ENDBRANCH 100 101
ENDBRANCH  99 100
ENDBRANCH  96  99
ENDBRANCH  94  95
ENDBRANCH  91  94
ENDBRANCH  88  90
ENDBRANCH  85  88
ENDBRANCH  83  84
BRANCH  83 107
ATOM    107  C   UNL A   1      33.937  18.030  24.487  1.00  0.00     0.015 C 
ATOM    108  C   UNL A   1      33.404  17.295  23.246  1.00  0.00     0.010 C 
ATOM    109  C   UNL A   1      35.420  17.662  24.633  1.00  0.00     0.010 C 
ENDBRANCH  83 107
ENDBRANCH  80  83
ENDBRANCH   1  79
TORSDOF 27
ENDMDL
MODEL 2
REMARK VINA RESULT:     -10.4      1.529      2.242
REMARK SMILES CC(C)C[C@H](NC(=O)[C@@H](NC(=O)[C@H](C)NC(=O)CNC(=O)OCc1ccccc1)C(C)C)C(=O)OCCOC(=O)c1ccc(-c2c3nc(c(-c4cc(S(=O)(=O)[O-])ccc4F)c4ccc([nH]4)c(-c4cc(S(=O)(=O)[O-])ccc4F)c4nc(c(-c5cc(S(=O)(=O)[O-])ccc5F)c5ccc2[nH]5)C=C4)C=C3)cc1
REMARK SMILES IDX 5 1 4 2 2 3 1 4 3 5 33 6 34 7 35 8 36 9 37 10 38 11 39 12
REMARK SMILES IDX 40 13 41 14 42 15 103 16 43 17 102 18 44 19 45 20 46 21
REMARK SMILES IDX 96 22 47 23 101 24 95 25 97 26 48 27 100 28 94 29 93 30
REMARK SMILES IDX 49 32 81 33 61 34 80 35 62 36 65 37 79 38 98 39 63 40 64 41
REMARK SMILES IDX 78 43 99 44 66 45 50 46 51 47 59 48 52 49 58 50 60 51 57 52
REMARK SMILES IDX 53 53 54 54 55 55 56 56 82 57 83 58 91 59 84 60 90 61 92 62
REMARK SMILES IDX 89 63 85 64 86 65 87 66 88 67 67 68 68 69 76 70 69 71 75 72
REMARK SMILES IDX 77 73 74 74 70 75 71 76 72 77 73 78 6 79 7 80 8 82 9 83
REMARK SMILES IDX 10 84 11 85 12 87 13 88 14 89 15 90 16 91 17 93 18 94 19 95
REMARK SMILES IDX 20 96 21 98 22 99 23 100 24 101 25 102 29 103 26 104 28 105
REMARK SMILES IDX 27 106 30 107 31 108 32 109
REMARK H PARENT 97 31 65 42 6 81 10 86 15 92 19 97
REMARK Flexibility Score: inf
ROOT
ATOM      1  C   UNL A   1      36.501  21.349  25.190  1.00  0.00     0.192 C 
ENDROOT
BRANCH   1   2
ATOM      2  C   UNL A   1      36.890  22.856  25.125  1.00  0.00     0.040 C 
BRANCH   2   3
ATOM      3  C   UNL A   1      35.984  23.791  24.303  1.00  0.00    -0.015 C 
ATOM      4  C   UNL A   1      35.397  23.074  23.096  1.00  0.00     0.007 C 
ATOM      5  C   UNL A   1      34.861  24.309  25.218  1.00  0.00     0.007 C 
ENDBRANCH   2   3
ENDBRANCH   1   2
BRANCH   1   6
ATOM      6  C   UNL A   1      37.928  20.662  25.304  1.00  0.00     0.328 C 
ATOM      7  O   UNL A   1      38.103  19.514  24.888  1.00  0.00    -0.250 OA
BRANCH   6   8
ATOM      8  O   UNL A   1      38.921  21.381  25.902  1.00  0.00    -0.461 OA
BRANCH   8   9
ATOM      9  C   UNL A   1      40.148  20.631  26.151  1.00  0.00     0.274 C 
BRANCH   9  10
ATOM     10  C   UNL A   1      41.457  21.477  26.100  1.00  0.00     0.275 C 
BRANCH  10  11
ATOM     11  O   UNL A   1      42.689  20.726  26.117  1.00  0.00    -0.458 OA
BRANCH  11  12
ATOM     12  C   UNL A   1      43.731  21.525  25.867  1.00  0.00     0.338 C 
ATOM     13  O   UNL A   1      44.773  21.148  25.387  1.00  0.00    -0.246 OA
BRANCH  12  14
ATOM     14  C   UNL A   1      43.585  22.917  26.231  1.00  0.00     0.060 A 
ATOM     15  C   UNL A   1      43.257  24.261  25.033  1.00  0.00     0.016 A 
ATOM     16  C   UNL A   1      43.697  23.339  27.979  1.00  0.00     0.016 A 
ATOM     17  C   UNL A   1      43.034  25.950  25.606  1.00  0.00     0.010 A 
ATOM     18  C   UNL A   1      43.497  25.048  28.505  1.00  0.00     0.010 A 
ATOM     19  C   UNL A   1      43.127  26.356  27.361  1.00  0.00    -0.014 A 
BRANCH  19  20
ATOM     20  C   UNL A   1      43.251  27.804  27.869  1.00  0.00     0.031 A 
ATOM     21  C   UNL A   1      44.606  28.529  27.999  1.00  0.00     0.074 A 
ATOM     22  C   UNL A   1      42.158  28.499  28.251  1.00  0.00     0.049 A 
ATOM     23  N   UNL A   1      44.894  29.685  28.566  1.00  0.00    -0.248 NA
ATOM     24  C   UNL A   1      45.792  27.875  27.434  1.00  0.00     0.031 C 
ATOM     25  C   UNL A   1      40.789  28.032  28.115  1.00  0.00     0.029 A 
ATOM     26  N   UNL A   1      42.015  29.725  28.868  1.00  0.00    -0.354 N 
ATOM     27  C   UNL A   1      46.280  29.860  28.448  1.00  0.00     0.074 A 
ATOM     28  C   UNL A   1      46.784  28.659  27.828  1.00  0.00     0.031 C 
ATOM     29  C   UNL A   1      39.950  28.897  28.700  1.00  0.00     0.029 A 
ATOM     30  C   UNL A   1      40.717  30.006  29.243  1.00  0.00     0.049 A 
ATOM     31  H   UNL A   1      42.767  30.340  29.027  1.00  0.00     0.167 HD
ATOM     32  C   UNL A   1      47.064  30.927  28.776  1.00  0.00     0.034 A 
ATOM     33  C   UNL A   1      40.172  31.028  29.933  1.00  0.00     0.034 A 
ATOM     34  C   UNL A   1      46.545  32.168  29.312  1.00  0.00     0.049 A 
ATOM     35  C   UNL A   1      41.039  32.193  30.302  1.00  0.00     0.074 A 
ATOM     36  C   UNL A   1      47.225  33.345  29.585  1.00  0.00     0.029 A 
ATOM     37  N   UNL A   1      45.217  32.399  29.649  1.00  0.00    -0.354 N 
ATOM     38  N   UNL A   1      42.336  32.329  30.155  1.00  0.00    -0.248 NA
ATOM     39  C   UNL A   1      40.361  33.370  30.854  1.00  0.00     0.031 C 
ATOM     40  C   UNL A   1      46.331  34.253  30.161  1.00  0.00     0.029 A 
ATOM     41  C   UNL A   1      45.069  33.683  30.156  1.00  0.00     0.049 A 
ATOM     42  H   UNL A   1      44.488  31.746  29.544  1.00  0.00     0.167 HD
ATOM     43  C   UNL A   1      42.621  33.635  30.539  1.00  0.00     0.074 A 
ATOM     44  C   UNL A   1      41.357  34.240  30.915  1.00  0.00     0.031 C 
ATOM     45  C   UNL A   1      43.816  34.276  30.557  1.00  0.00     0.034 A 
BRANCH  32  46
ATOM     46  C   UNL A   1      48.575  30.817  28.582  1.00  0.00     0.023 A 
ATOM     47  C   UNL A   1      49.414  30.140  29.486  1.00  0.00     0.031 A 
ATOM     48  C   UNL A   1      49.187  31.388  27.446  1.00  0.00     0.131 A 
ATOM     49  C   UNL A   1      50.807  30.123  29.287  1.00  0.00     0.055 A 
ATOM     50  C   UNL A   1      50.561  31.283  27.203  1.00  0.00     0.041 A 
ATOM     51  F   UNL A   1      48.457  32.061  26.541  1.00  0.00    -0.206 F 
ATOM     52  C   UNL A   1      51.384  30.663  28.136  1.00  0.00     0.022 A 
BRANCH  49  53
ATOM     53  S   UNL A   1      51.875  29.522  30.628  1.00  0.00     0.124 S 
ATOM     54  O   UNL A   1      50.906  29.297  31.698  1.00  0.00    -0.237 OA
ATOM     55  O   UNL A   1      52.473  28.327  30.044  1.00  0.00    -0.237 OA
ATOM     56  O   UNL A   1      52.798  30.632  30.857  1.00  0.00    -0.744 OA
ENDBRANCH  49  53
ENDBRANCH  32  46
BRANCH  33  57
ATOM     57  C   UNL A   1      38.709  31.019  30.230  1.00  0.00     0.023 A 
ATOM     58  C   UNL A   1      37.780  31.499  29.296  1.00  0.00     0.031 A 
ATOM     59  C   UNL A   1      38.216  30.484  31.435  1.00  0.00     0.131 A 
ATOM     60  C   UNL A   1      36.408  31.461  29.586  1.00  0.00     0.055 A 
ATOM     61  C   UNL A   1      36.847  30.400  31.699  1.00  0.00     0.041 A 
ATOM     62  F   UNL A   1      39.063  29.998  32.356  1.00  0.00    -0.206 F 
ATOM     63  C   UNL A   1      35.934  30.899  30.774  1.00  0.00     0.022 A 
BRANCH  60  64
ATOM     64  S   UNL A   1      35.254  32.211  28.406  1.00  0.00     0.124 S 
ATOM     65  O   UNL A   1      34.264  32.810  29.293  1.00  0.00    -0.237 OA
ATOM     66  O   UNL A   1      36.122  33.141  27.690  1.00  0.00    -0.237 OA
ATOM     67  O   UNL A   1      34.783  31.072  27.621  1.00  0.00    -0.744 OA
ENDBRANCH  60  64
ENDBRANCH  33  57
BRANCH  45  68
ATOM     68  C   UNL A   1      43.794  35.731  30.959  1.00  0.00     0.023 A 
ATOM     69  C   UNL A   1      43.709  36.756  30.003  1.00  0.00     0.031 A 
ATOM     70  C   UNL A   1      43.939  36.097  32.310  1.00  0.00     0.131 A 
ATOM     71  C   UNL A   1      43.883  38.090  30.394  1.00  0.00     0.055 A 
ATOM     72  C   UNL A   1      44.019  37.433  32.703  1.00  0.00     0.041 A 
ATOM     73  F   UNL A   1      44.031  35.162  33.268  1.00  0.00    -0.206 F 
ATOM     74  C   UNL A   1      44.015  38.439  31.739  1.00  0.00     0.022 A 
BRANCH  71  75
ATOM     75  S   UNL A   1      44.112  39.340  29.099  1.00  0.00     0.124 S 
ATOM     76  O   UNL A   1      45.445  39.015  28.602  1.00  0.00    -0.237 OA
ATOM     77  O   UNL A   1      43.006  39.055  28.192  1.00  0.00    -0.237 OA
ATOM     78  O   UNL A   1      44.010  40.605  29.825  1.00  0.00    -0.744 OA
ENDBRANCH  71  75
ENDBRANCH  45  68
ENDBRANCH  19  20
ENDBRANCH  12  14
ENDBRANCH  11  12
ENDBRANCH  10  11
ENDBRANCH   9  10
ENDBRANCH   8   9
ENDBRANCH   6   8
ENDBRANCH   1   6
BRANCH   1  79
ATOM     79  N   UNL A   1      35.293  21.068  26.023  1.00  0.00    -0.341 N 
ATOM     80  C   UNL A   1      34.052  20.478  25.873  1.00  0.00     0.243 C 
ATOM     81  H   UNL A   1      35.416  21.397  26.943  1.00  0.00     0.164 HD
ATOM     82  O   UNL A   1      33.320  20.729  26.856  1.00  0.00    -0.273 OA
BRANCH  80  83
ATOM     83  C   UNL A   1      33.387  19.469  24.718  1.00  0.00     0.174 C 
BRANCH  83  84
ATOM     84  N   UNL A   1      32.754  20.154  23.476  1.00  0.00    -0.342 N 
ATOM     85  C   UNL A   1      32.151  21.248  22.740  1.00  0.00     0.242 C 
ATOM     86  H   UNL A   1      32.774  19.434  22.805  1.00  0.00     0.164 HD
ATOM     87  O   UNL A   1      31.772  20.447  21.814  1.00  0.00    -0.273 OA
BRANCH  85  88
ATOM     88  C   UNL A   1      31.945  23.430  22.957  1.00  0.00     0.168 C 
ATOM     89  C   UNL A   1      30.558  24.396  23.340  1.00  0.00     0.041 C 
BRANCH  88  90
ATOM     90  N   UNL A   1      32.404  24.647  21.717  1.00  0.00    -0.343 N 
ATOM     91  C   UNL A   1      32.848  25.859  21.330  1.00  0.00     0.240 C 
ATOM     92  H   UNL A   1      32.248  24.176  20.867  1.00  0.00     0.164 HD
ATOM     93  O   UNL A   1      33.143  25.945  20.124  1.00  0.00    -0.273 OA
BRANCH  91  94
ATOM     94  C   UNL A   1      32.754  27.148  22.088  1.00  0.00     0.219 C 
BRANCH  94  95
ATOM     95  N   UNL A   1      33.441  26.826  23.321  1.00  0.00    -0.312 N 
ATOM     96  C   UNL A   1      33.244  27.586  24.426  1.00  0.00     0.407 C 
ATOM     97  H   UNL A   1      34.053  26.055  23.358  1.00  0.00     0.167 HD
ATOM     98  O   UNL A   1      33.994  27.568  25.387  1.00  0.00    -0.225 OA
BRANCH  96  99
ATOM     99  O   UNL A   1      32.150  28.349  24.244  1.00  0.00    -0.445 OA
BRANCH  99 100
ATOM    100  C   UNL A   1      30.877  27.843  24.609  1.00  0.00     0.270 C 
BRANCH 100 101
ATOM    101  C   UNL A   1      29.804  28.587  23.897  1.00  0.00    -0.011 A 
ATOM    102  C   UNL A   1      30.006  29.924  23.536  1.00  0.00     0.007 A 
ATOM    103  C   UNL A   1      28.659  27.903  23.487  1.00  0.00     0.007 A 
ATOM    104  C   UNL A   1      29.067  30.570  22.745  1.00  0.00     0.000 A 
ATOM    105  C   UNL A   1      27.726  28.551  22.694  1.00  0.00     0.000 A 
ATOM    106  C   UNL A   1      27.930  29.880  22.323  1.00  0.00     0.000 A 
ENDBRANCH 100 101
ENDBRANCH  99 100
ENDBRANCH  96  99
ENDBRANCH  94  95
ENDBRANCH  91  94
ENDBRANCH  88  90
ENDBRANCH  85  88
ENDBRANCH  83  84
BRANCH  83 107
ATOM    107  C   UNL A   1      33.922  17.918  24.726  1.00  0.00     0.015 C 
ATOM    108  C   UNL A   1      33.038  16.989  25.574  1.00  0.00     0.010 C 
ATOM    109  C   UNL A   1      34.237  17.178  23.418  1.00  0.00     0.010 C 
ENDBRANCH  83 107
ENDBRANCH  80  83
ENDBRANCH   1  79
TORSDOF 27
ENDMDL
MODEL 3
REMARK VINA RESULT:     -10.2      1.713      2.437
REMARK SMILES CC(C)C[C@H](NC(=O)[C@@H](NC(=O)[C@H](C)NC(=O)CNC(=O)OCc1ccccc1)C(C)C)C(=O)OCCOC(=O)c1ccc(-c2c3nc(c(-c4cc(S(=O)(=O)[O-])ccc4F)c4ccc([nH]4)c(-c4cc(S(=O)(=O)[O-])ccc4F)c4nc(c(-c5cc(S(=O)(=O)[O-])ccc5F)c5ccc2[nH]5)C=C4)C=C3)cc1
REMARK SMILES IDX 5 1 4 2 2 3 1 4 3 5 33 6 34 7 35 8 36 9 37 10 38 11 39 12
REMARK SMILES IDX 40 13 41 14 42 15 103 16 43 17 102 18 44 19 45 20 46 21
REMARK SMILES IDX 96 22 47 23 101 24 95 25 97 26 48 27 100 28 94 29 93 30
REMARK SMILES IDX 49 32 81 33 61 34 80 35 62 36 65 37 79 38 98 39 63 40 64 41
REMARK SMILES IDX 78 43 99 44 66 45 50 46 51 47 59 48 52 49 58 50 60 51 57 52
REMARK SMILES IDX 53 53 54 54 55 55 56 56 82 57 83 58 91 59 84 60 90 61 92 62
REMARK SMILES IDX 89 63 85 64 86 65 87 66 88 67 67 68 68 69 76 70 69 71 75 72
REMARK SMILES IDX 77 73 74 74 70 75 71 76 72 77 73 78 6 79 7 80 8 82 9 83
REMARK SMILES IDX 10 84 11 85 12 87 13 88 14 89 15 90 16 91 17 93 18 94 19 95
REMARK SMILES IDX 20 96 21 98 22 99 23 100 24 101 25 102 29 103 26 104 28 105
REMARK SMILES IDX 27 106 30 107 31 108 32 109
REMARK H PARENT 97 31 65 42 6 81 10 86 15 92 19 97
REMARK Flexibility Score: inf
ROOT
ATOM      1  C   UNL A   1      35.526  21.183  24.718  1.00  0.00     0.192 C 
ENDROOT
BRANCH   1   2
ATOM      2  C   UNL A   1      34.856  22.576  24.525  1.00  0.00     0.040 C 
BRANCH   2   3
ATOM      3  C   UNL A   1      34.744  23.491  25.758  1.00  0.00    -0.015 C 
ATOM      4  C   UNL A   1      34.447  24.928  25.357  1.00  0.00     0.007 C 
ATOM      5  C   UNL A   1      33.628  22.947  26.668  1.00  0.00     0.007 C 
ENDBRANCH   2   3
ENDBRANCH   1   2
BRANCH   1   6
ATOM      6  C   UNL A   1      37.045  21.595  24.933  1.00  0.00     0.328 C 
ATOM      7  O   UNL A   1      37.441  22.715  24.603  1.00  0.00    -0.250 OA
BRANCH   6   8
ATOM      8  O   UNL A   1      37.879  20.653  25.461  1.00  0.00    -0.461 OA
BRANCH   8   9
ATOM      9  C   UNL A   1      39.257  21.097  25.647  1.00  0.00     0.274 C 
BRANCH   9  10
ATOM     10  C   UNL A   1      40.195  20.058  26.334  1.00  0.00     0.275 C 
BRANCH  10  11
ATOM     11  O   UNL A   1      41.288  19.574  25.527  1.00  0.00    -0.458 OA
BRANCH  11  12
ATOM     12  C   UNL A   1      42.456  20.019  26.002  1.00  0.00     0.338 C 
ATOM     13  O   UNL A   1      43.411  19.312  26.218  1.00  0.00    -0.246 OA
BRANCH  12  14
ATOM     14  C   UNL A   1      42.543  21.432  26.295  1.00  0.00     0.060 A 
ATOM     15  C   UNL A   1      42.801  22.727  25.028  1.00  0.00     0.016 A 
ATOM     16  C   UNL A   1      42.346  21.942  28.012  1.00  0.00     0.016 A 
ATOM     17  C   UNL A   1      42.833  24.461  25.501  1.00  0.00     0.010 A 
ATOM     18  C   UNL A   1      42.416  23.688  28.444  1.00  0.00     0.010 A 
ATOM     19  C   UNL A   1      42.614  24.960  27.220  1.00  0.00    -0.014 A 
BRANCH  19  20
ATOM     20  C   UNL A   1      42.937  26.383  27.715  1.00  0.00     0.031 A 
ATOM     21  C   UNL A   1      44.379  26.909  27.853  1.00  0.00     0.074 A 
ATOM     22  C   UNL A   1      41.950  27.229  28.079  1.00  0.00     0.049 A 
ATOM     23  N   UNL A   1      44.823  28.020  28.411  1.00  0.00    -0.248 NA
ATOM     24  C   UNL A   1      45.466  26.088  27.306  1.00  0.00     0.031 C 
ATOM     25  C   UNL A   1      40.530  26.959  27.934  1.00  0.00     0.029 A 
ATOM     26  N   UNL A   1      41.976  28.469  28.684  1.00  0.00    -0.354 N 
ATOM     27  C   UNL A   1      46.221  27.996  28.307  1.00  0.00     0.074 A 
ATOM     28  C   UNL A   1      46.555  26.729  27.703  1.00  0.00     0.031 C 
ATOM     29  C   UNL A   1      39.816  27.940  28.502  1.00  0.00     0.029 A 
ATOM     30  C   UNL A   1      40.727  28.935  29.042  1.00  0.00     0.049 A 
ATOM     31  H   UNL A   1      42.806  28.973  28.844  1.00  0.00     0.167 HD
ATOM     32  C   UNL A   1      47.144  28.944  28.633  1.00  0.00     0.034 A 
ATOM     33  C   UNL A   1      40.327  30.031  29.717  1.00  0.00     0.034 A 
ATOM     34  C   UNL A   1      46.802  30.252  29.152  1.00  0.00     0.049 A 
ATOM     35  C   UNL A   1      41.347  31.066  30.083  1.00  0.00     0.074 A 
ATOM     36  C   UNL A   1      47.639  31.324  29.420  1.00  0.00     0.029 A 
ATOM     37  N   UNL A   1      45.517  30.673  29.472  1.00  0.00    -0.354 N 
ATOM     38  N   UNL A   1      42.650  31.016  29.949  1.00  0.00    -0.248 NA
ATOM     39  C   UNL A   1      40.836  32.333  30.617  1.00  0.00     0.031 C 
ATOM     40  C   UNL A   1      46.877  32.356  29.978  1.00  0.00     0.029 A 
ATOM     41  C   UNL A   1      45.547  31.970  29.966  1.00  0.00     0.049 A 
ATOM     42  H   UNL A   1      44.704  30.128  29.366  1.00  0.00     0.167 HD
ATOM     43  C   UNL A   1      43.114  32.272  30.323  1.00  0.00     0.074 A 
ATOM     44  C   UNL A   1      41.945  33.054  30.681  1.00  0.00     0.031 C 
ATOM     45  C   UNL A   1      44.388  32.739  30.348  1.00  0.00     0.034 A 
BRANCH  32  46
ATOM     46  C   UNL A   1      48.626  28.620  28.455  1.00  0.00     0.023 A 
ATOM     47  C   UNL A   1      49.272  28.660  27.206  1.00  0.00     0.031 A 
ATOM     48  C   UNL A   1      49.418  28.283  29.574  1.00  0.00     0.131 A 
ATOM     49  C   UNL A   1      50.627  28.293  27.093  1.00  0.00     0.055 A 
ATOM     50  C   UNL A   1      50.787  28.014  29.469  1.00  0.00     0.041 A 
ATOM     51  F   UNL A   1      48.874  28.212  30.800  1.00  0.00    -0.206 F 
ATOM     52  C   UNL A   1      51.396  28.000  28.220  1.00  0.00     0.022 A 
BRANCH  49  53
ATOM     53  S   UNL A   1      51.333  28.051  25.437  1.00  0.00     0.124 S 
ATOM     54  O   UNL A   1      52.753  28.284  25.685  1.00  0.00    -0.237 OA
ATOM     55  O   UNL A   1      50.953  26.677  25.130  1.00  0.00    -0.237 OA
ATOM     56  O   UNL A   1      50.674  29.075  24.628  1.00  0.00    -0.744 OA
ENDBRANCH  49  53
ENDBRANCH  32  46
BRANCH  33  57
ATOM     57  C   UNL A   1      38.875  30.233  29.998  1.00  0.00     0.023 A 
ATOM     58  C   UNL A   1      38.139  31.220  29.328  1.00  0.00     0.031 A 
ATOM     59  C   UNL A   1      38.190  29.406  30.909  1.00  0.00     0.131 A 
ATOM     60  C   UNL A   1      36.770  31.377  29.591  1.00  0.00     0.055 A 
ATOM     61  C   UNL A   1      36.816  29.531  31.130  1.00  0.00     0.041 A 
ATOM     62  F   UNL A   1      38.845  28.436  31.566  1.00  0.00    -0.206 F 
ATOM     63  C   UNL A   1      36.100  30.529  30.475  1.00  0.00     0.022 A 
BRANCH  60  64
ATOM     64  S   UNL A   1      35.890  32.750  28.798  1.00  0.00     0.124 S 
ATOM     65  O   UNL A   1      36.814  33.859  29.004  1.00  0.00    -0.237 OA
ATOM     66  O   UNL A   1      35.760  32.269  27.426  1.00  0.00    -0.237 OA
ATOM     67  O   UNL A   1      34.639  32.830  29.549  1.00  0.00    -0.744 OA
ENDBRANCH  60  64
ENDBRANCH  33  57
BRANCH  45  68
ATOM     68  C   UNL A   1      44.568  34.186  30.736  1.00  0.00     0.023 A 
ATOM     69  C   UNL A   1      44.373  35.224  29.810  1.00  0.00     0.031 A 
ATOM     70  C   UNL A   1      45.016  34.525  32.025  1.00  0.00     0.131 A 
ATOM     71  C   UNL A   1      44.733  36.535  30.148  1.00  0.00     0.055 A 
ATOM     72  C   UNL A   1      45.284  35.846  32.385  1.00  0.00     0.041 A 
ATOM     73  F   UNL A   1      45.226  33.576  32.951  1.00  0.00    -0.206 F 
ATOM     74  C   UNL A   1      45.166  36.859  31.436  1.00  0.00     0.022 A 
BRANCH  71  75
ATOM     75  S   UNL A   1      44.793  37.776  28.826  1.00  0.00     0.124 S 
ATOM     76  O   UNL A   1      44.392  38.988  29.534  1.00  0.00    -0.237 OA
ATOM     77  O   UNL A   1      46.189  37.715  28.406  1.00  0.00    -0.237 OA
ATOM     78  O   UNL A   1      43.827  37.279  27.847  1.00  0.00    -0.744 OA
ENDBRANCH  71  75
ENDBRANCH  45  68
ENDBRANCH  19  20
ENDBRANCH  12  14
ENDBRANCH  11  12
ENDBRANCH  10  11
ENDBRANCH   9  10
ENDBRANCH   8   9
ENDBRANCH   6   8
ENDBRANCH   1   6
BRANCH   1  79
ATOM     79  N   UNL A   1      34.723  20.230  25.541  1.00  0.00    -0.341 N 
ATOM     80  C   UNL A   1      33.642  19.385  25.377  1.00  0.00     0.243 C 
ATOM     81  H   UNL A   1      35.060  20.193  26.465  1.00  0.00     0.164 HD
ATOM     82  O   UNL A   1      33.221  18.983  26.484  1.00  0.00    -0.273 OA
BRANCH  80  83
ATOM     83  C   UNL A   1      32.864  18.754  24.038  1.00  0.00     0.174 C 
BRANCH  83  84
ATOM     84  N   UNL A   1      32.431  19.766  22.943  1.00  0.00    -0.342 N 
ATOM     85  C   UNL A   1      31.993  21.054  22.439  1.00  0.00     0.242 C 
ATOM     86  H   UNL A   1      32.485  19.225  22.122  1.00  0.00     0.164 HD
ATOM     87  O   UNL A   1      31.677  20.531  21.311  1.00  0.00    -0.273 OA
BRANCH  85  88
ATOM     88  C   UNL A   1      31.905  23.133  23.158  1.00  0.00     0.168 C 
ATOM     89  C   UNL A   1      30.877  23.870  24.344  1.00  0.00     0.041 C 
BRANCH  88  90
ATOM     90  N   UNL A   1      31.688  24.584  22.122  1.00  0.00    -0.343 N 
ATOM     91  C   UNL A   1      31.514  25.907  21.927  1.00  0.00     0.240 C 
ATOM     92  H   UNL A   1      31.707  24.218  21.209  1.00  0.00     0.164 HD
ATOM     93  O   UNL A   1      31.662  26.284  20.751  1.00  0.00    -0.273 OA
BRANCH  91  94
ATOM     94  C   UNL A   1      30.897  26.893  22.873  1.00  0.00     0.219 C 
BRANCH  94  95
ATOM     95  N   UNL A   1      30.752  28.066  22.037  1.00  0.00    -0.312 N 
ATOM     96  C   UNL A   1      30.323  29.233  22.575  1.00  0.00     0.407 C 
ATOM     97  H   UNL A   1      30.965  28.017  21.077  1.00  0.00     0.167 HD
ATOM     98  O   UNL A   1      29.894  30.156  21.904  1.00  0.00    -0.225 OA
BRANCH  96  99
ATOM     99  O   UNL A   1      30.416  29.159  23.916  1.00  0.00    -0.445 OA
BRANCH  99 100
ATOM    100  C   UNL A   1      30.851  30.290  24.650  1.00  0.00     0.270 C 
BRANCH 100 101
ATOM    101  C   UNL A   1      32.044  29.946  25.469  1.00  0.00    -0.011 A 
ATOM    102  C   UNL A   1      32.152  30.431  26.778  1.00  0.00     0.007 A 
ATOM    103  C   UNL A   1      32.976  29.040  24.965  1.00  0.00     0.007 A 
ATOM    104  C   UNL A   1      33.188  29.990  27.588  1.00  0.00     0.000 A 
ATOM    105  C   UNL A   1      34.007  28.600  25.779  1.00  0.00     0.000 A 
ATOM    106  C   UNL A   1      34.112  29.072  27.087  1.00  0.00     0.000 A 
ENDBRANCH 100 101
ENDBRANCH  99 100
ENDBRANCH  96  99
ENDBRANCH  94  95
ENDBRANCH  91  94
ENDBRANCH  88  90
ENDBRANCH  85  88
ENDBRANCH  83  84
BRANCH  83 107
ATOM    107  C   UNL A   1      33.106  17.157  23.754  1.00  0.00     0.015 C 
ATOM    108  C   UNL A   1      34.521  16.854  23.232  1.00  0.00     0.010 C 
ATOM    109  C   UNL A   1      32.775  16.099  24.817  1.00  0.00     0.010 C 
ENDBRANCH  83 107
ENDBRANCH  80  83
ENDBRANCH   1  79
TORSDOF 27
ENDMDL
