MODEL 1
REMARK VINA RESULT:     -11.8      0.000      0.000
REMARK SMILES CC[NH+]1CCN(c2ccc(NC(=O)C3CCCC3)c(C(=O)OCCOC(=O)c3ccc(-c4c5nc(c(-c6cc(S(=O)(=O)[O-])ccc6F)c6ccc([nH]6)c(-c6cc(S(=O)(=O)[O-])ccc6F)c6nc(c(-c7cc(S(=O)(=O)[O-])ccc7F)c7ccc4[nH]7)C=C6)C=C5)cc3)c2)CC1
REMARK SMILES IDX 24 1 23 2 22 3 20 4 21 5 19 6 7 7 8 8 91 9 9 10 10 11 6 12
REMARK SMILES IDX 3 13 4 14 93 15 5 17 92 18 2 19 1 20 11 21 12 22 13 24 14 25
REMARK SMILES IDX 15 26 18 27 16 28 17 29 25 30 26 31 27 32 28 33 29 34 90 35
REMARK SMILES IDX 30 36 89 37 31 38 32 39 33 40 83 41 34 42 88 43 82 44 84 45
REMARK SMILES IDX 35 46 87 47 81 48 80 49 36 51 68 52 48 53 67 54 49 55 52 56
REMARK SMILES IDX 66 57 85 58 50 59 51 60 65 62 86 63 53 64 37 65 38 66 46 67
REMARK SMILES IDX 39 68 45 69 47 70 44 71 40 72 41 73 42 74 43 75 69 76 70 77
REMARK SMILES IDX 78 78 71 79 77 80 79 81 76 82 72 83 73 84 74 85 75 86 54 87
REMARK SMILES IDX 55 88 63 89 56 90 62 91 64 92 61 93 57 94 58 95 59 96 60 97
REMARK H PARENT 3 16 11 23 84 50 52 61
REMARK Flexibility Score: inf
ROOT
ATOM      1  C   UNL A   1      32.158  30.111  26.057  1.00  0.00     0.275 C 
ENDROOT
BRANCH   1   2
ATOM      2  C   UNL A   1      31.916  28.799  26.808  1.00  0.00     0.275 C 
BRANCH   2   3
ATOM      3  O   UNL A   1      31.979  27.678  25.906  1.00  0.00    -0.458 OA
BRANCH   3   4
ATOM      4  C   UNL A   1      31.230  26.576  26.186  1.00  0.00     0.340 C 
ATOM      5  O   UNL A   1      30.353  26.485  27.019  1.00  0.00    -0.246 OA
BRANCH   4   6
ATOM      6  C   UNL A   1      31.570  25.509  25.203  1.00  0.00     0.085 A 
ATOM      7  C   UNL A   1      33.312  24.039  24.312  1.00  0.00     0.038 A 
ATOM      8  C   UNL A   1      32.544  23.919  23.163  1.00  0.00     0.028 A 
ATOM      9  C   UNL A   1      32.817  24.862  25.324  1.00  0.00     0.043 A 
ATOM     10  C   UNL A   1      31.286  24.505  23.075  1.00  0.00     0.029 A 
ATOM     11  C   UNL A   1      30.727  25.223  24.113  1.00  0.00     0.055 A 
BRANCH   7  12
ATOM     12  N   UNL A   1      34.552  23.444  24.426  1.00  0.00    -0.360 N 
ATOM     13  N   UNL A   1      37.143  22.107  24.672  1.00  0.00    -0.332 N 
ATOM     14  C   UNL A   1      36.682  22.731  23.417  1.00  0.00     0.283 C 
ATOM     15  C   UNL A   1      36.466  22.759  25.819  1.00  0.00     0.283 C 
ATOM     16  H   UNL A   1      38.147  22.279  24.698  1.00  0.00     0.348 HD
ATOM     17  C   UNL A   1      35.154  22.822  23.240  1.00  0.00     0.178 C 
ATOM     18  C   UNL A   1      34.926  22.839  25.710  1.00  0.00     0.178 C 
BRANCH  13  19
ATOM     19  C   UNL A   1      37.113  20.643  24.756  1.00  0.00     0.258 C 
ATOM     20  C   UNL A   1      38.392  19.867  25.063  1.00  0.00     0.071 C 
ENDBRANCH  13  19
ENDBRANCH   7  12
BRANCH  11  21
ATOM     21  N   UNL A   1      29.380  25.637  24.102  1.00  0.00    -0.325 N 
ATOM     22  C   UNL A   1      28.691  26.772  23.795  1.00  0.00     0.227 C 
ATOM     23  H   UNL A   1      28.778  24.916  24.393  1.00  0.00     0.169 HD
ATOM     24  O   UNL A   1      27.458  26.629  23.797  1.00  0.00    -0.274 OA
BRANCH  22  25
ATOM     25  C   UNL A   1      29.242  28.172  23.479  1.00  0.00     0.079 C 
ATOM     26  C   UNL A   1      30.445  28.235  22.538  1.00  0.00     0.013 C 
ATOM     27  C   UNL A   1      28.246  29.234  23.007  1.00  0.00     0.013 C 
ATOM     28  C   UNL A   1      30.402  29.620  21.911  1.00  0.00     0.001 C 
ATOM     29  C   UNL A   1      28.938  30.034  21.897  1.00  0.00     0.001 C 
ENDBRANCH  22  25
ENDBRANCH  11  21
ENDBRANCH   4   6
ENDBRANCH   3   4
ENDBRANCH   2   3
ENDBRANCH   1   2
BRANCH   1  30
ATOM     30  O   UNL A   1      33.523  30.536  26.225  1.00  0.00    -0.458 OA
BRANCH  30  31
ATOM     31  C   UNL A   1      33.729  31.479  27.173  1.00  0.00     0.338 C 
ATOM     32  O   UNL A   1      32.940  32.324  27.558  1.00  0.00    -0.246 OA
BRANCH  31  33
ATOM     33  C   UNL A   1      35.006  31.188  27.848  1.00  0.00     0.060 A 
ATOM     34  C   UNL A   1      35.131  29.920  28.402  1.00  0.00     0.016 A 
ATOM     35  C   UNL A   1      36.058  32.104  27.942  1.00  0.00     0.016 A 
ATOM     36  C   UNL A   1      36.325  29.546  29.005  1.00  0.00     0.010 A 
ATOM     37  C   UNL A   1      37.248  31.731  28.595  1.00  0.00     0.010 A 
ATOM     38  C   UNL A   1      37.390  30.440  29.122  1.00  0.00    -0.014 A 
BRANCH  38  39
ATOM     39  C   UNL A   1      38.581  29.989  29.885  1.00  0.00     0.031 A 
ATOM     40  C   UNL A   1      39.552  29.041  29.242  1.00  0.00     0.074 A 
ATOM     41  C   UNL A   1      38.895  30.554  31.068  1.00  0.00     0.049 A 
ATOM     42  N   UNL A   1      40.633  28.496  29.735  1.00  0.00    -0.248 NA
ATOM     43  C   UNL A   1      39.282  28.690  27.839  1.00  0.00     0.031 C 
ATOM     44  C   UNL A   1      38.151  31.639  31.705  1.00  0.00     0.029 A 
ATOM     45  N   UNL A   1      39.941  30.316  31.928  1.00  0.00    -0.354 N 
ATOM     46  C   UNL A   1      41.172  27.726  28.710  1.00  0.00     0.074 A 
ATOM     47  C   UNL A   1      40.294  27.879  27.567  1.00  0.00     0.031 C 
ATOM     48  C   UNL A   1      38.760  31.970  32.856  1.00  0.00     0.029 A 
ATOM     49  C   UNL A   1      39.897  31.079  33.073  1.00  0.00     0.049 A 
ATOM     50  H   UNL A   1      40.653  29.663  31.743  1.00  0.00     0.167 HD
ATOM     51  C   UNL A   1      42.285  26.953  28.729  1.00  0.00     0.034 A 
ATOM     52  C   UNL A   1      40.658  31.031  34.188  1.00  0.00     0.034 A 
ATOM     53  C   UNL A   1      43.133  26.790  29.885  1.00  0.00     0.049 A 
ATOM     54  C   UNL A   1      41.777  30.016  34.258  1.00  0.00     0.074 A 
ATOM     55  C   UNL A   1      44.237  25.968  30.039  1.00  0.00     0.029 A 
ATOM     56  N   UNL A   1      42.966  27.455  31.094  1.00  0.00    -0.354 N 
ATOM     57  N   UNL A   1      42.216  29.201  33.325  1.00  0.00    -0.248 NA
ATOM     58  C   UNL A   1      42.492  29.902  35.537  1.00  0.00     0.031 C 
ATOM     59  C   UNL A   1      44.690  26.080  31.358  1.00  0.00     0.029 A 
ATOM     60  C   UNL A   1      43.920  27.032  32.009  1.00  0.00     0.049 A 
ATOM     61  H   UNL A   1      42.272  28.129  31.276  1.00  0.00     0.167 HD
ATOM     62  C   UNL A   1      43.268  28.494  33.902  1.00  0.00     0.074 A 
ATOM     63  C   UNL A   1      43.413  28.992  35.254  1.00  0.00     0.031 C 
ATOM     64  C   UNL A   1      44.045  27.520  33.363  1.00  0.00     0.034 A 
BRANCH  51  65
ATOM     65  C   UNL A   1      42.574  26.142  27.492  1.00  0.00     0.023 A 
ATOM     66  C   UNL A   1      42.127  24.817  27.343  1.00  0.00     0.031 A 
ATOM     67  C   UNL A   1      43.363  26.693  26.466  1.00  0.00     0.131 A 
ATOM     68  C   UNL A   1      42.526  24.069  26.224  1.00  0.00     0.055 A 
ATOM     69  C   UNL A   1      43.695  25.967  25.322  1.00  0.00     0.041 A 
ATOM     70  F   UNL A   1      43.841  27.943  26.569  1.00  0.00    -0.206 F 
ATOM     71  C   UNL A   1      43.288  24.642  25.203  1.00  0.00     0.022 A 
BRANCH  68  72
ATOM     72  S   UNL A   1      42.159  22.292  26.188  1.00  0.00     0.124 S 
ATOM     73  O   UNL A   1      42.892  21.861  25.001  1.00  0.00    -0.237 OA
ATOM     74  O   UNL A   1      42.689  21.834  27.467  1.00  0.00    -0.237 OA
ATOM     75  O   UNL A   1      40.703  22.244  26.064  1.00  0.00    -0.744 OA
ENDBRANCH  68  72
ENDBRANCH  51  65
BRANCH  52  76
ATOM     76  C   UNL A   1      40.334  31.879  35.375  1.00  0.00     0.023 A 
ATOM     77  C   UNL A   1      39.341  31.507  36.298  1.00  0.00     0.031 A 
ATOM     78  C   UNL A   1      40.950  33.133  35.547  1.00  0.00     0.131 A 
ATOM     79  C   UNL A   1      38.961  32.400  37.315  1.00  0.00     0.055 A 
ATOM     80  C   UNL A   1      40.614  33.988  36.597  1.00  0.00     0.041 A 
ATOM     81  F   UNL A   1      41.886  33.557  34.682  1.00  0.00    -0.206 F 
ATOM     82  C   UNL A   1      39.602  33.630  37.480  1.00  0.00     0.022 A 
BRANCH  79  83
ATOM     83  S   UNL A   1      37.529  31.986  38.352  1.00  0.00     0.124 S 
ATOM     84  O   UNL A   1      38.082  32.135  39.693  1.00  0.00    -0.237 OA
ATOM     85  O   UNL A   1      36.553  32.991  37.945  1.00  0.00    -0.237 OA
ATOM     86  O   UNL A   1      37.207  30.615  37.959  1.00  0.00    -0.744 OA
ENDBRANCH  79  83
ENDBRANCH  52  76
BRANCH  64  87
ATOM     87  C   UNL A   1      45.143  26.953  34.232  1.00  0.00     0.023 A 
ATOM     88  C   UNL A   1      44.952  25.792  35.002  1.00  0.00     0.031 A 
ATOM     89  C   UNL A   1      46.397  27.587  34.291  1.00  0.00     0.131 A 
ATOM     90  C   UNL A   1      45.983  25.327  35.834  1.00  0.00     0.055 A 
ATOM     91  C   UNL A   1      47.437  27.088  35.077  1.00  0.00     0.041 A 
ATOM     92  F   UNL A   1      46.635  28.700  33.578  1.00  0.00    -0.206 F 
ATOM     93  C   UNL A   1      47.230  25.959  35.863  1.00  0.00     0.022 A 
BRANCH  90  94
ATOM     94  S   UNL A   1      45.652  23.927  36.940  1.00  0.00     0.124 S 
ATOM     95  O   UNL A   1      44.945  24.569  38.042  1.00  0.00    -0.237 OA
ATOM     96  O   UNL A   1      44.850  23.046  36.096  1.00  0.00    -0.237 OA
ATOM     97  O   UNL A   1      46.985  23.424  37.266  1.00  0.00    -0.744 OA
ENDBRANCH  90  94
ENDBRANCH  64  87
ENDBRANCH  38  39
ENDBRANCH  31  33
ENDBRANCH  30  31
ENDBRANCH   1  30
TORSDOF 18
ENDMDL
MODEL 2
REMARK VINA RESULT:     -11.7      1.337      4.360
REMARK SMILES CC[NH+]1CCN(c2ccc(NC(=O)C3CCCC3)c(C(=O)OCCOC(=O)c3ccc(-c4c5nc(c(-c6cc(S(=O)(=O)[O-])ccc6F)c6ccc([nH]6)c(-c6cc(S(=O)(=O)[O-])ccc6F)c6nc(c(-c7cc(S(=O)(=O)[O-])ccc7F)c7ccc4[nH]7)C=C6)C=C5)cc3)c2)CC1
REMARK SMILES IDX 24 1 23 2 22 3 20 4 21 5 19 6 7 7 8 8 91 9 9 10 10 11 6 12
REMARK SMILES IDX 3 13 4 14 93 15 5 17 92 18 2 19 1 20 11 21 12 22 13 24 14 25
REMARK SMILES IDX 15 26 18 27 16 28 17 29 25 30 26 31 27 32 28 33 29 34 90 35
REMARK SMILES IDX 30 36 89 37 31 38 32 39 33 40 83 41 34 42 88 43 82 44 84 45
REMARK SMILES IDX 35 46 87 47 81 48 80 49 36 51 68 52 48 53 67 54 49 55 52 56
REMARK SMILES IDX 66 57 85 58 50 59 51 60 65 62 86 63 53 64 37 65 38 66 46 67
REMARK SMILES IDX 39 68 45 69 47 70 44 71 40 72 41 73 42 74 43 75 69 76 70 77
REMARK SMILES IDX 78 78 71 79 77 80 79 81 76 82 72 83 73 84 74 85 75 86 54 87
REMARK SMILES IDX 55 88 63 89 56 90 62 91 64 92 61 93 57 94 58 95 59 96 60 97
REMARK H PARENT 3 16 11 23 84 50 52 61
REMARK Flexibility Score: inf
ROOT
ATOM      1  C   UNL A   1      32.351  29.529  26.757  1.00  0.00     0.275 C 
ENDROOT
BRANCH   1   2
ATOM      2  C   UNL A   1      32.630  28.032  26.923  1.00  0.00     0.275 C 
BRANCH   2   3
ATOM      3  O   UNL A   1      33.527  27.566  25.897  1.00  0.00    -0.458 OA
BRANCH   3   4
ATOM      4  C   UNL A   1      33.342  26.315  25.392  1.00  0.00     0.340 C 
ATOM      5  O   UNL A   1      33.531  25.264  25.966  1.00  0.00    -0.246 OA
BRANCH   4   6
ATOM      6  C   UNL A   1      32.737  26.436  24.036  1.00  0.00     0.085 A 
ATOM      7  C   UNL A   1      30.921  27.374  22.690  1.00  0.00     0.038 A 
ATOM      8  C   UNL A   1      31.182  26.387  21.752  1.00  0.00     0.028 A 
ATOM      9  C   UNL A   1      31.700  27.373  23.847  1.00  0.00     0.043 A 
ATOM     10  C   UNL A   1      32.246  25.506  21.912  1.00  0.00     0.029 A 
ATOM     11  C   UNL A   1      33.104  25.566  22.991  1.00  0.00     0.055 A 
BRANCH   7  12
ATOM     12  N   UNL A   1      29.884  28.271  22.536  1.00  0.00    -0.360 N 
ATOM     13  N   UNL A   1      27.709  30.211  22.281  1.00  0.00    -0.332 N 
ATOM     14  C   UNL A   1      28.892  30.217  21.399  1.00  0.00     0.283 C 
ATOM     15  C   UNL A   1      27.503  28.843  22.813  1.00  0.00     0.283 C 
ATOM     16  H   UNL A   1      26.932  30.487  21.681  1.00  0.00     0.348 HD
ATOM     17  C   UNL A   1      30.173  29.607  21.999  1.00  0.00     0.178 C 
ATOM     18  C   UNL A   1      28.749  28.200  23.464  1.00  0.00     0.178 C 
BRANCH  13  19
ATOM     19  C   UNL A   1      27.631  31.241  23.323  1.00  0.00     0.258 C 
ATOM     20  C   UNL A   1      28.395  32.553  23.161  1.00  0.00     0.071 C 
ENDBRANCH  13  19
ENDBRANCH   7  12
BRANCH  11  21
ATOM     21  N   UNL A   1      34.296  24.816  23.049  1.00  0.00    -0.325 N 
ATOM     22  C   UNL A   1      34.657  23.550  23.398  1.00  0.00     0.227 C 
ATOM     23  H   UNL A   1      35.072  25.348  22.762  1.00  0.00     0.169 HD
ATOM     24  O   UNL A   1      35.842  23.277  23.146  1.00  0.00    -0.274 OA
BRANCH  22  25
ATOM     25  C   UNL A   1      33.805  22.459  24.067  1.00  0.00     0.079 C 
ATOM     26  C   UNL A   1      32.687  21.852  23.220  1.00  0.00     0.013 C 
ATOM     27  C   UNL A   1      34.542  21.297  24.737  1.00  0.00     0.013 C 
ATOM     28  C   UNL A   1      32.434  20.472  23.806  1.00  0.00     0.001 C 
ATOM     29  C   UNL A   1      33.752  20.023  24.420  1.00  0.00     0.001 C 
ENDBRANCH  22  25
ENDBRANCH  11  21
ENDBRANCH   4   6
ENDBRANCH   3   4
ENDBRANCH   2   3
ENDBRANCH   1   2
BRANCH   1  30
ATOM     30  O   UNL A   1      33.574  30.234  26.476  1.00  0.00    -0.458 OA
BRANCH  30  31
ATOM     31  C   UNL A   1      33.848  31.278  27.293  1.00  0.00     0.338 C 
ATOM     32  O   UNL A   1      33.103  32.194  27.596  1.00  0.00    -0.246 OA
BRANCH  31  33
ATOM     33  C   UNL A   1      35.139  31.023  27.956  1.00  0.00     0.060 A 
ATOM     34  C   UNL A   1      35.272  29.792  28.585  1.00  0.00     0.016 A 
ATOM     35  C   UNL A   1      36.195  31.939  27.970  1.00  0.00     0.016 A 
ATOM     36  C   UNL A   1      36.477  29.450  29.182  1.00  0.00     0.010 A 
ATOM     37  C   UNL A   1      37.398  31.601  28.618  1.00  0.00     0.010 A 
ATOM     38  C   UNL A   1      37.547  30.344  29.220  1.00  0.00    -0.014 A 
BRANCH  38  39
ATOM     39  C   UNL A   1      38.754  29.936  29.984  1.00  0.00     0.031 A 
ATOM     40  C   UNL A   1      39.747  29.006  29.349  1.00  0.00     0.074 A 
ATOM     41  C   UNL A   1      39.058  30.524  31.158  1.00  0.00     0.049 A 
ATOM     42  N   UNL A   1      40.845  28.497  29.843  1.00  0.00    -0.248 NA
ATOM     43  C   UNL A   1      39.480  28.629  27.952  1.00  0.00     0.031 C 
ATOM     44  C   UNL A   1      38.287  31.597  31.784  1.00  0.00     0.029 A 
ATOM     45  N   UNL A   1      40.113  30.326  32.016  1.00  0.00    -0.354 N 
ATOM     46  C   UNL A   1      41.399  27.729  28.826  1.00  0.00     0.074 A 
ATOM     47  C   UNL A   1      40.513  27.842  27.685  1.00  0.00     0.031 C 
ATOM     48  C   UNL A   1      38.892  31.959  32.928  1.00  0.00     0.029 A 
ATOM     49  C   UNL A   1      40.054  31.103  33.151  1.00  0.00     0.049 A 
ATOM     50  H   UNL A   1      40.842  29.690  31.836  1.00  0.00     0.167 HD
ATOM     51  C   UNL A   1      42.533  26.986  28.850  1.00  0.00     0.034 A 
ATOM     52  C   UNL A   1      40.821  31.090  34.262  1.00  0.00     0.034 A 
ATOM     53  C   UNL A   1      43.391  26.861  30.004  1.00  0.00     0.049 A 
ATOM     54  C   UNL A   1      41.968  30.107  34.340  1.00  0.00     0.074 A 
ATOM     55  C   UNL A   1      44.517  26.072  30.162  1.00  0.00     0.029 A 
ATOM     56  N   UNL A   1      43.211  27.537  31.204  1.00  0.00    -0.354 N 
ATOM     57  N   UNL A   1      42.424  29.292  33.416  1.00  0.00    -0.248 NA
ATOM     58  C   UNL A   1      42.691  30.029  35.617  1.00  0.00     0.031 C 
ATOM     59  C   UNL A   1      44.973  26.213  31.478  1.00  0.00     0.029 A 
ATOM     60  C   UNL A   1      44.180  27.152  32.120  1.00  0.00     0.049 A 
ATOM     61  H   UNL A   1      42.500  28.194  31.380  1.00  0.00     0.167 HD
ATOM     62  C   UNL A   1      43.498  28.621  33.997  1.00  0.00     0.074 A 
ATOM     63  C   UNL A   1      43.635  29.141  35.342  1.00  0.00     0.031 C 
ATOM     64  C   UNL A   1      44.298  27.661  33.467  1.00  0.00     0.034 A 
BRANCH  51  65
ATOM     65  C   UNL A   1      42.838  26.167  27.622  1.00  0.00     0.023 A 
ATOM     66  C   UNL A   1      42.309  24.879  27.430  1.00  0.00     0.031 A 
ATOM     67  C   UNL A   1      43.725  26.669  26.652  1.00  0.00     0.131 A 
ATOM     68  C   UNL A   1      42.721  24.113  26.327  1.00  0.00     0.055 A 
ATOM     69  C   UNL A   1      44.073  25.931  25.520  1.00  0.00     0.041 A 
ATOM     70  F   UNL A   1      44.282  27.881  26.799  1.00  0.00    -0.206 F 
ATOM     71  C   UNL A   1      43.582  24.640  25.360  1.00  0.00     0.022 A 
BRANCH  68  72
ATOM     72  S   UNL A   1      42.233  22.367  26.247  1.00  0.00     0.124 S 
ATOM     73  O   UNL A   1      42.876  21.824  27.441  1.00  0.00    -0.237 OA
ATOM     74  O   UNL A   1      40.778  22.444  26.285  1.00  0.00    -0.237 OA
ATOM     75  O   UNL A   1      42.801  21.910  24.980  1.00  0.00    -0.744 OA
ENDBRANCH  68  72
ENDBRANCH  51  65
BRANCH  52  76
ATOM     76  C   UNL A   1      40.480  31.944  35.441  1.00  0.00     0.023 A 
ATOM     77  C   UNL A   1      39.411  31.628  36.296  1.00  0.00     0.031 A 
ATOM     78  C   UNL A   1      41.163  33.154  35.667  1.00  0.00     0.131 A 
ATOM     79  C   UNL A   1      39.026  32.532  37.301  1.00  0.00     0.055 A 
ATOM     80  C   UNL A   1      40.818  34.018  36.708  1.00  0.00     0.041 A 
ATOM     81  F   UNL A   1      42.175  33.526  34.867  1.00  0.00    -0.206 F 
ATOM     82  C   UNL A   1      39.733  33.717  37.522  1.00  0.00     0.022 A 
BRANCH  79  83
ATOM     83  S   UNL A   1      37.510  32.201  38.243  1.00  0.00     0.124 S 
ATOM     84  O   UNL A   1      36.564  33.114  37.614  1.00  0.00    -0.237 OA
ATOM     85  O   UNL A   1      37.296  30.780  37.992  1.00  0.00    -0.237 OA
ATOM     86  O   UNL A   1      37.882  32.537  39.617  1.00  0.00    -0.744 OA
ENDBRANCH  79  83
ENDBRANCH  52  76
BRANCH  64  87
ATOM     87  C   UNL A   1      45.415  27.136  34.338  1.00  0.00     0.023 A 
ATOM     88  C   UNL A   1      45.246  26.004  35.156  1.00  0.00     0.031 A 
ATOM     89  C   UNL A   1      46.665  27.780  34.350  1.00  0.00     0.131 A 
ATOM     90  C   UNL A   1      46.294  25.579  35.987  1.00  0.00     0.055 A 
ATOM     91  C   UNL A   1      47.722  27.318  35.136  1.00  0.00     0.041 A 
ATOM     92  F   UNL A   1      46.883  28.866  33.590  1.00  0.00    -0.206 F 
ATOM     93  C   UNL A   1      47.537  26.219  35.969  1.00  0.00     0.022 A 
BRANCH  90  94
ATOM     94  S   UNL A   1      45.993  24.221  37.151  1.00  0.00     0.124 S 
ATOM     95  O   UNL A   1      44.984  24.794  38.035  1.00  0.00    -0.237 OA
ATOM     96  O   UNL A   1      45.534  23.150  36.271  1.00  0.00    -0.237 OA
ATOM     97  O   UNL A   1      47.301  23.997  37.764  1.00  0.00    -0.744 OA
ENDBRANCH  90  94
ENDBRANCH  64  87
ENDBRANCH  38  39
ENDBRANCH  31  33
ENDBRANCH  30  31
ENDBRANCH   1  30
TORSDOF 18
ENDMDL
MODEL 3
REMARK VINA RESULT:     -11.4      5.193      8.600
REMARK SMILES CC[NH+]1CCN(c2ccc(NC(=O)C3CCCC3)c(C(=O)OCCOC(=O)c3ccc(-c4c5nc(c(-c6cc(S(=O)(=O)[O-])ccc6F)c6ccc([nH]6)c(-c6cc(S(=O)(=O)[O-])ccc6F)c6nc(c(-c7cc(S(=O)(=O)[O-])ccc7F)c7ccc4[nH]7)C=C6)C=C5)cc3)c2)CC1
REMARK SMILES IDX 24 1 23 2 22 3 20 4 21 5 19 6 7 7 8 8 91 9 9 10 10 11 6 12
REMARK SMILES IDX 3 13 4 14 93 15 5 17 92 18 2 19 1 20 11 21 12 22 13 24 14 25
REMARK SMILES IDX 15 26 18 27 16 28 17 29 25 30 26 31 27 32 28 33 29 34 90 35
REMARK SMILES IDX 30 36 89 37 31 38 32 39 33 40 83 41 34 42 88 43 82 44 84 45
REMARK SMILES IDX 35 46 87 47 81 48 80 49 36 51 68 52 48 53 67 54 49 55 52 56
REMARK SMILES IDX 66 57 85 58 50 59 51 60 65 62 86 63 53 64 37 65 38 66 46 67
REMARK SMILES IDX 39 68 45 69 47 70 44 71 40 72 41 73 42 74 43 75 69 76 70 77
REMARK SMILES IDX 78 78 71 79 77 80 79 81 76 82 72 83 73 84 74 85 75 86 54 87
REMARK SMILES IDX 55 88 63 89 56 90 62 91 64 92 61 93 57 94 58 95 59 96 60 97
REMARK H PARENT 3 16 11 23 84 50 52 61
REMARK Flexibility Score: inf
ROOT
ATOM      1  C   UNL A   1      39.267  20.518  26.089  1.00  0.00     0.275 C 
ENDROOT
BRANCH   1   2
ATOM      2  C   UNL A   1      38.098  20.610  25.104  1.00  0.00     0.275 C 
BRANCH   2   3
ATOM      3  O   UNL A   1      37.283  21.763  25.390  1.00  0.00    -0.458 OA
BRANCH   3   4
ATOM      4  C   UNL A   1      36.632  22.370  24.359  1.00  0.00     0.340 C 
ATOM      5  O   UNL A   1      36.945  22.346  23.187  1.00  0.00    -0.246 OA
BRANCH   4   6
ATOM      6  C   UNL A   1      35.377  22.979  24.883  1.00  0.00     0.085 A 
ATOM      7  C   UNL A   1      34.160  25.047  25.360  1.00  0.00     0.038 A 
ATOM      8  C   UNL A   1      33.386  24.320  26.252  1.00  0.00     0.028 A 
ATOM      9  C   UNL A   1      35.174  24.361  24.692  1.00  0.00     0.043 A 
ATOM     10  C   UNL A   1      33.547  22.945  26.388  1.00  0.00     0.029 A 
ATOM     11  C   UNL A   1      34.464  22.228  25.647  1.00  0.00     0.055 A 
BRANCH   7  12
ATOM     12  N   UNL A   1      33.998  26.407  25.195  1.00  0.00    -0.360 N 
ATOM     13  N   UNL A   1      33.569  29.281  24.849  1.00  0.00    -0.332 N 
ATOM     14  C   UNL A   1      34.121  28.699  26.088  1.00  0.00     0.283 C 
ATOM     15  C   UNL A   1      33.853  28.371  23.713  1.00  0.00     0.283 C 
ATOM     16  H   UNL A   1      34.059  30.168  24.734  1.00  0.00     0.348 HD
ATOM     17  C   UNL A   1      33.721  27.239  26.374  1.00  0.00     0.178 C 
ATOM     18  C   UNL A   1      33.432  26.900  23.933  1.00  0.00     0.178 C 
BRANCH  13  19
ATOM     19  C   UNL A   1      32.176  29.738  24.874  1.00  0.00     0.258 C 
ATOM     20  C   UNL A   1      31.647  30.519  26.075  1.00  0.00     0.071 C 
ENDBRANCH  13  19
ENDBRANCH   7  12
BRANCH  11  21
ATOM     21  N   UNL A   1      34.484  20.819  25.633  1.00  0.00    -0.325 N 
ATOM     22  C   UNL A   1      33.853  19.821  24.952  1.00  0.00     0.227 C 
ATOM     23  H   UNL A   1      35.124  20.460  26.289  1.00  0.00     0.169 HD
ATOM     24  O   UNL A   1      34.308  18.690  25.181  1.00  0.00    -0.274 OA
BRANCH  22  25
ATOM     25  C   UNL A   1      32.665  19.926  23.982  1.00  0.00     0.079 C 
ATOM     26  C   UNL A   1      32.586  21.197  23.136  1.00  0.00     0.013 C 
ATOM     27  C   UNL A   1      32.412  18.744  23.043  1.00  0.00     0.013 C 
ATOM     28  C   UNL A   1      31.780  20.816  21.903  1.00  0.00     0.001 C 
ATOM     29  C   UNL A   1      32.016  19.329  21.683  1.00  0.00     0.001 C 
ENDBRANCH  22  25
ENDBRANCH  11  21
ENDBRANCH   4   6
ENDBRANCH   3   4
ENDBRANCH   2   3
ENDBRANCH   1   2
BRANCH   1  30
ATOM     30  O   UNL A   1      40.234  19.559  25.623  1.00  0.00    -0.458 OA
BRANCH  30  31
ATOM     31  C   UNL A   1      41.419  19.560  26.278  1.00  0.00     0.338 C 
ATOM     32  O   UNL A   1      42.224  18.647  26.351  1.00  0.00    -0.246 OA
BRANCH  31  33
ATOM     33  C   UNL A   1      41.706  20.937  26.717  1.00  0.00     0.060 A 
ATOM     34  C   UNL A   1      41.794  21.894  25.714  1.00  0.00     0.016 A 
ATOM     35  C   UNL A   1      41.881  21.301  28.055  1.00  0.00     0.016 A 
ATOM     36  C   UNL A   1      42.003  23.225  26.048  1.00  0.00     0.010 A 
ATOM     37  C   UNL A   1      42.138  22.647  28.381  1.00  0.00     0.010 A 
ATOM     38  C   UNL A   1      42.190  23.619  27.373  1.00  0.00    -0.014 A 
BRANCH  38  39
ATOM     39  C   UNL A   1      42.525  25.045  27.623  1.00  0.00     0.031 A 
ATOM     40  C   UNL A   1      43.846  25.583  27.154  1.00  0.00     0.074 A 
ATOM     41  C   UNL A   1      41.596  25.897  28.098  1.00  0.00     0.049 A 
ATOM     42  N   UNL A   1      44.355  26.779  27.296  1.00  0.00    -0.248 NA
ATOM     43  C   UNL A   1      44.692  24.651  26.392  1.00  0.00     0.031 C 
ATOM     44  C   UNL A   1      40.208  25.548  28.393  1.00  0.00     0.029 A 
ATOM     45  N   UNL A   1      41.671  27.240  28.384  1.00  0.00    -0.354 N 
ATOM     46  C   UNL A   1      45.587  26.746  26.651  1.00  0.00     0.074 A 
ATOM     47  C   UNL A   1      45.745  25.408  26.117  1.00  0.00     0.031 C 
ATOM     48  C   UNL A   1      39.563  26.646  28.822  1.00  0.00     0.029 A 
ATOM     49  C   UNL A   1      40.504  27.760  28.897  1.00  0.00     0.049 A 
ATOM     50  H   UNL A   1      42.481  27.779  28.235  1.00  0.00     0.167 HD
ATOM     51  C   UNL A   1      46.505  27.737  26.532  1.00  0.00     0.034 A 
ATOM     52  C   UNL A   1      40.241  28.981  29.412  1.00  0.00     0.034 A 
ATOM     53  C   UNL A   1      46.344  29.056  27.094  1.00  0.00     0.049 A 
ATOM     54  C   UNL A   1      41.350  30.008  29.444  1.00  0.00     0.074 A 
ATOM     55  C   UNL A   1      47.244  30.107  27.103  1.00  0.00     0.029 A 
ATOM     56  N   UNL A   1      45.209  29.505  27.758  1.00  0.00    -0.354 N 
ATOM     57  N   UNL A   1      42.559  29.937  28.936  1.00  0.00    -0.248 NA
ATOM     58  C   UNL A   1      41.064  31.273  30.135  1.00  0.00     0.031 C 
ATOM     59  C   UNL A   1      46.685  31.162  27.834  1.00  0.00     0.029 A 
ATOM     60  C   UNL A   1      45.402  30.800  28.215  1.00  0.00     0.049 A 
ATOM     61  H   UNL A   1      44.386  28.979  27.886  1.00  0.00     0.167 HD
ATOM     62  C   UNL A   1      43.168  31.155  29.231  1.00  0.00     0.074 A 
ATOM     63  C   UNL A   1      42.187  31.949  29.942  1.00  0.00     0.031 C 
ATOM     64  C   UNL A   1      44.425  31.579  28.941  1.00  0.00     0.034 A 
BRANCH  51  65
ATOM     65  C   UNL A   1      47.807  27.383  25.861  1.00  0.00     0.023 A 
ATOM     66  C   UNL A   1      48.025  27.597  24.489  1.00  0.00     0.031 A 
ATOM     67  C   UNL A   1      48.829  26.765  26.605  1.00  0.00     0.131 A 
ATOM     68  C   UNL A   1      49.211  27.138  23.892  1.00  0.00     0.055 A 
ATOM     69  C   UNL A   1      50.035  26.378  26.020  1.00  0.00     0.041 A 
ATOM     70  F   UNL A   1      48.663  26.511  27.913  1.00  0.00    -0.206 F 
ATOM     71  C   UNL A   1      50.225  26.551  24.653  1.00  0.00     0.022 A 
BRANCH  68  72
ATOM     72  S   UNL A   1      49.351  27.187  22.083  1.00  0.00     0.124 S 
ATOM     73  O   UNL A   1      50.798  27.127  21.896  1.00  0.00    -0.237 OA
ATOM     74  O   UNL A   1      48.605  26.002  21.677  1.00  0.00    -0.237 OA
ATOM     75  O   UNL A   1      48.736  28.464  21.726  1.00  0.00    -0.744 OA
ENDBRANCH  68  72
ENDBRANCH  51  65
BRANCH  52  76
ATOM     76  C   UNL A   1      38.919  29.278  30.044  1.00  0.00     0.023 A 
ATOM     77  C   UNL A   1      37.975  30.112  29.421  1.00  0.00     0.031 A 
ATOM     78  C   UNL A   1      38.626  28.810  31.338  1.00  0.00     0.131 A 
ATOM     79  C   UNL A   1      36.811  30.490  30.111  1.00  0.00     0.055 A 
ATOM     80  C   UNL A   1      37.437  29.136  31.994  1.00  0.00     0.041 A 
ATOM     81  F   UNL A   1      39.501  28.033  31.997  1.00  0.00    -0.206 F 
ATOM     82  C   UNL A   1      36.529  29.994  31.387  1.00  0.00     0.022 A 
BRANCH  79  83
ATOM     83  S   UNL A   1      35.720  31.738  29.371  1.00  0.00     0.124 S 
ATOM     84  O   UNL A   1      36.681  32.634  28.738  1.00  0.00    -0.237 OA
ATOM     85  O   UNL A   1      34.900  30.935  28.470  1.00  0.00    -0.237 OA
ATOM     86  O   UNL A   1      35.011  32.298  30.521  1.00  0.00    -0.744 OA
ENDBRANCH  79  83
ENDBRANCH  52  76
BRANCH  64  87
ATOM     87  C   UNL A   1      44.796  32.979  29.368  1.00  0.00     0.023 A 
ATOM     88  C   UNL A   1      44.483  34.101  28.580  1.00  0.00     0.031 A 
ATOM     89  C   UNL A   1      45.477  33.192  30.580  1.00  0.00     0.131 A 
ATOM     90  C   UNL A   1      44.890  35.381  28.990  1.00  0.00     0.055 A 
ATOM     91  C   UNL A   1      45.830  34.472  31.010  1.00  0.00     0.041 A 
ATOM     92  F   UNL A   1      45.804  32.158  31.372  1.00  0.00    -0.206 F 
ATOM     93  C   UNL A   1      45.548  35.574  30.209  1.00  0.00     0.022 A 
BRANCH  90  94
ATOM     94  S   UNL A   1      44.619  36.786  27.876  1.00  0.00     0.124 S 
ATOM     95  O   UNL A   1      44.053  36.137  26.698  1.00  0.00    -0.237 OA
ATOM     96  O   UNL A   1      43.703  37.622  28.645  1.00  0.00    -0.237 OA
ATOM     97  O   UNL A   1      45.958  37.343  27.694  1.00  0.00    -0.744 OA
ENDBRANCH  90  94
ENDBRANCH  64  87
ENDBRANCH  38  39
ENDBRANCH  31  33
ENDBRANCH  30  31
ENDBRANCH   1  30
TORSDOF 18
ENDMDL
