MODEL 1
REMARK VINA RESULT:     -11.1      0.000      0.000
REMARK SMILES CCCc1cc(OCC(=O)OCCOC(=O)c2ccc(-c3c4nc(c(-c5cc(S(=O)(=O)[O-])ccc5F)c5ccc([nH]5)c(-c5cc(S(=O)(=O)[O-])ccc5F)c5nc(c(-c6cc(S(=O)(=O)[O-])ccc6F)c6ccc3[nH]6)C=C5)C=C4)cc2)nc(Nc2ccc(C#N)cc2)n1
REMARK SMILES IDX 12 1 11 2 9 3 10 4 8 5 7 6 6 7 4 8 5 9 91 10 81 11 80 12
REMARK SMILES IDX 3 13 2 14 1 15 82 16 83 18 84 19 90 20 85 21 89 22 86 23
REMARK SMILES IDX 87 24 88 25 13 26 14 27 15 28 16 29 17 30 18 31 79 32 19 33
REMARK SMILES IDX 78 34 20 35 21 36 22 37 72 38 23 39 77 40 71 41 73 42 24 43
REMARK SMILES IDX 76 44 70 45 69 46 25 48 57 49 37 50 56 51 38 52 41 53 55 54
REMARK SMILES IDX 74 55 39 56 40 57 54 59 75 60 42 61 26 62 27 63 35 64 28 65
REMARK SMILES IDX 34 66 36 67 33 68 29 69 30 70 31 71 32 72 58 73 59 74 67 75
REMARK SMILES IDX 60 76 66 77 68 78 65 79 61 80 62 81 63 82 64 83 43 84 44 85
REMARK SMILES IDX 52 86 45 87 51 88 53 89 50 90 46 91 47 92 48 93 49 94
REMARK H PARENT 82 17 73 47 41 58
REMARK Flexibility Score: inf
ROOT
ATOM      1  C   UNL A   1      31.427  29.935  25.396  1.00  0.00     0.274 C 
ENDROOT
BRANCH   1   2
ATOM      2  O   UNL A   1      31.504  28.630  26.032  1.00  0.00    -0.460 OA
BRANCH   2   3
ATOM      3  C   UNL A   1      31.977  27.606  25.268  1.00  0.00     0.344 C 
ATOM      4  O   UNL A   1      32.099  27.665  24.045  1.00  0.00    -0.248 OA
BRANCH   3   5
ATOM      5  C   UNL A   1      32.467  26.386  26.076  1.00  0.00     0.353 C 
BRANCH   5   6
ATOM      6  O   UNL A   1      32.051  25.072  25.770  1.00  0.00    -0.466 OA
BRANCH   6   7
ATOM      7  C   UNL A   1      32.919  24.113  25.329  1.00  0.00     0.218 A 
ATOM      8  C   UNL A   1      34.923  22.896  25.217  1.00  0.00     0.050 A 
ATOM      9  C   UNL A   1      34.294  24.082  25.520  1.00  0.00     0.092 A 
ATOM     10  N   UNL A   1      34.227  21.892  24.716  1.00  0.00    -0.218 NA
ATOM     11  C   UNL A   1      32.970  22.053  24.341  1.00  0.00     0.230 A 
ATOM     12  N   UNL A   1      32.262  23.136  24.654  1.00  0.00    -0.177 NA
BRANCH   8  13
ATOM     13  C   UNL A   1      36.350  22.466  25.333  1.00  0.00     0.056 C 
BRANCH  13  14
ATOM     14  C   UNL A   1      36.957  21.638  24.246  1.00  0.00     0.003 C 
ATOM     15  C   UNL A   1      37.909  20.628  24.819  1.00  0.00     0.004 C 
ENDBRANCH  13  14
ENDBRANCH   8  13
BRANCH  11  16
ATOM     16  N   UNL A   1      32.498  21.050  23.489  1.00  0.00    -0.324 N 
ATOM     17  H   UNL A   1      32.142  21.300  22.606  1.00  0.00     0.170 HD
BRANCH  16  18
ATOM     18  C   UNL A   1      32.518  19.687  23.861  1.00  0.00     0.041 A 
ATOM     19  C   UNL A   1      32.723  18.680  22.913  1.00  0.00     0.027 A 
ATOM     20  C   UNL A   1      32.589  19.331  25.224  1.00  0.00     0.027 A 
ATOM     21  C   UNL A   1      32.944  17.352  23.318  1.00  0.00     0.021 A 
ATOM     22  C   UNL A   1      32.822  18.018  25.633  1.00  0.00     0.021 A 
ATOM     23  C   UNL A   1      32.977  17.017  24.676  1.00  0.00     0.052 A 
BRANCH  23  24
ATOM     24  C   UNL A   1      33.143  15.656  25.103  1.00  0.00     0.099 C 
ATOM     25  N   UNL A   1      33.218  14.539  25.404  1.00  0.00    -0.192 NA
ENDBRANCH  23  24
ENDBRANCH  16  18
ENDBRANCH  11  16
ENDBRANCH   6   7
ENDBRANCH   5   6
ENDBRANCH   3   5
ENDBRANCH   2   3
ENDBRANCH   1   2
BRANCH   1  26
ATOM     26  C   UNL A   1      31.821  31.086  26.352  1.00  0.00     0.275 C 
BRANCH  26  27
ATOM     27  O   UNL A   1      32.679  30.671  27.453  1.00  0.00    -0.458 OA
BRANCH  27  28
ATOM     28  C   UNL A   1      33.651  31.573  27.678  1.00  0.00     0.338 C 
ATOM     29  O   UNL A   1      33.436  32.768  27.834  1.00  0.00    -0.246 OA
BRANCH  28  30
ATOM     30  C   UNL A   1      35.070  31.169  27.679  1.00  0.00     0.060 A 
ATOM     31  C   UNL A   1      35.259  29.862  28.160  1.00  0.00     0.016 A 
ATOM     32  C   UNL A   1      36.069  32.132  27.866  1.00  0.00     0.016 A 
ATOM     33  C   UNL A   1      36.340  29.563  28.987  1.00  0.00     0.010 A 
ATOM     34  C   UNL A   1      37.197  31.806  28.649  1.00  0.00     0.010 A 
ATOM     35  C   UNL A   1      37.316  30.537  29.255  1.00  0.00    -0.014 A 
BRANCH  35  36
ATOM     36  C   UNL A   1      38.599  30.092  29.860  1.00  0.00     0.031 A 
ATOM     37  C   UNL A   1      39.527  29.041  29.311  1.00  0.00     0.074 A 
ATOM     38  C   UNL A   1      38.914  30.748  30.989  1.00  0.00     0.049 A 
ATOM     39  N   UNL A   1      40.636  28.562  29.819  1.00  0.00    -0.248 NA
ATOM     40  C   UNL A   1      39.187  28.458  28.014  1.00  0.00     0.031 C 
ATOM     41  C   UNL A   1      38.120  31.840  31.566  1.00  0.00     0.029 A 
ATOM     42  N   UNL A   1      39.954  30.589  31.857  1.00  0.00    -0.354 N 
ATOM     43  C   UNL A   1      41.127  27.630  28.903  1.00  0.00     0.074 A 
ATOM     44  C   UNL A   1      40.189  27.610  27.802  1.00  0.00     0.031 C 
ATOM     45  C   UNL A   1      38.678  32.223  32.714  1.00  0.00     0.029 A 
ATOM     46  C   UNL A   1      39.810  31.352  32.986  1.00  0.00     0.049 A 
ATOM     47  H   UNL A   1      40.719  29.993  31.691  1.00  0.00     0.167 HD
ATOM     48  C   UNL A   1      42.243  26.858  28.993  1.00  0.00     0.034 A 
ATOM     49  C   UNL A   1      40.466  31.306  34.152  1.00  0.00     0.034 A 
ATOM     50  C   UNL A   1      43.131  26.880  30.139  1.00  0.00     0.049 A 
ATOM     51  C   UNL A   1      41.619  30.368  34.285  1.00  0.00     0.074 A 
ATOM     52  C   UNL A   1      44.301  26.168  30.342  1.00  0.00     0.029 A 
ATOM     53  N   UNL A   1      42.925  27.630  31.292  1.00  0.00    -0.354 N 
ATOM     54  N   UNL A   1      42.078  29.501  33.414  1.00  0.00    -0.248 NA
ATOM     55  C   UNL A   1      42.358  30.425  35.546  1.00  0.00     0.031 C 
ATOM     56  C   UNL A   1      44.742  26.408  31.649  1.00  0.00     0.029 A 
ATOM     57  C   UNL A   1      43.912  27.354  32.227  1.00  0.00     0.049 A 
ATOM     58  H   UNL A   1      42.185  28.265  31.425  1.00  0.00     0.167 HD
ATOM     59  C   UNL A   1      43.191  28.924  34.013  1.00  0.00     0.074 A 
ATOM     60  C   UNL A   1      43.333  29.560  35.311  1.00  0.00     0.031 C 
ATOM     61  C   UNL A   1      44.022  27.967  33.531  1.00  0.00     0.034 A 
BRANCH  48  62
ATOM     62  C   UNL A   1      42.550  25.867  27.882  1.00  0.00     0.023 A 
ATOM     63  C   UNL A   1      41.930  24.608  27.794  1.00  0.00     0.031 A 
ATOM     64  C   UNL A   1      43.440  26.225  26.849  1.00  0.00     0.131 A 
ATOM     65  C   UNL A   1      42.229  23.748  26.719  1.00  0.00     0.055 A 
ATOM     66  C   UNL A   1      43.682  25.395  25.751  1.00  0.00     0.041 A 
ATOM     67  F   UNL A   1      44.082  27.404  26.880  1.00  0.00    -0.206 F 
ATOM     68  C   UNL A   1      43.081  24.144  25.685  1.00  0.00     0.022 A 
BRANCH  65  69
ATOM     69  S   UNL A   1      41.573  22.054  26.737  1.00  0.00     0.124 S 
ATOM     70  O   UNL A   1      41.972  21.566  25.420  1.00  0.00    -0.237 OA
ATOM     71  O   UNL A   1      42.264  21.460  27.876  1.00  0.00    -0.237 OA
ATOM     72  O   UNL A   1      40.133  22.244  26.912  1.00  0.00    -0.744 OA
ENDBRANCH  65  69
ENDBRANCH  48  62
BRANCH  49  73
ATOM     73  C   UNL A   1      39.989  32.161  35.264  1.00  0.00     0.023 A 
ATOM     74  C   UNL A   1      39.093  31.660  36.211  1.00  0.00     0.031 A 
ATOM     75  C   UNL A   1      40.481  33.470  35.428  1.00  0.00     0.131 A 
ATOM     76  C   UNL A   1      38.690  32.475  37.274  1.00  0.00     0.055 A 
ATOM     77  C   UNL A   1      40.125  34.254  36.523  1.00  0.00     0.041 A 
ATOM     78  F   UNL A   1      41.365  33.981  34.555  1.00  0.00    -0.206 F 
ATOM     79  C   UNL A   1      39.213  33.760  37.449  1.00  0.00     0.022 A 
BRANCH  76  80
ATOM     80  S   UNL A   1      37.408  31.848  38.386  1.00  0.00     0.124 S 
ATOM     81  O   UNL A   1      37.222  30.490  37.888  1.00  0.00    -0.237 OA
ATOM     82  O   UNL A   1      38.053  31.971  39.689  1.00  0.00    -0.237 OA
ATOM     83  O   UNL A   1      36.288  32.757  38.157  1.00  0.00    -0.744 OA
ENDBRANCH  76  80
ENDBRANCH  49  73
BRANCH  61  84
ATOM     84  C   UNL A   1      45.180  27.581  34.415  1.00  0.00     0.023 A 
ATOM     85  C   UNL A   1      45.079  26.523  35.336  1.00  0.00     0.031 A 
ATOM     86  C   UNL A   1      46.378  28.314  34.376  1.00  0.00     0.131 A 
ATOM     87  C   UNL A   1      46.125  26.284  36.238  1.00  0.00     0.055 A 
ATOM     88  C   UNL A   1      47.448  28.017  35.220  1.00  0.00     0.041 A 
ATOM     89  F   UNL A   1      46.525  29.341  33.523  1.00  0.00    -0.206 F 
ATOM     90  C   UNL A   1      47.317  27.009  36.171  1.00  0.00     0.022 A 
BRANCH  87  91
ATOM     91  S   UNL A   1      45.847  25.107  37.589  1.00  0.00     0.124 S 
ATOM     92  O   UNL A   1      46.299  25.869  38.748  1.00  0.00    -0.237 OA
ATOM     93  O   UNL A   1      44.409  24.869  37.504  1.00  0.00    -0.237 OA
ATOM     94  O   UNL A   1      46.688  23.968  37.228  1.00  0.00    -0.744 OA
ENDBRANCH  87  91
ENDBRANCH  61  84
ENDBRANCH  35  36
ENDBRANCH  28  30
ENDBRANCH  27  28
ENDBRANCH  26  27
ENDBRANCH   1  26
TORSDOF 21
ENDMDL
MODEL 2
REMARK VINA RESULT:     -11.1      2.497      4.802
REMARK SMILES CCCc1cc(OCC(=O)OCCOC(=O)c2ccc(-c3c4nc(c(-c5cc(S(=O)(=O)[O-])ccc5F)c5ccc([nH]5)c(-c5cc(S(=O)(=O)[O-])ccc5F)c5nc(c(-c6cc(S(=O)(=O)[O-])ccc6F)c6ccc3[nH]6)C=C5)C=C4)cc2)nc(Nc2ccc(C#N)cc2)n1
REMARK SMILES IDX 12 1 11 2 9 3 10 4 8 5 7 6 6 7 4 8 5 9 91 10 81 11 80 12
REMARK SMILES IDX 3 13 2 14 1 15 82 16 83 18 84 19 90 20 85 21 89 22 86 23
REMARK SMILES IDX 87 24 88 25 13 26 14 27 15 28 16 29 17 30 18 31 79 32 19 33
REMARK SMILES IDX 78 34 20 35 21 36 22 37 72 38 23 39 77 40 71 41 73 42 24 43
REMARK SMILES IDX 76 44 70 45 69 46 25 48 57 49 37 50 56 51 38 52 41 53 55 54
REMARK SMILES IDX 74 55 39 56 40 57 54 59 75 60 42 61 26 62 27 63 35 64 28 65
REMARK SMILES IDX 34 66 36 67 33 68 29 69 30 70 31 71 32 72 58 73 59 74 67 75
REMARK SMILES IDX 60 76 66 77 68 78 65 79 61 80 62 81 63 82 64 83 43 84 44 85
REMARK SMILES IDX 52 86 45 87 51 88 53 89 50 90 46 91 47 92 48 93 49 94
REMARK H PARENT 82 17 73 47 41 58
REMARK Flexibility Score: inf
ROOT
ATOM      1  C   UNL A   1      33.204  31.223  27.313  1.00  0.00     0.274 C 
ENDROOT
BRANCH   1   2
ATOM      2  O   UNL A   1      32.269  30.144  27.042  1.00  0.00    -0.460 OA
BRANCH   2   3
ATOM      3  C   UNL A   1      32.717  28.877  27.269  1.00  0.00     0.344 C 
ATOM      4  O   UNL A   1      33.904  28.557  27.233  1.00  0.00    -0.248 OA
BRANCH   3   5
ATOM      5  C   UNL A   1      31.617  27.882  27.696  1.00  0.00     0.353 C 
BRANCH   5   6
ATOM      6  O   UNL A   1      31.609  26.543  27.249  1.00  0.00    -0.466 OA
BRANCH   6   7
ATOM      7  C   UNL A   1      31.457  26.211  25.933  1.00  0.00     0.218 A 
ATOM      8  C   UNL A   1      31.927  25.115  23.910  1.00  0.00     0.050 A 
ATOM      9  C   UNL A   1      32.391  25.583  25.119  1.00  0.00     0.092 A 
ATOM     10  N   UNL A   1      30.671  25.330  23.560  1.00  0.00    -0.218 NA
ATOM     11  C   UNL A   1      29.893  26.130  24.269  1.00  0.00     0.230 A 
ATOM     12  N   UNL A   1      30.230  26.570  25.479  1.00  0.00    -0.177 NA
BRANCH   8  13
ATOM     13  C   UNL A   1      32.597  24.360  22.808  1.00  0.00     0.056 C 
BRANCH  13  14
ATOM     14  C   UNL A   1      32.521  22.867  22.789  1.00  0.00     0.003 C 
ATOM     15  C   UNL A   1      32.727  22.309  24.167  1.00  0.00     0.004 C 
ENDBRANCH  13  14
ENDBRANCH   8  13
BRANCH  11  16
ATOM     16  N   UNL A   1      28.754  26.566  23.585  1.00  0.00    -0.324 N 
ATOM     17  H   UNL A   1      28.042  25.919  23.381  1.00  0.00     0.170 HD
BRANCH  16  18
ATOM     18  C   UNL A   1      28.598  27.910  23.178  1.00  0.00     0.041 A 
ATOM     19  C   UNL A   1      27.371  28.568  23.302  1.00  0.00     0.027 A 
ATOM     20  C   UNL A   1      29.735  28.691  22.881  1.00  0.00     0.027 A 
ATOM     21  C   UNL A   1      27.277  29.954  23.088  1.00  0.00     0.021 A 
ATOM     22  C   UNL A   1      29.652  30.070  22.681  1.00  0.00     0.021 A 
ATOM     23  C   UNL A   1      28.414  30.703  22.762  1.00  0.00     0.052 A 
BRANCH  23  24
ATOM     24  C   UNL A   1      28.323  32.108  22.483  1.00  0.00     0.099 C 
ATOM     25  N   UNL A   1      28.248  33.226  22.184  1.00  0.00    -0.192 NA
ENDBRANCH  23  24
ENDBRANCH  16  18
ENDBRANCH  11  16
ENDBRANCH   6   7
ENDBRANCH   5   6
ENDBRANCH   3   5
ENDBRANCH   2   3
ENDBRANCH   1   2
BRANCH   1  26
ATOM     26  C   UNL A   1      32.518  32.610  27.340  1.00  0.00     0.275 C 
BRANCH  26  27
ATOM     27  O   UNL A   1      33.448  33.726  27.440  1.00  0.00    -0.458 OA
BRANCH  27  28
ATOM     28  C   UNL A   1      33.425  34.269  28.671  1.00  0.00     0.338 C 
ATOM     29  O   UNL A   1      32.552  35.040  29.049  1.00  0.00    -0.246 OA
BRANCH  28  30
ATOM     30  C   UNL A   1      34.516  34.013  29.628  1.00  0.00     0.060 A 
ATOM     31  C   UNL A   1      35.784  34.301  29.093  1.00  0.00     0.016 A 
ATOM     32  C   UNL A   1      34.378  33.003  30.589  1.00  0.00     0.016 A 
ATOM     33  C   UNL A   1      36.869  33.469  29.361  1.00  0.00     0.010 A 
ATOM     34  C   UNL A   1      35.497  32.205  30.910  1.00  0.00     0.010 A 
ATOM     35  C   UNL A   1      36.736  32.399  30.262  1.00  0.00    -0.014 A 
BRANCH  35  36
ATOM     36  C   UNL A   1      37.975  31.749  30.763  1.00  0.00     0.031 A 
ATOM     37  C   UNL A   1      38.771  30.683  30.057  1.00  0.00     0.074 A 
ATOM     38  C   UNL A   1      38.384  32.222  31.951  1.00  0.00     0.049 A 
ATOM     39  N   UNL A   1      39.832  30.030  30.465  1.00  0.00    -0.248 NA
ATOM     40  C   UNL A   1      38.342  30.306  28.712  1.00  0.00     0.031 C 
ATOM     41  C   UNL A   1      37.726  33.310  32.685  1.00  0.00     0.029 A 
ATOM     42  N   UNL A   1      39.418  31.846  32.757  1.00  0.00    -0.354 N 
ATOM     43  C   UNL A   1      40.198  29.173  29.425  1.00  0.00     0.074 A 
ATOM     44  C   UNL A   1      39.240  29.391  28.362  1.00  0.00     0.031 C 
ATOM     45  C   UNL A   1      38.348  33.485  33.851  1.00  0.00     0.029 A 
ATOM     46  C   UNL A   1      39.383  32.473  33.975  1.00  0.00     0.049 A 
ATOM     47  H   UNL A   1      40.111  31.198  32.493  1.00  0.00     0.167 HD
ATOM     48  C   UNL A   1      41.225  28.283  29.381  1.00  0.00     0.034 A 
ATOM     49  C   UNL A   1      40.055  32.212  35.103  1.00  0.00     0.034 A 
ATOM     50  C   UNL A   1      42.134  28.067  30.490  1.00  0.00     0.049 A 
ATOM     51  C   UNL A   1      41.101  31.148  35.081  1.00  0.00     0.074 A 
ATOM     52  C   UNL A   1      43.224  27.215  30.563  1.00  0.00     0.029 A 
ATOM     53  N   UNL A   1      42.036  28.684  31.732  1.00  0.00    -0.354 N 
ATOM     54  N   UNL A   1      41.444  30.353  34.095  1.00  0.00    -0.248 NA
ATOM     55  C   UNL A   1      41.869  30.968  36.313  1.00  0.00     0.031 C 
ATOM     56  C   UNL A   1      43.716  27.241  31.874  1.00  0.00     0.029 A 
ATOM     57  C   UNL A   1      43.007  28.190  32.592  1.00  0.00     0.049 A 
ATOM     58  H   UNL A   1      41.372  29.372  31.967  1.00  0.00     0.167 HD
ATOM     59  C   UNL A   1      42.499  29.592  34.580  1.00  0.00     0.074 A 
ATOM     60  C   UNL A   1      42.738  30.041  35.939  1.00  0.00     0.031 C 
ATOM     61  C   UNL A   1      43.210  28.620  33.956  1.00  0.00     0.034 A 
BRANCH  48  62
ATOM     62  C   UNL A   1      41.398  27.411  28.148  1.00  0.00     0.023 A 
ATOM     63  C   UNL A   1      41.036  26.052  28.120  1.00  0.00     0.031 A 
ATOM     64  C   UNL A   1      41.878  27.979  26.949  1.00  0.00     0.131 A 
ATOM     65  C   UNL A   1      41.186  25.307  26.934  1.00  0.00     0.055 A 
ATOM     66  C   UNL A   1      41.962  27.252  25.759  1.00  0.00     0.041 A 
ATOM     67  F   UNL A   1      42.260  29.265  26.910  1.00  0.00    -0.206 F 
ATOM     68  C   UNL A   1      41.621  25.904  25.748  1.00  0.00     0.022 A 
BRANCH  65  69
ATOM     69  S   UNL A   1      40.904  23.513  26.980  1.00  0.00     0.124 S 
ATOM     70  O   UNL A   1      41.231  23.196  28.367  1.00  0.00    -0.237 OA
ATOM     71  O   UNL A   1      39.496  23.405  26.615  1.00  0.00    -0.237 OA
ATOM     72  O   UNL A   1      41.845  22.990  25.991  1.00  0.00    -0.744 OA
ENDBRANCH  65  69
ENDBRANCH  48  62
BRANCH  49  73
ATOM     73  C   UNL A   1      39.698  32.967  36.327  1.00  0.00     0.023 A 
ATOM     74  C   UNL A   1      38.773  32.449  37.236  1.00  0.00     0.031 A 
ATOM     75  C   UNL A   1      40.334  34.185  36.633  1.00  0.00     0.131 A 
ATOM     76  C   UNL A   1      38.483  33.162  38.404  1.00  0.00     0.055 A 
ATOM     77  C   UNL A   1      40.089  34.859  37.827  1.00  0.00     0.041 A 
ATOM     78  F   UNL A   1      41.250  34.704  35.799  1.00  0.00    -0.206 F 
ATOM     79  C   UNL A   1      39.148  34.352  38.717  1.00  0.00     0.022 A 
BRANCH  76  80
ATOM     80  S   UNL A   1      37.164  32.541  39.475  1.00  0.00     0.124 S 
ATOM     81  O   UNL A   1      37.583  31.160  39.688  1.00  0.00    -0.237 OA
ATOM     82  O   UNL A   1      37.268  33.429  40.627  1.00  0.00    -0.237 OA
ATOM     83  O   UNL A   1      35.962  32.711  38.662  1.00  0.00    -0.744 OA
ENDBRANCH  76  80
ENDBRANCH  49  73
BRANCH  61  84
ATOM     84  C   UNL A   1      44.338  28.006  34.745  1.00  0.00     0.023 A 
ATOM     85  C   UNL A   1      44.097  27.048  35.746  1.00  0.00     0.031 A 
ATOM     86  C   UNL A   1      45.663  28.425  34.534  1.00  0.00     0.131 A 
ATOM     87  C   UNL A   1      45.153  26.604  36.553  1.00  0.00     0.055 A 
ATOM     88  C   UNL A   1      46.722  27.916  35.286  1.00  0.00     0.041 A 
ATOM     89  F   UNL A   1      45.949  29.345  33.599  1.00  0.00    -0.206 F 
ATOM     90  C   UNL A   1      46.467  27.015  36.316  1.00  0.00     0.022 A 
BRANCH  87  91
ATOM     91  S   UNL A   1      44.762  25.593  38.006  1.00  0.00     0.124 S 
ATOM     92  O   UNL A   1      43.659  26.339  38.603  1.00  0.00    -0.237 OA
ATOM     93  O   UNL A   1      44.411  24.308  37.407  1.00  0.00    -0.237 OA
ATOM     94  O   UNL A   1      46.005  25.602  38.773  1.00  0.00    -0.744 OA
ENDBRANCH  87  91
ENDBRANCH  61  84
ENDBRANCH  35  36
ENDBRANCH  28  30
ENDBRANCH  27  28
ENDBRANCH  26  27
ENDBRANCH   1  26
TORSDOF 21
ENDMDL
MODEL 3
REMARK VINA RESULT:     -11.0      2.902      5.017
REMARK SMILES CCCc1cc(OCC(=O)OCCOC(=O)c2ccc(-c3c4nc(c(-c5cc(S(=O)(=O)[O-])ccc5F)c5ccc([nH]5)c(-c5cc(S(=O)(=O)[O-])ccc5F)c5nc(c(-c6cc(S(=O)(=O)[O-])ccc6F)c6ccc3[nH]6)C=C5)C=C4)cc2)nc(Nc2ccc(C#N)cc2)n1
REMARK SMILES IDX 12 1 11 2 9 3 10 4 8 5 7 6 6 7 4 8 5 9 91 10 81 11 80 12
REMARK SMILES IDX 3 13 2 14 1 15 82 16 83 18 84 19 90 20 85 21 89 22 86 23
REMARK SMILES IDX 87 24 88 25 13 26 14 27 15 28 16 29 17 30 18 31 79 32 19 33
REMARK SMILES IDX 78 34 20 35 21 36 22 37 72 38 23 39 77 40 71 41 73 42 24 43
REMARK SMILES IDX 76 44 70 45 69 46 25 48 57 49 37 50 56 51 38 52 41 53 55 54
REMARK SMILES IDX 74 55 39 56 40 57 54 59 75 60 42 61 26 62 27 63 35 64 28 65
REMARK SMILES IDX 34 66 36 67 33 68 29 69 30 70 31 71 32 72 58 73 59 74 67 75
REMARK SMILES IDX 60 76 66 77 68 78 65 79 61 80 62 81 63 82 64 83 43 84 44 85
REMARK SMILES IDX 52 86 45 87 51 88 53 89 50 90 46 91 47 92 48 93 49 94
REMARK H PARENT 82 17 73 47 41 58
REMARK Flexibility Score: inf
ROOT
ATOM      1  C   UNL A   1      34.132  34.903  28.564  1.00  0.00     0.274 C 
ENDROOT
BRANCH   1   2
ATOM      2  O   UNL A   1      33.578  33.742  27.886  1.00  0.00    -0.460 OA
BRANCH   2   3
ATOM      3  C   UNL A   1      33.999  32.522  28.324  1.00  0.00     0.344 C 
ATOM      4  O   UNL A   1      34.420  32.313  29.460  1.00  0.00    -0.248 OA
BRANCH   3   5
ATOM      5  C   UNL A   1      33.793  31.379  27.307  1.00  0.00     0.353 C 
BRANCH   5   6
ATOM      6  O   UNL A   1      33.088  30.202  27.641  1.00  0.00    -0.466 OA
BRANCH   6   7
ATOM      7  C   UNL A   1      32.280  29.556  26.750  1.00  0.00     0.218 A 
ATOM      8  C   UNL A   1      31.229  29.135  24.693  1.00  0.00     0.050 A 
ATOM      9  C   UNL A   1      31.806  30.051  25.542  1.00  0.00     0.092 A 
ATOM     10  N   UNL A   1      31.097  27.877  25.074  1.00  0.00    -0.218 NA
ATOM     11  C   UNL A   1      31.354  27.511  26.318  1.00  0.00     0.230 A 
ATOM     12  N   UNL A   1      31.977  28.307  27.185  1.00  0.00    -0.177 NA
BRANCH   8  13
ATOM     13  C   UNL A   1      30.659  29.269  23.317  1.00  0.00     0.056 C 
BRANCH  13  14
ATOM     14  C   UNL A   1      29.262  28.807  23.053  1.00  0.00     0.003 C 
ATOM     15  C   UNL A   1      28.318  29.973  23.015  1.00  0.00     0.004 C 
ENDBRANCH  13  14
ENDBRANCH   8  13
BRANCH  11  16
ATOM     16  N   UNL A   1      30.808  26.274  26.671  1.00  0.00    -0.324 N 
ATOM     17  H   UNL A   1      29.972  26.250  27.190  1.00  0.00     0.170 HD
BRANCH  16  18
ATOM     18  C   UNL A   1      31.423  25.056  26.302  1.00  0.00     0.041 A 
ATOM     19  C   UNL A   1      32.787  24.994  26.001  1.00  0.00     0.027 A 
ATOM     20  C   UNL A   1      30.734  23.838  26.482  1.00  0.00     0.027 A 
ATOM     21  C   UNL A   1      33.427  23.754  25.837  1.00  0.00     0.021 A 
ATOM     22  C   UNL A   1      31.367  22.603  26.335  1.00  0.00     0.021 A 
ATOM     23  C   UNL A   1      32.716  22.558  25.988  1.00  0.00     0.052 A 
BRANCH  23  24
ATOM     24  C   UNL A   1      33.343  21.287  25.766  1.00  0.00     0.099 C 
ATOM     25  N   UNL A   1      33.802  20.249  25.530  1.00  0.00    -0.192 NA
ENDBRANCH  23  24
ENDBRANCH  16  18
ENDBRANCH  11  16
ENDBRANCH   6   7
ENDBRANCH   5   6
ENDBRANCH   3   5
ENDBRANCH   2   3
ENDBRANCH   1   2
BRANCH   1  26
ATOM     26  C   UNL A   1      33.063  35.696  29.353  1.00  0.00     0.275 C 
BRANCH  26  27
ATOM     27  O   UNL A   1      32.532  34.983  30.507  1.00  0.00    -0.458 OA
BRANCH  27  28
ATOM     28  C   UNL A   1      32.892  35.581  31.656  1.00  0.00     0.338 C 
ATOM     29  O   UNL A   1      32.441  36.659  32.023  1.00  0.00    -0.246 OA
BRANCH  28  30
ATOM     30  C   UNL A   1      33.928  34.989  32.522  1.00  0.00     0.060 A 
ATOM     31  C   UNL A   1      35.188  35.590  32.347  1.00  0.00     0.016 A 
ATOM     32  C   UNL A   1      33.844  33.640  32.887  1.00  0.00     0.016 A 
ATOM     33  C   UNL A   1      36.345  34.814  32.342  1.00  0.00     0.010 A 
ATOM     34  C   UNL A   1      35.027  32.871  32.948  1.00  0.00     0.010 A 
ATOM     35  C   UNL A   1      36.278  33.440  32.627  1.00  0.00    -0.014 A 
BRANCH  35  36
ATOM     36  C   UNL A   1      37.546  32.727  32.931  1.00  0.00     0.031 A 
ATOM     37  C   UNL A   1      38.152  31.605  32.130  1.00  0.00     0.074 A 
ATOM     38  C   UNL A   1      38.176  33.194  34.021  1.00  0.00     0.049 A 
ATOM     39  N   UNL A   1      39.229  30.898  32.371  1.00  0.00    -0.248 NA
ATOM     40  C   UNL A   1      37.482  31.232  30.885  1.00  0.00     0.031 C 
ATOM     41  C   UNL A   1      37.711  34.331  34.826  1.00  0.00     0.029 A 
ATOM     42  N   UNL A   1      39.308  32.772  34.652  1.00  0.00    -0.354 N 
ATOM     43  C   UNL A   1      39.367  30.004  31.307  1.00  0.00     0.074 A 
ATOM     44  C   UNL A   1      38.257  30.260  30.414  1.00  0.00     0.031 C 
ATOM     45  C   UNL A   1      38.529  34.489  35.868  1.00  0.00     0.029 A 
ATOM     46  C   UNL A   1      39.513  33.419  35.842  1.00  0.00     0.049 A 
ATOM     47  H   UNL A   1      39.910  32.081  34.293  1.00  0.00     0.167 HD
ATOM     48  C   UNL A   1      40.322  29.055  31.114  1.00  0.00     0.034 A 
ATOM     49  C   UNL A   1      40.351  33.138  36.849  1.00  0.00     0.034 A 
ATOM     50  C   UNL A   1      41.391  28.804  32.061  1.00  0.00     0.049 A 
ATOM     51  C   UNL A   1      41.318  32.014  36.679  1.00  0.00     0.074 A 
ATOM     52  C   UNL A   1      42.429  27.891  31.973  1.00  0.00     0.029 A 
ATOM     53  N   UNL A   1      41.538  29.445  33.285  1.00  0.00    -0.354 N 
ATOM     54  N   UNL A   1      41.445  31.185  35.670  1.00  0.00    -0.248 NA
ATOM     55  C   UNL A   1      42.271  31.810  37.769  1.00  0.00     0.031 C 
ATOM     56  C   UNL A   1      43.136  27.910  33.182  1.00  0.00     0.029 A 
ATOM     57  C   UNL A   1      42.611  28.910  33.983  1.00  0.00     0.049 A 
ATOM     58  H   UNL A   1      40.962  30.175  33.611  1.00  0.00     0.167 HD
ATOM     59  C   UNL A   1      42.524  30.371  35.991  1.00  0.00     0.074 A 
ATOM     60  C   UNL A   1      43.013  30.828  37.280  1.00  0.00     0.031 C 
ATOM     61  C   UNL A   1      43.065  29.349  35.283  1.00  0.00     0.034 A 
BRANCH  48  62
ATOM     62  C   UNL A   1      40.236  28.155  29.893  1.00  0.00     0.023 A 
ATOM     63  C   UNL A   1      41.057  28.325  28.763  1.00  0.00     0.031 A 
ATOM     64  C   UNL A   1      39.352  27.056  29.892  1.00  0.00     0.131 A 
ATOM     65  C   UNL A   1      40.955  27.434  27.677  1.00  0.00     0.055 A 
ATOM     66  C   UNL A   1      39.303  26.137  28.840  1.00  0.00     0.041 A 
ATOM     67  F   UNL A   1      38.527  26.845  30.929  1.00  0.00    -0.206 F 
ATOM     68  C   UNL A   1      40.103  26.327  27.719  1.00  0.00     0.022 A 
BRANCH  65  69
ATOM     69  S   UNL A   1      41.876  27.794  26.153  1.00  0.00     0.124 S 
ATOM     70  O   UNL A   1      41.270  29.053  25.729  1.00  0.00    -0.237 OA
ATOM     71  O   UNL A   1      43.253  27.876  26.629  1.00  0.00    -0.237 OA
ATOM     72  O   UNL A   1      41.582  26.649  25.293  1.00  0.00    -0.744 OA
ENDBRANCH  65  69
ENDBRANCH  48  62
BRANCH  49  73
ATOM     73  C   UNL A   1      40.246  33.932  38.095  1.00  0.00     0.023 A 
ATOM     74  C   UNL A   1      39.332  33.577  39.089  1.00  0.00     0.031 A 
ATOM     75  C   UNL A   1      41.114  35.015  38.333  1.00  0.00     0.131 A 
ATOM     76  C   UNL A   1      39.282  34.319  40.274  1.00  0.00     0.055 A 
ATOM     77  C   UNL A   1      41.103  35.711  39.540  1.00  0.00     0.041 A 
ATOM     78  F   UNL A   1      42.026  35.373  37.414  1.00  0.00    -0.206 F 
ATOM     79  C   UNL A   1      40.173  35.369  40.516  1.00  0.00     0.022 A 
BRANCH  76  80
ATOM     80  S   UNL A   1      37.978  33.930  41.466  1.00  0.00     0.124 S 
ATOM     81  O   UNL A   1      38.702  33.124  42.443  1.00  0.00    -0.237 OA
ATOM     82  O   UNL A   1      37.568  35.258  41.907  1.00  0.00    -0.237 OA
ATOM     83  O   UNL A   1      36.993  33.207  40.665  1.00  0.00    -0.744 OA
ENDBRANCH  76  80
ENDBRANCH  49  73
BRANCH  61  84
ATOM     84  C   UNL A   1      44.274  28.683  35.887  1.00  0.00     0.023 A 
ATOM     85  C   UNL A   1      44.149  27.579  36.749  1.00  0.00     0.031 A 
ATOM     86  C   UNL A   1      45.561  29.193  35.646  1.00  0.00     0.131 A 
ATOM     87  C   UNL A   1      45.282  27.074  37.403  1.00  0.00     0.055 A 
ATOM     88  C   UNL A   1      46.695  28.633  36.235  1.00  0.00     0.041 A 
ATOM     89  F   UNL A   1      45.738  30.253  34.841  1.00  0.00    -0.206 F 
ATOM     90  C   UNL A   1      46.557  27.580  37.135  1.00  0.00     0.022 A 
BRANCH  87  91
ATOM     91  S   UNL A   1      45.046  25.844  38.713  1.00  0.00     0.124 S 
ATOM     92  O   UNL A   1      44.302  26.607  39.710  1.00  0.00    -0.237 OA
ATOM     93  O   UNL A   1      44.297  24.796  38.025  1.00  0.00    -0.237 OA
ATOM     94  O   UNL A   1      46.409  25.485  39.094  1.00  0.00    -0.744 OA
ENDBRANCH  87  91
ENDBRANCH  61  84
ENDBRANCH  35  36
ENDBRANCH  28  30
ENDBRANCH  27  28
ENDBRANCH  26  27
ENDBRANCH   1  26
TORSDOF 21
ENDMDL
