MODEL 1
REMARK VINA RESULT:     -11.1      0.000      0.000
REMARK SMILES CC(C)N1C[C@@H](C(=O)OCCOC(=O)c2ccc(-c3c4nc(c(-c5cc(S(=O)(=O)[O-])ccc5F)c5ccc([nH]5)c(-c5cc(S(=O)(=O)[O-])ccc5F)c5nc(c(-c6cc(S(=O)(=O)[O-])ccc6F)c6ccc3[nH]6)C=C5)C=C4)cc2)CC1=O
REMARK SMILES IDX 11 1 10 2 9 3 7 4 8 5 6 6 4 7 5 8 79 9 78 10 80 11 2 12 1 13
REMARK SMILES IDX 3 14 12 15 13 16 14 17 15 18 16 19 77 20 17 21 76 22 18 23
REMARK SMILES IDX 19 24 20 25 70 26 21 27 75 28 69 29 71 30 22 31 74 32 68 33
REMARK SMILES IDX 67 34 23 36 55 37 35 38 54 39 36 40 39 41 53 42 72 43 37 44
REMARK SMILES IDX 38 45 52 47 73 48 40 49 24 50 25 51 33 52 26 53 32 54 34 55
REMARK SMILES IDX 31 56 27 57 28 58 29 59 30 60 56 61 57 62 65 63 58 64 64 65
REMARK SMILES IDX 66 66 63 67 59 68 60 69 61 70 62 71 41 72 42 73 50 74 43 75
REMARK SMILES IDX 49 76 51 77 48 78 44 79 45 80 46 81 47 82
REMARK H PARENT 71 35 39 46
REMARK Flexibility Score: inf
ROOT
ATOM      1  C   UNL A   1      36.201  21.283  24.721  1.00  0.00     0.275 C 
ENDROOT
BRANCH   1   2
ATOM      2  C   UNL A   1      35.162  22.393  24.533  1.00  0.00     0.274 C 
BRANCH   2   3
ATOM      3  O   UNL A   1      33.900  21.844  24.104  1.00  0.00    -0.462 OA
BRANCH   3   4
ATOM      4  C   UNL A   1      33.139  21.252  25.055  1.00  0.00     0.311 C 
ATOM      5  O   UNL A   1      32.947  21.708  26.177  1.00  0.00    -0.252 OA
BRANCH   4   6
ATOM      6  C   UNL A   1      32.527  19.953  24.607  1.00  0.00     0.128 C 
ATOM      7  N   UNL A   1      32.989  17.733  24.174  1.00  0.00    -0.339 N 
ATOM      8  C   UNL A   1      33.385  18.797  25.060  1.00  0.00     0.135 C 
ATOM      9  C   UNL A   1      32.465  18.225  22.985  1.00  0.00     0.223 C 
ATOM     10  C   UNL A   1      32.344  19.723  23.112  1.00  0.00     0.117 C 
ATOM     11  O   UNL A   1      32.194  17.585  21.982  1.00  0.00    -0.275 OA
BRANCH   7  12
ATOM     12  C   UNL A   1      33.348  16.344  24.439  1.00  0.00     0.078 C 
ATOM     13  C   UNL A   1      34.811  16.190  24.851  1.00  0.00     0.031 C 
ATOM     14  C   UNL A   1      32.406  15.729  25.469  1.00  0.00     0.031 C 
ENDBRANCH   7  12
ENDBRANCH   4   6
ENDBRANCH   3   4
ENDBRANCH   2   3
ENDBRANCH   1   2
BRANCH   1  15
ATOM     15  O   UNL A   1      36.928  21.430  25.956  1.00  0.00    -0.458 OA
BRANCH  15  16
ATOM     16  C   UNL A   1      38.268  21.265  25.846  1.00  0.00     0.338 C 
ATOM     17  O   UNL A   1      38.851  20.380  25.242  1.00  0.00    -0.246 OA
BRANCH  16  18
ATOM     18  C   UNL A   1      38.971  22.405  26.450  1.00  0.00     0.060 A 
ATOM     19  C   UNL A   1      38.516  23.686  26.138  1.00  0.00     0.016 A 
ATOM     20  C   UNL A   1      40.124  22.235  27.214  1.00  0.00     0.016 A 
ATOM     21  C   UNL A   1      39.220  24.807  26.553  1.00  0.00     0.010 A 
ATOM     22  C   UNL A   1      40.820  23.366  27.660  1.00  0.00     0.010 A 
ATOM     23  C   UNL A   1      40.381  24.659  27.318  1.00  0.00    -0.014 A 
BRANCH  23  24
ATOM     24  C   UNL A   1      41.149  25.867  27.712  1.00  0.00     0.031 A 
ATOM     25  C   UNL A   1      40.484  26.945  28.519  1.00  0.00     0.074 A 
ATOM     26  C   UNL A   1      42.449  25.970  27.376  1.00  0.00     0.049 A 
ATOM     27  N   UNL A   1      40.943  28.119  28.870  1.00  0.00    -0.248 NA
ATOM     28  C   UNL A   1      39.119  26.665  28.987  1.00  0.00     0.031 C 
ATOM     29  C   UNL A   1      43.216  24.955  26.650  1.00  0.00     0.029 A 
ATOM     30  N   UNL A   1      43.356  26.975  27.599  1.00  0.00    -0.354 N 
ATOM     31  C   UNL A   1      39.913  28.732  29.575  1.00  0.00     0.074 A 
ATOM     32  C   UNL A   1      38.800  27.805  29.583  1.00  0.00     0.031 C 
ATOM     33  C   UNL A   1      44.478  25.387  26.494  1.00  0.00     0.029 A 
ATOM     34  C   UNL A   1      44.591  26.733  27.045  1.00  0.00     0.049 A 
ATOM     35  H   UNL A   1      43.144  27.790  28.109  1.00  0.00     0.167 HD
ATOM     36  C   UNL A   1      39.902  29.957  30.159  1.00  0.00     0.034 A 
ATOM     37  C   UNL A   1      45.679  27.523  26.952  1.00  0.00     0.034 A 
ATOM     38  C   UNL A   1      41.030  30.859  30.147  1.00  0.00     0.049 A 
ATOM     39  C   UNL A   1      45.619  28.907  27.545  1.00  0.00     0.074 A 
ATOM     40  C   UNL A   1      41.134  32.118  30.713  1.00  0.00     0.029 A 
ATOM     41  N   UNL A   1      42.251  30.598  29.537  1.00  0.00    -0.354 N 
ATOM     42  N   UNL A   1      44.628  29.493  28.178  1.00  0.00    -0.248 NA
ATOM     43  C   UNL A   1      46.823  29.737  27.411  1.00  0.00     0.031 C 
ATOM     44  C   UNL A   1      42.391  32.643  30.389  1.00  0.00     0.029 A 
ATOM     45  C   UNL A   1      43.102  31.684  29.685  1.00  0.00     0.049 A 
ATOM     46  H   UNL A   1      42.480  29.764  29.067  1.00  0.00     0.167 HD
ATOM     47  C   UNL A   1      45.097  30.753  28.533  1.00  0.00     0.074 A 
ATOM     48  C   UNL A   1      46.465  30.834  28.062  1.00  0.00     0.031 C 
ATOM     49  C   UNL A   1      44.458  31.754  29.193  1.00  0.00     0.034 A 
BRANCH  36  50
ATOM     50  C   UNL A   1      38.610  30.413  30.793  1.00  0.00     0.023 A 
ATOM     51  C   UNL A   1      37.590  31.033  30.050  1.00  0.00     0.031 A 
ATOM     52  C   UNL A   1      38.411  30.254  32.176  1.00  0.00     0.131 A 
ATOM     53  C   UNL A   1      36.452  31.530  30.703  1.00  0.00     0.055 A 
ATOM     54  C   UNL A   1      37.242  30.682  32.808  1.00  0.00     0.041 A 
ATOM     55  F   UNL A   1      39.360  29.691  32.942  1.00  0.00    -0.206 F 
ATOM     56  C   UNL A   1      36.260  31.337  32.074  1.00  0.00     0.022 A 
BRANCH  53  57
ATOM     57  S   UNL A   1      35.287  32.556  29.764  1.00  0.00     0.124 S 
ATOM     58  O   UNL A   1      34.344  32.959  30.805  1.00  0.00    -0.237 OA
ATOM     59  O   UNL A   1      36.147  33.609  29.239  1.00  0.00    -0.237 OA
ATOM     60  O   UNL A   1      34.745  31.636  28.767  1.00  0.00    -0.744 OA
ENDBRANCH  53  57
ENDBRANCH  36  50
BRANCH  37  61
ATOM     61  C   UNL A   1      46.888  27.056  26.216  1.00  0.00     0.023 A 
ATOM     62  C   UNL A   1      47.942  26.409  26.880  1.00  0.00     0.031 A 
ATOM     63  C   UNL A   1      47.021  27.285  24.834  1.00  0.00     0.131 A 
ATOM     64  C   UNL A   1      49.098  26.048  26.170  1.00  0.00     0.055 A 
ATOM     65  C   UNL A   1      48.150  26.876  24.123  1.00  0.00     0.041 A 
ATOM     66  F   UNL A   1      46.044  27.900  24.150  1.00  0.00    -0.206 F 
ATOM     67  C   UNL A   1      49.203  26.263  24.794  1.00  0.00     0.022 A 
BRANCH  64  68
ATOM     68  S   UNL A   1      50.501  25.358  27.088  1.00  0.00     0.124 S 
ATOM     69  O   UNL A   1      50.910  26.494  27.905  1.00  0.00    -0.237 OA
ATOM     70  O   UNL A   1      49.880  24.246  27.800  1.00  0.00    -0.237 OA
ATOM     71  O   UNL A   1      51.441  24.975  26.036  1.00  0.00    -0.744 OA
ENDBRANCH  64  68
ENDBRANCH  37  61
BRANCH  49  72
ATOM     72  C   UNL A   1      45.257  33.001  29.474  1.00  0.00     0.023 A 
ATOM     73  C   UNL A   1      45.250  34.098  28.593  1.00  0.00     0.031 A 
ATOM     74  C   UNL A   1      46.052  33.085  30.630  1.00  0.00     0.131 A 
ATOM     75  C   UNL A   1      46.064  35.209  28.857  1.00  0.00     0.055 A 
ATOM     76  C   UNL A   1      46.815  34.217  30.917  1.00  0.00     0.041 A 
ATOM     77  F   UNL A   1      46.097  32.066  31.504  1.00  0.00    -0.206 F 
ATOM     78  C   UNL A   1      46.835  35.282  30.021  1.00  0.00     0.022 A 
BRANCH  75  79
ATOM     79  S   UNL A   1      46.175  36.524  27.612  1.00  0.00     0.124 S 
ATOM     80  O   UNL A   1      47.363  37.252  28.044  1.00  0.00    -0.237 OA
ATOM     81  O   UNL A   1      46.306  35.768  26.370  1.00  0.00    -0.237 OA
ATOM     82  O   UNL A   1      44.915  37.248  27.765  1.00  0.00    -0.744 OA
ENDBRANCH  75  79
ENDBRANCH  49  72
ENDBRANCH  23  24
ENDBRANCH  16  18
ENDBRANCH  15  16
ENDBRANCH   1  15
TORSDOF 15
ENDMDL
MODEL 2
REMARK VINA RESULT:     -11.0      1.487      1.806
REMARK SMILES CC(C)N1C[C@@H](C(=O)OCCOC(=O)c2ccc(-c3c4nc(c(-c5cc(S(=O)(=O)[O-])ccc5F)c5ccc([nH]5)c(-c5cc(S(=O)(=O)[O-])ccc5F)c5nc(c(-c6cc(S(=O)(=O)[O-])ccc6F)c6ccc3[nH]6)C=C5)C=C4)cc2)CC1=O
REMARK SMILES IDX 11 1 10 2 9 3 7 4 8 5 6 6 4 7 5 8 79 9 78 10 80 11 2 12 1 13
REMARK SMILES IDX 3 14 12 15 13 16 14 17 15 18 16 19 77 20 17 21 76 22 18 23
REMARK SMILES IDX 19 24 20 25 70 26 21 27 75 28 69 29 71 30 22 31 74 32 68 33
REMARK SMILES IDX 67 34 23 36 55 37 35 38 54 39 36 40 39 41 53 42 72 43 37 44
REMARK SMILES IDX 38 45 52 47 73 48 40 49 24 50 25 51 33 52 26 53 32 54 34 55
REMARK SMILES IDX 31 56 27 57 28 58 29 59 30 60 56 61 57 62 65 63 58 64 64 65
REMARK SMILES IDX 66 66 63 67 59 68 60 69 61 70 62 71 41 72 42 73 50 74 43 75
REMARK SMILES IDX 49 76 51 77 48 78 44 79 45 80 46 81 47 82
REMARK H PARENT 71 35 39 46
REMARK Flexibility Score: inf
ROOT
ATOM      1  C   UNL A   1      36.847  20.712  25.376  1.00  0.00     0.275 C 
ENDROOT
BRANCH   1   2
ATOM      2  C   UNL A   1      35.607  21.553  25.693  1.00  0.00     0.274 C 
BRANCH   2   3
ATOM      3  O   UNL A   1      34.619  21.419  24.654  1.00  0.00    -0.462 OA
BRANCH   3   4
ATOM      4  C   UNL A   1      33.329  21.303  25.052  1.00  0.00     0.311 C 
ATOM      5  O   UNL A   1      32.713  22.161  25.676  1.00  0.00    -0.252 OA
BRANCH   4   6
ATOM      6  C   UNL A   1      32.695  19.999  24.650  1.00  0.00     0.128 C 
ATOM      7  N   UNL A   1      33.142  17.787  24.167  1.00  0.00    -0.339 N 
ATOM      8  C   UNL A   1      33.601  18.850  25.023  1.00  0.00     0.135 C 
ATOM      9  C   UNL A   1      32.515  18.278  23.030  1.00  0.00     0.223 C 
ATOM     10  C   UNL A   1      32.389  19.774  23.174  1.00  0.00     0.117 C 
ATOM     11  O   UNL A   1      32.167  17.639  22.049  1.00  0.00    -0.275 OA
BRANCH   7  12
ATOM     12  C   UNL A   1      33.538  16.400  24.394  1.00  0.00     0.078 C 
ATOM     13  C   UNL A   1      34.969  16.281  24.915  1.00  0.00     0.031 C 
ATOM     14  C   UNL A   1      32.544  15.698  25.313  1.00  0.00     0.031 C 
ENDBRANCH   7  12
ENDBRANCH   4   6
ENDBRANCH   3   4
ENDBRANCH   2   3
ENDBRANCH   1   2
BRANCH   1  15
ATOM     15  O   UNL A   1      38.018  21.528  25.185  1.00  0.00    -0.458 OA
BRANCH  15  16
ATOM     16  C   UNL A   1      39.072  21.199  25.969  1.00  0.00     0.338 C 
ATOM     17  O   UNL A   1      39.578  20.097  26.093  1.00  0.00    -0.246 OA
BRANCH  16  18
ATOM     18  C   UNL A   1      39.650  22.407  26.575  1.00  0.00     0.060 A 
ATOM     19  C   UNL A   1      39.210  23.643  26.102  1.00  0.00     0.016 A 
ATOM     20  C   UNL A   1      40.686  22.338  27.505  1.00  0.00     0.016 A 
ATOM     21  C   UNL A   1      39.816  24.818  26.523  1.00  0.00     0.010 A 
ATOM     22  C   UNL A   1      41.280  23.525  27.953  1.00  0.00     0.010 A 
ATOM     23  C   UNL A   1      40.859  24.771  27.453  1.00  0.00    -0.014 A 
BRANCH  23  24
ATOM     24  C   UNL A   1      41.530  26.034  27.854  1.00  0.00     0.031 A 
ATOM     25  C   UNL A   1      40.778  27.056  28.657  1.00  0.00     0.074 A 
ATOM     26  C   UNL A   1      42.821  26.235  27.530  1.00  0.00     0.049 A 
ATOM     27  N   UNL A   1      41.143  28.261  29.014  1.00  0.00    -0.248 NA
ATOM     28  C   UNL A   1      39.435  26.672  29.114  1.00  0.00     0.031 C 
ATOM     29  C   UNL A   1      43.669  25.283  26.809  1.00  0.00     0.029 A 
ATOM     30  N   UNL A   1      43.647  27.305  27.762  1.00  0.00    -0.354 N 
ATOM     31  C   UNL A   1      40.064  28.793  29.710  1.00  0.00     0.074 A 
ATOM     32  C   UNL A   1      39.025  27.783  29.708  1.00  0.00     0.031 C 
ATOM     33  C   UNL A   1      44.896  25.810  26.664  1.00  0.00     0.029 A 
ATOM     34  C   UNL A   1      44.902  27.159  27.218  1.00  0.00     0.049 A 
ATOM     35  H   UNL A   1      43.369  28.101  28.271  1.00  0.00     0.167 HD
ATOM     36  C   UNL A   1      39.955  30.012  30.295  1.00  0.00     0.034 A 
ATOM     37  C   UNL A   1      45.928  28.031  27.135  1.00  0.00     0.034 A 
ATOM     38  C   UNL A   1      41.011  30.997  30.295  1.00  0.00     0.049 A 
ATOM     39  C   UNL A   1      45.758  29.404  27.730  1.00  0.00     0.074 A 
ATOM     40  C   UNL A   1      41.015  32.260  30.863  1.00  0.00     0.029 A 
ATOM     41  N   UNL A   1      42.254  30.831  29.694  1.00  0.00    -0.354 N 
ATOM     42  N   UNL A   1      44.719  29.912  28.354  1.00  0.00    -0.248 NA
ATOM     43  C   UNL A   1      46.896  30.323  27.607  1.00  0.00     0.031 C 
ATOM     44  C   UNL A   1      42.230  32.879  30.550  1.00  0.00     0.029 A 
ATOM     45  C   UNL A   1      43.018  31.978  29.852  1.00  0.00     0.049 A 
ATOM     46  H   UNL A   1      42.549  30.017  29.226  1.00  0.00     0.167 HD
ATOM     47  C   UNL A   1      45.089  31.203  28.716  1.00  0.00     0.074 A 
ATOM     48  C   UNL A   1      46.450  31.389  28.256  1.00  0.00     0.031 C 
ATOM     49  C   UNL A   1      44.369  32.151  29.371  1.00  0.00     0.034 A 
BRANCH  36  50
ATOM     50  C   UNL A   1      38.627  30.368  30.919  1.00  0.00     0.023 A 
ATOM     51  C   UNL A   1      37.608  31.010  30.194  1.00  0.00     0.031 A 
ATOM     52  C   UNL A   1      38.390  30.086  32.277  1.00  0.00     0.131 A 
ATOM     53  C   UNL A   1      36.431  31.410  30.845  1.00  0.00     0.055 A 
ATOM     54  C   UNL A   1      37.186  30.419  32.900  1.00  0.00     0.041 A 
ATOM     55  F   UNL A   1      39.334  29.496  33.027  1.00  0.00    -0.206 F 
ATOM     56  C   UNL A   1      36.203  31.097  32.188  1.00  0.00     0.022 A 
BRANCH  53  57
ATOM     57  S   UNL A   1      35.258  32.468  29.953  1.00  0.00     0.124 S 
ATOM     58  O   UNL A   1      36.121  33.566  29.523  1.00  0.00    -0.237 OA
ATOM     59  O   UNL A   1      34.775  31.584  28.899  1.00  0.00    -0.237 OA
ATOM     60  O   UNL A   1      34.273  32.824  30.971  1.00  0.00    -0.744 OA
ENDBRANCH  53  57
ENDBRANCH  36  50
BRANCH  37  61
ATOM     61  C   UNL A   1      47.175  27.657  26.409  1.00  0.00     0.023 A 
ATOM     62  C   UNL A   1      47.305  27.867  25.028  1.00  0.00     0.031 A 
ATOM     63  C   UNL A   1      48.246  27.047  27.089  1.00  0.00     0.131 A 
ATOM     64  C   UNL A   1      48.464  27.437  24.363  1.00  0.00     0.055 A 
ATOM     65  C   UNL A   1      49.417  26.669  26.432  1.00  0.00     0.041 A 
ATOM     66  F   UNL A   1      48.172  26.822  28.410  1.00  0.00    -0.206 F 
ATOM     67  C   UNL A   1      49.527  26.853  25.057  1.00  0.00     0.022 A 
BRANCH  64  68
ATOM     68  S   UNL A   1      48.534  27.580  22.557  1.00  0.00     0.124 S 
ATOM     69  O   UNL A   1      48.576  26.182  22.148  1.00  0.00    -0.237 OA
ATOM     70  O   UNL A   1      47.298  28.298  22.263  1.00  0.00    -0.237 OA
ATOM     71  O   UNL A   1      49.762  28.337  22.322  1.00  0.00    -0.744 OA
ENDBRANCH  64  68
ENDBRANCH  37  61
BRANCH  49  72
ATOM     72  C   UNL A   1      45.069  33.456  29.660  1.00  0.00     0.023 A 
ATOM     73  C   UNL A   1      45.075  34.513  28.733  1.00  0.00     0.031 A 
ATOM     74  C   UNL A   1      45.755  33.634  30.874  1.00  0.00     0.131 A 
ATOM     75  C   UNL A   1      45.799  35.681  29.012  1.00  0.00     0.055 A 
ATOM     76  C   UNL A   1      46.425  34.822  31.171  1.00  0.00     0.041 A 
ATOM     77  F   UNL A   1      45.783  32.657  31.794  1.00  0.00    -0.206 F 
ATOM     78  C   UNL A   1      46.461  35.849  30.232  1.00  0.00     0.022 A 
BRANCH  75  79
ATOM     79  S   UNL A   1      45.942  36.948  27.722  1.00  0.00     0.124 S 
ATOM     80  O   UNL A   1      45.215  36.336  26.614  1.00  0.00    -0.237 OA
ATOM     81  O   UNL A   1      45.301  38.102  28.345  1.00  0.00    -0.237 OA
ATOM     82  O   UNL A   1      47.384  37.075  27.522  1.00  0.00    -0.744 OA
ENDBRANCH  75  79
ENDBRANCH  49  72
ENDBRANCH  23  24
ENDBRANCH  16  18
ENDBRANCH  15  16
ENDBRANCH   1  15
TORSDOF 15
ENDMDL
MODEL 3
REMARK VINA RESULT:     -11.0      6.187     10.945
REMARK SMILES CC(C)N1C[C@@H](C(=O)OCCOC(=O)c2ccc(-c3c4nc(c(-c5cc(S(=O)(=O)[O-])ccc5F)c5ccc([nH]5)c(-c5cc(S(=O)(=O)[O-])ccc5F)c5nc(c(-c6cc(S(=O)(=O)[O-])ccc6F)c6ccc3[nH]6)C=C5)C=C4)cc2)CC1=O
REMARK SMILES IDX 11 1 10 2 9 3 7 4 8 5 6 6 4 7 5 8 79 9 78 10 80 11 2 12 1 13
REMARK SMILES IDX 3 14 12 15 13 16 14 17 15 18 16 19 77 20 17 21 76 22 18 23
REMARK SMILES IDX 19 24 20 25 70 26 21 27 75 28 69 29 71 30 22 31 74 32 68 33
REMARK SMILES IDX 67 34 23 36 55 37 35 38 54 39 36 40 39 41 53 42 72 43 37 44
REMARK SMILES IDX 38 45 52 47 73 48 40 49 24 50 25 51 33 52 26 53 32 54 34 55
REMARK SMILES IDX 31 56 27 57 28 58 29 59 30 60 56 61 57 62 65 63 58 64 64 65
REMARK SMILES IDX 66 66 63 67 59 68 60 69 61 70 62 71 41 72 42 73 50 74 43 75
REMARK SMILES IDX 49 76 51 77 48 78 44 79 45 80 46 81 47 82
REMARK H PARENT 71 35 39 46
REMARK Flexibility Score: inf
ROOT
ATOM      1  C   UNL A   1      31.855  29.629  26.714  1.00  0.00     0.275 C 
ENDROOT
BRANCH   1   2
ATOM      2  C   UNL A   1      31.728  28.314  25.938  1.00  0.00     0.274 C 
BRANCH   2   3
ATOM      3  O   UNL A   1      31.750  28.556  24.518  1.00  0.00    -0.462 OA
BRANCH   3   4
ATOM      4  C   UNL A   1      31.183  27.611  23.731  1.00  0.00     0.311 C 
ATOM      5  O   UNL A   1      31.597  26.463  23.613  1.00  0.00    -0.252 OA
BRANCH   4   6
ATOM      6  C   UNL A   1      29.965  28.098  22.995  1.00  0.00     0.128 C 
ATOM      7  N   UNL A   1      28.488  29.863  22.810  1.00  0.00    -0.339 N 
ATOM      8  C   UNL A   1      29.877  29.603  23.084  1.00  0.00     0.135 C 
ATOM      9  C   UNL A   1      27.692  28.764  23.109  1.00  0.00     0.223 C 
ATOM     10  C   UNL A   1      28.598  27.613  23.467  1.00  0.00     0.117 C 
ATOM     11  O   UNL A   1      26.472  28.727  23.138  1.00  0.00    -0.275 OA
BRANCH   7  12
ATOM     12  C   UNL A   1      28.008  31.206  22.501  1.00  0.00     0.078 C 
ATOM     13  C   UNL A   1      28.733  32.282  23.308  1.00  0.00     0.031 C 
ATOM     14  C   UNL A   1      28.089  31.477  21.003  1.00  0.00     0.031 C 
ENDBRANCH   7  12
ENDBRANCH   4   6
ENDBRANCH   3   4
ENDBRANCH   2   3
ENDBRANCH   1   2
BRANCH   1  15
ATOM     15  O   UNL A   1      32.928  30.449  26.214  1.00  0.00    -0.458 OA
BRANCH  15  16
ATOM     16  C   UNL A   1      33.280  31.477  27.023  1.00  0.00     0.338 C 
ATOM     17  O   UNL A   1      32.599  32.445  27.315  1.00  0.00    -0.246 OA
BRANCH  16  18
ATOM     18  C   UNL A   1      34.583  31.209  27.647  1.00  0.00     0.060 A 
ATOM     19  C   UNL A   1      34.851  29.901  28.051  1.00  0.00     0.016 A 
ATOM     20  C   UNL A   1      35.481  32.234  27.939  1.00  0.00     0.016 A 
ATOM     21  C   UNL A   1      35.996  29.606  28.778  1.00  0.00     0.010 A 
ATOM     22  C   UNL A   1      36.652  31.933  28.646  1.00  0.00     0.010 A 
ATOM     23  C   UNL A   1      36.909  30.620  29.084  1.00  0.00    -0.014 A 
BRANCH  23  24
ATOM     24  C   UNL A   1      38.103  30.297  29.904  1.00  0.00     0.031 A 
ATOM     25  C   UNL A   1      39.130  29.333  29.381  1.00  0.00     0.074 A 
ATOM     26  C   UNL A   1      38.279  30.900  31.095  1.00  0.00     0.049 A 
ATOM     27  N   UNL A   1      40.181  28.837  29.981  1.00  0.00    -0.248 NA
ATOM     28  C   UNL A   1      38.943  28.861  28.002  1.00  0.00     0.031 C 
ATOM     29  C   UNL A   1      37.380  31.903  31.673  1.00  0.00     0.029 A 
ATOM     30  N   UNL A   1      39.270  30.762  32.033  1.00  0.00    -0.354 N 
ATOM     31  C   UNL A   1      40.766  27.970  29.064  1.00  0.00     0.074 A 
ATOM     32  C   UNL A   1      39.938  27.997  27.876  1.00  0.00     0.031 C 
ATOM     33  C   UNL A   1      37.865  32.291  32.863  1.00  0.00     0.029 A 
ATOM     34  C   UNL A   1      39.066  31.519  33.163  1.00  0.00     0.049 A 
ATOM     35  H   UNL A   1      40.052  30.177  31.909  1.00  0.00     0.167 HD
ATOM     36  C   UNL A   1      41.890  27.223  29.207  1.00  0.00     0.034 A 
ATOM     37  C   UNL A   1      39.745  31.555  34.327  1.00  0.00     0.034 A 
ATOM     38  C   UNL A   1      42.705  27.225  30.398  1.00  0.00     0.049 A 
ATOM     39  C   UNL A   1      40.949  30.664  34.489  1.00  0.00     0.074 A 
ATOM     40  C   UNL A   1      43.868  26.516  30.650  1.00  0.00     0.029 A 
ATOM     41  N   UNL A   1      42.444  27.971  31.542  1.00  0.00    -0.354 N 
ATOM     42  N   UNL A   1      41.473  29.819  33.630  1.00  0.00    -0.248 NA
ATOM     43  C   UNL A   1      41.651  30.728  35.777  1.00  0.00     0.031 C 
ATOM     44  C   UNL A   1      44.270  26.782  31.964  1.00  0.00     0.029 A 
ATOM     45  C   UNL A   1      43.404  27.716  32.510  1.00  0.00     0.049 A 
ATOM     46  H   UNL A   1      41.687  28.591  31.648  1.00  0.00     0.167 HD
ATOM     47  C   UNL A   1      42.578  29.267  34.268  1.00  0.00     0.074 A 
ATOM     48  C   UNL A   1      42.656  29.888  35.575  1.00  0.00     0.031 C 
ATOM     49  C   UNL A   1      43.455  28.333  33.815  1.00  0.00     0.034 A 
BRANCH  36  50
ATOM     50  C   UNL A   1      42.256  26.296  28.073  1.00  0.00     0.023 A 
ATOM     51  C   UNL A   1      41.720  25.001  27.964  1.00  0.00     0.031 A 
ATOM     52  C   UNL A   1      43.188  26.706  27.101  1.00  0.00     0.131 A 
ATOM     53  C   UNL A   1      42.170  24.141  26.949  1.00  0.00     0.055 A 
ATOM     54  C   UNL A   1      43.573  25.873  26.050  1.00  0.00     0.041 A 
ATOM     55  F   UNL A   1      43.752  27.923  27.168  1.00  0.00    -0.206 F 
ATOM     56  C   UNL A   1      43.074  24.577  25.977  1.00  0.00     0.022 A 
BRANCH  53  57
ATOM     57  S   UNL A   1      41.663  22.400  26.995  1.00  0.00     0.124 S 
ATOM     58  O   UNL A   1      42.587  21.851  27.985  1.00  0.00    -0.237 OA
ATOM     59  O   UNL A   1      40.266  22.489  27.404  1.00  0.00    -0.237 OA
ATOM     60  O   UNL A   1      41.885  21.941  25.626  1.00  0.00    -0.744 OA
ENDBRANCH  53  57
ENDBRANCH  36  50
BRANCH  37  61
ATOM     61  C   UNL A   1      39.268  32.412  35.450  1.00  0.00     0.023 A 
ATOM     62  C   UNL A   1      39.741  33.722  35.620  1.00  0.00     0.031 A 
ATOM     63  C   UNL A   1      38.354  31.912  36.396  1.00  0.00     0.131 A 
ATOM     64  C   UNL A   1      39.327  34.475  36.729  1.00  0.00     0.055 A 
ATOM     65  C   UNL A   1      37.905  32.684  37.468  1.00  0.00     0.041 A 
ATOM     66  F   UNL A   1      37.871  30.665  36.281  1.00  0.00    -0.206 F 
ATOM     67  C   UNL A   1      38.401  33.971  37.646  1.00  0.00     0.022 A 
BRANCH  64  68
ATOM     68  S   UNL A   1      40.077  36.103  37.003  1.00  0.00     0.124 S 
ATOM     69  O   UNL A   1      39.806  36.773  35.737  1.00  0.00    -0.237 OA
ATOM     70  O   UNL A   1      39.331  36.590  38.159  1.00  0.00    -0.237 OA
ATOM     71  O   UNL A   1      41.482  35.793  37.257  1.00  0.00    -0.744 OA
ENDBRANCH  64  68
ENDBRANCH  37  61
BRANCH  49  72
ATOM     72  C   UNL A   1      44.592  27.965  34.735  1.00  0.00     0.023 A 
ATOM     73  C   UNL A   1      44.416  27.072  35.808  1.00  0.00     0.031 A 
ATOM     74  C   UNL A   1      45.864  28.532  34.546  1.00  0.00     0.131 A 
ATOM     75  C   UNL A   1      45.482  26.815  36.682  1.00  0.00     0.055 A 
ATOM     76  C   UNL A   1      46.937  28.226  35.384  1.00  0.00     0.041 A 
ATOM     77  F   UNL A   1      46.086  29.391  33.538  1.00  0.00    -0.206 F 
ATOM     78  C   UNL A   1      46.745  27.374  36.468  1.00  0.00     0.022 A 
BRANCH  75  79
ATOM     79  S   UNL A   1      45.174  25.808  38.159  1.00  0.00     0.124 S 
ATOM     80  O   UNL A   1      46.524  25.395  38.531  1.00  0.00    -0.237 OA
ATOM     81  O   UNL A   1      44.529  26.759  39.057  1.00  0.00    -0.237 OA
ATOM     82  O   UNL A   1      44.311  24.735  37.670  1.00  0.00    -0.744 OA
ENDBRANCH  75  79
ENDBRANCH  49  72
ENDBRANCH  23  24
ENDBRANCH  16  18
ENDBRANCH  15  16
ENDBRANCH   1  15
TORSDOF 15
ENDMDL
