MODEL 1
REMARK VINA RESULT:     -10.4      0.000      0.000
REMARK SMILES CCN(C(=O)[C@H]1C=C[C@@H]([NH3+])C1)[C@H](C)CC(=O)OCCOC(=O)c1ccc(-c2c3nc(c(-c4cc(S(=O)(=O)[O-])ccc4F)c4ccc([nH]4)c(-c4cc(S(=O)(=O)[O-])ccc4F)c4nc(c(-c5cc(S(=O)(=O)[O-])ccc5F)c5ccc2[nH]5)C=C4)C=C3)cc1
REMARK SMILES IDX 18 1 17 2 15 3 16 4 14 5 12 6 13 7 3 8 2 9 1 10 4 11 5 12
REMARK SMILES IDX 6 13 7 14 11 15 8 16 9 17 10 18 19 22 20 23 21 24 22 25
REMARK SMILES IDX 23 26 24 27 85 28 25 29 84 30 26 31 27 32 28 33 78 34 29 35
REMARK SMILES IDX 83 36 77 37 79 38 30 39 82 40 76 41 75 42 31 44 63 45 43 46
REMARK SMILES IDX 62 47 44 48 47 49 61 50 80 51 45 52 46 53 60 55 81 56 48 57
REMARK SMILES IDX 32 58 33 59 41 60 34 61 40 62 42 63 39 64 35 65 36 66 37 67
REMARK SMILES IDX 38 68 64 69 65 70 73 71 66 72 72 73 74 74 71 75 67 76 68 77
REMARK SMILES IDX 69 78 70 79 49 80 50 81 58 82 51 83 57 84 59 85 56 86 52 87
REMARK SMILES IDX 53 88 54 89 55 90
REMARK H PARENT 10 19 10 20 10 21 79 43 47 54
REMARK Flexibility Score: inf
ROOT
ATOM      1  C   UNL A   1      35.778  20.447  24.987  1.00  0.00     0.274 C 
ENDROOT
BRANCH   1   2
ATOM      2  O   UNL A   1      35.344  21.759  25.399  1.00  0.00    -0.462 OA
BRANCH   2   3
ATOM      3  C   UNL A   1      34.363  22.314  24.653  1.00  0.00     0.307 C 
ATOM      4  O   UNL A   1      33.532  21.670  24.019  1.00  0.00    -0.252 OA
BRANCH   3   5
ATOM      5  C   UNL A   1      34.414  23.820  24.563  1.00  0.00     0.147 C 
BRANCH   5   6
ATOM      6  C   UNL A   1      33.367  24.656  25.327  1.00  0.00     0.093 C 
ATOM      7  C   UNL A   1      33.974  26.012  25.742  1.00  0.00     0.031 C 
BRANCH   6   8
ATOM      8  N   UNL A   1      32.076  24.887  24.581  1.00  0.00    -0.339 N 
BRANCH   8   9
ATOM      9  C   UNL A   1      30.891  24.059  24.856  1.00  0.00     0.116 C 
ATOM     10  C   UNL A   1      30.961  23.375  26.209  1.00  0.00     0.027 C 
ENDBRANCH   8   9
BRANCH   8  11
ATOM     11  C   UNL A   1      32.064  25.928  23.629  1.00  0.00     0.229 C 
ATOM     12  O   UNL A   1      32.923  25.995  22.744  1.00  0.00    -0.274 OA
BRANCH  11  13
ATOM     13  C   UNL A   1      30.938  26.977  23.706  1.00  0.00     0.107 C 
ATOM     14  C   UNL A   1      31.337  28.145  24.564  1.00  0.00    -0.012 C 
ATOM     15  C   UNL A   1      30.660  27.666  22.358  1.00  0.00     0.087 C 
ATOM     16  C   UNL A   1      30.971  29.310  24.014  1.00  0.00     0.033 C 
ATOM     17  C   UNL A   1      30.260  29.102  22.720  1.00  0.00     0.205 C 
BRANCH  17  18
ATOM     18  N   UNL A   1      30.650  30.049  21.694  1.00  0.00    -0.352 N 
ATOM     19  H   UNL A   1      29.835  30.591  21.403  1.00  0.00     0.345 HD
ATOM     20  H   UNL A   1      31.028  29.545  20.891  1.00  0.00     0.345 HD
ATOM     21  H   UNL A   1      31.362  30.680  22.064  1.00  0.00     0.345 HD
ENDBRANCH  17  18
ENDBRANCH  11  13
ENDBRANCH   8  11
ENDBRANCH   6   8
ENDBRANCH   5   6
ENDBRANCH   3   5
ENDBRANCH   2   3
ENDBRANCH   1   2
BRANCH   1  22
ATOM     22  C   UNL A   1      37.305  20.310  25.000  1.00  0.00     0.275 C 
BRANCH  22  23
ATOM     23  O   UNL A   1      37.954  21.453  25.587  1.00  0.00    -0.458 OA
BRANCH  23  24
ATOM     24  C   UNL A   1      39.167  21.191  26.134  1.00  0.00     0.338 C 
ATOM     25  O   UNL A   1      39.750  20.123  26.130  1.00  0.00    -0.246 OA
BRANCH  24  26
ATOM     26  C   UNL A   1      39.778  22.432  26.634  1.00  0.00     0.060 A 
ATOM     27  C   UNL A   1      39.334  23.646  26.098  1.00  0.00     0.016 A 
ATOM     28  C   UNL A   1      40.837  22.404  27.541  1.00  0.00     0.016 A 
ATOM     29  C   UNL A   1      39.949  24.839  26.466  1.00  0.00     0.010 A 
ATOM     30  C   UNL A   1      41.456  23.604  27.909  1.00  0.00     0.010 A 
ATOM     31  C   UNL A   1      41.021  24.828  27.366  1.00  0.00    -0.014 A 
BRANCH  31  32
ATOM     32  C   UNL A   1      41.724  26.094  27.691  1.00  0.00     0.031 A 
ATOM     33  C   UNL A   1      41.016  27.156  28.483  1.00  0.00     0.074 A 
ATOM     34  C   UNL A   1      42.999  26.276  27.297  1.00  0.00     0.049 A 
ATOM     35  N   UNL A   1      41.407  28.369  28.778  1.00  0.00    -0.248 NA
ATOM     36  C   UNL A   1      39.690  26.802  29.013  1.00  0.00     0.031 C 
ATOM     37  C   UNL A   1      43.805  25.291  26.574  1.00  0.00     0.029 A 
ATOM     38  N   UNL A   1      43.838  27.352  27.444  1.00  0.00    -0.354 N 
ATOM     39  C   UNL A   1      40.371  28.932  29.516  1.00  0.00     0.074 A 
ATOM     40  C   UNL A   1      39.325  27.932  29.603  1.00  0.00     0.031 C 
ATOM     41  C   UNL A   1      45.020  25.813  26.334  1.00  0.00     0.029 A 
ATOM     42  C   UNL A   1      45.060  27.184  26.835  1.00  0.00     0.049 A 
ATOM     43  H   UNL A   1      43.589  28.167  27.939  1.00  0.00     0.167 HD
ATOM     44  C   UNL A   1      40.302  30.168  30.070  1.00  0.00     0.034 A 
ATOM     45  C   UNL A   1      46.078  28.051  26.665  1.00  0.00     0.034 A 
ATOM     46  C   UNL A   1      41.353  31.154  29.970  1.00  0.00     0.049 A 
ATOM     47  C   UNL A   1      45.948  29.446  27.224  1.00  0.00     0.074 A 
ATOM     48  C   UNL A   1      41.381  32.442  30.476  1.00  0.00     0.029 A 
ATOM     49  N   UNL A   1      42.565  30.959  29.319  1.00  0.00    -0.354 N 
ATOM     50  N   UNL A   1      44.946  29.980  27.885  1.00  0.00    -0.248 NA
ATOM     51  C   UNL A   1      47.083  30.353  27.016  1.00  0.00     0.031 C 
ATOM     52  C   UNL A   1      42.583  33.043  30.085  1.00  0.00     0.029 A 
ATOM     53  C   UNL A   1      43.337  32.109  29.394  1.00  0.00     0.049 A 
ATOM     54  H   UNL A   1      42.836  30.126  28.871  1.00  0.00     0.167 HD
ATOM     55  C   UNL A   1      45.343  31.279  28.191  1.00  0.00     0.074 A 
ATOM     56  C   UNL A   1      46.681  31.440  27.659  1.00  0.00     0.031 C 
ATOM     57  C   UNL A   1      44.666  32.253  28.851  1.00  0.00     0.034 A 
BRANCH  44  58
ATOM     58  C   UNL A   1      39.025  30.538  30.783  1.00  0.00     0.023 A 
ATOM     59  C   UNL A   1      37.930  31.094  30.099  1.00  0.00     0.031 A 
ATOM     60  C   UNL A   1      38.909  30.346  32.171  1.00  0.00     0.131 A 
ATOM     61  C   UNL A   1      36.789  31.493  30.813  1.00  0.00     0.055 A 
ATOM     62  C   UNL A   1      37.745  30.682  32.866  1.00  0.00     0.041 A 
ATOM     63  F   UNL A   1      39.929  29.838  32.879  1.00  0.00    -0.206 F 
ATOM     64  C   UNL A   1      36.680  31.269  32.189  1.00  0.00     0.022 A 
BRANCH  61  65
ATOM     65  S   UNL A   1      35.493  32.414  29.940  1.00  0.00     0.124 S 
ATOM     66  O   UNL A   1      34.420  32.422  30.930  1.00  0.00    -0.237 OA
ATOM     67  O   UNL A   1      36.136  33.697  29.684  1.00  0.00    -0.237 OA
ATOM     68  O   UNL A   1      35.233  31.599  28.754  1.00  0.00    -0.744 OA
ENDBRANCH  61  65
ENDBRANCH  44  58
BRANCH  45  69
ATOM     69  C   UNL A   1      47.283  27.658  25.879  1.00  0.00     0.023 A 
ATOM     70  C   UNL A   1      47.377  27.924  24.504  1.00  0.00     0.031 A 
ATOM     71  C   UNL A   1      48.339  26.952  26.486  1.00  0.00     0.131 A 
ATOM     72  C   UNL A   1      48.476  27.447  23.773  1.00  0.00     0.055 A 
ATOM     73  C   UNL A   1      49.456  26.530  25.766  1.00  0.00     0.041 A 
ATOM     74  F   UNL A   1      48.300  26.668  27.799  1.00  0.00    -0.206 F 
ATOM     75  C   UNL A   1      49.523  26.763  24.397  1.00  0.00     0.022 A 
BRANCH  72  76
ATOM     76  S   UNL A   1      48.473  27.647  21.970  1.00  0.00     0.124 S 
ATOM     77  O   UNL A   1      49.594  28.557  21.768  1.00  0.00    -0.237 OA
ATOM     78  O   UNL A   1      48.671  26.274  21.514  1.00  0.00    -0.237 OA
ATOM     79  O   UNL A   1      47.153  28.209  21.692  1.00  0.00    -0.744 OA
ENDBRANCH  72  76
ENDBRANCH  45  69
BRANCH  57  80
ATOM     80  C   UNL A   1      45.390  33.557  29.070  1.00  0.00     0.023 A 
ATOM     81  C   UNL A   1      45.410  34.566  28.090  1.00  0.00     0.031 A 
ATOM     82  C   UNL A   1      46.086  33.784  30.270  1.00  0.00     0.131 A 
ATOM     83  C   UNL A   1      46.157  35.734  28.306  1.00  0.00     0.055 A 
ATOM     84  C   UNL A   1      46.782  34.971  30.501  1.00  0.00     0.041 A 
ATOM     85  F   UNL A   1      46.100  32.853  31.237  1.00  0.00    -0.206 F 
ATOM     86  C   UNL A   1      46.831  35.949  29.511  1.00  0.00     0.022 A 
BRANCH  83  87
ATOM     87  S   UNL A   1      46.305  36.936  26.956  1.00  0.00     0.124 S 
ATOM     88  O   UNL A   1      47.511  37.667  27.332  1.00  0.00    -0.237 OA
ATOM     89  O   UNL A   1      46.421  36.076  25.783  1.00  0.00    -0.237 OA
ATOM     90  O   UNL A   1      45.063  37.703  27.042  1.00  0.00    -0.744 OA
ENDBRANCH  83  87
ENDBRANCH  57  80
ENDBRANCH  31  32
ENDBRANCH  24  26
ENDBRANCH  23  24
ENDBRANCH  22  23
ENDBRANCH   1  22
TORSDOF 20
ENDMDL
MODEL 2
REMARK VINA RESULT:     -10.4      5.361     10.307
REMARK SMILES CCN(C(=O)[C@H]1C=C[C@@H]([NH3+])C1)[C@H](C)CC(=O)OCCOC(=O)c1ccc(-c2c3nc(c(-c4cc(S(=O)(=O)[O-])ccc4F)c4ccc([nH]4)c(-c4cc(S(=O)(=O)[O-])ccc4F)c4nc(c(-c5cc(S(=O)(=O)[O-])ccc5F)c5ccc2[nH]5)C=C4)C=C3)cc1
REMARK SMILES IDX 18 1 17 2 15 3 16 4 14 5 12 6 13 7 3 8 2 9 1 10 4 11 5 12
REMARK SMILES IDX 6 13 7 14 11 15 8 16 9 17 10 18 19 22 20 23 21 24 22 25
REMARK SMILES IDX 23 26 24 27 85 28 25 29 84 30 26 31 27 32 28 33 78 34 29 35
REMARK SMILES IDX 83 36 77 37 79 38 30 39 82 40 76 41 75 42 31 44 63 45 43 46
REMARK SMILES IDX 62 47 44 48 47 49 61 50 80 51 45 52 46 53 60 55 81 56 48 57
REMARK SMILES IDX 32 58 33 59 41 60 34 61 40 62 42 63 39 64 35 65 36 66 37 67
REMARK SMILES IDX 38 68 64 69 65 70 73 71 66 72 72 73 74 74 71 75 67 76 68 77
REMARK SMILES IDX 69 78 70 79 49 80 50 81 58 82 51 83 57 84 59 85 56 86 52 87
REMARK SMILES IDX 53 88 54 89 55 90
REMARK H PARENT 10 19 10 20 10 21 79 43 47 54
REMARK Flexibility Score: inf
ROOT
ATOM      1  C   UNL A   1      31.294  29.092  24.984  1.00  0.00     0.274 C 
ENDROOT
BRANCH   1   2
ATOM      2  O   UNL A   1      31.672  27.873  24.312  1.00  0.00    -0.462 OA
BRANCH   2   3
ATOM      3  C   UNL A   1      30.733  26.901  24.289  1.00  0.00     0.307 C 
ATOM      4  O   UNL A   1      29.635  27.017  23.752  1.00  0.00    -0.252 OA
BRANCH   3   5
ATOM      5  C   UNL A   1      31.089  25.660  25.072  1.00  0.00     0.147 C 
BRANCH   5   6
ATOM      6  C   UNL A   1      31.621  24.422  24.322  1.00  0.00     0.093 C 
ATOM      7  C   UNL A   1      30.529  23.859  23.391  1.00  0.00     0.031 C 
BRANCH   6   8
ATOM      8  N   UNL A   1      32.887  24.656  23.534  1.00  0.00    -0.339 N 
BRANCH   8   9
ATOM      9  C   UNL A   1      32.871  24.635  22.063  1.00  0.00     0.116 C 
ATOM     10  C   UNL A   1      32.836  26.027  21.461  1.00  0.00     0.027 C 
ENDBRANCH   8   9
BRANCH   8  11
ATOM     11  C   UNL A   1      34.064  24.903  24.272  1.00  0.00     0.229 C 
ATOM     12  O   UNL A   1      34.404  26.053  24.567  1.00  0.00    -0.274 OA
BRANCH  11  13
ATOM     13  C   UNL A   1      34.911  23.698  24.722  1.00  0.00     0.107 C 
ATOM     14  C   UNL A   1      35.743  23.163  23.591  1.00  0.00    -0.012 C 
ATOM     15  C   UNL A   1      35.995  24.071  25.750  1.00  0.00     0.087 C 
ATOM     16  C   UNL A   1      36.987  22.866  23.989  1.00  0.00     0.033 C 
ATOM     17  C   UNL A   1      37.174  23.139  25.442  1.00  0.00     0.205 C 
BRANCH  17  18
ATOM     18  N   UNL A   1      38.449  23.757  25.750  1.00  0.00    -0.352 N 
ATOM     19  H   UNL A   1      38.767  24.298  24.946  1.00  0.00     0.345 HD
ATOM     20  H   UNL A   1      39.135  23.033  25.967  1.00  0.00     0.345 HD
ATOM     21  H   UNL A   1      38.342  24.376  26.555  1.00  0.00     0.345 HD
ENDBRANCH  17  18
ENDBRANCH  11  13
ENDBRANCH   8  11
ENDBRANCH   6   8
ENDBRANCH   5   6
ENDBRANCH   3   5
ENDBRANCH   2   3
ENDBRANCH   1   2
BRANCH   1  22
ATOM     22  C   UNL A   1      32.511  29.918  25.415  1.00  0.00     0.275 C 
BRANCH  22  23
ATOM     23  O   UNL A   1      32.570  30.108  26.841  1.00  0.00    -0.458 OA
BRANCH  23  24
ATOM     24  C   UNL A   1      33.175  31.257  27.230  1.00  0.00     0.338 C 
ATOM     25  O   UNL A   1      32.679  32.369  27.248  1.00  0.00    -0.246 OA
BRANCH  24  26
ATOM     26  C   UNL A   1      34.510  30.969  27.777  1.00  0.00     0.060 A 
ATOM     27  C   UNL A   1      34.769  29.670  28.227  1.00  0.00     0.016 A 
ATOM     28  C   UNL A   1      35.460  31.977  27.938  1.00  0.00     0.016 A 
ATOM     29  C   UNL A   1      35.982  29.373  28.842  1.00  0.00     0.010 A 
ATOM     30  C   UNL A   1      36.678  31.677  28.558  1.00  0.00     0.010 A 
ATOM     31  C   UNL A   1      36.942  30.375  29.022  1.00  0.00    -0.014 A 
BRANCH  31  32
ATOM     32  C   UNL A   1      38.198  30.070  29.751  1.00  0.00     0.031 A 
ATOM     33  C   UNL A   1      39.185  29.102  29.162  1.00  0.00     0.074 A 
ATOM     34  C   UNL A   1      38.461  30.679  30.923  1.00  0.00     0.049 A 
ATOM     35  N   UNL A   1      40.282  28.617  29.683  1.00  0.00    -0.248 NA
ATOM     36  C   UNL A   1      38.894  28.617  27.804  1.00  0.00     0.031 C 
ATOM     37  C   UNL A   1      37.605  31.681  31.562  1.00  0.00     0.029 A 
ATOM     38  N   UNL A   1      39.518  30.544  31.787  1.00  0.00    -0.354 N 
ATOM     39  C   UNL A   1      40.808  27.756  28.725  1.00  0.00     0.074 A 
ATOM     40  C   UNL A   1      39.894  27.771  27.600  1.00  0.00     0.031 C 
ATOM     41  C   UNL A   1      38.169  32.062  32.721  1.00  0.00     0.029 A 
ATOM     42  C   UNL A   1      39.393  31.295  32.933  1.00  0.00     0.049 A 
ATOM     43  H   UNL A   1      40.294  29.964  31.604  1.00  0.00     0.167 HD
ATOM     44  C   UNL A   1      41.949  27.025  28.780  1.00  0.00     0.034 A 
ATOM     45  C   UNL A   1      40.156  31.329  34.044  1.00  0.00     0.034 A 
ATOM     46  C   UNL A   1      42.846  27.020  29.911  1.00  0.00     0.049 A 
ATOM     47  C   UNL A   1      41.379  30.449  34.114  1.00  0.00     0.074 A 
ATOM     48  C   UNL A   1      44.018  26.303  30.082  1.00  0.00     0.029 A 
ATOM     49  N   UNL A   1      42.671  27.770  31.067  1.00  0.00    -0.354 N 
ATOM     50  N   UNL A   1      41.845  29.608  33.218  1.00  0.00    -0.248 NA
ATOM     51  C   UNL A   1      42.180  30.521  35.342  1.00  0.00     0.031 C 
ATOM     52  C   UNL A   1      44.521  26.577  31.359  1.00  0.00     0.029 A 
ATOM     53  C   UNL A   1      43.701  27.518  31.961  1.00  0.00     0.049 A 
ATOM     54  H   UNL A   1      41.925  28.391  31.229  1.00  0.00     0.167 HD
ATOM     55  C   UNL A   1      43.005  29.071  33.768  1.00  0.00     0.074 A 
ATOM     56  C   UNL A   1      43.179  29.697  35.063  1.00  0.00     0.031 C 
ATOM     57  C   UNL A   1      43.853  28.145  33.251  1.00  0.00     0.034 A 
BRANCH  44  58
ATOM     58  C   UNL A   1      42.255  26.129  27.606  1.00  0.00     0.023 A 
ATOM     59  C   UNL A   1      41.877  24.776  27.589  1.00  0.00     0.031 A 
ATOM     60  C   UNL A   1      42.952  26.635  26.493  1.00  0.00     0.131 A 
ATOM     61  C   UNL A   1      42.249  23.960  26.508  1.00  0.00     0.055 A 
ATOM     62  C   UNL A   1      43.258  25.835  25.391  1.00  0.00     0.041 A 
ATOM     63  F   UNL A   1      43.355  27.914  26.463  1.00  0.00    -0.206 F 
ATOM     64  C   UNL A   1      42.917  24.486  25.399  1.00  0.00     0.022 A 
BRANCH  61  65
ATOM     65  S   UNL A   1      41.948  22.174  26.623  1.00  0.00     0.124 S 
ATOM     66  O   UNL A   1      42.537  21.696  25.374  1.00  0.00    -0.237 OA
ATOM     67  O   UNL A   1      42.658  21.812  27.844  1.00  0.00    -0.237 OA
ATOM     68  O   UNL A   1      40.492  22.076  26.696  1.00  0.00    -0.744 OA
ENDBRANCH  61  65
ENDBRANCH  44  58
BRANCH  45  69
ATOM     69  C   UNL A   1      39.759  32.171  35.209  1.00  0.00     0.023 A 
ATOM     70  C   UNL A   1      38.986  31.649  36.257  1.00  0.00     0.031 A 
ATOM     71  C   UNL A   1      40.101  33.535  35.259  1.00  0.00     0.131 A 
ATOM     72  C   UNL A   1      38.540  32.494  37.285  1.00  0.00     0.055 A 
ATOM     73  C   UNL A   1      39.703  34.359  36.312  1.00  0.00     0.041 A 
ATOM     74  F   UNL A   1      40.837  34.088  34.281  1.00  0.00    -0.206 F 
ATOM     75  C   UNL A   1      38.904  33.843  37.327  1.00  0.00     0.022 A 
BRANCH  72  76
ATOM     76  S   UNL A   1      37.390  31.829  38.521  1.00  0.00     0.124 S 
ATOM     77  O   UNL A   1      36.238  32.708  38.360  1.00  0.00    -0.237 OA
ATOM     78  O   UNL A   1      37.216  30.454  38.061  1.00  0.00    -0.237 OA
ATOM     79  O   UNL A   1      38.118  31.976  39.779  1.00  0.00    -0.744 OA
ENDBRANCH  72  76
ENDBRANCH  45  69
BRANCH  57  80
ATOM     80  C   UNL A   1      45.066  27.797  34.077  1.00  0.00     0.023 A 
ATOM     81  C   UNL A   1      45.045  26.753  35.019  1.00  0.00     0.031 A 
ATOM     82  C   UNL A   1      46.253  28.536  33.932  1.00  0.00     0.131 A 
ATOM     83  C   UNL A   1      46.172  26.511  35.817  1.00  0.00     0.055 A 
ATOM     84  C   UNL A   1      47.389  28.255  34.692  1.00  0.00     0.041 A 
ATOM     85  F   UNL A   1      46.326  29.544  33.049  1.00  0.00    -0.206 F 
ATOM     86  C   UNL A   1      47.349  27.246  35.650  1.00  0.00     0.022 A 
BRANCH  83  87
ATOM     87  S   UNL A   1      46.055  25.275  37.140  1.00  0.00     0.124 S 
ATOM     88  O   UNL A   1      46.761  25.933  38.234  1.00  0.00    -0.237 OA
ATOM     89  O   UNL A   1      44.613  25.132  37.307  1.00  0.00    -0.237 OA
ATOM     90  O   UNL A   1      46.732  24.107  36.579  1.00  0.00    -0.744 OA
ENDBRANCH  83  87
ENDBRANCH  57  80
ENDBRANCH  31  32
ENDBRANCH  24  26
ENDBRANCH  23  24
ENDBRANCH  22  23
ENDBRANCH   1  22
TORSDOF 20
ENDMDL
MODEL 3
REMARK VINA RESULT:     -10.0      1.857      2.825
REMARK SMILES CCN(C(=O)[C@H]1C=C[C@@H]([NH3+])C1)[C@H](C)CC(=O)OCCOC(=O)c1ccc(-c2c3nc(c(-c4cc(S(=O)(=O)[O-])ccc4F)c4ccc([nH]4)c(-c4cc(S(=O)(=O)[O-])ccc4F)c4nc(c(-c5cc(S(=O)(=O)[O-])ccc5F)c5ccc2[nH]5)C=C4)C=C3)cc1
REMARK SMILES IDX 18 1 17 2 15 3 16 4 14 5 12 6 13 7 3 8 2 9 1 10 4 11 5 12
REMARK SMILES IDX 6 13 7 14 11 15 8 16 9 17 10 18 19 22 20 23 21 24 22 25
REMARK SMILES IDX 23 26 24 27 85 28 25 29 84 30 26 31 27 32 28 33 78 34 29 35
REMARK SMILES IDX 83 36 77 37 79 38 30 39 82 40 76 41 75 42 31 44 63 45 43 46
REMARK SMILES IDX 62 47 44 48 47 49 61 50 80 51 45 52 46 53 60 55 81 56 48 57
REMARK SMILES IDX 32 58 33 59 41 60 34 61 40 62 42 63 39 64 35 65 36 66 37 67
REMARK SMILES IDX 38 68 64 69 65 70 73 71 66 72 72 73 74 74 71 75 67 76 68 77
REMARK SMILES IDX 69 78 70 79 49 80 50 81 58 82 51 83 57 84 59 85 56 86 52 87
REMARK SMILES IDX 53 88 54 89 55 90
REMARK H PARENT 10 19 10 20 10 21 79 43 47 54
REMARK Flexibility Score: inf
ROOT
ATOM      1  C   UNL A   1      34.884  21.071  24.467  1.00  0.00     0.274 C 
ENDROOT
BRANCH   1   2
ATOM      2  O   UNL A   1      34.639  22.492  24.480  1.00  0.00    -0.462 OA
BRANCH   2   3
ATOM      3  C   UNL A   1      34.695  23.109  23.278  1.00  0.00     0.307 C 
ATOM      4  O   UNL A   1      35.733  23.299  22.650  1.00  0.00    -0.252 OA
BRANCH   3   5
ATOM      5  C   UNL A   1      33.376  23.654  22.785  1.00  0.00     0.147 C 
BRANCH   5   6
ATOM      6  C   UNL A   1      33.181  25.180  22.688  1.00  0.00     0.093 C 
ATOM      7  C   UNL A   1      32.827  25.576  21.240  1.00  0.00     0.031 C 
BRANCH   6   8
ATOM      8  N   UNL A   1      32.151  25.747  23.634  1.00  0.00    -0.339 N 
BRANCH   8   9
ATOM      9  C   UNL A   1      32.264  27.129  24.127  1.00  0.00     0.116 C 
ATOM     10  C   UNL A   1      33.704  27.601  24.212  1.00  0.00     0.027 C 
ENDBRANCH   8   9
BRANCH   8  11
ATOM     11  C   UNL A   1      31.087  24.899  24.006  1.00  0.00     0.229 C 
ATOM     12  O   UNL A   1      30.217  24.572  23.194  1.00  0.00    -0.274 OA
BRANCH  11  13
ATOM     13  C   UNL A   1      31.046  24.368  25.451  1.00  0.00     0.107 C 
ATOM     14  C   UNL A   1      30.880  22.875  25.480  1.00  0.00    -0.012 C 
ATOM     15  C   UNL A   1      32.381  24.543  26.198  1.00  0.00     0.087 C 
ATOM     16  C   UNL A   1      31.676  22.305  26.395  1.00  0.00     0.033 C 
ATOM     17  C   UNL A   1      32.480  23.325  27.126  1.00  0.00     0.205 C 
BRANCH  17  18
ATOM     18  N   UNL A   1      33.856  22.921  27.345  1.00  0.00    -0.352 N 
ATOM     19  H   UNL A   1      34.451  23.338  26.629  1.00  0.00     0.345 HD
ATOM     20  H   UNL A   1      33.924  21.904  27.294  1.00  0.00     0.345 HD
ATOM     21  H   UNL A   1      34.161  23.236  28.266  1.00  0.00     0.345 HD
ENDBRANCH  17  18
ENDBRANCH  11  13
ENDBRANCH   8  11
ENDBRANCH   6   8
ENDBRANCH   5   6
ENDBRANCH   3   5
ENDBRANCH   2   3
ENDBRANCH   1   2
BRANCH   1  22
ATOM     22  C   UNL A   1      36.092  20.683  25.327  1.00  0.00     0.275 C 
BRANCH  22  23
ATOM     23  O   UNL A   1      36.955  21.802  25.599  1.00  0.00    -0.458 OA
BRANCH  23  24
ATOM     24  C   UNL A   1      38.261  21.477  25.766  1.00  0.00     0.338 C 
ATOM     25  O   UNL A   1      38.814  20.466  25.373  1.00  0.00    -0.246 OA
BRANCH  24  26
ATOM     26  C   UNL A   1      38.988  22.596  26.385  1.00  0.00     0.060 A 
ATOM     27  C   UNL A   1      38.609  23.897  26.040  1.00  0.00     0.016 A 
ATOM     28  C   UNL A   1      40.088  22.375  27.214  1.00  0.00     0.016 A 
ATOM     29  C   UNL A   1      39.330  24.987  26.522  1.00  0.00     0.010 A 
ATOM     30  C   UNL A   1      40.813  23.471  27.696  1.00  0.00     0.010 A 
ATOM     31  C   UNL A   1      40.443  24.783  27.345  1.00  0.00    -0.014 A 
BRANCH  31  32
ATOM     32  C   UNL A   1      41.255  25.943  27.788  1.00  0.00     0.031 A 
ATOM     33  C   UNL A   1      40.622  27.018  28.627  1.00  0.00     0.074 A 
ATOM     34  C   UNL A   1      42.559  26.018  27.459  1.00  0.00     0.049 A 
ATOM     35  N   UNL A   1      41.120  28.160  29.023  1.00  0.00    -0.248 NA
ATOM     36  C   UNL A   1      39.244  26.769  29.077  1.00  0.00     0.031 C 
ATOM     37  C   UNL A   1      43.294  25.006  26.699  1.00  0.00     0.029 A 
ATOM     38  N   UNL A   1      43.495  26.988  27.716  1.00  0.00    -0.354 N 
ATOM     39  C   UNL A   1      40.112  28.777  29.758  1.00  0.00     0.074 A 
ATOM     40  C   UNL A   1      38.969  27.888  29.731  1.00  0.00     0.031 C 
ATOM     41  C   UNL A   1      44.565  25.413  26.545  1.00  0.00     0.029 A 
ATOM     42  C   UNL A   1      44.720  26.735  27.145  1.00  0.00     0.049 A 
ATOM     43  H   UNL A   1      43.307  27.789  28.258  1.00  0.00     0.167 HD
ATOM     44  C   UNL A   1      40.144  29.973  30.397  1.00  0.00     0.034 A 
ATOM     45  C   UNL A   1      45.828  27.500  27.078  1.00  0.00     0.034 A 
ATOM     46  C   UNL A   1      41.292  30.848  30.411  1.00  0.00     0.049 A 
ATOM     47  C   UNL A   1      45.814  28.860  27.731  1.00  0.00     0.074 A 
ATOM     48  C   UNL A   1      41.427  32.089  31.009  1.00  0.00     0.029 A 
ATOM     49  N   UNL A   1      42.507  30.573  29.795  1.00  0.00    -0.354 N 
ATOM     50  N   UNL A   1      44.841  29.450  28.390  1.00  0.00    -0.248 NA
ATOM     51  C   UNL A   1      47.043  29.657  27.634  1.00  0.00     0.031 C 
ATOM     52  C   UNL A   1      42.701  32.587  30.710  1.00  0.00     0.029 A 
ATOM     53  C   UNL A   1      43.387  31.628  29.983  1.00  0.00     0.049 A 
ATOM     54  H   UNL A   1      42.714  29.749  29.299  1.00  0.00     0.167 HD
ATOM     55  C   UNL A   1      45.353  30.677  28.803  1.00  0.00     0.074 A 
ATOM     56  C   UNL A   1      46.724  30.733  28.337  1.00  0.00     0.031 C 
ATOM     57  C   UNL A   1      44.748  31.669  29.505  1.00  0.00     0.034 A 
BRANCH  44  58
ATOM     58  C   UNL A   1      38.879  30.424  31.084  1.00  0.00     0.023 A 
ATOM     59  C   UNL A   1      37.952  31.268  30.448  1.00  0.00     0.031 A 
ATOM     60  C   UNL A   1      38.606  30.018  32.402  1.00  0.00     0.131 A 
ATOM     61  C   UNL A   1      36.825  31.724  31.150  1.00  0.00     0.055 A 
ATOM     62  C   UNL A   1      37.449  30.421  33.072  1.00  0.00     0.041 A 
ATOM     63  F   UNL A   1      39.465  29.230  33.066  1.00  0.00    -0.206 F 
ATOM     64  C   UNL A   1      36.556  31.288  32.450  1.00  0.00     0.022 A 
BRANCH  61  65
ATOM     65  S   UNL A   1      35.774  32.989  30.383  1.00  0.00     0.124 S 
ATOM     66  O   UNL A   1      36.326  33.050  29.032  1.00  0.00    -0.237 OA
ATOM     67  O   UNL A   1      34.443  32.408  30.503  1.00  0.00    -0.237 OA
ATOM     68  O   UNL A   1      36.013  34.176  31.201  1.00  0.00    -0.744 OA
ENDBRANCH  61  65
ENDBRANCH  44  58
BRANCH  45  69
ATOM     69  C   UNL A   1      47.023  27.039  26.314  1.00  0.00     0.023 A 
ATOM     70  C   UNL A   1      48.078  26.364  26.947  1.00  0.00     0.031 A 
ATOM     71  C   UNL A   1      47.152  27.323  24.942  1.00  0.00     0.131 A 
ATOM     72  C   UNL A   1      49.235  26.038  26.221  1.00  0.00     0.055 A 
ATOM     73  C   UNL A   1      48.279  26.946  24.212  1.00  0.00     0.041 A 
ATOM     74  F   UNL A   1      46.173  27.969  24.287  1.00  0.00    -0.206 F 
ATOM     75  C   UNL A   1      49.337  26.313  24.855  1.00  0.00     0.022 A 
BRANCH  72  76
ATOM     76  S   UNL A   1      50.651  25.337  27.112  1.00  0.00     0.124 S 
ATOM     77  O   UNL A   1      51.075  26.465  27.933  1.00  0.00    -0.237 OA
ATOM     78  O   UNL A   1      50.036  24.220  27.824  1.00  0.00    -0.237 OA
ATOM     79  O   UNL A   1      51.573  24.960  26.043  1.00  0.00    -0.744 OA
ENDBRANCH  72  76
ENDBRANCH  45  69
BRANCH  57  80
ATOM     80  C   UNL A   1      45.589  32.873  29.846  1.00  0.00     0.023 A 
ATOM     81  C   UNL A   1      45.649  33.997  29.003  1.00  0.00     0.031 A 
ATOM     82  C   UNL A   1      46.358  32.885  31.023  1.00  0.00     0.131 A 
ATOM     83  C   UNL A   1      46.501  35.065  29.322  1.00  0.00     0.055 A 
ATOM     84  C   UNL A   1      47.162  33.973  31.362  1.00  0.00     0.041 A 
ATOM     85  F   UNL A   1      46.339  31.837  31.861  1.00  0.00    -0.206 F 
ATOM     86  C   UNL A   1      47.247  35.066  30.504  1.00  0.00     0.022 A 
BRANCH  83  87
ATOM     87  S   UNL A   1      46.687  36.419  28.130  1.00  0.00     0.124 S 
ATOM     88  O   UNL A   1      45.530  37.254  28.436  1.00  0.00    -0.237 OA
ATOM     89  O   UNL A   1      47.987  36.975  28.489  1.00  0.00    -0.237 OA
ATOM     90  O   UNL A   1      46.639  35.744  26.834  1.00  0.00    -0.744 OA
ENDBRANCH  83  87
ENDBRANCH  57  80
ENDBRANCH  31  32
ENDBRANCH  24  26
ENDBRANCH  23  24
ENDBRANCH  22  23
ENDBRANCH   1  22
TORSDOF 20
ENDMDL
