MODEL 1
REMARK VINA RESULT:     -12.2      0.000      0.000
REMARK SMILES CCc1cc(N2CCC[C@H](C(=O)OCCOC(=O)c3ccc(-c4c5nc(c(-c6cc(S(=O)(=O)[O-])ccc6F)c6ccc([nH]6)c(-c6cc(S(=O)(=O)[O-])ccc6F)c6nc(c(-c7cc(S(=O)(=O)[O-])ccc7F)c7ccc4[nH]7)C=C6)C=C5)cc3)C2)nc(-c2ccc(Cl)cc2)n1
REMARK SMILES IDX 15 1 14 2 13 3 11 4 12 5 10 6 6 7 7 8 82 9 8 10 9 11 5 12
REMARK SMILES IDX 3 13 4 14 92 15 84 16 83 17 2 18 1 19 85 20 86 21 91 22
REMARK SMILES IDX 87 23 90 24 88 25 89 26 16 27 17 28 18 29 19 30 20 31 81 32
REMARK SMILES IDX 21 33 80 34 22 35 23 36 24 37 74 38 25 39 79 40 73 41 75 42
REMARK SMILES IDX 26 43 78 44 72 45 71 46 27 48 59 49 39 50 58 51 40 52 43 53
REMARK SMILES IDX 57 54 76 55 41 56 42 57 56 59 77 60 44 61 28 62 29 63 37 64
REMARK SMILES IDX 30 65 36 66 38 67 35 68 31 69 32 70 33 71 34 72 60 73 61 74
REMARK SMILES IDX 69 75 62 76 68 77 70 78 67 79 63 80 64 81 65 82 66 83 45 84
REMARK SMILES IDX 46 85 54 86 47 87 53 88 55 89 52 90 48 91 49 92 50 93 51 94
REMARK H PARENT 75 47 43 58
REMARK Flexibility Score: inf
ROOT
ATOM      1  C   UNL A   1      31.627  30.063  26.534  1.00  0.00     0.275 C 
ENDROOT
BRANCH   1   2
ATOM      2  C   UNL A   1      31.590  28.654  27.121  1.00  0.00     0.274 C 
BRANCH   2   3
ATOM      3  O   UNL A   1      32.007  27.684  26.149  1.00  0.00    -0.462 OA
BRANCH   3   4
ATOM      4  C   UNL A   1      31.282  26.544  26.035  1.00  0.00     0.310 C 
ATOM      5  O   UNL A   1      31.296  25.625  26.846  1.00  0.00    -0.252 OA
BRANCH   4   6
ATOM      6  C   UNL A   1      30.422  26.512  24.779  1.00  0.00     0.118 C 
ATOM      7  N   UNL A   1      31.861  25.071  23.431  1.00  0.00    -0.356 N 
ATOM      8  C   UNL A   1      32.208  26.101  22.462  1.00  0.00     0.118 C 
ATOM      9  C   UNL A   1      30.570  25.156  24.104  1.00  0.00     0.133 C 
ATOM     10  C   UNL A   1      31.974  27.507  23.007  1.00  0.00     0.022 C 
ATOM     11  C   UNL A   1      30.655  27.644  23.772  1.00  0.00     0.019 C 
BRANCH   7  12
ATOM     12  C   UNL A   1      32.822  24.223  23.950  1.00  0.00     0.132 A 
ATOM     13  C   UNL A   1      34.884  23.935  25.092  1.00  0.00     0.046 A 
ATOM     14  C   UNL A   1      33.951  24.780  24.530  1.00  0.00     0.070 A 
ATOM     15  N   UNL A   1      34.742  22.601  25.033  1.00  0.00    -0.233 NA
ATOM     16  C   UNL A   1      33.646  22.139  24.401  1.00  0.00     0.161 A 
ATOM     17  N   UNL A   1      32.658  22.893  23.882  1.00  0.00    -0.211 NA
BRANCH  13  18
ATOM     18  C   UNL A   1      36.133  24.457  25.752  1.00  0.00     0.053 C 
ATOM     19  C   UNL A   1      37.402  23.697  25.384  1.00  0.00     0.011 C 
ENDBRANCH  13  18
BRANCH  16  20
ATOM     20  C   UNL A   1      33.596  20.689  24.201  1.00  0.00     0.019 A 
ATOM     21  C   UNL A   1      32.521  20.088  23.526  1.00  0.00     0.013 A 
ATOM     22  C   UNL A   1      34.579  19.852  24.757  1.00  0.00     0.013 A 
ATOM     23  C   UNL A   1      32.437  18.697  23.400  1.00  0.00     0.021 A 
ATOM     24  C   UNL A   1      34.500  18.460  24.635  1.00  0.00     0.021 A 
ATOM     25  C   UNL A   1      33.427  17.890  23.956  1.00  0.00     0.041 A 
ATOM     26  Cl  UNL A   1      33.312  16.178  23.819  1.00  0.00    -0.084 Cl
ENDBRANCH  16  20
ENDBRANCH   7  12
ENDBRANCH   4   6
ENDBRANCH   3   4
ENDBRANCH   2   3
ENDBRANCH   1   2
BRANCH   1  27
ATOM     27  O   UNL A   1      32.979  30.492  26.318  1.00  0.00    -0.458 OA
BRANCH  27  28
ATOM     28  C   UNL A   1      33.373  31.522  27.104  1.00  0.00     0.338 C 
ATOM     29  O   UNL A   1      32.730  32.509  27.414  1.00  0.00    -0.246 OA
BRANCH  28  30
ATOM     30  C   UNL A   1      34.686  31.205  27.675  1.00  0.00     0.060 A 
ATOM     31  C   UNL A   1      34.931  29.883  28.053  1.00  0.00     0.016 A 
ATOM     32  C   UNL A   1      35.632  32.202  27.900  1.00  0.00     0.016 A 
ATOM     33  C   UNL A   1      36.127  29.547  28.673  1.00  0.00     0.010 A 
ATOM     34  C   UNL A   1      36.834  31.864  28.522  1.00  0.00     0.010 A 
ATOM     35  C   UNL A   1      37.080  30.539  28.926  1.00  0.00    -0.014 A 
BRANCH  35  36
ATOM     36  C   UNL A   1      38.298  30.205  29.694  1.00  0.00     0.031 A 
ATOM     37  C   UNL A   1      39.293  29.246  29.108  1.00  0.00     0.074 A 
ATOM     38  C   UNL A   1      38.506  30.762  30.900  1.00  0.00     0.049 A 
ATOM     39  N   UNL A   1      40.357  28.719  29.650  1.00  0.00    -0.248 NA
ATOM     40  C   UNL A   1      39.040  28.818  27.725  1.00  0.00     0.031 C 
ATOM     41  C   UNL A   1      37.624  31.741  31.537  1.00  0.00     0.029 A 
ATOM     42  N   UNL A   1      39.513  30.573  31.809  1.00  0.00    -0.354 N 
ATOM     43  C   UNL A   1      40.888  27.868  28.687  1.00  0.00     0.074 A 
ATOM     44  C   UNL A   1      40.012  27.938  27.537  1.00  0.00     0.031 C 
ATOM     45  C   UNL A   1      38.121  32.053  32.744  1.00  0.00     0.029 A 
ATOM     46  C   UNL A   1      39.322  31.259  32.984  1.00  0.00     0.049 A 
ATOM     47  H   UNL A   1      40.296  30.001  31.636  1.00  0.00     0.167 HD
ATOM     48  C   UNL A   1      42.003  27.100  28.765  1.00  0.00     0.034 A 
ATOM     49  C   UNL A   1      40.014  31.214  34.139  1.00  0.00     0.034 A 
ATOM     50  C   UNL A   1      42.858  27.054  29.928  1.00  0.00     0.049 A 
ATOM     51  C   UNL A   1      41.218  30.315  34.226  1.00  0.00     0.074 A 
ATOM     52  C   UNL A   1      44.027  26.338  30.116  1.00  0.00     0.029 A 
ATOM     53  N   UNL A   1      42.624  27.747  31.112  1.00  0.00    -0.354 N 
ATOM     54  N   UNL A   1      41.712  29.506  33.316  1.00  0.00    -0.248 NA
ATOM     55  C   UNL A   1      41.959  30.323  35.493  1.00  0.00     0.031 C 
ATOM     56  C   UNL A   1      44.462  26.545  31.431  1.00  0.00     0.029 A 
ATOM     57  C   UNL A   1      43.606  27.449  32.044  1.00  0.00     0.049 A 
ATOM     58  H   UNL A   1      41.870  28.361  31.266  1.00  0.00     0.167 HD
ATOM     59  C   UNL A   1      42.831  28.917  33.898  1.00  0.00     0.074 A 
ATOM     60  C   UNL A   1      42.946  29.479  35.230  1.00  0.00     0.031 C 
ATOM     61  C   UNL A   1      43.688  28.001  33.378  1.00  0.00     0.034 A 
BRANCH  48  62
ATOM     62  C   UNL A   1      42.304  26.205  27.586  1.00  0.00     0.023 A 
ATOM     63  C   UNL A   1      41.798  24.895  27.494  1.00  0.00     0.031 A 
ATOM     64  C   UNL A   1      43.172  26.644  26.570  1.00  0.00     0.131 A 
ATOM     65  C   UNL A   1      42.236  24.045  26.467  1.00  0.00     0.055 A 
ATOM     66  C   UNL A   1      43.537  25.820  25.503  1.00  0.00     0.041 A 
ATOM     67  F   UNL A   1      43.706  27.875  26.613  1.00  0.00    -0.206 F 
ATOM     68  C   UNL A   1      43.084  24.506  25.458  1.00  0.00     0.022 A 
BRANCH  65  69
ATOM     69  S   UNL A   1      41.821  22.281  26.566  1.00  0.00     0.124 S 
ATOM     70  O   UNL A   1      42.446  21.899  27.831  1.00  0.00    -0.237 OA
ATOM     71  O   UNL A   1      40.363  22.300  26.554  1.00  0.00    -0.237 OA
ATOM     72  O   UNL A   1      42.448  21.713  25.374  1.00  0.00    -0.744 OA
ENDBRANCH  65  69
ENDBRANCH  48  62
BRANCH  49  73
ATOM     73  C   UNL A   1      39.542  31.996  35.314  1.00  0.00     0.023 A 
ATOM     74  C   UNL A   1      39.997  33.300  35.555  1.00  0.00     0.031 A 
ATOM     75  C   UNL A   1      38.616  31.440  36.216  1.00  0.00     0.131 A 
ATOM     76  C   UNL A   1      39.540  34.001  36.683  1.00  0.00     0.055 A 
ATOM     77  C   UNL A   1      38.133  32.155  37.312  1.00  0.00     0.041 A 
ATOM     78  F   UNL A   1      38.147  30.196  36.025  1.00  0.00    -0.206 F 
ATOM     79  C   UNL A   1      38.600  33.443  37.554  1.00  0.00     0.022 A 
BRANCH  76  80
ATOM     80  S   UNL A   1      40.218  35.649  37.018  1.00  0.00     0.124 S 
ATOM     81  O   UNL A   1      39.702  35.917  38.356  1.00  0.00    -0.237 OA
ATOM     82  O   UNL A   1      41.654  35.413  36.920  1.00  0.00    -0.237 OA
ATOM     83  O   UNL A   1      39.653  36.474  35.952  1.00  0.00    -0.744 OA
ENDBRANCH  76  80
ENDBRANCH  49  73
BRANCH  61  84
ATOM     84  C   UNL A   1      44.841  27.578  34.254  1.00  0.00     0.023 A 
ATOM     85  C   UNL A   1      44.753  26.462  35.104  1.00  0.00     0.031 A 
ATOM     86  C   UNL A   1      46.039  28.314  34.247  1.00  0.00     0.131 A 
ATOM     87  C   UNL A   1      45.825  26.143  35.950  1.00  0.00     0.055 A 
ATOM     88  C   UNL A   1      47.123  27.959  35.050  1.00  0.00     0.041 A 
ATOM     89  F   UNL A   1      46.175  29.391  33.456  1.00  0.00    -0.206 F 
ATOM     90  C   UNL A   1      47.015  26.875  35.917  1.00  0.00     0.022 A 
BRANCH  87  91
ATOM     91  S   UNL A   1      45.614  24.810  37.161  1.00  0.00     0.124 S 
ATOM     92  O   UNL A   1      45.958  25.481  38.412  1.00  0.00    -0.237 OA
ATOM     93  O   UNL A   1      44.210  24.454  36.994  1.00  0.00    -0.237 OA
ATOM     94  O   UNL A   1      46.568  23.793  36.722  1.00  0.00    -0.744 OA
ENDBRANCH  87  91
ENDBRANCH  61  84
ENDBRANCH  35  36
ENDBRANCH  28  30
ENDBRANCH  27  28
ENDBRANCH   1  27
TORSDOF 17
ENDMDL
MODEL 2
REMARK VINA RESULT:     -12.1      4.857      9.993
REMARK SMILES CCc1cc(N2CCC[C@H](C(=O)OCCOC(=O)c3ccc(-c4c5nc(c(-c6cc(S(=O)(=O)[O-])ccc6F)c6ccc([nH]6)c(-c6cc(S(=O)(=O)[O-])ccc6F)c6nc(c(-c7cc(S(=O)(=O)[O-])ccc7F)c7ccc4[nH]7)C=C6)C=C5)cc3)C2)nc(-c2ccc(Cl)cc2)n1
REMARK SMILES IDX 15 1 14 2 13 3 11 4 12 5 10 6 6 7 7 8 82 9 8 10 9 11 5 12
REMARK SMILES IDX 3 13 4 14 92 15 84 16 83 17 2 18 1 19 85 20 86 21 91 22
REMARK SMILES IDX 87 23 90 24 88 25 89 26 16 27 17 28 18 29 19 30 20 31 81 32
REMARK SMILES IDX 21 33 80 34 22 35 23 36 24 37 74 38 25 39 79 40 73 41 75 42
REMARK SMILES IDX 26 43 78 44 72 45 71 46 27 48 59 49 39 50 58 51 40 52 43 53
REMARK SMILES IDX 57 54 76 55 41 56 42 57 56 59 77 60 44 61 28 62 29 63 37 64
REMARK SMILES IDX 30 65 36 66 38 67 35 68 31 69 32 70 33 71 34 72 60 73 61 74
REMARK SMILES IDX 69 75 62 76 68 77 70 78 67 79 63 80 64 81 65 82 66 83 45 84
REMARK SMILES IDX 46 85 54 86 47 87 53 88 55 89 52 90 48 91 49 92 50 93 51 94
REMARK H PARENT 75 47 43 58
REMARK Flexibility Score: inf
ROOT
ATOM      1  C   UNL A   1      36.422  21.420  24.605  1.00  0.00     0.275 C 
ENDROOT
BRANCH   1   2
ATOM      2  C   UNL A   1      36.031  22.651  23.790  1.00  0.00     0.274 C 
BRANCH   2   3
ATOM      3  O   UNL A   1      34.739  23.137  24.186  1.00  0.00    -0.462 OA
BRANCH   3   4
ATOM      4  C   UNL A   1      33.836  23.411  23.213  1.00  0.00     0.310 C 
ATOM      5  O   UNL A   1      33.932  24.336  22.414  1.00  0.00    -0.252 OA
BRANCH   4   6
ATOM      6  C   UNL A   1      32.667  22.437  23.198  1.00  0.00     0.118 C 
ATOM      7  N   UNL A   1      31.103  23.781  24.507  1.00  0.00    -0.356 N 
ATOM      8  C   UNL A   1      31.081  22.881  25.650  1.00  0.00     0.118 C 
ATOM      9  C   UNL A   1      31.362  23.221  23.186  1.00  0.00     0.133 C 
ATOM     10  C   UNL A   1      32.298  21.961  25.683  1.00  0.00     0.022 C 
ATOM     11  C   UNL A   1      32.652  21.383  24.311  1.00  0.00     0.019 C 
BRANCH   7  12
ATOM     12  C   UNL A   1      31.201  25.150  24.675  1.00  0.00     0.132 A 
ATOM     13  C   UNL A   1      32.034  26.997  25.911  1.00  0.00     0.046 A 
ATOM     14  C   UNL A   1      31.894  25.633  25.773  1.00  0.00     0.070 A 
ATOM     15  N   UNL A   1      31.467  27.849  25.042  1.00  0.00    -0.233 NA
ATOM     16  C   UNL A   1      30.762  27.300  24.034  1.00  0.00     0.161 A 
ATOM     17  N   UNL A   1      30.629  25.982  23.791  1.00  0.00    -0.211 NA
BRANCH  13  18
ATOM     18  C   UNL A   1      32.780  27.606  27.070  1.00  0.00     0.053 C 
ATOM     19  C   UNL A   1      33.860  28.603  26.668  1.00  0.00     0.011 C 
ENDBRANCH  13  18
BRANCH  16  20
ATOM     20  C   UNL A   1      30.017  28.244  23.197  1.00  0.00     0.019 A 
ATOM     21  C   UNL A   1      30.683  29.219  22.436  1.00  0.00     0.013 A 
ATOM     22  C   UNL A   1      28.611  28.254  23.202  1.00  0.00     0.013 A 
ATOM     23  C   UNL A   1      29.968  30.165  21.695  1.00  0.00     0.021 A 
ATOM     24  C   UNL A   1      27.891  29.199  22.463  1.00  0.00     0.021 A 
ATOM     25  C   UNL A   1      28.575  30.151  21.713  1.00  0.00     0.041 A 
ATOM     26  Cl  UNL A   1      27.696  31.330  20.818  1.00  0.00    -0.084 Cl
ENDBRANCH  16  20
ENDBRANCH   7  12
ENDBRANCH   4   6
ENDBRANCH   3   4
ENDBRANCH   2   3
ENDBRANCH   1   2
BRANCH   1  27
ATOM     27  O   UNL A   1      37.052  21.802  25.836  1.00  0.00    -0.458 OA
BRANCH  27  28
ATOM     28  C   UNL A   1      38.373  21.512  25.904  1.00  0.00     0.338 C 
ATOM     29  O   UNL A   1      38.947  20.541  25.442  1.00  0.00    -0.246 OA
BRANCH  28  30
ATOM     30  C   UNL A   1      39.076  22.648  26.508  1.00  0.00     0.060 A 
ATOM     31  C   UNL A   1      38.631  23.934  26.195  1.00  0.00     0.016 A 
ATOM     32  C   UNL A   1      40.197  22.454  27.313  1.00  0.00     0.016 A 
ATOM     33  C   UNL A   1      39.312  25.044  26.675  1.00  0.00     0.010 A 
ATOM     34  C   UNL A   1      40.881  23.569  27.798  1.00  0.00     0.010 A 
ATOM     35  C   UNL A   1      40.451  24.868  27.468  1.00  0.00    -0.014 A 
BRANCH  35  36
ATOM     36  C   UNL A   1      41.245  26.045  27.879  1.00  0.00     0.031 A 
ATOM     37  C   UNL A   1      40.580  27.141  28.658  1.00  0.00     0.074 A 
ATOM     38  C   UNL A   1      42.549  26.121  27.557  1.00  0.00     0.049 A 
ATOM     39  N   UNL A   1      41.045  28.310  29.011  1.00  0.00    -0.248 NA
ATOM     40  C   UNL A   1      39.197  26.884  29.084  1.00  0.00     0.031 C 
ATOM     41  C   UNL A   1      43.300  25.089  26.843  1.00  0.00     0.029 A 
ATOM     42  N   UNL A   1      43.465  27.117  27.774  1.00  0.00    -0.354 N 
ATOM     43  C   UNL A   1      40.001  28.945  29.675  1.00  0.00     0.074 A 
ATOM     44  C   UNL A   1      38.875  28.035  29.653  1.00  0.00     0.031 C 
ATOM     45  C   UNL A   1      44.561  25.514  26.664  1.00  0.00     0.029 A 
ATOM     46  C   UNL A   1      44.689  26.864  27.203  1.00  0.00     0.049 A 
ATOM     47  H   UNL A   1      43.265  27.933  28.288  1.00  0.00     0.167 HD
ATOM     48  C   UNL A   1      39.991  30.176  30.245  1.00  0.00     0.034 A 
ATOM     49  C   UNL A   1      45.774  27.654  27.088  1.00  0.00     0.034 A 
ATOM     50  C   UNL A   1      41.134  31.059  30.250  1.00  0.00     0.049 A 
ATOM     51  C   UNL A   1      45.727  29.038  27.679  1.00  0.00     0.074 A 
ATOM     52  C   UNL A   1      41.254  32.315  30.818  1.00  0.00     0.029 A 
ATOM     53  N   UNL A   1      42.355  30.781  29.644  1.00  0.00    -0.354 N 
ATOM     54  N   UNL A   1      44.736  29.638  28.298  1.00  0.00    -0.248 NA
ATOM     55  C   UNL A   1      46.943  29.850  27.558  1.00  0.00     0.031 C 
ATOM     56  C   UNL A   1      42.520  32.821  30.499  1.00  0.00     0.029 A 
ATOM     57  C   UNL A   1      43.220  31.853  29.794  1.00  0.00     0.049 A 
ATOM     58  H   UNL A   1      42.573  29.942  29.176  1.00  0.00     0.167 HD
ATOM     59  C   UNL A   1      45.214  30.896  28.652  1.00  0.00     0.074 A 
ATOM     60  C   UNL A   1      46.587  30.958  28.191  1.00  0.00     0.031 C 
ATOM     61  C   UNL A   1      44.579  31.905  29.302  1.00  0.00     0.034 A 
BRANCH  48  62
ATOM     62  C   UNL A   1      38.683  30.649  30.834  1.00  0.00     0.023 A 
ATOM     63  C   UNL A   1      37.709  31.305  30.061  1.00  0.00     0.031 A 
ATOM     64  C   UNL A   1      38.439  30.505  32.212  1.00  0.00     0.131 A 
ATOM     65  C   UNL A   1      36.585  31.871  30.682  1.00  0.00     0.055 A 
ATOM     66  C   UNL A   1      37.277  30.997  32.811  1.00  0.00     0.041 A 
ATOM     67  F   UNL A   1      39.341  29.909  33.008  1.00  0.00    -0.206 F 
ATOM     68  C   UNL A   1      36.351  31.702  32.048  1.00  0.00     0.022 A 
BRANCH  65  69
ATOM     69  S   UNL A   1      35.525  32.980  29.713  1.00  0.00     0.124 S 
ATOM     70  O   UNL A   1      36.511  33.725  28.931  1.00  0.00    -0.237 OA
ATOM     71  O   UNL A   1      34.693  32.045  28.965  1.00  0.00    -0.237 OA
ATOM     72  O   UNL A   1      34.827  33.764  30.729  1.00  0.00    -0.744 OA
ENDBRANCH  65  69
ENDBRANCH  48  62
BRANCH  49  73
ATOM     73  C   UNL A   1      46.962  27.173  26.332  1.00  0.00     0.023 A 
ATOM     74  C   UNL A   1      48.025  26.524  26.976  1.00  0.00     0.031 A 
ATOM     75  C   UNL A   1      47.043  27.356  24.939  1.00  0.00     0.131 A 
ATOM     76  C   UNL A   1      49.136  26.097  26.230  1.00  0.00     0.055 A 
ATOM     77  C   UNL A   1      48.129  26.893  24.196  1.00  0.00     0.041 A 
ATOM     78  F   UNL A   1      46.047  27.966  24.276  1.00  0.00    -0.206 F 
ATOM     79  C   UNL A   1      49.188  26.264  24.843  1.00  0.00     0.022 A 
BRANCH  76  80
ATOM     80  S   UNL A   1      50.536  25.347  27.104  1.00  0.00     0.124 S 
ATOM     81  O   UNL A   1      51.012  26.461  27.916  1.00  0.00    -0.237 OA
ATOM     82  O   UNL A   1      49.894  24.254  27.826  1.00  0.00    -0.237 OA
ATOM     83  O   UNL A   1      51.430  24.933  26.024  1.00  0.00    -0.744 OA
ENDBRANCH  76  80
ENDBRANCH  49  73
BRANCH  61  84
ATOM     84  C   UNL A   1      45.387  33.149  29.575  1.00  0.00     0.023 A 
ATOM     85  C   UNL A   1      45.430  34.217  28.662  1.00  0.00     0.031 A 
ATOM     86  C   UNL A   1      46.136  33.259  30.760  1.00  0.00     0.131 A 
ATOM     87  C   UNL A   1      46.246  35.327  28.924  1.00  0.00     0.055 A 
ATOM     88  C   UNL A   1      46.902  34.390  31.042  1.00  0.00     0.041 A 
ATOM     89  F   UNL A   1      46.133  32.267  31.665  1.00  0.00    -0.206 F 
ATOM     90  C   UNL A   1      46.970  35.428  30.116  1.00  0.00     0.022 A 
BRANCH  87  91
ATOM     91  S   UNL A   1      46.421  36.603  27.648  1.00  0.00     0.124 S 
ATOM     92  O   UNL A   1      46.559  35.801  26.435  1.00  0.00    -0.237 OA
ATOM     93  O   UNL A   1      45.175  37.350  27.779  1.00  0.00    -0.237 OA
ATOM     94  O   UNL A   1      47.624  37.330  28.050  1.00  0.00    -0.744 OA
ENDBRANCH  87  91
ENDBRANCH  61  84
ENDBRANCH  35  36
ENDBRANCH  28  30
ENDBRANCH  27  28
ENDBRANCH   1  27
TORSDOF 17
ENDMDL
MODEL 3
REMARK VINA RESULT:     -12.1      4.717      9.748
REMARK SMILES CCc1cc(N2CCC[C@H](C(=O)OCCOC(=O)c3ccc(-c4c5nc(c(-c6cc(S(=O)(=O)[O-])ccc6F)c6ccc([nH]6)c(-c6cc(S(=O)(=O)[O-])ccc6F)c6nc(c(-c7cc(S(=O)(=O)[O-])ccc7F)c7ccc4[nH]7)C=C6)C=C5)cc3)C2)nc(-c2ccc(Cl)cc2)n1
REMARK SMILES IDX 15 1 14 2 13 3 11 4 12 5 10 6 6 7 7 8 82 9 8 10 9 11 5 12
REMARK SMILES IDX 3 13 4 14 92 15 84 16 83 17 2 18 1 19 85 20 86 21 91 22
REMARK SMILES IDX 87 23 90 24 88 25 89 26 16 27 17 28 18 29 19 30 20 31 81 32
REMARK SMILES IDX 21 33 80 34 22 35 23 36 24 37 74 38 25 39 79 40 73 41 75 42
REMARK SMILES IDX 26 43 78 44 72 45 71 46 27 48 59 49 39 50 58 51 40 52 43 53
REMARK SMILES IDX 57 54 76 55 41 56 42 57 56 59 77 60 44 61 28 62 29 63 37 64
REMARK SMILES IDX 30 65 36 66 38 67 35 68 31 69 32 70 33 71 34 72 60 73 61 74
REMARK SMILES IDX 69 75 62 76 68 77 70 78 67 79 63 80 64 81 65 82 66 83 45 84
REMARK SMILES IDX 46 85 54 86 47 87 53 88 55 89 52 90 48 91 49 92 50 93 51 94
REMARK H PARENT 75 47 43 58
REMARK Flexibility Score: inf
ROOT
ATOM      1  C   UNL A   1      37.105  21.667  24.292  1.00  0.00     0.275 C 
ENDROOT
BRANCH   1   2
ATOM      2  C   UNL A   1      36.238  22.793  23.734  1.00  0.00     0.274 C 
BRANCH   2   3
ATOM      3  O   UNL A   1      34.851  22.563  24.027  1.00  0.00    -0.462 OA
BRANCH   3   4
ATOM      4  C   UNL A   1      33.931  22.979  23.123  1.00  0.00     0.310 C 
ATOM      5  O   UNL A   1      34.077  23.934  22.368  1.00  0.00    -0.252 OA
BRANCH   4   6
ATOM      6  C   UNL A   1      32.672  22.124  23.124  1.00  0.00     0.118 C 
ATOM      7  N   UNL A   1      31.238  23.652  24.379  1.00  0.00    -0.356 N 
ATOM      8  C   UNL A   1      31.120  22.793  25.547  1.00  0.00     0.118 C 
ATOM      9  C   UNL A   1      31.450  23.031  23.076  1.00  0.00     0.133 C 
ATOM     10  C   UNL A   1      32.240  21.759  25.617  1.00  0.00     0.022 C 
ATOM     11  C   UNL A   1      32.545  21.109  24.266  1.00  0.00     0.019 C 
BRANCH   7  12
ATOM     12  C   UNL A   1      31.470  25.010  24.508  1.00  0.00     0.132 A 
ATOM     13  C   UNL A   1      32.660  26.785  25.543  1.00  0.00     0.046 A 
ATOM     14  C   UNL A   1      32.394  25.435  25.450  1.00  0.00     0.070 A 
ATOM     15  N   UNL A   1      32.004  27.680  24.786  1.00  0.00    -0.233 NA
ATOM     16  C   UNL A   1      31.081  27.189  23.938  1.00  0.00     0.161 A 
ATOM     17  N   UNL A   1      30.805  25.885  23.739  1.00  0.00    -0.211 NA
BRANCH  13  18
ATOM     18  C   UNL A   1      33.657  27.331  26.531  1.00  0.00     0.053 C 
ATOM     19  C   UNL A   1      33.762  28.852  26.541  1.00  0.00     0.011 C 
ENDBRANCH  13  18
BRANCH  16  20
ATOM     20  C   UNL A   1      30.263  28.189  23.246  1.00  0.00     0.019 A 
ATOM     21  C   UNL A   1      28.861  28.120  23.272  1.00  0.00     0.013 A 
ATOM     22  C   UNL A   1      30.863  29.193  22.466  1.00  0.00     0.013 A 
ATOM     23  C   UNL A   1      28.082  29.033  22.552  1.00  0.00     0.021 A 
ATOM     24  C   UNL A   1      30.089  30.107  21.743  1.00  0.00     0.021 A 
ATOM     25  C   UNL A   1      28.701  30.022  21.790  1.00  0.00     0.041 A 
ATOM     26  Cl  UNL A   1      27.742  31.130  20.887  1.00  0.00    -0.084 Cl
ENDBRANCH  16  20
ENDBRANCH   7  12
ENDBRANCH   4   6
ENDBRANCH   3   4
ENDBRANCH   2   3
ENDBRANCH   1   2
BRANCH   1  27
ATOM     27  O   UNL A   1      37.424  21.903  25.671  1.00  0.00    -0.458 OA
BRANCH  27  28
ATOM     28  C   UNL A   1      38.697  21.593  26.013  1.00  0.00     0.338 C 
ATOM     29  O   UNL A   1      39.308  20.570  25.760  1.00  0.00    -0.246 OA
BRANCH  28  30
ATOM     30  C   UNL A   1      39.319  22.768  26.633  1.00  0.00     0.060 A 
ATOM     31  C   UNL A   1      38.801  24.025  26.315  1.00  0.00     0.016 A 
ATOM     32  C   UNL A   1      40.436  22.640  27.456  1.00  0.00     0.016 A 
ATOM     33  C   UNL A   1      39.405  25.173  26.810  1.00  0.00     0.010 A 
ATOM     34  C   UNL A   1      41.042  23.793  27.955  1.00  0.00     0.010 A 
ATOM     35  C   UNL A   1      40.540  25.064  27.621  1.00  0.00    -0.014 A 
BRANCH  35  36
ATOM     36  C   UNL A   1      41.253  26.287  28.048  1.00  0.00     0.031 A 
ATOM     37  C   UNL A   1      40.500  27.355  28.784  1.00  0.00     0.074 A 
ATOM     38  C   UNL A   1      42.563  26.427  27.779  1.00  0.00     0.049 A 
ATOM     39  N   UNL A   1      40.888  28.550  29.140  1.00  0.00    -0.248 NA
ATOM     40  C   UNL A   1      39.115  27.030  29.155  1.00  0.00     0.031 C 
ATOM     41  C   UNL A   1      43.397  25.427  27.112  1.00  0.00     0.029 A 
ATOM     42  N   UNL A   1      43.416  27.472  28.021  1.00  0.00    -0.354 N 
ATOM     43  C   UNL A   1      39.785  29.138  29.751  1.00  0.00     0.074 A 
ATOM     44  C   UNL A   1      38.710  28.169  29.695  1.00  0.00     0.031 C 
ATOM     45  C   UNL A   1      44.641  25.916  26.980  1.00  0.00     0.029 A 
ATOM     46  C   UNL A   1      44.675  27.278  27.505  1.00  0.00     0.049 A 
ATOM     47  H   UNL A   1      43.153  28.282  28.515  1.00  0.00     0.167 HD
ATOM     48  C   UNL A   1      39.687  30.372  30.303  1.00  0.00     0.034 A 
ATOM     49  C   UNL A   1      45.721  28.122  27.424  1.00  0.00     0.034 A 
ATOM     50  C   UNL A   1      40.781  31.314  30.344  1.00  0.00     0.049 A 
ATOM     51  C   UNL A   1      45.578  29.508  27.993  1.00  0.00     0.074 A 
ATOM     52  C   UNL A   1      40.812  32.581  30.899  1.00  0.00     0.029 A 
ATOM     53  N   UNL A   1      42.040  31.094  29.792  1.00  0.00    -0.354 N 
ATOM     54  N   UNL A   1      44.531  30.062  28.563  1.00  0.00    -0.248 NA
ATOM     55  C   UNL A   1      46.754  30.381  27.912  1.00  0.00     0.031 C 
ATOM     56  C   UNL A   1      42.063  33.150  30.625  1.00  0.00     0.029 A 
ATOM     57  C   UNL A   1      42.841  32.211  29.964  1.00  0.00     0.049 A 
ATOM     58  H   UNL A   1      42.321  30.263  29.346  1.00  0.00     0.167 HD
ATOM     59  C   UNL A   1      44.928  31.348  28.919  1.00  0.00     0.074 A 
ATOM     60  C   UNL A   1      46.315  31.477  28.514  1.00  0.00     0.031 C 
ATOM     61  C   UNL A   1      44.215  32.330  29.528  1.00  0.00     0.034 A 
BRANCH  48  62
ATOM     62  C   UNL A   1      38.333  30.783  30.832  1.00  0.00     0.023 A 
ATOM     63  C   UNL A   1      37.364  31.389  30.012  1.00  0.00     0.031 A 
ATOM     64  C   UNL A   1      38.034  30.630  32.197  1.00  0.00     0.131 A 
ATOM     65  C   UNL A   1      36.187  31.902  30.580  1.00  0.00     0.055 A 
ATOM     66  C   UNL A   1      36.824  31.067  32.741  1.00  0.00     0.041 A 
ATOM     67  F   UNL A   1      38.927  30.080  33.035  1.00  0.00    -0.206 F 
ATOM     68  C   UNL A   1      35.900  31.724  31.935  1.00  0.00     0.022 A 
BRANCH  65  69
ATOM     69  S   UNL A   1      35.120  32.957  29.559  1.00  0.00     0.124 S 
ATOM     70  O   UNL A   1      34.123  33.401  30.532  1.00  0.00    -0.237 OA
ATOM     71  O   UNL A   1      36.048  33.977  29.085  1.00  0.00    -0.237 OA
ATOM     72  O   UNL A   1      34.615  32.046  28.535  1.00  0.00    -0.744 OA
ENDBRANCH  65  69
ENDBRANCH  48  62
BRANCH  49  73
ATOM     73  C   UNL A   1      46.964  27.695  26.724  1.00  0.00     0.023 A 
ATOM     74  C   UNL A   1      47.106  27.832  25.336  1.00  0.00     0.031 A 
ATOM     75  C   UNL A   1      48.035  27.142  27.449  1.00  0.00     0.131 A 
ATOM     76  C   UNL A   1      48.288  27.404  24.711  1.00  0.00     0.055 A 
ATOM     77  C   UNL A   1      49.224  26.756  26.829  1.00  0.00     0.041 A 
ATOM     78  F   UNL A   1      47.949  26.995  28.782  1.00  0.00    -0.206 F 
ATOM     79  C   UNL A   1      49.353  26.880  25.450  1.00  0.00     0.022 A 
BRANCH  76  80
ATOM     80  S   UNL A   1      48.405  27.508  22.904  1.00  0.00     0.124 S 
ATOM     81  O   UNL A   1      48.419  26.099  22.525  1.00  0.00    -0.237 OA
ATOM     82  O   UNL A   1      47.198  28.253  22.564  1.00  0.00    -0.237 OA
ATOM     83  O   UNL A   1      49.658  28.227  22.685  1.00  0.00    -0.744 OA
ENDBRANCH  76  80
ENDBRANCH  49  73
BRANCH  61  84
ATOM     84  C   UNL A   1      44.945  33.618  29.817  1.00  0.00     0.023 A 
ATOM     85  C   UNL A   1      45.650  33.815  31.017  1.00  0.00     0.031 A 
ATOM     86  C   UNL A   1      44.921  34.667  28.881  1.00  0.00     0.131 A 
ATOM     87  C   UNL A   1      46.258  35.052  31.273  1.00  0.00     0.055 A 
ATOM     88  C   UNL A   1      45.576  35.876  29.117  1.00  0.00     0.041 A 
ATOM     89  F   UNL A   1      44.260  34.533  27.719  1.00  0.00    -0.206 F 
ATOM     90  C   UNL A   1      46.240  36.078  30.324  1.00  0.00     0.022 A 
BRANCH  87  91
ATOM     91  S   UNL A   1      47.004  35.337  32.902  1.00  0.00     0.124 S 
ATOM     92  O   UNL A   1      47.989  36.374  32.606  1.00  0.00    -0.237 OA
ATOM     93  O   UNL A   1      45.858  35.756  33.701  1.00  0.00    -0.237 OA
ATOM     94  O   UNL A   1      47.564  34.034  33.257  1.00  0.00    -0.744 OA
ENDBRANCH  87  91
ENDBRANCH  61  84
ENDBRANCH  35  36
ENDBRANCH  28  30
ENDBRANCH  27  28
ENDBRANCH   1  27
TORSDOF 17
ENDMDL
