MODEL 1
REMARK VINA RESULT:     -10.2      0.000      0.000
REMARK SMILES C#CCN(CC(=O)OCCOC(=O)c1ccc(-c2c3nc(c(-c4cc(S(=O)(=O)[O-])ccc4F)c4ccc([nH]4)c(-c4cc(S(=O)(=O)[O-])ccc4F)c4nc(c(-c5cc(S(=O)(=O)[O-])ccc5F)c5ccc2[nH]5)C=C4)C=C3)cc1)C(=O)[C@H]1C[NH2+]C[C@H]1C
REMARK SMILES IDX 9 1 8 2 6 3 7 4 5 5 4 6 3 7 2 8 1 9 77 10 78 11 79 12 80 13
REMARK SMILES IDX 83 14 81 15 82 16 84 17 10 20 11 21 12 22 13 23 14 24 15 25
REMARK SMILES IDX 76 26 16 27 75 28 17 29 18 30 19 31 69 32 20 33 74 34 68 35
REMARK SMILES IDX 70 36 21 37 73 38 67 39 66 40 22 42 54 43 34 44 53 45 35 46
REMARK SMILES IDX 38 47 52 48 71 49 36 50 37 51 51 53 72 54 39 55 23 56 24 57
REMARK SMILES IDX 32 58 25 59 31 60 33 61 30 62 26 63 27 64 28 65 29 66 55 67
REMARK SMILES IDX 56 68 64 69 57 70 63 71 65 72 62 73 58 74 59 75 60 76 61 77
REMARK SMILES IDX 40 78 41 79 49 80 42 81 48 82 50 83 47 84 43 85 44 86 45 87
REMARK SMILES IDX 46 88
REMARK H PARENT 81 18 81 19 70 41 38 52
REMARK Flexibility Score: inf
ROOT
ATOM      1  C   UNL A   1      35.866  21.050  24.630  1.00  0.00     0.274 C 
ENDROOT
BRANCH   1   2
ATOM      2  O   UNL A   1      35.453  22.307  25.203  1.00  0.00    -0.461 OA
BRANCH   2   3
ATOM      3  C   UNL A   1      35.385  23.343  24.322  1.00  0.00     0.325 C 
ATOM      4  O   UNL A   1      35.432  23.221  23.102  1.00  0.00    -0.250 OA
BRANCH   3   5
ATOM      5  C   UNL A   1      35.034  24.673  24.982  1.00  0.00     0.243 C 
BRANCH   5   6
ATOM      6  N   UNL A   1      33.768  25.298  24.618  1.00  0.00    -0.320 N 
BRANCH   6   7
ATOM      7  C   UNL A   1      33.819  26.711  24.282  1.00  0.00     0.210 C 
BRANCH   7   8
ATOM      8  C   UNL A   1      33.801  27.488  25.589  1.00  0.00    -0.085 C 
ATOM      9  C   UNL A   1      33.786  28.154  26.709  1.00  0.00     0.006 C 
ENDBRANCH   7   8
ENDBRANCH   6   7
BRANCH   6  10
ATOM     10  C   UNL A   1      32.529  24.685  24.513  1.00  0.00     0.233 C 
ATOM     11  O   UNL A   1      32.061  24.416  23.401  1.00  0.00    -0.274 OA
BRANCH  10  12
ATOM     12  C   UNL A   1      31.726  24.373  25.770  1.00  0.00     0.142 C 
ATOM     13  C   UNL A   1      30.262  24.760  25.562  1.00  0.00     0.274 C 
ATOM     14  C   UNL A   1      31.580  22.927  26.265  1.00  0.00     0.059 C 
ATOM     15  N   UNL A   1      29.577  24.209  26.732  1.00  0.00    -0.345 N 
ATOM     16  C   UNL A   1      30.235  22.928  27.005  1.00  0.00     0.264 C 
ATOM     17  C   UNL A   1      31.614  21.846  25.186  1.00  0.00     0.015 C 
ATOM     18  H   UNL A   1      28.588  24.066  26.530  1.00  0.00     0.346 HD
ATOM     19  H   UNL A   1      29.629  24.841  27.532  1.00  0.00     0.346 HD
ENDBRANCH  10  12
ENDBRANCH   6  10
ENDBRANCH   5   6
ENDBRANCH   3   5
ENDBRANCH   2   3
ENDBRANCH   1   2
BRANCH   1  20
ATOM     20  C   UNL A   1      37.237  20.623  25.156  1.00  0.00     0.275 C 
BRANCH  20  21
ATOM     21  O   UNL A   1      38.135  21.748  25.227  1.00  0.00    -0.458 OA
BRANCH  21  22
ATOM     22  C   UNL A   1      39.199  21.568  26.044  1.00  0.00     0.338 C 
ATOM     23  O   UNL A   1      39.780  20.518  26.266  1.00  0.00    -0.246 OA
BRANCH  22  24
ATOM     24  C   UNL A   1      39.616  22.824  26.694  1.00  0.00     0.060 A 
ATOM     25  C   UNL A   1      39.088  24.061  26.316  1.00  0.00     0.016 A 
ATOM     26  C   UNL A   1      40.695  22.760  27.578  1.00  0.00     0.016 A 
ATOM     27  C   UNL A   1      39.714  25.237  26.742  1.00  0.00     0.010 A 
ATOM     28  C   UNL A   1      41.267  23.935  28.064  1.00  0.00     0.010 A 
ATOM     29  C   UNL A   1      40.810  25.185  27.619  1.00  0.00    -0.014 A 
BRANCH  29  30
ATOM     30  C   UNL A   1      41.470  26.417  28.122  1.00  0.00     0.031 A 
ATOM     31  C   UNL A   1      40.672  27.506  28.791  1.00  0.00     0.074 A 
ATOM     32  C   UNL A   1      42.787  26.584  27.911  1.00  0.00     0.049 A 
ATOM     33  N   UNL A   1      41.047  28.704  29.163  1.00  0.00    -0.248 NA
ATOM     34  C   UNL A   1      39.269  27.202  29.094  1.00  0.00     0.031 C 
ATOM     35  C   UNL A   1      43.675  25.594  27.299  1.00  0.00     0.029 A 
ATOM     36  N   UNL A   1      43.600  27.661  28.152  1.00  0.00    -0.354 N 
ATOM     37  C   UNL A   1      39.932  29.286  29.761  1.00  0.00     0.074 A 
ATOM     38  C   UNL A   1      38.860  28.318  29.681  1.00  0.00     0.031 C 
ATOM     39  C   UNL A   1      44.903  26.120  27.184  1.00  0.00     0.029 A 
ATOM     40  C   UNL A   1      44.869  27.503  27.648  1.00  0.00     0.049 A 
ATOM     41  H   UNL A   1      43.306  28.466  28.636  1.00  0.00     0.167 HD
ATOM     42  C   UNL A   1      39.813  30.516  30.317  1.00  0.00     0.034 A 
ATOM     43  C   UNL A   1      45.873  28.389  27.508  1.00  0.00     0.034 A 
ATOM     44  C   UNL A   1      40.868  31.499  30.326  1.00  0.00     0.049 A 
ATOM     45  C   UNL A   1      45.673  29.799  27.980  1.00  0.00     0.074 A 
ATOM     46  C   UNL A   1      40.857  32.779  30.854  1.00  0.00     0.029 A 
ATOM     47  N   UNL A   1      42.117  31.319  29.747  1.00  0.00    -0.354 N 
ATOM     48  N   UNL A   1      44.615  30.338  28.540  1.00  0.00    -0.248 NA
ATOM     49  C   UNL A   1      46.799  30.722  27.794  1.00  0.00     0.031 C 
ATOM     50  C   UNL A   1      42.075  33.394  30.537  1.00  0.00     0.029 A 
ATOM     51  C   UNL A   1      42.869  32.478  29.864  1.00  0.00     0.049 A 
ATOM     52  H   UNL A   1      42.424  30.489  29.317  1.00  0.00     0.167 HD
ATOM     53  C   UNL A   1      44.953  31.663  28.787  1.00  0.00     0.074 A 
ATOM     54  C   UNL A   1      46.314  31.839  28.319  1.00  0.00     0.031 C 
ATOM     55  C   UNL A   1      44.210  32.643  29.361  1.00  0.00     0.034 A 
BRANCH  42  56
ATOM     56  C   UNL A   1      38.474  30.886  30.903  1.00  0.00     0.023 A 
ATOM     57  C   UNL A   1      37.483  31.522  30.134  1.00  0.00     0.031 A 
ATOM     58  C   UNL A   1      38.186  30.598  32.248  1.00  0.00     0.131 A 
ATOM     59  C   UNL A   1      36.261  31.876  30.725  1.00  0.00     0.055 A 
ATOM     60  C   UNL A   1      36.952  30.916  32.820  1.00  0.00     0.041 A 
ATOM     61  F   UNL A   1      39.103  30.009  33.030  1.00  0.00    -0.206 F 
ATOM     62  C   UNL A   1      35.983  31.566  32.059  1.00  0.00     0.022 A 
BRANCH  59  63
ATOM     63  S   UNL A   1      35.059  32.827  29.750  1.00  0.00     0.124 S 
ATOM     64  O   UNL A   1      34.137  33.293  30.781  1.00  0.00    -0.237 OA
ATOM     65  O   UNL A   1      35.897  33.848  29.132  1.00  0.00    -0.237 OA
ATOM     66  O   UNL A   1      34.506  31.835  28.829  1.00  0.00    -0.744 OA
ENDBRANCH  59  63
ENDBRANCH  42  56
BRANCH  43  67
ATOM     67  C   UNL A   1      47.113  27.974  26.803  1.00  0.00     0.023 A 
ATOM     68  C   UNL A   1      47.187  27.967  25.404  1.00  0.00     0.031 A 
ATOM     69  C   UNL A   1      48.258  27.608  27.535  1.00  0.00     0.131 A 
ATOM     70  C   UNL A   1      48.385  27.591  24.777  1.00  0.00     0.055 A 
ATOM     71  C   UNL A   1      49.456  27.270  26.907  1.00  0.00     0.041 A 
ATOM     72  F   UNL A   1      48.234  27.611  28.877  1.00  0.00    -0.206 F 
ATOM     73  C   UNL A   1      49.522  27.256  25.519  1.00  0.00     0.022 A 
BRANCH  70  74
ATOM     74  S   UNL A   1      48.431  27.519  22.966  1.00  0.00     0.124 S 
ATOM     75  O   UNL A   1      49.705  28.167  22.673  1.00  0.00    -0.237 OA
ATOM     76  O   UNL A   1      48.370  26.082  22.719  1.00  0.00    -0.237 OA
ATOM     77  O   UNL A   1      47.243  28.267  22.564  1.00  0.00    -0.744 OA
ENDBRANCH  70  74
ENDBRANCH  43  67
BRANCH  55  78
ATOM     78  C   UNL A   1      44.879  33.980  29.529  1.00  0.00     0.023 A 
ATOM     79  C   UNL A   1      44.860  34.942  28.504  1.00  0.00     0.031 A 
ATOM     80  C   UNL A   1      45.572  34.279  30.714  1.00  0.00     0.131 A 
ATOM     81  C   UNL A   1      45.565  36.143  28.666  1.00  0.00     0.055 A 
ATOM     82  C   UNL A   1      46.234  35.494  30.887  1.00  0.00     0.041 A 
ATOM     83  F   UNL A   1      45.619  33.389  31.718  1.00  0.00    -0.206 F 
ATOM     84  C   UNL A   1      46.242  36.429  29.855  1.00  0.00     0.022 A 
BRANCH  81  85
ATOM     85  S   UNL A   1      45.651  37.298  27.271  1.00  0.00     0.124 S 
ATOM     86  O   UNL A   1      46.536  38.335  27.790  1.00  0.00    -0.237 OA
ATOM     87  O   UNL A   1      46.202  36.464  26.207  1.00  0.00    -0.237 OA
ATOM     88  O   UNL A   1      44.261  37.708  27.079  1.00  0.00    -0.744 OA
ENDBRANCH  81  85
ENDBRANCH  55  78
ENDBRANCH  29  30
ENDBRANCH  22  24
ENDBRANCH  21  22
ENDBRANCH  20  21
ENDBRANCH   1  20
TORSDOF 19
ENDMDL
MODEL 2
REMARK VINA RESULT:     -10.1      1.772      2.570
REMARK SMILES C#CCN(CC(=O)OCCOC(=O)c1ccc(-c2c3nc(c(-c4cc(S(=O)(=O)[O-])ccc4F)c4ccc([nH]4)c(-c4cc(S(=O)(=O)[O-])ccc4F)c4nc(c(-c5cc(S(=O)(=O)[O-])ccc5F)c5ccc2[nH]5)C=C4)C=C3)cc1)C(=O)[C@H]1C[NH2+]C[C@H]1C
REMARK SMILES IDX 9 1 8 2 6 3 7 4 5 5 4 6 3 7 2 8 1 9 77 10 78 11 79 12 80 13
REMARK SMILES IDX 83 14 81 15 82 16 84 17 10 20 11 21 12 22 13 23 14 24 15 25
REMARK SMILES IDX 76 26 16 27 75 28 17 29 18 30 19 31 69 32 20 33 74 34 68 35
REMARK SMILES IDX 70 36 21 37 73 38 67 39 66 40 22 42 54 43 34 44 53 45 35 46
REMARK SMILES IDX 38 47 52 48 71 49 36 50 37 51 51 53 72 54 39 55 23 56 24 57
REMARK SMILES IDX 32 58 25 59 31 60 33 61 30 62 26 63 27 64 28 65 29 66 55 67
REMARK SMILES IDX 56 68 64 69 57 70 63 71 65 72 62 73 58 74 59 75 60 76 61 77
REMARK SMILES IDX 40 78 41 79 49 80 42 81 48 82 50 83 47 84 43 85 44 86 45 87
REMARK SMILES IDX 46 88
REMARK H PARENT 81 18 81 19 70 41 38 52
REMARK Flexibility Score: inf
ROOT
ATOM      1  C   UNL A   1      35.188  21.030  25.379  1.00  0.00     0.274 C 
ENDROOT
BRANCH   1   2
ATOM      2  O   UNL A   1      35.225  22.463  25.531  1.00  0.00    -0.461 OA
BRANCH   2   3
ATOM      3  C   UNL A   1      34.006  23.058  25.647  1.00  0.00     0.325 C 
ATOM      4  O   UNL A   1      33.070  22.601  26.296  1.00  0.00    -0.250 OA
BRANCH   3   5
ATOM      5  C   UNL A   1      33.963  24.466  25.061  1.00  0.00     0.243 C 
BRANCH   5   6
ATOM      6  N   UNL A   1      32.692  25.177  25.097  1.00  0.00    -0.320 N 
BRANCH   6   7
ATOM      7  C   UNL A   1      31.851  25.054  23.918  1.00  0.00     0.210 C 
BRANCH   7   8
ATOM      8  C   UNL A   1      32.618  25.654  22.749  1.00  0.00    -0.085 C 
ATOM      9  C   UNL A   1      33.275  26.169  21.749  1.00  0.00     0.006 C 
ENDBRANCH   7   8
ENDBRANCH   6   7
BRANCH   6  10
ATOM     10  C   UNL A   1      32.175  25.922  26.146  1.00  0.00     0.233 C 
ATOM     11  O   UNL A   1      31.287  25.448  26.865  1.00  0.00    -0.274 OA
BRANCH  10  12
ATOM     12  C   UNL A   1      32.676  27.339  26.393  1.00  0.00     0.142 C 
ATOM     13  C   UNL A   1      33.965  27.579  25.609  1.00  0.00     0.274 C 
ATOM     14  C   UNL A   1      31.837  28.550  25.958  1.00  0.00     0.059 C 
ATOM     15  N   UNL A   1      34.208  29.016  25.750  1.00  0.00    -0.345 N 
ATOM     16  C   UNL A   1      32.884  29.644  25.699  1.00  0.00     0.264 C 
ATOM     17  C   UNL A   1      30.946  28.339  24.736  1.00  0.00     0.015 C 
ATOM     18  H   UNL A   1      34.793  29.355  24.987  1.00  0.00     0.346 HD
ATOM     19  H   UNL A   1      34.697  29.233  26.619  1.00  0.00     0.346 HD
ENDBRANCH  10  12
ENDBRANCH   6  10
ENDBRANCH   5   6
ENDBRANCH   3   5
ENDBRANCH   2   3
ENDBRANCH   1   2
BRANCH   1  20
ATOM     20  C   UNL A   1      36.574  20.469  25.055  1.00  0.00     0.275 C 
BRANCH  20  21
ATOM     21  O   UNL A   1      37.559  21.521  25.014  1.00  0.00    -0.458 OA
BRANCH  21  22
ATOM     22  C   UNL A   1      38.679  21.272  25.732  1.00  0.00     0.338 C 
ATOM     23  O   UNL A   1      39.236  20.195  25.865  1.00  0.00    -0.246 OA
BRANCH  22  24
ATOM     24  C   UNL A   1      39.194  22.486  26.391  1.00  0.00     0.060 A 
ATOM     25  C   UNL A   1      38.704  23.757  26.083  1.00  0.00     0.016 A 
ATOM     26  C   UNL A   1      40.320  22.344  27.205  1.00  0.00     0.016 A 
ATOM     27  C   UNL A   1      39.410  24.889  26.504  1.00  0.00     0.010 A 
ATOM     28  C   UNL A   1      40.975  23.475  27.690  1.00  0.00     0.010 A 
ATOM     29  C   UNL A   1      40.553  24.758  27.311  1.00  0.00    -0.014 A 
BRANCH  29  30
ATOM     30  C   UNL A   1      41.299  25.942  27.808  1.00  0.00     0.031 A 
ATOM     31  C   UNL A   1      40.586  27.078  28.493  1.00  0.00     0.074 A 
ATOM     32  C   UNL A   1      42.622  26.022  27.578  1.00  0.00     0.049 A 
ATOM     33  N   UNL A   1      41.044  28.246  28.864  1.00  0.00    -0.248 NA
ATOM     34  C   UNL A   1      39.170  26.865  28.815  1.00  0.00     0.031 C 
ATOM     35  C   UNL A   1      43.434  24.978  26.949  1.00  0.00     0.029 A 
ATOM     36  N   UNL A   1      43.508  27.042  27.811  1.00  0.00    -0.354 N 
ATOM     37  C   UNL A   1      39.979  28.898  29.480  1.00  0.00     0.074 A 
ATOM     38  C   UNL A   1      38.844  28.003  29.412  1.00  0.00     0.031 C 
ATOM     39  C   UNL A   1      44.692  25.423  26.818  1.00  0.00     0.029 A 
ATOM     40  C   UNL A   1      44.756  26.803  27.287  1.00  0.00     0.049 A 
ATOM     41  H   UNL A   1      43.274  27.863  28.302  1.00  0.00     0.167 HD
ATOM     42  C   UNL A   1      39.949  30.130  30.042  1.00  0.00     0.034 A 
ATOM     43  C   UNL A   1      45.813  27.622  27.135  1.00  0.00     0.034 A 
ATOM     44  C   UNL A   1      41.066  31.042  30.039  1.00  0.00     0.049 A 
ATOM     45  C   UNL A   1      45.714  29.040  27.616  1.00  0.00     0.074 A 
ATOM     46  C   UNL A   1      41.149  32.317  30.572  1.00  0.00     0.029 A 
ATOM     47  N   UNL A   1      42.293  30.783  29.441  1.00  0.00    -0.354 N 
ATOM     48  N   UNL A   1      44.703  29.644  28.194  1.00  0.00    -0.248 NA
ATOM     49  C   UNL A   1      46.896  29.887  27.416  1.00  0.00     0.031 C 
ATOM     50  C   UNL A   1      42.400  32.852  30.239  1.00  0.00     0.029 A 
ATOM     51  C   UNL A   1      43.121  31.888  29.551  1.00  0.00     0.049 A 
ATOM     52  H   UNL A   1      42.538  29.936  29.004  1.00  0.00     0.167 HD
ATOM     53  C   UNL A   1      45.131  30.943  28.440  1.00  0.00     0.074 A 
ATOM     54  C   UNL A   1      46.494  31.031  27.952  1.00  0.00     0.031 C 
ATOM     55  C   UNL A   1      44.463  31.968  29.029  1.00  0.00     0.034 A 
BRANCH  42  56
ATOM     56  C   UNL A   1      38.647  30.585  30.650  1.00  0.00     0.023 A 
ATOM     57  C   UNL A   1      37.704  31.320  29.908  1.00  0.00     0.031 A 
ATOM     58  C   UNL A   1      38.344  30.279  31.988  1.00  0.00     0.131 A 
ATOM     59  C   UNL A   1      36.516  31.750  30.519  1.00  0.00     0.055 A 
ATOM     60  C   UNL A   1      37.141  30.674  32.578  1.00  0.00     0.041 A 
ATOM     61  F   UNL A   1      39.217  29.596  32.744  1.00  0.00    -0.206 F 
ATOM     62  C   UNL A   1      36.223  31.421  31.845  1.00  0.00     0.022 A 
BRANCH  59  63
ATOM     63  S   UNL A   1      35.387  32.820  29.583  1.00  0.00     0.124 S 
ATOM     64  O   UNL A   1      35.395  32.188  28.267  1.00  0.00    -0.237 OA
ATOM     65  O   UNL A   1      34.146  32.703  30.341  1.00  0.00    -0.237 OA
ATOM     66  O   UNL A   1      36.031  34.131  29.642  1.00  0.00    -0.744 OA
ENDBRANCH  59  63
ENDBRANCH  42  56
BRANCH  43  67
ATOM     67  C   UNL A   1      47.013  27.130  26.410  1.00  0.00     0.023 A 
ATOM     68  C   UNL A   1      48.055  26.479  27.084  1.00  0.00     0.031 A 
ATOM     69  C   UNL A   1      47.112  27.281  25.014  1.00  0.00     0.131 A 
ATOM     70  C   UNL A   1      49.160  26.008  26.359  1.00  0.00     0.055 A 
ATOM     71  C   UNL A   1      48.195  26.780  24.294  1.00  0.00     0.041 A 
ATOM     72  F   UNL A   1      46.132  27.890  24.327  1.00  0.00    -0.206 F 
ATOM     73  C   UNL A   1      49.231  26.143  24.968  1.00  0.00     0.022 A 
BRANCH  70  74
ATOM     74  S   UNL A   1      50.527  25.235  27.264  1.00  0.00     0.124 S 
ATOM     75  O   UNL A   1      50.988  26.333  28.106  1.00  0.00    -0.237 OA
ATOM     76  O   UNL A   1      49.852  24.139  27.952  1.00  0.00    -0.237 OA
ATOM     77  O   UNL A   1      51.449  24.828  26.207  1.00  0.00    -0.744 OA
ENDBRANCH  70  74
ENDBRANCH  43  67
BRANCH  55  78
ATOM     78  C   UNL A   1      45.220  33.257  29.191  1.00  0.00     0.023 A 
ATOM     79  C   UNL A   1      45.278  34.207  28.158  1.00  0.00     0.031 A 
ATOM     80  C   UNL A   1      45.920  33.519  30.381  1.00  0.00     0.131 A 
ATOM     81  C   UNL A   1      46.063  35.358  28.316  1.00  0.00     0.055 A 
ATOM     82  C   UNL A   1      46.663  34.686  30.550  1.00  0.00     0.041 A 
ATOM     83  F   UNL A   1      45.897  32.637  31.394  1.00  0.00    -0.206 F 
ATOM     84  C   UNL A   1      46.747  35.608  29.510  1.00  0.00     0.022 A 
BRANCH  81  85
ATOM     85  S   UNL A   1      46.242  36.491  26.912  1.00  0.00     0.124 S 
ATOM     86  O   UNL A   1      45.065  37.341  27.055  1.00  0.00    -0.237 OA
ATOM     87  O   UNL A   1      47.526  37.129  27.186  1.00  0.00    -0.237 OA
ATOM     88  O   UNL A   1      46.228  35.604  25.751  1.00  0.00    -0.744 OA
ENDBRANCH  81  85
ENDBRANCH  55  78
ENDBRANCH  29  30
ENDBRANCH  22  24
ENDBRANCH  21  22
ENDBRANCH  20  21
ENDBRANCH   1  20
TORSDOF 19
ENDMDL
MODEL 3
REMARK VINA RESULT:     -10.1      5.246     10.125
REMARK SMILES C#CCN(CC(=O)OCCOC(=O)c1ccc(-c2c3nc(c(-c4cc(S(=O)(=O)[O-])ccc4F)c4ccc([nH]4)c(-c4cc(S(=O)(=O)[O-])ccc4F)c4nc(c(-c5cc(S(=O)(=O)[O-])ccc5F)c5ccc2[nH]5)C=C4)C=C3)cc1)C(=O)[C@H]1C[NH2+]C[C@H]1C
REMARK SMILES IDX 9 1 8 2 6 3 7 4 5 5 4 6 3 7 2 8 1 9 77 10 78 11 79 12 80 13
REMARK SMILES IDX 83 14 81 15 82 16 84 17 10 20 11 21 12 22 13 23 14 24 15 25
REMARK SMILES IDX 76 26 16 27 75 28 17 29 18 30 19 31 69 32 20 33 74 34 68 35
REMARK SMILES IDX 70 36 21 37 73 38 67 39 66 40 22 42 54 43 34 44 53 45 35 46
REMARK SMILES IDX 38 47 52 48 71 49 36 50 37 51 51 53 72 54 39 55 23 56 24 57
REMARK SMILES IDX 32 58 25 59 31 60 33 61 30 62 26 63 27 64 28 65 29 66 55 67
REMARK SMILES IDX 56 68 64 69 57 70 63 71 65 72 62 73 58 74 59 75 60 76 61 77
REMARK SMILES IDX 40 78 41 79 49 80 42 81 48 82 50 83 47 84 43 85 44 86 45 87
REMARK SMILES IDX 46 88
REMARK H PARENT 81 18 81 19 70 41 38 52
REMARK Flexibility Score: inf
ROOT
ATOM      1  C   UNL A   1      32.848  28.468  25.593  1.00  0.00     0.274 C 
ENDROOT
BRANCH   1   2
ATOM      2  O   UNL A   1      31.751  27.661  25.120  1.00  0.00    -0.461 OA
BRANCH   2   3
ATOM      3  C   UNL A   1      31.187  26.854  26.061  1.00  0.00     0.325 C 
ATOM      4  O   UNL A   1      31.255  27.046  27.271  1.00  0.00    -0.250 OA
BRANCH   3   5
ATOM      5  C   UNL A   1      30.275  25.784  25.469  1.00  0.00     0.243 C 
BRANCH   5   6
ATOM      6  N   UNL A   1      30.803  24.431  25.352  1.00  0.00    -0.320 N 
BRANCH   6   7
ATOM      7  C   UNL A   1      30.748  23.828  24.031  1.00  0.00     0.210 C 
BRANCH   7   8
ATOM      8  C   UNL A   1      31.491  24.754  23.080  1.00  0.00    -0.085 C 
ATOM      9  C   UNL A   1      32.127  25.547  22.265  1.00  0.00     0.006 C 
ENDBRANCH   7   8
ENDBRANCH   6   7
BRANCH   6  10
ATOM     10  C   UNL A   1      31.392  23.670  26.352  1.00  0.00     0.233 C 
ATOM     11  O   UNL A   1      30.738  23.341  27.348  1.00  0.00    -0.274 OA
BRANCH  10  12
ATOM     12  C   UNL A   1      32.858  23.270  26.239  1.00  0.00     0.142 C 
ATOM     13  C   UNL A   1      33.394  22.865  27.612  1.00  0.00     0.274 C 
ATOM     14  C   UNL A   1      33.273  22.059  25.392  1.00  0.00     0.059 C 
ATOM     15  N   UNL A   1      34.713  22.299  27.327  1.00  0.00    -0.345 N 
ATOM     16  C   UNL A   1      34.563  21.568  26.066  1.00  0.00     0.264 C 
ATOM     17  C   UNL A   1      32.244  20.936  25.285  1.00  0.00     0.015 C 
ATOM     18  H   UNL A   1      34.997  21.666  28.075  1.00  0.00     0.346 HD
ATOM     19  H   UNL A   1      35.429  23.023  27.263  1.00  0.00     0.346 HD
ENDBRANCH  10  12
ENDBRANCH   6  10
ENDBRANCH   5   6
ENDBRANCH   3   5
ENDBRANCH   2   3
ENDBRANCH   1   2
BRANCH   1  20
ATOM     20  C   UNL A   1      32.436  29.933  25.747  1.00  0.00     0.275 C 
BRANCH  20  21
ATOM     21  O   UNL A   1      32.487  30.340  27.129  1.00  0.00    -0.458 OA
BRANCH  21  22
ATOM     22  C   UNL A   1      33.262  31.423  27.368  1.00  0.00     0.338 C 
ATOM     23  O   UNL A   1      32.952  32.593  27.207  1.00  0.00    -0.246 OA
BRANCH  22  24
ATOM     24  C   UNL A   1      34.600  31.048  27.859  1.00  0.00     0.060 A 
ATOM     25  C   UNL A   1      34.869  29.776  28.371  1.00  0.00     0.016 A 
ATOM     26  C   UNL A   1      35.551  32.066  27.968  1.00  0.00     0.016 A 
ATOM     27  C   UNL A   1      36.049  29.557  29.088  1.00  0.00     0.010 A 
ATOM     28  C   UNL A   1      36.762  31.820  28.614  1.00  0.00     0.010 A 
ATOM     29  C   UNL A   1      37.006  30.577  29.217  1.00  0.00    -0.014 A 
BRANCH  29  30
ATOM     30  C   UNL A   1      38.288  30.361  29.937  1.00  0.00     0.031 A 
ATOM     31  C   UNL A   1      39.310  29.381  29.425  1.00  0.00     0.074 A 
ATOM     32  C   UNL A   1      38.499  31.005  31.099  1.00  0.00     0.049 A 
ATOM     33  N   UNL A   1      40.413  28.958  29.988  1.00  0.00    -0.248 NA
ATOM     34  C   UNL A   1      39.065  28.810  28.095  1.00  0.00     0.031 C 
ATOM     35  C   UNL A   1      37.600  31.999  31.688  1.00  0.00     0.029 A 
ATOM     36  N   UNL A   1      39.517  30.891  32.009  1.00  0.00    -0.354 N 
ATOM     37  C   UNL A   1      41.002  28.089  29.073  1.00  0.00     0.074 A 
ATOM     38  C   UNL A   1      40.121  28.026  27.927  1.00  0.00     0.031 C 
ATOM     39  C   UNL A   1      38.090  32.381  32.876  1.00  0.00     0.029 A 
ATOM     40  C   UNL A   1      39.295  31.610  33.160  1.00  0.00     0.049 A 
ATOM     41  H   UNL A   1      40.325  30.349  31.856  1.00  0.00     0.167 HD
ATOM     42  C   UNL A   1      42.164  27.401  29.183  1.00  0.00     0.034 A 
ATOM     43  C   UNL A   1      39.944  31.598  34.339  1.00  0.00     0.034 A 
ATOM     44  C   UNL A   1      42.997  27.414  30.359  1.00  0.00     0.049 A 
ATOM     45  C   UNL A   1      41.140  30.707  34.506  1.00  0.00     0.074 A 
ATOM     46  C   UNL A   1      44.191  26.751  30.585  1.00  0.00     0.029 A 
ATOM     47  N   UNL A   1      42.701  28.107  31.526  1.00  0.00    -0.354 N 
ATOM     48  N   UNL A   1      41.684  29.888  33.636  1.00  0.00    -0.248 NA
ATOM     49  C   UNL A   1      41.802  30.731  35.815  1.00  0.00     0.031 C 
ATOM     50  C   UNL A   1      44.582  26.991  31.909  1.00  0.00     0.029 A 
ATOM     51  C   UNL A   1      43.664  27.851  32.490  1.00  0.00     0.049 A 
ATOM     52  H   UNL A   1      41.921  28.694  31.650  1.00  0.00     0.167 HD
ATOM     53  C   UNL A   1      42.765  29.308  34.289  1.00  0.00     0.074 A 
ATOM     54  C   UNL A   1      42.797  29.875  35.624  1.00  0.00     0.031 C 
ATOM     55  C   UNL A   1      43.659  28.399  33.824  1.00  0.00     0.034 A 
BRANCH  42  56
ATOM     56  C   UNL A   1      42.566  26.527  28.021  1.00  0.00     0.023 A 
ATOM     57  C   UNL A   1      42.253  25.156  27.988  1.00  0.00     0.031 A 
ATOM     58  C   UNL A   1      43.270  27.073  26.935  1.00  0.00     0.131 A 
ATOM     59  C   UNL A   1      42.671  24.371  26.902  1.00  0.00     0.055 A 
ATOM     60  C   UNL A   1      43.648  26.295  25.838  1.00  0.00     0.041 A 
ATOM     61  F   UNL A   1      43.610  28.371  26.926  1.00  0.00    -0.206 F 
ATOM     62  C   UNL A   1      43.355  24.934  25.821  1.00  0.00     0.022 A 
BRANCH  59  63
ATOM     63  S   UNL A   1      42.382  22.579  26.954  1.00  0.00     0.124 S 
ATOM     64  O   UNL A   1      43.675  22.054  26.524  1.00  0.00    -0.237 OA
ATOM     65  O   UNL A   1      42.037  22.360  28.354  1.00  0.00    -0.237 OA
ATOM     66  O   UNL A   1      41.289  22.381  26.005  1.00  0.00    -0.744 OA
ENDBRANCH  59  63
ENDBRANCH  42  56
BRANCH  43  67
ATOM     67  C   UNL A   1      39.405  32.394  35.471  1.00  0.00     0.023 A 
ATOM     68  C   UNL A   1      38.645  31.795  36.485  1.00  0.00     0.031 A 
ATOM     69  C   UNL A   1      39.676  33.771  35.566  1.00  0.00     0.131 A 
ATOM     70  C   UNL A   1      38.174  32.577  37.550  1.00  0.00     0.055 A 
ATOM     71  C   UNL A   1      39.236  34.537  36.644  1.00  0.00     0.041 A 
ATOM     72  F   UNL A   1      40.409  34.384  34.622  1.00  0.00    -0.206 F 
ATOM     73  C   UNL A   1      38.475  33.940  37.643  1.00  0.00     0.022 A 
BRANCH  70  74
ATOM     74  S   UNL A   1      37.132  31.793  38.809  1.00  0.00     0.124 S 
ATOM     75  O   UNL A   1      37.972  31.891  39.997  1.00  0.00    -0.237 OA
ATOM     76  O   UNL A   1      35.944  32.641  38.789  1.00  0.00    -0.237 OA
ATOM     77  O   UNL A   1      36.935  30.440  38.293  1.00  0.00    -0.744 OA
ENDBRANCH  70  74
ENDBRANCH  43  67
BRANCH  55  78
ATOM     78  C   UNL A   1      44.754  27.990  34.771  1.00  0.00     0.023 A 
ATOM     79  C   UNL A   1      44.523  27.065  35.802  1.00  0.00     0.031 A 
ATOM     80  C   UNL A   1      46.033  28.562  34.659  1.00  0.00     0.131 A 
ATOM     81  C   UNL A   1      45.546  26.772  36.715  1.00  0.00     0.055 A 
ATOM     82  C   UNL A   1      47.059  28.234  35.544  1.00  0.00     0.041 A 
ATOM     83  F   UNL A   1      46.298  29.454  33.692  1.00  0.00    -0.206 F 
ATOM     84  C   UNL A   1      46.815  27.343  36.585  1.00  0.00     0.022 A 
BRANCH  81  85
ATOM     85  S   UNL A   1      45.174  25.693  38.124  1.00  0.00     0.124 S 
ATOM     86  O   UNL A   1      46.505  25.425  38.660  1.00  0.00    -0.237 OA
ATOM     87  O   UNL A   1      44.314  26.537  38.947  1.00  0.00    -0.237 OA
ATOM     88  O   UNL A   1      44.510  24.545  37.511  1.00  0.00    -0.744 OA
ENDBRANCH  81  85
ENDBRANCH  55  78
ENDBRANCH  29  30
ENDBRANCH  22  24
ENDBRANCH  21  22
ENDBRANCH  20  21
ENDBRANCH   1  20
TORSDOF 19
ENDMDL
