MODEL 1
REMARK VINA RESULT:     -10.5      0.000      0.000
REMARK SMILES CC[C@@](O)(C(=O)OCCOC(=O)c1ccc(-c2c3nc(c(-c4cc(S(=O)(=O)[O-])ccc4F)c4ccc([nH]4)c(-c4cc(S(=O)(=O)[O-])ccc4F)c4nc(c(-c5cc(S(=O)(=O)[O-])ccc5F)c5ccc2[nH]5)C=C4)C=C3)cc1)[C@@H]1CCc2ccc(OC)cc21
REMARK SMILES IDX 9 1 8 2 7 3 5 4 6 5 3 6 2 7 1 8 4 9 76 11 77 12 86 13 78 14
REMARK SMILES IDX 79 15 85 16 80 17 82 18 81 19 83 20 84 21 10 22 11 23 12 24
REMARK SMILES IDX 13 25 14 26 75 27 15 28 74 29 16 30 17 31 18 32 68 33 19 34
REMARK SMILES IDX 73 35 67 36 69 37 20 38 72 39 66 40 65 41 21 43 53 44 33 45
REMARK SMILES IDX 52 46 34 47 37 48 51 49 70 50 35 51 36 52 50 54 71 55 38 56
REMARK SMILES IDX 22 57 23 58 31 59 24 60 30 61 32 62 29 63 25 64 26 65 27 66
REMARK SMILES IDX 28 67 54 68 55 69 63 70 56 71 62 72 64 73 61 74 57 75 58 76
REMARK SMILES IDX 59 77 60 78 39 79 40 80 48 81 41 82 47 83 49 84 46 85 42 86
REMARK SMILES IDX 43 87 44 88 45 89
REMARK H PARENT 4 10 69 42 37 53
REMARK Flexibility Score: inf
ROOT
ATOM      1  C   UNL A   1      40.444  19.695  26.240  1.00  0.00     0.275 C 
ENDROOT
BRANCH   1   2
ATOM      2  C   UNL A   1      41.909  19.497  26.736  1.00  0.00     0.274 C 
BRANCH   2   3
ATOM      3  O   UNL A   1      42.931  20.446  26.334  1.00  0.00    -0.460 OA
BRANCH   3   4
ATOM      4  C   UNL A   1      43.638  20.225  25.197  1.00  0.00     0.338 C 
ATOM      5  O   UNL A   1      43.458  19.228  24.508  1.00  0.00    -0.249 OA
BRANCH   4   6
ATOM      6  C   UNL A   1      44.738  21.349  24.916  1.00  0.00     0.168 C 
BRANCH   6   7
ATOM      7  C   UNL A   1      46.056  20.606  25.329  1.00  0.00     0.044 C 
ATOM      8  C   UNL A   1      46.849  19.864  24.273  1.00  0.00     0.007 C 
ENDBRANCH   6   7
BRANCH   6   9
ATOM      9  O   UNL A   1      44.807  21.653  23.524  1.00  0.00    -0.378 OA
ATOM     10  H   UNL A   1      44.283  21.008  23.025  1.00  0.00     0.212 HD
ENDBRANCH   6   9
BRANCH   6  11
ATOM     11  C   UNL A   1      44.501  22.666  25.783  1.00  0.00     0.063 C 
ATOM     12  C   UNL A   1      45.061  23.945  25.115  1.00  0.00     0.017 C 
ATOM     13  C   UNL A   1      45.164  23.001  27.142  1.00  0.00    -0.035 A 
ATOM     14  C   UNL A   1      46.543  23.989  25.465  1.00  0.00     0.036 C 
ATOM     15  C   UNL A   1      46.304  23.821  26.929  1.00  0.00    -0.044 A 
ATOM     16  C   UNL A   1      44.475  23.127  28.351  1.00  0.00     0.050 A 
ATOM     17  C   UNL A   1      46.776  24.732  27.863  1.00  0.00     0.008 A 
ATOM     18  C   UNL A   1      44.898  24.107  29.270  1.00  0.00     0.119 A 
ATOM     19  C   UNL A   1      46.044  24.885  29.029  1.00  0.00     0.047 A 
BRANCH  18  20
ATOM     20  O   UNL A   1      44.242  24.476  30.414  1.00  0.00    -0.497 OA
ATOM     21  C   UNL A   1      44.111  25.866  30.677  1.00  0.00     0.278 C 
ENDBRANCH  18  20
ENDBRANCH   6  11
ENDBRANCH   4   6
ENDBRANCH   3   4
ENDBRANCH   2   3
ENDBRANCH   1   2
BRANCH   1  22
ATOM     22  O   UNL A   1      39.704  20.719  26.959  1.00  0.00    -0.458 OA
BRANCH  22  23
ATOM     23  C   UNL A   1      39.220  21.758  26.220  1.00  0.00     0.338 C 
ATOM     24  O   UNL A   1      38.448  21.677  25.283  1.00  0.00    -0.246 OA
BRANCH  23  25
ATOM     25  C   UNL A   1      39.621  23.068  26.806  1.00  0.00     0.060 A 
ATOM     26  C   UNL A   1      38.912  24.211  26.417  1.00  0.00     0.016 A 
ATOM     27  C   UNL A   1      40.708  23.212  27.669  1.00  0.00     0.016 A 
ATOM     28  C   UNL A   1      39.217  25.472  26.953  1.00  0.00     0.010 A 
ATOM     29  C   UNL A   1      41.067  24.492  28.147  1.00  0.00     0.010 A 
ATOM     30  C   UNL A   1      40.319  25.635  27.803  1.00  0.00    -0.014 A 
BRANCH  30  31
ATOM     31  C   UNL A   1      40.778  27.012  28.172  1.00  0.00     0.031 A 
ATOM     32  C   UNL A   1      42.195  27.416  27.845  1.00  0.00     0.074 A 
ATOM     33  C   UNL A   1      39.962  27.913  28.756  1.00  0.00     0.049 A 
ATOM     34  N   UNL A   1      42.825  28.536  28.094  1.00  0.00    -0.248 NA
ATOM     35  C   UNL A   1      43.006  26.413  27.139  1.00  0.00     0.031 C 
ATOM     36  C   UNL A   1      38.552  27.694  29.064  1.00  0.00     0.029 A 
ATOM     37  N   UNL A   1      40.193  29.208  29.172  1.00  0.00    -0.354 N 
ATOM     38  C   UNL A   1      44.116  28.364  27.603  1.00  0.00     0.074 A 
ATOM     39  C   UNL A   1      44.168  27.037  27.025  1.00  0.00     0.031 C 
ATOM     40  C   UNL A   1      38.039  28.820  29.594  1.00  0.00     0.029 A 
ATOM     41  C   UNL A   1      39.089  29.832  29.714  1.00  0.00     0.049 A 
ATOM     42  H   UNL A   1      41.071  29.647  29.091  1.00  0.00     0.167 HD
ATOM     43  C   UNL A   1      45.171  29.217  27.653  1.00  0.00     0.034 A 
ATOM     44  C   UNL A   1      38.944  31.065  30.253  1.00  0.00     0.034 A 
ATOM     45  C   UNL A   1      45.132  30.522  28.267  1.00  0.00     0.049 A 
ATOM     46  C   UNL A   1      40.157  31.972  30.358  1.00  0.00     0.074 A 
ATOM     47  C   UNL A   1      46.161  31.440  28.404  1.00  0.00     0.029 A 
ATOM     48  N   UNL A   1      44.016  31.091  28.863  1.00  0.00    -0.354 N 
ATOM     49  N   UNL A   1      41.379  31.780  29.914  1.00  0.00    -0.248 NA
ATOM     50  C   UNL A   1      39.973  33.256  31.055  1.00  0.00     0.031 C 
ATOM     51  C   UNL A   1      45.688  32.524  29.150  1.00  0.00     0.029 A 
ATOM     52  C   UNL A   1      44.340  32.329  29.401  1.00  0.00     0.049 A 
ATOM     53  H   UNL A   1      43.123  30.677  28.900  1.00  0.00     0.167 HD
ATOM     54  C   UNL A   1      42.097  32.924  30.267  1.00  0.00     0.074 A 
ATOM     55  C   UNL A   1      41.167  33.814  30.925  1.00  0.00     0.031 C 
ATOM     56  C   UNL A   1      43.411  33.209  30.071  1.00  0.00     0.034 A 
BRANCH  43  57
ATOM     57  C   UNL A   1      46.488  28.707  27.119  1.00  0.00     0.023 A 
ATOM     58  C   UNL A   1      46.733  28.572  25.742  1.00  0.00     0.031 A 
ATOM     59  C   UNL A   1      47.496  28.298  28.012  1.00  0.00     0.131 A 
ATOM     60  C   UNL A   1      47.923  27.971  25.301  1.00  0.00     0.055 A 
ATOM     61  C   UNL A   1      48.712  27.778  27.564  1.00  0.00     0.041 A 
ATOM     62  F   UNL A   1      47.308  28.378  29.338  1.00  0.00    -0.206 F 
ATOM     63  C   UNL A   1      48.924  27.597  26.201  1.00  0.00     0.022 A 
BRANCH  60  64
ATOM     64  S   UNL A   1      48.074  27.539  23.546  1.00  0.00     0.124 S 
ATOM     65  O   UNL A   1      46.937  28.252  22.968  1.00  0.00    -0.237 OA
ATOM     66  O   UNL A   1      49.393  28.059  23.205  1.00  0.00    -0.237 OA
ATOM     67  O   UNL A   1      47.955  26.082  23.540  1.00  0.00    -0.744 OA
ENDBRANCH  60  64
ENDBRANCH  43  57
BRANCH  44  68
ATOM     68  C   UNL A   1      37.625  31.532  30.796  1.00  0.00     0.023 A 
ATOM     69  C   UNL A   1      36.684  32.172  29.968  1.00  0.00     0.031 A 
ATOM     70  C   UNL A   1      37.325  31.440  32.167  1.00  0.00     0.131 A 
ATOM     71  C   UNL A   1      35.522  32.737  30.523  1.00  0.00     0.055 A 
ATOM     72  C   UNL A   1      36.135  31.940  32.703  1.00  0.00     0.041 A 
ATOM     73  F   UNL A   1      38.193  30.868  33.016  1.00  0.00    -0.206 F 
ATOM     74  C   UNL A   1      35.232  32.606  31.883  1.00  0.00     0.022 A 
BRANCH  71  75
ATOM     75  S   UNL A   1      34.453  33.760  29.469  1.00  0.00     0.124 S 
ATOM     76  O   UNL A   1      33.570  34.376  30.452  1.00  0.00    -0.237 OA
ATOM     77  O   UNL A   1      35.417  34.646  28.826  1.00  0.00    -0.237 OA
ATOM     78  O   UNL A   1      33.817  32.787  28.582  1.00  0.00    -0.744 OA
ENDBRANCH  71  75
ENDBRANCH  44  68
BRANCH  56  79
ATOM     79  C   UNL A   1      43.916  34.553  30.549  1.00  0.00     0.023 A 
ATOM     80  C   UNL A   1      43.793  35.717  29.768  1.00  0.00     0.031 A 
ATOM     81  C   UNL A   1      44.524  34.673  31.813  1.00  0.00     0.131 A 
ATOM     82  C   UNL A   1      44.314  36.934  30.235  1.00  0.00     0.055 A 
ATOM     83  C   UNL A   1      44.986  35.897  32.298  1.00  0.00     0.041 A 
ATOM     84  F   UNL A   1      44.673  33.597  32.604  1.00  0.00    -0.206 F 
ATOM     85  C   UNL A   1      44.893  37.036  31.503  1.00  0.00     0.022 A 
BRANCH  82  86
ATOM     86  S   UNL A   1      44.304  38.374  29.129  1.00  0.00     0.124 S 
ATOM     87  O   UNL A   1      43.424  37.926  28.055  1.00  0.00    -0.237 OA
ATOM     88  O   UNL A   1      43.774  39.426  29.990  1.00  0.00    -0.237 OA
ATOM     89  O   UNL A   1      45.709  38.530  28.755  1.00  0.00    -0.744 OA
ENDBRANCH  82  86
ENDBRANCH  56  79
ENDBRANCH  30  31
ENDBRANCH  23  25
ENDBRANCH  22  23
ENDBRANCH   1  22
TORSDOF 18
ENDMDL
MODEL 2
REMARK VINA RESULT:     -10.1      4.066     12.334
REMARK SMILES CC[C@@](O)(C(=O)OCCOC(=O)c1ccc(-c2c3nc(c(-c4cc(S(=O)(=O)[O-])ccc4F)c4ccc([nH]4)c(-c4cc(S(=O)(=O)[O-])ccc4F)c4nc(c(-c5cc(S(=O)(=O)[O-])ccc5F)c5ccc2[nH]5)C=C4)C=C3)cc1)[C@@H]1CCc2ccc(OC)cc21
REMARK SMILES IDX 9 1 8 2 7 3 5 4 6 5 3 6 2 7 1 8 4 9 76 11 77 12 86 13 78 14
REMARK SMILES IDX 79 15 85 16 80 17 82 18 81 19 83 20 84 21 10 22 11 23 12 24
REMARK SMILES IDX 13 25 14 26 75 27 15 28 74 29 16 30 17 31 18 32 68 33 19 34
REMARK SMILES IDX 73 35 67 36 69 37 20 38 72 39 66 40 65 41 21 43 53 44 33 45
REMARK SMILES IDX 52 46 34 47 37 48 51 49 70 50 35 51 36 52 50 54 71 55 38 56
REMARK SMILES IDX 22 57 23 58 31 59 24 60 30 61 32 62 29 63 25 64 26 65 27 66
REMARK SMILES IDX 28 67 54 68 55 69 63 70 56 71 62 72 64 73 61 74 57 75 58 76
REMARK SMILES IDX 59 77 60 78 39 79 40 80 48 81 41 82 47 83 49 84 46 85 42 86
REMARK SMILES IDX 43 87 44 88 45 89
REMARK H PARENT 4 10 69 42 37 53
REMARK Flexibility Score: inf
ROOT
ATOM      1  C   UNL A   1      33.313  33.845  27.769  1.00  0.00     0.275 C 
ENDROOT
BRANCH   1   2
ATOM      2  C   UNL A   1      34.001  35.050  28.479  1.00  0.00     0.274 C 
BRANCH   2   3
ATOM      3  O   UNL A   1      34.531  34.879  29.820  1.00  0.00    -0.460 OA
BRANCH   3   4
ATOM      4  C   UNL A   1      33.693  34.955  30.884  1.00  0.00     0.338 C 
ATOM      5  O   UNL A   1      32.509  35.247  30.755  1.00  0.00    -0.249 OA
BRANCH   4   6
ATOM      6  C   UNL A   1      34.427  34.693  32.279  1.00  0.00     0.168 C 
BRANCH   6   7
ATOM      7  C   UNL A   1      34.663  36.158  32.787  1.00  0.00     0.044 C 
ATOM      8  C   UNL A   1      33.728  36.741  33.825  1.00  0.00     0.007 C 
ENDBRANCH   6   7
BRANCH   6   9
ATOM      9  O   UNL A   1      33.555  34.032  33.194  1.00  0.00    -0.378 OA
ATOM     10  H   UNL A   1      34.075  33.656  33.922  1.00  0.00     0.212 HD
ENDBRANCH   6   9
BRANCH   6  11
ATOM     11  C   UNL A   1      35.797  33.895  32.108  1.00  0.00     0.063 C 
ATOM     12  C   UNL A   1      36.199  33.096  33.371  1.00  0.00     0.017 C 
ATOM     13  C   UNL A   1      37.209  34.516  31.965  1.00  0.00    -0.035 A 
ATOM     14  C   UNL A   1      36.900  34.088  34.291  1.00  0.00     0.036 C 
ATOM     15  C   UNL A   1      37.845  34.553  33.234  1.00  0.00    -0.044 A 
ATOM     16  C   UNL A   1      38.010  34.411  30.825  1.00  0.00     0.050 A 
ATOM     17  C   UNL A   1      39.221  34.501  33.400  1.00  0.00     0.008 A 
ATOM     18  C   UNL A   1      39.402  34.275  30.989  1.00  0.00     0.119 A 
ATOM     19  C   UNL A   1      39.995  34.336  32.263  1.00  0.00     0.047 A 
BRANCH  18  20
ATOM     20  O   UNL A   1      40.307  33.992  30.001  1.00  0.00    -0.497 OA
ATOM     21  C   UNL A   1      41.228  32.936  30.235  1.00  0.00     0.278 C 
ENDBRANCH  18  20
ENDBRANCH   6  11
ENDBRANCH   4   6
ENDBRANCH   3   4
ENDBRANCH   2   3
ENDBRANCH   1   2
BRANCH   1  22
ATOM     22  O   UNL A   1      33.519  32.566  28.430  1.00  0.00    -0.458 OA
BRANCH  22  23
ATOM     23  C   UNL A   1      33.908  31.524  27.640  1.00  0.00     0.338 C 
ATOM     24  O   UNL A   1      33.339  31.126  26.641  1.00  0.00    -0.246 OA
BRANCH  23  25
ATOM     25  C   UNL A   1      35.245  31.008  28.051  1.00  0.00     0.060 A 
ATOM     26  C   UNL A   1      35.390  29.629  28.241  1.00  0.00     0.016 A 
ATOM     27  C   UNL A   1      36.331  31.843  28.318  1.00  0.00     0.016 A 
ATOM     28  C   UNL A   1      36.629  29.072  28.598  1.00  0.00     0.010 A 
ATOM     29  C   UNL A   1      37.555  31.292  28.756  1.00  0.00     0.010 A 
ATOM     30  C   UNL A   1      37.722  29.899  28.891  1.00  0.00    -0.014 A 
BRANCH  30  31
ATOM     31  C   UNL A   1      38.957  29.313  29.502  1.00  0.00     0.031 A 
ATOM     32  C   UNL A   1      39.364  29.760  30.884  1.00  0.00     0.074 A 
ATOM     33  C   UNL A   1      39.699  28.378  28.874  1.00  0.00     0.049 A 
ATOM     34  N   UNL A   1      40.405  29.420  31.602  1.00  0.00    -0.248 NA
ATOM     35  C   UNL A   1      38.468  30.723  31.542  1.00  0.00     0.031 C 
ATOM     36  C   UNL A   1      39.391  27.796  27.571  1.00  0.00     0.029 A 
ATOM     37  N   UNL A   1      40.855  27.731  29.260  1.00  0.00    -0.354 N 
ATOM     38  C   UNL A   1      40.307  30.148  32.784  1.00  0.00     0.074 A 
ATOM     39  C   UNL A   1      39.093  30.933  32.690  1.00  0.00     0.031 C 
ATOM     40  C   UNL A   1      40.316  26.862  27.279  1.00  0.00     0.029 A 
ATOM     41  C   UNL A   1      41.316  26.807  28.346  1.00  0.00     0.049 A 
ATOM     42  H   UNL A   1      41.311  27.914  30.114  1.00  0.00     0.167 HD
ATOM     43  C   UNL A   1      41.161  30.186  33.839  1.00  0.00     0.034 A 
ATOM     44  C   UNL A   1      42.418  26.021  28.360  1.00  0.00     0.034 A 
ATOM     45  C   UNL A   1      42.392  29.438  33.914  1.00  0.00     0.049 A 
ATOM     46  C   UNL A   1      43.391  26.134  29.519  1.00  0.00     0.074 A 
ATOM     47  C   UNL A   1      43.342  29.443  34.923  1.00  0.00     0.029 A 
ATOM     48  N   UNL A   1      42.857  28.566  32.941  1.00  0.00    -0.354 N 
ATOM     49  N   UNL A   1      43.296  26.851  30.617  1.00  0.00    -0.248 NA
ATOM     50  C   UNL A   1      44.630  25.343  29.433  1.00  0.00     0.031 C 
ATOM     51  C   UNL A   1      44.415  28.640  34.523  1.00  0.00     0.029 A 
ATOM     52  C   UNL A   1      44.096  28.057  33.307  1.00  0.00     0.049 A 
ATOM     53  H   UNL A   1      42.379  28.339  32.110  1.00  0.00     0.167 HD
ATOM     54  C   UNL A   1      44.454  26.584  31.349  1.00  0.00     0.074 A 
ATOM     55  C   UNL A   1      45.213  25.613  30.591  1.00  0.00     0.031 C 
ATOM     56  C   UNL A   1      44.857  27.099  32.539  1.00  0.00     0.034 A 
BRANCH  43  57
ATOM     57  C   UNL A   1      40.835  31.159  34.947  1.00  0.00     0.023 A 
ATOM     58  C   UNL A   1      39.788  30.930  35.857  1.00  0.00     0.031 A 
ATOM     59  C   UNL A   1      41.556  32.362  35.059  1.00  0.00     0.131 A 
ATOM     60  C   UNL A   1      39.442  31.925  36.785  1.00  0.00     0.055 A 
ATOM     61  C   UNL A   1      41.260  33.311  36.039  1.00  0.00     0.041 A 
ATOM     62  F   UNL A   1      42.549  32.646  34.202  1.00  0.00    -0.206 F 
ATOM     63  C   UNL A   1      40.187  33.102  36.900  1.00  0.00     0.022 A 
BRANCH  60  64
ATOM     64  S   UNL A   1      37.908  31.728  37.732  1.00  0.00     0.124 S 
ATOM     65  O   UNL A   1      37.042  32.720  37.098  1.00  0.00    -0.237 OA
ATOM     66  O   UNL A   1      37.563  30.332  37.488  1.00  0.00    -0.237 OA
ATOM     67  O   UNL A   1      38.307  32.044  39.102  1.00  0.00    -0.744 OA
ENDBRANCH  60  64
ENDBRANCH  43  57
BRANCH  44  68
ATOM     68  C   UNL A   1      42.723  25.082  27.230  1.00  0.00     0.023 A 
ATOM     69  C   UNL A   1      42.197  23.777  27.206  1.00  0.00     0.031 A 
ATOM     70  C   UNL A   1      43.626  25.434  26.210  1.00  0.00     0.131 A 
ATOM     71  C   UNL A   1      42.615  22.862  26.223  1.00  0.00     0.055 A 
ATOM     72  C   UNL A   1      43.982  24.544  25.192  1.00  0.00     0.041 A 
ATOM     73  F   UNL A   1      44.188  26.653  26.190  1.00  0.00    -0.206 F 
ATOM     74  C   UNL A   1      43.488  23.246  25.203  1.00  0.00     0.022 A 
BRANCH  71  75
ATOM     75  S   UNL A   1      42.102  21.125  26.365  1.00  0.00     0.124 S 
ATOM     76  O   UNL A   1      42.333  20.864  27.781  1.00  0.00    -0.237 OA
ATOM     77  O   UNL A   1      40.707  21.183  25.941  1.00  0.00    -0.237 OA
ATOM     78  O   UNL A   1      43.001  20.428  25.447  1.00  0.00    -0.744 OA
ENDBRANCH  71  75
ENDBRANCH  44  68
BRANCH  56  79
ATOM     79  C   UNL A   1      46.168  26.603  33.111  1.00  0.00     0.023 A 
ATOM     80  C   UNL A   1      46.243  25.444  33.906  1.00  0.00     0.031 A 
ATOM     81  C   UNL A   1      47.363  27.297  32.849  1.00  0.00     0.131 A 
ATOM     82  C   UNL A   1      47.474  25.044  34.449  1.00  0.00     0.055 A 
ATOM     83  C   UNL A   1      48.594  26.861  33.342  1.00  0.00     0.041 A 
ATOM     84  F   UNL A   1      47.357  28.412  32.099  1.00  0.00    -0.206 F 
ATOM     85  C   UNL A   1      48.653  25.735  34.158  1.00  0.00     0.022 A 
BRANCH  82  86
ATOM     86  S   UNL A   1      47.507  23.655  35.617  1.00  0.00     0.124 S 
ATOM     87  O   UNL A   1      46.167  23.710  36.192  1.00  0.00    -0.237 OA
ATOM     88  O   UNL A   1      47.780  22.519  34.744  1.00  0.00    -0.237 OA
ATOM     89  O   UNL A   1      48.590  24.003  36.536  1.00  0.00    -0.744 OA
ENDBRANCH  82  86
ENDBRANCH  56  79
ENDBRANCH  30  31
ENDBRANCH  23  25
ENDBRANCH  22  23
ENDBRANCH   1  22
TORSDOF 18
ENDMDL
MODEL 3
REMARK VINA RESULT:     -10.0      3.407      9.755
REMARK SMILES CC[C@@](O)(C(=O)OCCOC(=O)c1ccc(-c2c3nc(c(-c4cc(S(=O)(=O)[O-])ccc4F)c4ccc([nH]4)c(-c4cc(S(=O)(=O)[O-])ccc4F)c4nc(c(-c5cc(S(=O)(=O)[O-])ccc5F)c5ccc2[nH]5)C=C4)C=C3)cc1)[C@@H]1CCc2ccc(OC)cc21
REMARK SMILES IDX 9 1 8 2 7 3 5 4 6 5 3 6 2 7 1 8 4 9 76 11 77 12 86 13 78 14
REMARK SMILES IDX 79 15 85 16 80 17 82 18 81 19 83 20 84 21 10 22 11 23 12 24
REMARK SMILES IDX 13 25 14 26 75 27 15 28 74 29 16 30 17 31 18 32 68 33 19 34
REMARK SMILES IDX 73 35 67 36 69 37 20 38 72 39 66 40 65 41 21 43 53 44 33 45
REMARK SMILES IDX 52 46 34 47 37 48 51 49 70 50 35 51 36 52 50 54 71 55 38 56
REMARK SMILES IDX 22 57 23 58 31 59 24 60 30 61 32 62 29 63 25 64 26 65 27 66
REMARK SMILES IDX 28 67 54 68 55 69 63 70 56 71 62 72 64 73 61 74 57 75 58 76
REMARK SMILES IDX 59 77 60 78 39 79 40 80 48 81 41 82 47 83 49 84 46 85 42 86
REMARK SMILES IDX 43 87 44 88 45 89
REMARK H PARENT 4 10 69 42 37 53
REMARK Flexibility Score: inf
ROOT
ATOM      1  C   UNL A   1      36.153  20.025  25.020  1.00  0.00     0.275 C 
ENDROOT
BRANCH   1   2
ATOM      2  C   UNL A   1      34.638  20.386  24.945  1.00  0.00     0.274 C 
BRANCH   2   3
ATOM      3  O   UNL A   1      34.237  21.781  24.972  1.00  0.00    -0.460 OA
BRANCH   3   4
ATOM      4  C   UNL A   1      33.365  22.243  24.041  1.00  0.00     0.338 C 
ATOM      5  O   UNL A   1      32.332  21.642  23.768  1.00  0.00    -0.249 OA
BRANCH   4   6
ATOM      6  C   UNL A   1      33.864  23.582  23.325  1.00  0.00     0.168 C 
BRANCH   6   7
ATOM      7  C   UNL A   1      35.363  23.639  23.783  1.00  0.00     0.044 C 
ATOM      8  C   UNL A   1      36.436  23.080  22.874  1.00  0.00     0.007 C 
ENDBRANCH   6   7
BRANCH   6   9
ATOM      9  O   UNL A   1      33.829  23.441  21.906  1.00  0.00    -0.378 OA
ATOM     10  H   UNL A   1      33.578  22.533  21.677  1.00  0.00     0.212 HD
ENDBRANCH   6   9
BRANCH   6  11
ATOM     11  C   UNL A   1      33.048  24.868  23.797  1.00  0.00     0.063 C 
ATOM     12  C   UNL A   1      32.405  25.647  22.624  1.00  0.00     0.017 C 
ATOM     13  C   UNL A   1      33.644  26.156  24.419  1.00  0.00    -0.035 A 
ATOM     14  C   UNL A   1      33.499  26.552  22.071  1.00  0.00     0.036 C 
ATOM     15  C   UNL A   1      33.832  27.133  23.405  1.00  0.00    -0.044 A 
ATOM     16  C   UNL A   1      33.401  26.593  25.723  1.00  0.00     0.050 A 
ATOM     17  C   UNL A   1      33.797  28.499  23.645  1.00  0.00     0.008 A 
ATOM     18  C   UNL A   1      33.283  27.976  25.960  1.00  0.00     0.119 A 
ATOM     19  C   UNL A   1      33.495  28.912  24.932  1.00  0.00     0.047 A 
BRANCH  18  20
ATOM     20  O   UNL A   1      32.882  28.563  27.131  1.00  0.00    -0.497 OA
ATOM     21  C   UNL A   1      31.659  28.120  27.703  1.00  0.00     0.278 C 
ENDBRANCH  18  20
ENDBRANCH   6  11
ENDBRANCH   4   6
ENDBRANCH   3   4
ENDBRANCH   2   3
ENDBRANCH   1   2
BRANCH   1  22
ATOM     22  O   UNL A   1      37.004  21.110  25.480  1.00  0.00    -0.458 OA
BRANCH  22  23
ATOM     23  C   UNL A   1      38.315  20.809  25.703  1.00  0.00     0.338 C 
ATOM     24  O   UNL A   1      38.881  19.779  25.387  1.00  0.00    -0.246 OA
BRANCH  23  25
ATOM     25  C   UNL A   1      39.052  21.984  26.248  1.00  0.00     0.060 A 
ATOM     26  C   UNL A   1      38.572  23.263  25.942  1.00  0.00     0.016 A 
ATOM     27  C   UNL A   1      40.230  21.866  26.988  1.00  0.00     0.016 A 
ATOM     28  C   UNL A   1      39.200  24.414  26.448  1.00  0.00     0.010 A 
ATOM     29  C   UNL A   1      40.907  23.024  27.428  1.00  0.00     0.010 A 
ATOM     30  C   UNL A   1      40.395  24.311  27.173  1.00  0.00    -0.014 A 
BRANCH  30  31
ATOM     31  C   UNL A   1      41.178  25.545  27.495  1.00  0.00     0.031 A 
ATOM     32  C   UNL A   1      40.532  26.614  28.341  1.00  0.00     0.074 A 
ATOM     33  C   UNL A   1      42.451  25.721  27.082  1.00  0.00     0.049 A 
ATOM     34  N   UNL A   1      40.998  27.777  28.721  1.00  0.00    -0.248 NA
ATOM     35  C   UNL A   1      39.173  26.324  28.821  1.00  0.00     0.031 C 
ATOM     36  C   UNL A   1      43.230  24.748  26.323  1.00  0.00     0.029 A 
ATOM     37  N   UNL A   1      43.325  26.773  27.266  1.00  0.00    -0.354 N 
ATOM     38  C   UNL A   1      39.981  28.372  29.461  1.00  0.00     0.074 A 
ATOM     39  C   UNL A   1      38.880  27.430  29.489  1.00  0.00     0.031 C 
ATOM     40  C   UNL A   1      44.471  25.234  26.130  1.00  0.00     0.029 A 
ATOM     41  C   UNL A   1      44.570  26.576  26.705  1.00  0.00     0.049 A 
ATOM     42  H   UNL A   1      43.080  27.592  27.755  1.00  0.00     0.167 HD
ATOM     43  C   UNL A   1      39.947  29.600  30.039  1.00  0.00     0.034 A 
ATOM     44  C   UNL A   1      45.653  27.385  26.649  1.00  0.00     0.034 A 
ATOM     45  C   UNL A   1      41.026  30.556  29.975  1.00  0.00     0.049 A 
ATOM     46  C   UNL A   1      45.566  28.779  27.244  1.00  0.00     0.074 A 
ATOM     47  C   UNL A   1      41.069  31.840  30.494  1.00  0.00     0.029 A 
ATOM     48  N   UNL A   1      42.242  30.347  29.342  1.00  0.00    -0.354 N 
ATOM     49  N   UNL A   1      44.583  29.336  27.916  1.00  0.00    -0.248 NA
ATOM     50  C   UNL A   1      46.731  29.660  27.058  1.00  0.00     0.031 C 
ATOM     51  C   UNL A   1      42.276  32.432  30.105  1.00  0.00     0.029 A 
ATOM     52  C   UNL A   1      43.027  31.489  29.424  1.00  0.00     0.049 A 
ATOM     53  H   UNL A   1      42.511  29.510  28.897  1.00  0.00     0.167 HD
ATOM     54  C   UNL A   1      45.021  30.621  28.239  1.00  0.00     0.074 A 
ATOM     55  C   UNL A   1      46.367  30.745  27.724  1.00  0.00     0.031 C 
ATOM     56  C   UNL A   1      44.366  31.613  28.896  1.00  0.00     0.034 A 
BRANCH  43  57
ATOM     57  C   UNL A   1      38.652  30.011  30.698  1.00  0.00     0.023 A 
ATOM     58  C   UNL A   1      37.634  30.673  29.990  1.00  0.00     0.031 A 
ATOM     59  C   UNL A   1      38.460  29.783  32.073  1.00  0.00     0.131 A 
ATOM     60  C   UNL A   1      36.506  31.151  30.677  1.00  0.00     0.055 A 
ATOM     61  C   UNL A   1      37.299  30.187  32.732  1.00  0.00     0.041 A 
ATOM     62  F   UNL A   1      39.410  29.179  32.804  1.00  0.00    -0.206 F 
ATOM     63  C   UNL A   1      36.320  30.890  32.037  1.00  0.00     0.022 A 
BRANCH  60  64
ATOM     64  S   UNL A   1      35.366  32.256  29.802  1.00  0.00     0.124 S 
ATOM     65  O   UNL A   1      34.911  31.401  28.706  1.00  0.00    -0.237 OA
ATOM     66  O   UNL A   1      34.373  32.562  30.825  1.00  0.00    -0.237 OA
ATOM     67  O   UNL A   1      36.214  33.375  29.397  1.00  0.00    -0.744 OA
ENDBRANCH  60  64
ENDBRANCH  43  57
BRANCH  44  68
ATOM     68  C   UNL A   1      46.918  26.953  25.967  1.00  0.00     0.023 A 
ATOM     69  C   UNL A   1      47.932  26.279  26.673  1.00  0.00     0.031 A 
ATOM     70  C   UNL A   1      47.179  27.294  24.627  1.00  0.00     0.131 A 
ATOM     71  C   UNL A   1      49.169  26.018  26.057  1.00  0.00     0.055 A 
ATOM     72  C   UNL A   1      48.384  26.968  23.998  1.00  0.00     0.041 A 
ATOM     73  F   UNL A   1      46.266  27.963  23.906  1.00  0.00    -0.206 F 
ATOM     74  C   UNL A   1      49.393  26.339  24.717  1.00  0.00     0.022 A 
BRANCH  71  75
ATOM     75  S   UNL A   1      50.532  25.367  27.068  1.00  0.00     0.124 S 
ATOM     76  O   UNL A   1      51.501  24.988  26.047  1.00  0.00    -0.237 OA
ATOM     77  O   UNL A   1      50.881  26.521  27.889  1.00  0.00    -0.237 OA
ATOM     78  O   UNL A   1      49.919  24.254  27.790  1.00  0.00    -0.744 OA
ENDBRANCH  71  75
ENDBRANCH  44  68
BRANCH  56  79
ATOM     79  C   UNL A   1      45.106  32.913  29.122  1.00  0.00     0.023 A 
ATOM     80  C   UNL A   1      45.088  33.956  28.177  1.00  0.00     0.031 A 
ATOM     81  C   UNL A   1      45.836  33.117  30.308  1.00  0.00     0.131 A 
ATOM     82  C   UNL A   1      45.824  35.129  28.411  1.00  0.00     0.055 A 
ATOM     83  C   UNL A   1      46.516  34.309  30.563  1.00  0.00     0.041 A 
ATOM     84  F   UNL A   1      45.893  32.158  31.248  1.00  0.00    -0.206 F 
ATOM     85  C   UNL A   1      46.523  35.320  29.606  1.00  0.00     0.022 A 
BRANCH  82  86
ATOM     86  S   UNL A   1      45.930  36.374  27.095  1.00  0.00     0.124 S 
ATOM     87  O   UNL A   1      46.285  35.562  25.936  1.00  0.00    -0.237 OA
ATOM     88  O   UNL A   1      44.585  36.939  27.090  1.00  0.00    -0.237 OA
ATOM     89  O   UNL A   1      46.979  37.280  27.561  1.00  0.00    -0.744 OA
ENDBRANCH  82  86
ENDBRANCH  56  79
ENDBRANCH  30  31
ENDBRANCH  23  25
ENDBRANCH  22  23
ENDBRANCH   1  22
TORSDOF 18
ENDMDL
