MODEL 1
REMARK VINA RESULT:     -10.8      0.000      0.000
REMARK SMILES CC[C@@H]([NH3+])C(=O)N1CC[C@H](C(=O)OCCOC(=O)c2ccc(-c3c4nc(c(-c5cc(S(=O)(=O)[O-])ccc5F)c5ccc([nH]5)c(-c5cc(S(=O)(=O)[O-])ccc5F)c5nc(c(-c6cc(S(=O)(=O)[O-])ccc6F)c6ccc3[nH]6)C=C5)C=C4)cc2)[C@@H]1C
REMARK SMILES IDX 14 1 13 2 11 3 12 4 10 5 7 6 8 7 82 8 9 9 83 10 5 11 6 12
REMARK SMILES IDX 3 13 2 14 1 15 4 16 15 20 16 21 17 22 18 23 19 24 20 25
REMARK SMILES IDX 81 26 21 27 80 28 22 29 23 30 24 31 74 32 25 33 79 34 73 35
REMARK SMILES IDX 75 36 26 37 78 38 72 39 71 40 27 42 59 43 39 44 58 45 40 46
REMARK SMILES IDX 43 47 57 48 76 49 41 50 42 51 56 53 77 54 44 55 28 56 29 57
REMARK SMILES IDX 37 58 30 59 36 60 38 61 35 62 31 63 32 64 33 65 34 66 60 67
REMARK SMILES IDX 61 68 69 69 62 70 68 71 70 72 67 73 63 74 64 75 65 76 66 77
REMARK SMILES IDX 45 78 46 79 54 80 47 81 53 82 55 83 52 84 48 85 49 86 50 87
REMARK SMILES IDX 51 88
REMARK H PARENT 4 17 4 18 4 19 75 41 43 52
REMARK Flexibility Score: inf
ROOT
ATOM      1  C   UNL A   1      34.569  20.821  25.102  1.00  0.00     0.274 C 
ENDROOT
BRANCH   1   2
ATOM      2  O   UNL A   1      34.178  20.934  26.490  1.00  0.00    -0.462 OA
BRANCH   2   3
ATOM      3  C   UNL A   1      33.482  22.069  26.796  1.00  0.00     0.311 C 
ATOM      4  O   UNL A   1      33.357  22.503  27.934  1.00  0.00    -0.252 OA
BRANCH   3   5
ATOM      5  C   UNL A   1      32.818  22.673  25.559  1.00  0.00     0.123 C 
ATOM      6  N   UNL A   1      32.021  24.879  26.032  1.00  0.00    -0.334 N 
ATOM      7  C   UNL A   1      31.079  23.927  26.600  1.00  0.00     0.121 C 
ATOM      8  C   UNL A   1      33.077  24.178  25.281  1.00  0.00     0.096 C 
ATOM      9  C   UNL A   1      31.305  22.652  25.795  1.00  0.00     0.039 C 
ATOM     10  C   UNL A   1      34.509  24.607  25.588  1.00  0.00     0.032 C 
BRANCH   6  11
ATOM     11  C   UNL A   1      31.624  26.203  26.040  1.00  0.00     0.280 C 
ATOM     12  O   UNL A   1      31.030  26.649  27.031  1.00  0.00    -0.268 OA
BRANCH  11  13
ATOM     13  C   UNL A   1      31.716  27.100  24.777  1.00  0.00     0.270 C 
BRANCH  13  14
ATOM     14  C   UNL A   1      30.405  27.473  24.093  1.00  0.00     0.072 C 
ATOM     15  C   UNL A   1      29.401  26.325  24.056  1.00  0.00     0.011 C 
ENDBRANCH  13  14
BRANCH  13  16
ATOM     16  N   UNL A   1      32.552  28.287  25.081  1.00  0.00    -0.347 N 
ATOM     17  H   UNL A   1      33.537  28.023  25.062  1.00  0.00     0.345 HD
ATOM     18  H   UNL A   1      32.313  28.645  26.006  1.00  0.00     0.345 HD
ATOM     19  H   UNL A   1      32.380  29.012  24.383  1.00  0.00     0.345 HD
ENDBRANCH  13  16
ENDBRANCH  11  13
ENDBRANCH   6  11
ENDBRANCH   3   5
ENDBRANCH   2   3
ENDBRANCH   1   2
BRANCH   1  20
ATOM     20  C   UNL A   1      36.061  20.518  24.973  1.00  0.00     0.275 C 
BRANCH  20  21
ATOM     21  O   UNL A   1      36.817  21.551  25.620  1.00  0.00    -0.458 OA
BRANCH  21  22
ATOM     22  C   UNL A   1      38.147  21.321  25.706  1.00  0.00     0.338 C 
ATOM     23  O   UNL A   1      38.724  20.320  25.295  1.00  0.00    -0.246 OA
BRANCH  22  24
ATOM     24  C   UNL A   1      38.842  22.479  26.325  1.00  0.00     0.060 A 
ATOM     25  C   UNL A   1      38.425  23.798  26.115  1.00  0.00     0.016 A 
ATOM     26  C   UNL A   1      39.996  22.240  27.075  1.00  0.00     0.016 A 
ATOM     27  C   UNL A   1      39.199  24.869  26.576  1.00  0.00     0.010 A 
ATOM     28  C   UNL A   1      40.719  23.312  27.609  1.00  0.00     0.010 A 
ATOM     29  C   UNL A   1      40.347  24.643  27.345  1.00  0.00    -0.014 A 
BRANCH  29  30
ATOM     30  C   UNL A   1      41.189  25.759  27.867  1.00  0.00     0.031 A 
ATOM     31  C   UNL A   1      40.557  26.840  28.705  1.00  0.00     0.074 A 
ATOM     32  C   UNL A   1      42.497  25.854  27.551  1.00  0.00     0.049 A 
ATOM     33  N   UNL A   1      40.978  28.050  28.962  1.00  0.00    -0.248 NA
ATOM     34  C   UNL A   1      39.258  26.511  29.315  1.00  0.00     0.031 C 
ATOM     35  C   UNL A   1      43.275  24.852  26.821  1.00  0.00     0.029 A 
ATOM     36  N   UNL A   1      43.402  26.863  27.790  1.00  0.00    -0.354 N 
ATOM     37  C   UNL A   1      39.966  28.657  29.701  1.00  0.00     0.074 A 
ATOM     38  C   UNL A   1      38.914  27.672  29.855  1.00  0.00     0.031 C 
ATOM     39  C   UNL A   1      44.535  25.289  26.678  1.00  0.00     0.029 A 
ATOM     40  C   UNL A   1      44.630  26.644  27.208  1.00  0.00     0.049 A 
ATOM     41  H   UNL A   1      43.190  27.663  28.324  1.00  0.00     0.167 HD
ATOM     42  C   UNL A   1      39.919  29.923  30.187  1.00  0.00     0.034 A 
ATOM     43  C   UNL A   1      45.691  27.461  27.050  1.00  0.00     0.034 A 
ATOM     44  C   UNL A   1      41.001  30.872  30.063  1.00  0.00     0.049 A 
ATOM     45  C   UNL A   1      45.604  28.878  27.552  1.00  0.00     0.074 A 
ATOM     46  C   UNL A   1      41.064  32.178  30.519  1.00  0.00     0.029 A 
ATOM     47  N   UNL A   1      42.221  30.609  29.451  1.00  0.00    -0.354 N 
ATOM     48  N   UNL A   1      44.603  29.483  28.147  1.00  0.00    -0.248 NA
ATOM     49  C   UNL A   1      46.784  29.727  27.345  1.00  0.00     0.031 C 
ATOM     50  C   UNL A   1      42.298  32.719  30.139  1.00  0.00     0.029 A 
ATOM     51  C   UNL A   1      43.034  31.731  29.506  1.00  0.00     0.049 A 
ATOM     52  H   UNL A   1      42.470  29.751  29.037  1.00  0.00     0.167 HD
ATOM     53  C   UNL A   1      45.042  30.778  28.404  1.00  0.00     0.074 A 
ATOM     54  C   UNL A   1      46.399  30.864  27.905  1.00  0.00     0.031 C 
ATOM     55  C   UNL A   1      44.383  31.803  29.001  1.00  0.00     0.034 A 
BRANCH  42  56
ATOM     56  C   UNL A   1      38.631  30.375  30.834  1.00  0.00     0.023 A 
ATOM     57  C   UNL A   1      37.601  30.993  30.105  1.00  0.00     0.031 A 
ATOM     58  C   UNL A   1      38.443  30.200  32.218  1.00  0.00     0.131 A 
ATOM     59  C   UNL A   1      36.463  31.473  30.773  1.00  0.00     0.055 A 
ATOM     60  C   UNL A   1      37.276  30.610  32.863  1.00  0.00     0.041 A 
ATOM     61  F   UNL A   1      39.400  29.634  32.971  1.00  0.00    -0.206 F 
ATOM     62  C   UNL A   1      36.282  31.264  32.142  1.00  0.00     0.022 A 
BRANCH  59  63
ATOM     63  S   UNL A   1      35.283  32.498  29.850  1.00  0.00     0.124 S 
ATOM     64  O   UNL A   1      34.833  31.571  28.815  1.00  0.00    -0.237 OA
ATOM     65  O   UNL A   1      34.299  32.840  30.870  1.00  0.00    -0.237 OA
ATOM     66  O   UNL A   1      36.098  33.611  29.369  1.00  0.00    -0.744 OA
ENDBRANCH  59  63
ENDBRANCH  42  56
BRANCH  43  67
ATOM     67  C   UNL A   1      46.890  26.988  26.302  1.00  0.00     0.023 A 
ATOM     68  C   UNL A   1      47.966  26.379  26.966  1.00  0.00     0.031 A 
ATOM     69  C   UNL A   1      46.986  27.159  24.908  1.00  0.00     0.131 A 
ATOM     70  C   UNL A   1      49.101  25.986  26.239  1.00  0.00     0.055 A 
ATOM     71  C   UNL A   1      48.092  26.718  24.184  1.00  0.00     0.041 A 
ATOM     72  F   UNL A   1      45.987  27.742  24.225  1.00  0.00    -0.206 F 
ATOM     73  C   UNL A   1      49.165  26.135  24.852  1.00  0.00     0.022 A 
BRANCH  70  74
ATOM     74  S   UNL A   1      50.534  25.338  27.146  1.00  0.00     0.124 S 
ATOM     75  O   UNL A   1      49.936  24.243  27.902  1.00  0.00    -0.237 OA
ATOM     76  O   UNL A   1      51.433  24.955  26.064  1.00  0.00    -0.237 OA
ATOM     77  O   UNL A   1      50.975  26.479  27.946  1.00  0.00    -0.744 OA
ENDBRANCH  70  74
ENDBRANCH  43  67
BRANCH  55  78
ATOM     78  C   UNL A   1      45.152  33.083  29.203  1.00  0.00     0.023 A 
ATOM     79  C   UNL A   1      45.240  34.062  28.198  1.00  0.00     0.031 A 
ATOM     80  C   UNL A   1      45.815  33.315  30.421  1.00  0.00     0.131 A 
ATOM     81  C   UNL A   1      46.014  35.213  28.417  1.00  0.00     0.055 A 
ATOM     82  C   UNL A   1      46.543  34.482  30.648  1.00  0.00     0.041 A 
ATOM     83  F   UNL A   1      45.760  32.409  31.410  1.00  0.00    -0.206 F 
ATOM     84  C   UNL A   1      46.654  35.434  29.639  1.00  0.00     0.022 A 
BRANCH  81  85
ATOM     85  S   UNL A   1      46.225  36.395  27.057  1.00  0.00     0.124 S 
ATOM     86  O   UNL A   1      45.175  37.369  27.336  1.00  0.00    -0.237 OA
ATOM     87  O   UNL A   1      47.594  36.859  27.254  1.00  0.00    -0.237 OA
ATOM     88  O   UNL A   1      46.014  35.583  25.859  1.00  0.00    -0.744 OA
ENDBRANCH  81  85
ENDBRANCH  55  78
ENDBRANCH  29  30
ENDBRANCH  22  24
ENDBRANCH  21  22
ENDBRANCH  20  21
ENDBRANCH   1  20
TORSDOF 18
ENDMDL
MODEL 2
REMARK VINA RESULT:     -10.7      4.748      9.943
REMARK SMILES CC[C@@H]([NH3+])C(=O)N1CC[C@H](C(=O)OCCOC(=O)c2ccc(-c3c4nc(c(-c5cc(S(=O)(=O)[O-])ccc5F)c5ccc([nH]5)c(-c5cc(S(=O)(=O)[O-])ccc5F)c5nc(c(-c6cc(S(=O)(=O)[O-])ccc6F)c6ccc3[nH]6)C=C5)C=C4)cc2)[C@@H]1C
REMARK SMILES IDX 14 1 13 2 11 3 12 4 10 5 7 6 8 7 82 8 9 9 83 10 5 11 6 12
REMARK SMILES IDX 3 13 2 14 1 15 4 16 15 20 16 21 17 22 18 23 19 24 20 25
REMARK SMILES IDX 81 26 21 27 80 28 22 29 23 30 24 31 74 32 25 33 79 34 73 35
REMARK SMILES IDX 75 36 26 37 78 38 72 39 71 40 27 42 59 43 39 44 58 45 40 46
REMARK SMILES IDX 43 47 57 48 76 49 41 50 42 51 56 53 77 54 44 55 28 56 29 57
REMARK SMILES IDX 37 58 30 59 36 60 38 61 35 62 31 63 32 64 33 65 34 66 60 67
REMARK SMILES IDX 61 68 69 69 62 70 68 71 70 72 67 73 63 74 64 75 65 76 66 77
REMARK SMILES IDX 45 78 46 79 54 80 47 81 53 82 55 83 52 84 48 85 49 86 50 87
REMARK SMILES IDX 51 88
REMARK H PARENT 4 17 4 18 4 19 75 41 43 52
REMARK Flexibility Score: inf
ROOT
ATOM      1  C   UNL A   1      31.450  28.145  25.129  1.00  0.00     0.274 C 
ENDROOT
BRANCH   1   2
ATOM      2  O   UNL A   1      31.838  27.406  23.947  1.00  0.00    -0.462 OA
BRANCH   2   3
ATOM      3  C   UNL A   1      32.702  26.374  24.177  1.00  0.00     0.311 C 
ATOM      4  O   UNL A   1      33.886  26.526  24.446  1.00  0.00    -0.252 OA
BRANCH   3   5
ATOM      5  C   UNL A   1      32.026  25.018  23.974  1.00  0.00     0.123 C 
ATOM      6  N   UNL A   1      33.559  23.242  24.443  1.00  0.00    -0.334 N 
ATOM      7  C   UNL A   1      33.867  23.767  23.121  1.00  0.00     0.121 C 
ATOM      8  C   UNL A   1      32.362  23.900  24.996  1.00  0.00     0.096 C 
ATOM      9  C   UNL A   1      32.569  24.427  22.670  1.00  0.00     0.039 C 
ATOM     10  C   UNL A   1      32.488  24.413  26.428  1.00  0.00     0.032 C 
BRANCH   6  11
ATOM     11  C   UNL A   1      34.218  22.081  24.803  1.00  0.00     0.280 C 
ATOM     12  O   UNL A   1      33.825  20.998  24.349  1.00  0.00    -0.268 OA
BRANCH  11  13
ATOM     13  C   UNL A   1      35.304  22.059  25.910  1.00  0.00     0.270 C 
BRANCH  13  14
ATOM     14  C   UNL A   1      36.098  23.342  26.131  1.00  0.00     0.072 C 
ATOM     15  C   UNL A   1      37.071  23.647  24.998  1.00  0.00     0.011 C 
ENDBRANCH  13  14
BRANCH  13  16
ATOM     16  N   UNL A   1      34.711  21.538  27.166  1.00  0.00    -0.347 N 
ATOM     17  H   UNL A   1      34.071  20.775  26.948  1.00  0.00     0.345 HD
ATOM     18  H   UNL A   1      34.203  22.285  27.638  1.00  0.00     0.345 HD
ATOM     19  H   UNL A   1      35.454  21.195  27.776  1.00  0.00     0.345 HD
ENDBRANCH  13  16
ENDBRANCH  11  13
ENDBRANCH   6  11
ENDBRANCH   3   5
ENDBRANCH   2   3
ENDBRANCH   1   2
BRANCH   1  20
ATOM     20  C   UNL A   1      31.862  29.611  25.023  1.00  0.00     0.275 C 
BRANCH  20  21
ATOM     21  O   UNL A   1      33.097  29.814  25.723  1.00  0.00    -0.458 OA
BRANCH  21  22
ATOM     22  C   UNL A   1      33.073  30.790  26.659  1.00  0.00     0.338 C 
ATOM     23  O   UNL A   1      32.152  31.578  26.841  1.00  0.00    -0.246 OA
BRANCH  22  24
ATOM     24  C   UNL A   1      34.305  30.752  27.490  1.00  0.00     0.060 A 
ATOM     25  C   UNL A   1      35.083  31.892  27.723  1.00  0.00     0.016 A 
ATOM     26  C   UNL A   1      34.737  29.519  27.985  1.00  0.00     0.016 A 
ATOM     27  C   UNL A   1      36.319  31.787  28.368  1.00  0.00     0.010 A 
ATOM     28  C   UNL A   1      35.932  29.434  28.706  1.00  0.00     0.010 A 
ATOM     29  C   UNL A   1      36.755  30.561  28.886  1.00  0.00    -0.014 A 
BRANCH  29  30
ATOM     30  C   UNL A   1      38.061  30.413  29.593  1.00  0.00     0.031 A 
ATOM     31  C   UNL A   1      39.138  29.548  28.991  1.00  0.00     0.074 A 
ATOM     32  C   UNL A   1      38.275  30.988  30.793  1.00  0.00     0.049 A 
ATOM     33  N   UNL A   1      40.176  28.992  29.559  1.00  0.00    -0.248 NA
ATOM     34  C   UNL A   1      39.007  29.253  27.555  1.00  0.00     0.031 C 
ATOM     35  C   UNL A   1      37.369  31.918  31.469  1.00  0.00     0.029 A 
ATOM     36  N   UNL A   1      39.325  30.855  31.672  1.00  0.00    -0.354 N 
ATOM     37  C   UNL A   1      40.784  28.221  28.571  1.00  0.00     0.074 A 
ATOM     38  C   UNL A   1      39.996  28.391  27.367  1.00  0.00     0.031 C 
ATOM     39  C   UNL A   1      37.902  32.275  32.647  1.00  0.00     0.029 A 
ATOM     40  C   UNL A   1      39.131  31.521  32.860  1.00  0.00     0.049 A 
ATOM     41  H   UNL A   1      40.136  30.333  31.470  1.00  0.00     0.167 HD
ATOM     42  C   UNL A   1      41.885  27.435  28.673  1.00  0.00     0.034 A 
ATOM     43  C   UNL A   1      39.817  31.479  34.020  1.00  0.00     0.034 A 
ATOM     44  C   UNL A   1      42.682  27.320  29.872  1.00  0.00     0.049 A 
ATOM     45  C   UNL A   1      41.009  30.564  34.132  1.00  0.00     0.074 A 
ATOM     46  C   UNL A   1      43.818  26.556  30.087  1.00  0.00     0.029 A 
ATOM     47  N   UNL A   1      42.436  28.003  31.057  1.00  0.00    -0.354 N 
ATOM     48  N   UNL A   1      41.511  29.750  33.233  1.00  0.00    -0.248 NA
ATOM     49  C   UNL A   1      41.714  30.550  35.420  1.00  0.00     0.031 C 
ATOM     50  C   UNL A   1      44.227  26.739  31.413  1.00  0.00     0.029 A 
ATOM     51  C   UNL A   1      43.389  27.668  32.007  1.00  0.00     0.049 A 
ATOM     52  H   UNL A   1      41.693  28.632  31.201  1.00  0.00     0.167 HD
ATOM     53  C   UNL A   1      42.604  29.142  33.843  1.00  0.00     0.074 A 
ATOM     54  C   UNL A   1      42.692  29.689  35.181  1.00  0.00     0.031 C 
ATOM     55  C   UNL A   1      43.461  28.218  33.339  1.00  0.00     0.034 A 
BRANCH  42  56
ATOM     56  C   UNL A   1      42.248  26.585  27.479  1.00  0.00     0.023 A 
ATOM     57  C   UNL A   1      41.862  25.239  27.369  1.00  0.00     0.031 A 
ATOM     58  C   UNL A   1      43.019  27.135  26.436  1.00  0.00     0.131 A 
ATOM     59  C   UNL A   1      42.303  24.471  26.278  1.00  0.00     0.055 A 
ATOM     60  C   UNL A   1      43.389  26.388  25.318  1.00  0.00     0.041 A 
ATOM     61  F   UNL A   1      43.436  28.410  26.495  1.00  0.00    -0.206 F 
ATOM     62  C   UNL A   1      43.043  25.043  25.240  1.00  0.00     0.022 A 
BRANCH  59  63
ATOM     63  S   UNL A   1      42.012  22.681  26.304  1.00  0.00     0.124 S 
ATOM     64  O   UNL A   1      42.694  22.287  27.534  1.00  0.00    -0.237 OA
ATOM     65  O   UNL A   1      40.556  22.598  26.328  1.00  0.00    -0.237 OA
ATOM     66  O   UNL A   1      42.644  22.213  25.072  1.00  0.00    -0.744 OA
ENDBRANCH  59  63
ENDBRANCH  42  56
BRANCH  43  67
ATOM     67  C   UNL A   1      39.340  32.257  35.198  1.00  0.00     0.023 A 
ATOM     68  C   UNL A   1      39.790  33.565  35.435  1.00  0.00     0.031 A 
ATOM     69  C   UNL A   1      38.437  31.692  36.118  1.00  0.00     0.131 A 
ATOM     70  C   UNL A   1      39.357  34.254  36.579  1.00  0.00     0.055 A 
ATOM     71  C   UNL A   1      37.967  32.402  37.223  1.00  0.00     0.041 A 
ATOM     72  F   UNL A   1      37.979  30.442  35.941  1.00  0.00    -0.206 F 
ATOM     73  C   UNL A   1      38.436  33.689  37.464  1.00  0.00     0.022 A 
BRANCH  70  74
ATOM     74  S   UNL A   1      40.071  35.884  36.936  1.00  0.00     0.124 S 
ATOM     75  O   UNL A   1      39.706  36.637  35.740  1.00  0.00    -0.237 OA
ATOM     76  O   UNL A   1      39.383  36.258  38.166  1.00  0.00    -0.237 OA
ATOM     77  O   UNL A   1      41.498  35.605  37.083  1.00  0.00    -0.744 OA
ENDBRANCH  70  74
ENDBRANCH  43  67
BRANCH  55  78
ATOM     78  C   UNL A   1      44.604  27.794  34.225  1.00  0.00     0.023 A 
ATOM     79  C   UNL A   1      44.499  26.696  35.097  1.00  0.00     0.031 A 
ATOM     80  C   UNL A   1      45.813  28.511  34.197  1.00  0.00     0.131 A 
ATOM     81  C   UNL A   1      45.574  26.374  35.940  1.00  0.00     0.055 A 
ATOM     82  C   UNL A   1      46.893  28.158  35.004  1.00  0.00     0.041 A 
ATOM     83  F   UNL A   1      45.960  29.567  33.381  1.00  0.00    -0.206 F 
ATOM     84  C   UNL A   1      46.774  27.090  35.889  1.00  0.00     0.022 A 
BRANCH  81  85
ATOM     85  S   UNL A   1      45.365  25.042  37.154  1.00  0.00     0.124 S 
ATOM     86  O   UNL A   1      44.047  25.338  37.705  1.00  0.00    -0.237 OA
ATOM     87  O   UNL A   1      45.455  23.845  36.324  1.00  0.00    -0.237 OA
ATOM     88  O   UNL A   1      46.482  25.239  38.077  1.00  0.00    -0.744 OA
ENDBRANCH  81  85
ENDBRANCH  55  78
ENDBRANCH  29  30
ENDBRANCH  22  24
ENDBRANCH  21  22
ENDBRANCH  20  21
ENDBRANCH   1  20
TORSDOF 18
ENDMDL
MODEL 3
REMARK VINA RESULT:     -10.6      5.119      9.978
REMARK SMILES CC[C@@H]([NH3+])C(=O)N1CC[C@H](C(=O)OCCOC(=O)c2ccc(-c3c4nc(c(-c5cc(S(=O)(=O)[O-])ccc5F)c5ccc([nH]5)c(-c5cc(S(=O)(=O)[O-])ccc5F)c5nc(c(-c6cc(S(=O)(=O)[O-])ccc6F)c6ccc3[nH]6)C=C5)C=C4)cc2)[C@@H]1C
REMARK SMILES IDX 14 1 13 2 11 3 12 4 10 5 7 6 8 7 82 8 9 9 83 10 5 11 6 12
REMARK SMILES IDX 3 13 2 14 1 15 4 16 15 20 16 21 17 22 18 23 19 24 20 25
REMARK SMILES IDX 81 26 21 27 80 28 22 29 23 30 24 31 74 32 25 33 79 34 73 35
REMARK SMILES IDX 75 36 26 37 78 38 72 39 71 40 27 42 59 43 39 44 58 45 40 46
REMARK SMILES IDX 43 47 57 48 76 49 41 50 42 51 56 53 77 54 44 55 28 56 29 57
REMARK SMILES IDX 37 58 30 59 36 60 38 61 35 62 31 63 32 64 33 65 34 66 60 67
REMARK SMILES IDX 61 68 69 69 62 70 68 71 70 72 67 73 63 74 64 75 65 76 66 77
REMARK SMILES IDX 45 78 46 79 54 80 47 81 53 82 55 83 52 84 48 85 49 86 50 87
REMARK SMILES IDX 51 88
REMARK H PARENT 4 17 4 18 4 19 75 41 43 52
REMARK Flexibility Score: inf
ROOT
ATOM      1  C   UNL A   1      31.489  28.895  24.371  1.00  0.00     0.274 C 
ENDROOT
BRANCH   1   2
ATOM      2  O   UNL A   1      30.670  27.744  24.680  1.00  0.00    -0.462 OA
BRANCH   2   3
ATOM      3  C   UNL A   1      31.302  26.769  25.397  1.00  0.00     0.311 C 
ATOM      4  O   UNL A   1      30.949  26.407  26.512  1.00  0.00    -0.252 OA
BRANCH   3   5
ATOM      5  C   UNL A   1      32.543  26.251  24.670  1.00  0.00     0.123 C 
ATOM      6  N   UNL A   1      32.879  23.929  25.139  1.00  0.00    -0.334 N 
ATOM      7  C   UNL A   1      33.344  24.693  26.287  1.00  0.00     0.121 C 
ATOM      8  C   UNL A   1      32.460  24.831  24.051  1.00  0.00     0.096 C 
ATOM      9  C   UNL A   1      33.646  26.075  25.717  1.00  0.00     0.039 C 
ATOM     10  C   UNL A   1      31.103  24.528  23.422  1.00  0.00     0.032 C 
BRANCH   6  11
ATOM     11  C   UNL A   1      33.172  22.578  25.151  1.00  0.00     0.280 C 
ATOM     12  O   UNL A   1      32.292  21.773  25.486  1.00  0.00    -0.268 OA
BRANCH  11  13
ATOM     13  C   UNL A   1      34.615  22.044  24.955  1.00  0.00     0.270 C 
BRANCH  13  14
ATOM     14  C   UNL A   1      35.689  23.062  24.585  1.00  0.00     0.072 C 
ATOM     15  C   UNL A   1      36.556  22.619  23.412  1.00  0.00     0.011 C 
ENDBRANCH  13  14
BRANCH  13  16
ATOM     16  N   UNL A   1      34.996  21.224  26.130  1.00  0.00    -0.347 N 
ATOM     17  H   UNL A   1      35.492  21.806  26.805  1.00  0.00     0.345 HD
ATOM     18  H   UNL A   1      35.600  20.459  25.831  1.00  0.00     0.345 HD
ATOM     19  H   UNL A   1      34.156  20.841  26.565  1.00  0.00     0.345 HD
ENDBRANCH  13  16
ENDBRANCH  11  13
ENDBRANCH   6  11
ENDBRANCH   3   5
ENDBRANCH   2   3
ENDBRANCH   1   2
BRANCH   1  20
ATOM     20  C   UNL A   1      31.558  29.857  25.556  1.00  0.00     0.275 C 
BRANCH  20  21
ATOM     21  O   UNL A   1      32.919  30.255  25.770  1.00  0.00    -0.458 OA
BRANCH  21  22
ATOM     22  C   UNL A   1      33.124  31.045  26.849  1.00  0.00     0.338 C 
ATOM     23  O   UNL A   1      32.306  31.825  27.324  1.00  0.00    -0.246 OA
BRANCH  22  24
ATOM     24  C   UNL A   1      34.470  30.803  27.430  1.00  0.00     0.060 A 
ATOM     25  C   UNL A   1      34.897  29.528  27.819  1.00  0.00     0.016 A 
ATOM     26  C   UNL A   1      35.301  31.902  27.666  1.00  0.00     0.016 A 
ATOM     27  C   UNL A   1      36.101  29.365  28.512  1.00  0.00     0.010 A 
ATOM     28  C   UNL A   1      36.544  31.720  28.281  1.00  0.00     0.010 A 
ATOM     29  C   UNL A   1      36.951  30.454  28.738  1.00  0.00    -0.014 A 
BRANCH  29  30
ATOM     30  C   UNL A   1      38.249  30.316  29.460  1.00  0.00     0.031 A 
ATOM     31  C   UNL A   1      39.326  29.427  28.892  1.00  0.00     0.074 A 
ATOM     32  C   UNL A   1      38.457  30.922  30.646  1.00  0.00     0.049 A 
ATOM     33  N   UNL A   1      40.355  28.880  29.484  1.00  0.00    -0.248 NA
ATOM     34  C   UNL A   1      39.206  29.094  27.464  1.00  0.00     0.031 C 
ATOM     35  C   UNL A   1      37.551  31.876  31.289  1.00  0.00     0.029 A 
ATOM     36  N   UNL A   1      39.499  30.805  31.538  1.00  0.00    -0.354 N 
ATOM     37  C   UNL A   1      40.966  28.079  28.524  1.00  0.00     0.074 A 
ATOM     38  C   UNL A   1      40.190  28.221  27.308  1.00  0.00     0.031 C 
ATOM     39  C   UNL A   1      38.076  32.261  32.461  1.00  0.00     0.029 A 
ATOM     40  C   UNL A   1      39.298  31.505  32.706  1.00  0.00     0.049 A 
ATOM     41  H   UNL A   1      40.307  30.273  31.358  1.00  0.00     0.167 HD
ATOM     42  C   UNL A   1      42.061  27.288  28.657  1.00  0.00     0.034 A 
ATOM     43  C   UNL A   1      39.974  31.490  33.873  1.00  0.00     0.034 A 
ATOM     44  C   UNL A   1      42.847  27.201  29.866  1.00  0.00     0.049 A 
ATOM     45  C   UNL A   1      41.158  30.571  34.020  1.00  0.00     0.074 A 
ATOM     46  C   UNL A   1      43.975  26.435  30.112  1.00  0.00     0.029 A 
ATOM     47  N   UNL A   1      42.595  27.917  31.029  1.00  0.00    -0.354 N 
ATOM     48  N   UNL A   1      41.663  29.729  33.148  1.00  0.00    -0.248 NA
ATOM     49  C   UNL A   1      41.852  30.587  35.314  1.00  0.00     0.031 C 
ATOM     50  C   UNL A   1      44.374  26.652  31.436  1.00  0.00     0.029 A 
ATOM     51  C   UNL A   1      43.537  27.602  31.997  1.00  0.00     0.049 A 
ATOM     52  H   UNL A   1      41.855  28.555  31.149  1.00  0.00     0.167 HD
ATOM     53  C   UNL A   1      42.746  29.131  33.784  1.00  0.00     0.074 A 
ATOM     54  C   UNL A   1      42.826  29.713  35.108  1.00  0.00     0.031 C 
ATOM     55  C   UNL A   1      43.601  28.188  33.314  1.00  0.00     0.034 A 
BRANCH  42  56
ATOM     56  C   UNL A   1      42.429  26.404  27.489  1.00  0.00     0.023 A 
ATOM     57  C   UNL A   1      41.968  25.082  27.373  1.00  0.00     0.031 A 
ATOM     58  C   UNL A   1      43.280  26.894  26.480  1.00  0.00     0.131 A 
ATOM     59  C   UNL A   1      42.413  24.276  26.312  1.00  0.00     0.055 A 
ATOM     60  C   UNL A   1      43.657  26.113  25.387  1.00  0.00     0.041 A 
ATOM     61  F   UNL A   1      43.770  28.143  26.547  1.00  0.00    -0.206 F 
ATOM     62  C   UNL A   1      43.235  24.790  25.306  1.00  0.00     0.022 A 
BRANCH  59  63
ATOM     63  S   UNL A   1      42.014  22.506  26.340  1.00  0.00     0.124 S 
ATOM     64  O   UNL A   1      40.555  22.530  26.274  1.00  0.00    -0.237 OA
ATOM     65  O   UNL A   1      42.697  22.011  25.151  1.00  0.00    -0.237 OA
ATOM     66  O   UNL A   1      42.566  22.050  27.614  1.00  0.00    -0.744 OA
ENDBRANCH  59  63
ENDBRANCH  42  56
BRANCH  43  67
ATOM     67  C   UNL A   1      39.492  32.303  35.025  1.00  0.00     0.023 A 
ATOM     68  C   UNL A   1      38.812  31.707  36.099  1.00  0.00     0.031 A 
ATOM     69  C   UNL A   1      39.689  33.696  35.058  1.00  0.00     0.131 A 
ATOM     70  C   UNL A   1      38.330  32.508  37.148  1.00  0.00     0.055 A 
ATOM     71  C   UNL A   1      39.256  34.478  36.129  1.00  0.00     0.041 A 
ATOM     72  F   UNL A   1      40.328  34.316  34.053  1.00  0.00    -0.206 F 
ATOM     73  C   UNL A   1      38.563  33.884  37.179  1.00  0.00     0.022 A 
BRANCH  70  74
ATOM     74  S   UNL A   1      37.328  31.730  38.445  1.00  0.00     0.124 S 
ATOM     75  O   UNL A   1      38.199  31.854  39.609  1.00  0.00    -0.237 OA
ATOM     76  O   UNL A   1      36.130  32.563  38.447  1.00  0.00    -0.237 OA
ATOM     77  O   UNL A   1      37.135  30.367  37.955  1.00  0.00    -0.744 OA
ENDBRANCH  70  74
ENDBRANCH  43  67
BRANCH  55  78
ATOM     78  C   UNL A   1      44.733  27.780  34.220  1.00  0.00     0.023 A 
ATOM     79  C   UNL A   1      44.623  26.690  35.101  1.00  0.00     0.031 A 
ATOM     80  C   UNL A   1      45.937  28.506  34.205  1.00  0.00     0.131 A 
ATOM     81  C   UNL A   1      45.687  26.383  35.963  1.00  0.00     0.055 A 
ATOM     82  C   UNL A   1      47.007  28.168  35.032  1.00  0.00     0.041 A 
ATOM     83  F   UNL A   1      46.089  29.555  33.382  1.00  0.00    -0.206 F 
ATOM     84  C   UNL A   1      46.882  27.107  35.925  1.00  0.00     0.022 A 
BRANCH  81  85
ATOM     85  S   UNL A   1      45.469  25.060  37.186  1.00  0.00     0.124 S 
ATOM     86  O   UNL A   1      45.440  25.808  38.439  1.00  0.00    -0.237 OA
ATOM     87  O   UNL A   1      44.206  24.457  36.774  1.00  0.00    -0.237 OA
ATOM     88  O   UNL A   1      46.648  24.217  36.994  1.00  0.00    -0.744 OA
ENDBRANCH  81  85
ENDBRANCH  55  78
ENDBRANCH  29  30
ENDBRANCH  22  24
ENDBRANCH  21  22
ENDBRANCH  20  21
ENDBRANCH   1  20
TORSDOF 18
ENDMDL
