MODEL 1
REMARK VINA RESULT:     -11.2      0.000      0.000
REMARK SMILES CC[N@@H+]1CCO[C@@H](c2ncc(C(=O)OCCOC(=O)c3ccc(-c4c5nc(c(-c6cc(S(=O)(=O)[O-])ccc6F)c6ccc([nH]6)c(-c6cc(S(=O)(=O)[O-])ccc6F)c6nc(c(-c7cc(S(=O)(=O)[O-])ccc7F)c7ccc4[nH]7)C=C6)C=C5)cc3)s2)C1
REMARK SMILES IDX 16 1 15 2 14 3 12 4 13 5 11 6 8 7 9 8 83 9 10 10 7 11 3 12
REMARK SMILES IDX 4 13 84 14 5 16 6 17 2 18 1 19 17 20 18 21 19 22 20 23 21 24
REMARK SMILES IDX 82 25 22 26 81 27 23 28 24 29 25 30 75 31 26 32 80 33 74 34
REMARK SMILES IDX 76 35 27 36 79 37 73 38 72 39 28 41 60 42 40 43 59 44 41 45
REMARK SMILES IDX 44 46 58 47 77 48 42 49 43 50 57 52 78 53 45 54 29 55 30 56
REMARK SMILES IDX 38 57 31 58 37 59 39 60 36 61 32 62 33 63 34 64 35 65 61 66
REMARK SMILES IDX 62 67 70 68 63 69 69 70 71 71 68 72 64 73 65 74 66 75 67 76
REMARK SMILES IDX 46 77 47 78 55 79 48 80 54 81 56 82 53 83 49 84 50 85 51 86
REMARK SMILES IDX 52 87
REMARK H PARENT 3 15 76 40 44 51
REMARK Flexibility Score: inf
ROOT
ATOM      1  C   UNL A   1      36.396  20.719  24.730  1.00  0.00     0.275 C 
ENDROOT
BRANCH   1   2
ATOM      2  C   UNL A   1      34.975  20.342  25.167  1.00  0.00     0.275 C 
BRANCH   2   3
ATOM      3  O   UNL A   1      33.999  21.211  24.565  1.00  0.00    -0.458 OA
BRANCH   3   4
ATOM      4  C   UNL A   1      32.711  21.079  25.002  1.00  0.00     0.350 C 
ATOM      5  O   UNL A   1      32.089  20.024  24.990  1.00  0.00    -0.245 OA
BRANCH   4   6
ATOM      6  C   UNL A   1      32.248  22.335  25.540  1.00  0.00     0.132 A 
ATOM      7  C   UNL A   1      32.042  24.690  26.077  1.00  0.00     0.128 A 
ATOM      8  N   UNL A   1      30.849  24.122  26.095  1.00  0.00    -0.246 NA
ATOM      9  S   UNL A   1      33.355  23.581  25.958  1.00  0.00    -0.109 S 
ATOM     10  C   UNL A   1      30.964  22.789  25.758  1.00  0.00     0.139 A 
BRANCH   7  11
ATOM     11  C   UNL A   1      32.240  26.185  26.143  1.00  0.00     0.232 C 
ATOM     12  N   UNL A   1      31.995  28.335  24.820  1.00  0.00    -0.331 N 
ATOM     13  C   UNL A   1      31.455  28.912  26.064  1.00  0.00     0.291 C 
ATOM     14  C   UNL A   1      31.856  26.867  24.817  1.00  0.00     0.302 C 
ATOM     15  H   UNL A   1      31.408  28.684  24.061  1.00  0.00     0.348 HD
ATOM     16  C   UNL A   1      31.767  28.140  27.360  1.00  0.00     0.222 C 
ATOM     17  O   UNL A   1      31.482  26.738  27.234  1.00  0.00    -0.359 OA
BRANCH  12  18
ATOM     18  C   UNL A   1      33.303  28.844  24.407  1.00  0.00     0.258 C 
ATOM     19  C   UNL A   1      34.015  28.176  23.238  1.00  0.00     0.071 C 
ENDBRANCH  12  18
ENDBRANCH   7  11
ENDBRANCH   4   6
ENDBRANCH   3   4
ENDBRANCH   2   3
ENDBRANCH   1   2
BRANCH   1  20
ATOM     20  O   UNL A   1      37.088  21.477  25.741  1.00  0.00    -0.458 OA
BRANCH  20  21
ATOM     21  C   UNL A   1      38.412  21.206  25.850  1.00  0.00     0.338 C 
ATOM     22  O   UNL A   1      38.980  20.194  25.474  1.00  0.00    -0.246 OA
BRANCH  21  23
ATOM     23  C   UNL A   1      39.132  22.380  26.371  1.00  0.00     0.060 A 
ATOM     24  C   UNL A   1      38.601  23.636  26.083  1.00  0.00     0.016 A 
ATOM     25  C   UNL A   1      40.357  22.272  27.030  1.00  0.00     0.016 A 
ATOM     26  C   UNL A   1      39.289  24.794  26.435  1.00  0.00     0.010 A 
ATOM     27  C   UNL A   1      41.042  23.439  27.403  1.00  0.00     0.010 A 
ATOM     28  C   UNL A   1      40.519  24.712  27.099  1.00  0.00    -0.014 A 
BRANCH  28  29
ATOM     29  C   UNL A   1      41.263  25.961  27.428  1.00  0.00     0.031 A 
ATOM     30  C   UNL A   1      40.618  27.024  28.277  1.00  0.00     0.074 A 
ATOM     31  C   UNL A   1      42.531  26.122  26.999  1.00  0.00     0.049 A 
ATOM     32  N   UNL A   1      41.063  28.213  28.596  1.00  0.00    -0.248 NA
ATOM     33  C   UNL A   1      39.297  26.709  28.840  1.00  0.00     0.031 C 
ATOM     34  C   UNL A   1      43.288  25.140  26.220  1.00  0.00     0.029 A 
ATOM     35  N   UNL A   1      43.412  27.166  27.159  1.00  0.00    -0.354 N 
ATOM     36  C   UNL A   1      40.067  28.801  29.369  1.00  0.00     0.074 A 
ATOM     37  C   UNL A   1      38.986  27.840  29.457  1.00  0.00     0.031 C 
ATOM     38  C   UNL A   1      44.519  25.622  25.982  1.00  0.00     0.029 A 
ATOM     39  C   UNL A   1      44.619  26.973  26.525  1.00  0.00     0.049 A 
ATOM     40  H   UNL A   1      43.199  27.975  27.678  1.00  0.00     0.167 HD
ATOM     41  C   UNL A   1      40.058  30.027  29.951  1.00  0.00     0.034 A 
ATOM     42  C   UNL A   1      45.669  27.803  26.360  1.00  0.00     0.034 A 
ATOM     43  C   UNL A   1      41.154  30.964  29.873  1.00  0.00     0.049 A 
ATOM     44  C   UNL A   1      45.603  29.188  26.958  1.00  0.00     0.074 A 
ATOM     45  C   UNL A   1      41.253  32.222  30.443  1.00  0.00     0.029 A 
ATOM     46  N   UNL A   1      42.340  30.751  29.183  1.00  0.00    -0.354 N 
ATOM     47  N   UNL A   1      44.644  29.736  27.670  1.00  0.00    -0.248 NA
ATOM     48  C   UNL A   1      46.758  30.066  26.732  1.00  0.00     0.031 C 
ATOM     49  C   UNL A   1      42.461  32.796  30.039  1.00  0.00     0.029 A 
ATOM     50  C   UNL A   1      43.158  31.866  29.285  1.00  0.00     0.049 A 
ATOM     51  H   UNL A   1      42.567  29.928  28.691  1.00  0.00     0.167 HD
ATOM     52  C   UNL A   1      45.097  31.011  27.998  1.00  0.00     0.074 A 
ATOM     53  C   UNL A   1      46.422  31.141  27.427  1.00  0.00     0.031 C 
ATOM     54  C   UNL A   1      44.476  31.986  28.709  1.00  0.00     0.034 A 
BRANCH  41  55
ATOM     55  C   UNL A   1      38.803  30.454  30.673  1.00  0.00     0.023 A 
ATOM     56  C   UNL A   1      37.737  31.091  30.013  1.00  0.00     0.031 A 
ATOM     57  C   UNL A   1      38.668  30.207  32.051  1.00  0.00     0.131 A 
ATOM     58  C   UNL A   1      36.608  31.501  30.742  1.00  0.00     0.055 A 
ATOM     59  C   UNL A   1      37.514  30.552  32.755  1.00  0.00     0.041 A 
ATOM     60  F   UNL A   1      39.662  29.621  32.739  1.00  0.00    -0.206 F 
ATOM     61  C   UNL A   1      36.478  31.212  32.102  1.00  0.00     0.022 A 
BRANCH  58  62
ATOM     62  S   UNL A   1      35.356  32.516  29.910  1.00  0.00     0.124 S 
ATOM     63  O   UNL A   1      34.903  31.617  28.851  1.00  0.00    -0.237 OA
ATOM     64  O   UNL A   1      34.399  32.777  30.979  1.00  0.00    -0.237 OA
ATOM     65  O   UNL A   1      36.108  33.681  29.449  1.00  0.00    -0.744 OA
ENDBRANCH  58  62
ENDBRANCH  41  55
BRANCH  42  66
ATOM     66  C   UNL A   1      46.849  27.388  25.541  1.00  0.00     0.023 A 
ATOM     67  C   UNL A   1      47.035  27.869  24.235  1.00  0.00     0.031 A 
ATOM     68  C   UNL A   1      47.766  26.438  26.028  1.00  0.00     0.131 A 
ATOM     69  C   UNL A   1      48.074  27.355  23.442  1.00  0.00     0.055 A 
ATOM     70  C   UNL A   1      48.839  25.984  25.260  1.00  0.00     0.041 A 
ATOM     71  F   UNL A   1      47.632  25.935  27.265  1.00  0.00    -0.206 F 
ATOM     72  C   UNL A   1      48.987  26.430  23.951  1.00  0.00     0.022 A 
BRANCH  69  73
ATOM     73  S   UNL A   1      48.140  27.821  21.690  1.00  0.00     0.124 S 
ATOM     74  O   UNL A   1      48.270  26.521  21.042  1.00  0.00    -0.237 OA
ATOM     75  O   UNL A   1      46.863  28.502  21.509  1.00  0.00    -0.237 OA
ATOM     76  O   UNL A   1      49.321  28.679  21.610  1.00  0.00    -0.744 OA
ENDBRANCH  69  73
ENDBRANCH  42  66
BRANCH  54  77
ATOM     77  C   UNL A   1      45.254  33.258  28.954  1.00  0.00     0.023 A 
ATOM     78  C   UNL A   1      45.232  34.329  28.044  1.00  0.00     0.031 A 
ATOM     79  C   UNL A   1      46.042  33.389  30.111  1.00  0.00     0.131 A 
ATOM     80  C   UNL A   1      46.028  35.460  28.277  1.00  0.00     0.055 A 
ATOM     81  C   UNL A   1      46.783  34.545  30.369  1.00  0.00     0.041 A 
ATOM     82  F   UNL A   1      46.104  32.397  31.014  1.00  0.00    -0.206 F 
ATOM     83  C   UNL A   1      46.791  35.582  29.442  1.00  0.00     0.022 A 
BRANCH  80  84
ATOM     84  S   UNL A   1      46.133  36.733  26.989  1.00  0.00     0.124 S 
ATOM     85  O   UNL A   1      47.261  37.538  27.447  1.00  0.00    -0.237 OA
ATOM     86  O   UNL A   1      46.363  35.941  25.784  1.00  0.00    -0.237 OA
ATOM     87  O   UNL A   1      44.831  37.396  27.053  1.00  0.00    -0.744 OA
ENDBRANCH  80  84
ENDBRANCH  54  77
ENDBRANCH  28  29
ENDBRANCH  21  23
ENDBRANCH  20  21
ENDBRANCH   1  20
TORSDOF 16
ENDMDL
MODEL 2
REMARK VINA RESULT:     -11.1      5.214     10.305
REMARK SMILES CC[N@@H+]1CCO[C@@H](c2ncc(C(=O)OCCOC(=O)c3ccc(-c4c5nc(c(-c6cc(S(=O)(=O)[O-])ccc6F)c6ccc([nH]6)c(-c6cc(S(=O)(=O)[O-])ccc6F)c6nc(c(-c7cc(S(=O)(=O)[O-])ccc7F)c7ccc4[nH]7)C=C6)C=C5)cc3)s2)C1
REMARK SMILES IDX 16 1 15 2 14 3 12 4 13 5 11 6 8 7 9 8 83 9 10 10 7 11 3 12
REMARK SMILES IDX 4 13 84 14 5 16 6 17 2 18 1 19 17 20 18 21 19 22 20 23 21 24
REMARK SMILES IDX 82 25 22 26 81 27 23 28 24 29 25 30 75 31 26 32 80 33 74 34
REMARK SMILES IDX 76 35 27 36 79 37 73 38 72 39 28 41 60 42 40 43 59 44 41 45
REMARK SMILES IDX 44 46 58 47 77 48 42 49 43 50 57 52 78 53 45 54 29 55 30 56
REMARK SMILES IDX 38 57 31 58 37 59 39 60 36 61 32 62 33 63 34 64 35 65 61 66
REMARK SMILES IDX 62 67 70 68 63 69 69 70 71 71 68 72 64 73 65 74 66 75 67 76
REMARK SMILES IDX 46 77 47 78 55 79 48 80 54 81 56 82 53 83 49 84 50 85 51 86
REMARK SMILES IDX 52 87
REMARK H PARENT 3 15 76 40 44 51
REMARK Flexibility Score: inf
ROOT
ATOM      1  C   UNL A   1      31.492  29.925  25.556  1.00  0.00     0.275 C 
ENDROOT
BRANCH   1   2
ATOM      2  C   UNL A   1      31.293  28.543  24.922  1.00  0.00     0.275 C 
BRANCH   2   3
ATOM      3  O   UNL A   1      31.884  28.483  23.611  1.00  0.00    -0.458 OA
BRANCH   3   4
ATOM      4  C   UNL A   1      31.307  27.622  22.721  1.00  0.00     0.350 C 
ATOM      5  O   UNL A   1      30.285  27.868  22.092  1.00  0.00    -0.245 OA
BRANCH   4   6
ATOM      6  C   UNL A   1      32.123  26.439  22.589  1.00  0.00     0.132 A 
ATOM      7  C   UNL A   1      32.974  24.178  22.786  1.00  0.00     0.128 A 
ATOM      8  N   UNL A   1      33.368  24.704  21.639  1.00  0.00    -0.246 NA
ATOM      9  S   UNL A   1      32.244  25.300  23.870  1.00  0.00    -0.109 S 
ATOM     10  C   UNL A   1      32.856  25.980  21.514  1.00  0.00     0.139 A 
BRANCH   7  11
ATOM     11  C   UNL A   1      33.139  22.714  23.115  1.00  0.00     0.232 C 
ATOM     12  N   UNL A   1      33.635  21.091  25.001  1.00  0.00    -0.331 N 
ATOM     13  C   UNL A   1      32.551  20.269  24.433  1.00  0.00     0.291 C 
ATOM     14  C   UNL A   1      33.490  22.503  24.600  1.00  0.00     0.302 C 
ATOM     15  H   UNL A   1      33.518  21.064  26.015  1.00  0.00     0.348 HD
ATOM     16  C   UNL A   1      32.153  20.584  22.978  1.00  0.00     0.222 C 
ATOM     17  O   UNL A   1      31.945  21.991  22.770  1.00  0.00    -0.359 OA
BRANCH  12  18
ATOM     18  C   UNL A   1      34.982  20.536  24.869  1.00  0.00     0.258 C 
ATOM     19  C   UNL A   1      36.163  21.341  25.394  1.00  0.00     0.071 C 
ENDBRANCH  12  18
ENDBRANCH   7  11
ENDBRANCH   4   6
ENDBRANCH   3   4
ENDBRANCH   2   3
ENDBRANCH   1   2
BRANCH   1  20
ATOM     20  O   UNL A   1      32.880  30.200  25.826  1.00  0.00    -0.458 OA
BRANCH  20  21
ATOM     21  C   UNL A   1      33.100  31.131  26.787  1.00  0.00     0.338 C 
ATOM     22  O   UNL A   1      32.311  31.978  27.173  1.00  0.00    -0.246 OA
BRANCH  21  23
ATOM     23  C   UNL A   1      34.405  30.902  27.428  1.00  0.00     0.060 A 
ATOM     24  C   UNL A   1      34.728  29.591  27.772  1.00  0.00     0.016 A 
ATOM     25  C   UNL A   1      35.251  31.950  27.792  1.00  0.00     0.016 A 
ATOM     26  C   UNL A   1      35.888  29.312  28.492  1.00  0.00     0.010 A 
ATOM     27  C   UNL A   1      36.430  31.667  28.500  1.00  0.00     0.010 A 
ATOM     28  C   UNL A   1      36.754  30.345  28.866  1.00  0.00    -0.014 A 
BRANCH  28  29
ATOM     29  C   UNL A   1      37.966  30.033  29.674  1.00  0.00     0.031 A 
ATOM     30  C   UNL A   1      39.020  29.105  29.130  1.00  0.00     0.074 A 
ATOM     31  C   UNL A   1      38.142  30.615  30.878  1.00  0.00     0.049 A 
ATOM     32  N   UNL A   1      40.096  28.640  29.713  1.00  0.00    -0.248 NA
ATOM     33  C   UNL A   1      38.838  28.637  27.748  1.00  0.00     0.031 C 
ATOM     34  C   UNL A   1      37.224  31.578  31.490  1.00  0.00     0.029 A 
ATOM     35  N   UNL A   1      39.151  30.489  31.803  1.00  0.00    -0.354 N 
ATOM     36  C   UNL A   1      40.703  27.801  28.784  1.00  0.00     0.074 A 
ATOM     37  C   UNL A   1      39.864  27.810  27.603  1.00  0.00     0.031 C 
ATOM     38  C   UNL A   1      37.717  31.962  32.679  1.00  0.00     0.029 A 
ATOM     39  C   UNL A   1      38.946  31.224  32.950  1.00  0.00     0.049 A 
ATOM     40  H   UNL A   1      39.945  29.926  31.659  1.00  0.00     0.167 HD
ATOM     41  C   UNL A   1      41.853  27.091  28.907  1.00  0.00     0.034 A 
ATOM     42  C   UNL A   1      39.642  31.265  34.105  1.00  0.00     0.034 A 
ATOM     43  C   UNL A   1      42.691  27.112  30.084  1.00  0.00     0.049 A 
ATOM     44  C   UNL A   1      40.879  30.411  34.240  1.00  0.00     0.074 A 
ATOM     45  C   UNL A   1      43.885  26.445  30.301  1.00  0.00     0.029 A 
ATOM     46  N   UNL A   1      42.425  27.832  31.241  1.00  0.00    -0.354 N 
ATOM     47  N   UNL A   1      41.428  29.606  33.358  1.00  0.00    -0.248 NA
ATOM     48  C   UNL A   1      41.589  30.469  35.524  1.00  0.00     0.031 C 
ATOM     49  C   UNL A   1      44.302  26.703  31.611  1.00  0.00     0.029 A 
ATOM     50  C   UNL A   1      43.414  27.597  32.186  1.00  0.00     0.049 A 
ATOM     51  H   UNL A   1      41.648  28.421  31.373  1.00  0.00     0.167 HD
ATOM     52  C   UNL A   1      42.564  29.088  33.975  1.00  0.00     0.074 A 
ATOM     53  C   UNL A   1      42.633  29.688  35.291  1.00  0.00     0.031 C 
ATOM     54  C   UNL A   1      43.470  28.198  33.497  1.00  0.00     0.034 A 
BRANCH  41  55
ATOM     55  C   UNL A   1      42.246  26.184  27.766  1.00  0.00     0.023 A 
ATOM     56  C   UNL A   1      41.778  24.863  27.662  1.00  0.00     0.031 A 
ATOM     57  C   UNL A   1      43.100  26.661  26.755  1.00  0.00     0.131 A 
ATOM     58  C   UNL A   1      42.206  24.051  26.599  1.00  0.00     0.055 A 
ATOM     59  C   UNL A   1      43.464  25.872  25.662  1.00  0.00     0.041 A 
ATOM     60  F   UNL A   1      43.596  27.908  26.811  1.00  0.00    -0.206 F 
ATOM     61  C   UNL A   1      43.025  24.554  25.585  1.00  0.00     0.022 A 
BRANCH  58  62
ATOM     62  S   UNL A   1      41.767  22.291  26.615  1.00  0.00     0.124 S 
ATOM     63  O   UNL A   1      42.382  21.821  25.376  1.00  0.00    -0.237 OA
ATOM     64  O   UNL A   1      42.383  21.822  27.851  1.00  0.00    -0.237 OA
ATOM     65  O   UNL A   1      40.306  22.302  26.613  1.00  0.00    -0.744 OA
ENDBRANCH  58  62
ENDBRANCH  41  55
BRANCH  42  66
ATOM     66  C   UNL A   1      39.159  32.087  35.256  1.00  0.00     0.023 A 
ATOM     67  C   UNL A   1      39.575  33.418  35.426  1.00  0.00     0.031 A 
ATOM     68  C   UNL A   1      38.337  31.524  36.250  1.00  0.00     0.131 A 
ATOM     69  C   UNL A   1      39.216  34.120  36.589  1.00  0.00     0.055 A 
ATOM     70  C   UNL A   1      37.926  32.250  37.369  1.00  0.00     0.041 A 
ATOM     71  F   UNL A   1      37.918  30.253  36.146  1.00  0.00    -0.206 F 
ATOM     72  C   UNL A   1      38.381  33.551  37.553  1.00  0.00     0.022 A 
BRANCH  69  73
ATOM     73  S   UNL A   1      39.963  35.746  36.887  1.00  0.00     0.124 S 
ATOM     74  O   UNL A   1      41.364  35.396  37.091  1.00  0.00    -0.237 OA
ATOM     75  O   UNL A   1      39.653  36.452  35.649  1.00  0.00    -0.237 OA
ATOM     76  O   UNL A   1      39.261  36.231  38.073  1.00  0.00    -0.744 OA
ENDBRANCH  69  73
ENDBRANCH  42  66
BRANCH  54  77
ATOM     77  C   UNL A   1      44.645  27.868  34.387  1.00  0.00     0.023 A 
ATOM     78  C   UNL A   1      44.616  26.785  35.283  1.00  0.00     0.031 A 
ATOM     79  C   UNL A   1      45.804  28.663  34.349  1.00  0.00     0.131 A 
ATOM     80  C   UNL A   1      45.701  26.561  36.144  1.00  0.00     0.055 A 
ATOM     81  C   UNL A   1      46.907  28.396  35.163  1.00  0.00     0.041 A 
ATOM     82  F   UNL A   1      45.887  29.713  33.516  1.00  0.00    -0.206 F 
ATOM     83  C   UNL A   1      46.853  27.349  36.078  1.00  0.00     0.022 A 
BRANCH  80  84
ATOM     84  S   UNL A   1      45.550  25.283  37.424  1.00  0.00     0.124 S 
ATOM     85  O   UNL A   1      46.515  24.286  36.974  1.00  0.00    -0.237 OA
ATOM     86  O   UNL A   1      45.905  26.013  38.637  1.00  0.00    -0.237 OA
ATOM     87  O   UNL A   1      44.148  24.874  37.337  1.00  0.00    -0.744 OA
ENDBRANCH  80  84
ENDBRANCH  54  77
ENDBRANCH  28  29
ENDBRANCH  21  23
ENDBRANCH  20  21
ENDBRANCH   1  20
TORSDOF 16
ENDMDL
MODEL 3
REMARK VINA RESULT:     -11.1      5.360     10.465
REMARK SMILES CC[N@@H+]1CCO[C@@H](c2ncc(C(=O)OCCOC(=O)c3ccc(-c4c5nc(c(-c6cc(S(=O)(=O)[O-])ccc6F)c6ccc([nH]6)c(-c6cc(S(=O)(=O)[O-])ccc6F)c6nc(c(-c7cc(S(=O)(=O)[O-])ccc7F)c7ccc4[nH]7)C=C6)C=C5)cc3)s2)C1
REMARK SMILES IDX 16 1 15 2 14 3 12 4 13 5 11 6 8 7 9 8 83 9 10 10 7 11 3 12
REMARK SMILES IDX 4 13 84 14 5 16 6 17 2 18 1 19 17 20 18 21 19 22 20 23 21 24
REMARK SMILES IDX 82 25 22 26 81 27 23 28 24 29 25 30 75 31 26 32 80 33 74 34
REMARK SMILES IDX 76 35 27 36 79 37 73 38 72 39 28 41 60 42 40 43 59 44 41 45
REMARK SMILES IDX 44 46 58 47 77 48 42 49 43 50 57 52 78 53 45 54 29 55 30 56
REMARK SMILES IDX 38 57 31 58 37 59 39 60 36 61 32 62 33 63 34 64 35 65 61 66
REMARK SMILES IDX 62 67 70 68 63 69 69 70 71 71 68 72 64 73 65 74 66 75 67 76
REMARK SMILES IDX 46 77 47 78 55 79 48 80 54 81 56 82 53 83 49 84 50 85 51 86
REMARK SMILES IDX 52 87
REMARK H PARENT 3 15 76 40 44 51
REMARK Flexibility Score: inf
ROOT
ATOM      1  C   UNL A   1      31.508  30.136  25.521  1.00  0.00     0.275 C 
ENDROOT
BRANCH   1   2
ATOM      2  C   UNL A   1      31.182  28.761  24.928  1.00  0.00     0.275 C 
BRANCH   2   3
ATOM      3  O   UNL A   1      32.147  28.385  23.928  1.00  0.00    -0.458 OA
BRANCH   3   4
ATOM      4  C   UNL A   1      31.674  27.680  22.857  1.00  0.00     0.350 C 
ATOM      5  O   UNL A   1      30.742  28.048  22.153  1.00  0.00    -0.245 OA
BRANCH   4   6
ATOM      6  C   UNL A   1      32.485  26.505  22.651  1.00  0.00     0.132 A 
ATOM      7  C   UNL A   1      33.759  24.475  23.020  1.00  0.00     0.128 A 
ATOM      8  N   UNL A   1      33.257  24.472  21.797  1.00  0.00    -0.246 NA
ATOM      9  S   UNL A   1      33.599  25.976  23.850  1.00  0.00    -0.109 S 
ATOM     10  C   UNL A   1      32.506  25.612  21.600  1.00  0.00     0.139 A 
BRANCH   7  11
ATOM     11  C   UNL A   1      34.407  23.263  23.644  1.00  0.00     0.232 C 
ATOM     12  N   UNL A   1      36.150  22.525  25.333  1.00  0.00    -0.331 N 
ATOM     13  C   UNL A   1      35.157  21.520  25.756  1.00  0.00     0.291 C 
ATOM     14  C   UNL A   1      35.494  23.662  24.660  1.00  0.00     0.302 C 
ATOM     15  H   UNL A   1      36.568  22.896  26.188  1.00  0.00     0.348 HD
ATOM     16  C   UNL A   1      34.021  21.228  24.756  1.00  0.00     0.222 C 
ATOM     17  O   UNL A   1      33.411  22.434  24.268  1.00  0.00    -0.359 OA
BRANCH  12  18
ATOM     18  C   UNL A   1      37.335  21.995  24.660  1.00  0.00     0.258 C 
ATOM     19  C   UNL A   1      37.794  20.580  24.988  1.00  0.00     0.071 C 
ENDBRANCH  12  18
ENDBRANCH   7  11
ENDBRANCH   4   6
ENDBRANCH   3   4
ENDBRANCH   2   3
ENDBRANCH   1   2
BRANCH   1  20
ATOM     20  O   UNL A   1      32.892  30.244  25.907  1.00  0.00    -0.458 OA
BRANCH  20  21
ATOM     21  C   UNL A   1      33.152  31.195  26.838  1.00  0.00     0.338 C 
ATOM     22  O   UNL A   1      32.395  32.078  27.206  1.00  0.00    -0.246 OA
BRANCH  21  23
ATOM     23  C   UNL A   1      34.456  30.942  27.474  1.00  0.00     0.060 A 
ATOM     24  C   UNL A   1      34.730  29.637  27.876  1.00  0.00     0.016 A 
ATOM     25  C   UNL A   1      35.349  31.971  27.776  1.00  0.00     0.016 A 
ATOM     26  C   UNL A   1      35.886  29.344  28.594  1.00  0.00     0.010 A 
ATOM     27  C   UNL A   1      36.525  31.673  28.483  1.00  0.00     0.010 A 
ATOM     28  C   UNL A   1      36.800  30.358  28.908  1.00  0.00    -0.014 A 
BRANCH  28  29
ATOM     29  C   UNL A   1      38.010  30.034  29.715  1.00  0.00     0.031 A 
ATOM     30  C   UNL A   1      39.053  29.094  29.171  1.00  0.00     0.074 A 
ATOM     31  C   UNL A   1      38.193  30.617  30.917  1.00  0.00     0.049 A 
ATOM     32  N   UNL A   1      40.124  28.618  29.754  1.00  0.00    -0.248 NA
ATOM     33  C   UNL A   1      38.864  28.625  27.790  1.00  0.00     0.031 C 
ATOM     34  C   UNL A   1      37.286  31.591  31.528  1.00  0.00     0.029 A 
ATOM     35  N   UNL A   1      39.202  30.481  31.841  1.00  0.00    -0.354 N 
ATOM     36  C   UNL A   1      40.721  27.771  28.826  1.00  0.00     0.074 A 
ATOM     37  C   UNL A   1      39.880  27.786  27.646  1.00  0.00     0.031 C 
ATOM     38  C   UNL A   1      37.785  31.972  32.715  1.00  0.00     0.029 A 
ATOM     39  C   UNL A   1      39.006  31.221  32.986  1.00  0.00     0.049 A 
ATOM     40  H   UNL A   1      39.990  29.909  31.697  1.00  0.00     0.167 HD
ATOM     41  C   UNL A   1      41.863  27.049  28.949  1.00  0.00     0.034 A 
ATOM     42  C   UNL A   1      39.704  31.257  34.140  1.00  0.00     0.034 A 
ATOM     43  C   UNL A   1      42.703  27.063  30.125  1.00  0.00     0.049 A 
ATOM     44  C   UNL A   1      40.932  30.390  34.276  1.00  0.00     0.074 A 
ATOM     45  C   UNL A   1      43.890  26.384  30.342  1.00  0.00     0.029 A 
ATOM     46  N   UNL A   1      42.446  27.788  31.281  1.00  0.00    -0.354 N 
ATOM     47  N   UNL A   1      41.471  29.577  33.395  1.00  0.00    -0.248 NA
ATOM     48  C   UNL A   1      41.645  30.443  35.559  1.00  0.00     0.031 C 
ATOM     49  C   UNL A   1      44.311  26.640  31.650  1.00  0.00     0.029 A 
ATOM     50  C   UNL A   1      43.434  27.545  32.224  1.00  0.00     0.049 A 
ATOM     51  H   UNL A   1      41.676  28.386  31.413  1.00  0.00     0.167 HD
ATOM     52  C   UNL A   1      42.603  29.049  34.012  1.00  0.00     0.074 A 
ATOM     53  C   UNL A   1      42.679  29.650  35.327  1.00  0.00     0.031 C 
ATOM     54  C   UNL A   1      43.498  28.148  33.534  1.00  0.00     0.034 A 
BRANCH  41  55
ATOM     55  C   UNL A   1      42.245  26.135  27.810  1.00  0.00     0.023 A 
ATOM     56  C   UNL A   1      41.731  24.833  27.687  1.00  0.00     0.031 A 
ATOM     57  C   UNL A   1      43.136  26.586  26.818  1.00  0.00     0.131 A 
ATOM     58  C   UNL A   1      42.150  24.012  26.627  1.00  0.00     0.055 A 
ATOM     59  C   UNL A   1      43.492  25.792  25.727  1.00  0.00     0.041 A 
ATOM     60  F   UNL A   1      43.676  27.814  26.893  1.00  0.00    -0.206 F 
ATOM     61  C   UNL A   1      43.006  24.491  25.632  1.00  0.00     0.022 A 
BRANCH  58  62
ATOM     62  S   UNL A   1      41.647  22.269  26.623  1.00  0.00     0.124 S 
ATOM     63  O   UNL A   1      40.191  22.382  26.582  1.00  0.00    -0.237 OA
ATOM     64  O   UNL A   1      42.281  21.760  25.412  1.00  0.00    -0.237 OA
ATOM     65  O   UNL A   1      42.191  21.752  27.876  1.00  0.00    -0.744 OA
ENDBRANCH  58  62
ENDBRANCH  41  55
BRANCH  42  66
ATOM     66  C   UNL A   1      39.232  32.087  35.291  1.00  0.00     0.023 A 
ATOM     67  C   UNL A   1      38.630  31.499  36.414  1.00  0.00     0.031 A 
ATOM     68  C   UNL A   1      39.305  33.491  35.245  1.00  0.00     0.131 A 
ATOM     69  C   UNL A   1      38.072  32.312  37.416  1.00  0.00     0.055 A 
ATOM     70  C   UNL A   1      38.813  34.293  36.276  1.00  0.00     0.041 A 
ATOM     71  F   UNL A   1      39.861  34.110  34.190  1.00  0.00    -0.206 F 
ATOM     72  C   UNL A   1      38.175  33.704  37.362  1.00  0.00     0.022 A 
BRANCH  69  73
ATOM     73  S   UNL A   1      37.096  31.527  38.728  1.00  0.00     0.124 S 
ATOM     74  O   UNL A   1      36.886  30.191  38.183  1.00  0.00    -0.237 OA
ATOM     75  O   UNL A   1      37.999  31.618  39.871  1.00  0.00    -0.237 OA
ATOM     76  O   UNL A   1      35.901  32.364  38.810  1.00  0.00    -0.744 OA
ENDBRANCH  69  73
ENDBRANCH  42  66
BRANCH  54  77
ATOM     77  C   UNL A   1      44.670  27.807  34.424  1.00  0.00     0.023 A 
ATOM     78  C   UNL A   1      44.569  26.853  35.453  1.00  0.00     0.031 A 
ATOM     79  C   UNL A   1      45.902  28.461  34.248  1.00  0.00     0.131 A 
ATOM     80  C   UNL A   1      45.662  26.623  36.302  1.00  0.00     0.055 A 
ATOM     81  C   UNL A   1      47.006  28.181  35.056  1.00  0.00     0.041 A 
ATOM     82  F   UNL A   1      46.056  29.384  33.285  1.00  0.00    -0.206 F 
ATOM     83  C   UNL A   1      46.885  27.269  36.100  1.00  0.00     0.022 A 
BRANCH  80  84
ATOM     84  S   UNL A   1      45.436  25.540  37.739  1.00  0.00     0.124 S 
ATOM     85  O   UNL A   1      44.965  24.305  37.120  1.00  0.00    -0.237 OA
ATOM     86  O   UNL A   1      46.778  25.494  38.311  1.00  0.00    -0.237 OA
ATOM     87  O   UNL A   1      44.443  26.246  38.549  1.00  0.00    -0.744 OA
ENDBRANCH  80  84
ENDBRANCH  54  77
ENDBRANCH  28  29
ENDBRANCH  21  23
ENDBRANCH  20  21
ENDBRANCH   1  20
TORSDOF 16
ENDMDL
