MODEL 1
REMARK VINA RESULT:     -17.0      0.000      0.000
REMARK SMILES O=C(OCCOC(=O)[C@H]1CC2(CC[NH+](C(=O)C3CC3)CC2)CN1C(=O)CCn1cccn1)c1ccc(-c2c3nc(c(-c4cc(S(=O)(=O)[O-])ccc4F)c4ccc([nH]4)c(-c4cc(S(=O)(=O)[O-])ccc4F)c4nc(c(-c5cc(S(=O)(=O)[O-])ccc5F)c5ccc2[nH]5)C=C4)C=C3)cc1
REMARK SMILES IDX 5 1 4 2 3 3 2 4 1 5 33 6 34 7 95 8 35 9 94 10 36 11 37 12
REMARK SMILES IDX 38 13 88 14 39 15 93 16 87 17 89 18 40 19 92 20 86 21 85 22
REMARK SMILES IDX 41 24 73 25 53 26 72 27 54 28 57 29 71 30 90 31 55 32 56 33
REMARK SMILES IDX 70 35 91 36 58 37 42 38 43 39 51 40 44 41 50 42 52 43 49 44
REMARK SMILES IDX 45 45 46 46 47 47 48 48 74 49 75 50 83 51 76 52 82 53 84 54
REMARK SMILES IDX 81 55 77 56 78 57 79 58 80 59 59 60 60 61 68 62 61 63 67 64
REMARK SMILES IDX 69 65 66 66 62 67 63 68 64 69 65 70 6 71 7 72 8 73 9 74
REMARK SMILES IDX 10 75 23 76 11 77 22 78 12 79 21 80 13 81 20 82 14 83 24 85
REMARK SMILES IDX 25 86 26 87 27 88 28 89 29 90 32 91 30 92 31 93 15 94 16 95
REMARK SMILES IDX 17 96 18 97 19 98
REMARK H PARENT 89 23 57 34 14 84
REMARK Flexibility Score: inf
ROOT
ATOM      1  C   UNL A   1      36.644  23.768  25.280  1.00  0.00     0.274 C 
ENDROOT
BRANCH   1   2
ATOM      2  C   UNL A   1      37.229  22.112  25.762  1.00  0.00     0.275 C 
BRANCH   2   3
ATOM      3  O   UNL A   1      38.800  21.717  25.771  1.00  0.00    -0.458 OA
BRANCH   3   4
ATOM      4  C   UNL A   1      39.996  22.130  26.883  1.00  0.00     0.338 C 
ATOM      5  O   UNL A   1      40.246  21.016  27.407  1.00  0.00    -0.246 OA
BRANCH   4   6
ATOM      6  C   UNL A   1      40.693  24.254  26.993  1.00  0.00     0.060 A 
ATOM      7  C   UNL A   1      41.795  24.856  27.903  1.00  0.00     0.016 A 
ATOM      8  C   UNL A   1      40.066  25.587  26.654  1.00  0.00     0.016 A 
ATOM      9  C   UNL A   1      41.776  25.988  28.770  1.00  0.00     0.010 A 
ATOM     10  C   UNL A   1      40.126  26.842  27.418  1.00  0.00     0.010 A 
ATOM     11  C   UNL A   1      40.903  27.020  28.564  1.00  0.00    -0.014 A 
BRANCH  11  12
ATOM     12  C   UNL A   1      41.099  28.347  29.272  1.00  0.00     0.031 A 
ATOM     13  C   UNL A   1      42.342  29.175  28.773  1.00  0.00     0.074 A 
ATOM     14  C   UNL A   1      40.084  28.872  30.050  1.00  0.00     0.049 A 
ATOM     15  N   UNL A   1      42.694  30.380  29.103  1.00  0.00    -0.248 NA
ATOM     16  C   UNL A   1      43.246  28.678  27.694  1.00  0.00     0.031 C 
ATOM     17  C   UNL A   1      38.847  28.193  30.476  1.00  0.00     0.029 A 
ATOM     18  N   UNL A   1      39.841  30.137  30.568  1.00  0.00    -0.354 N 
ATOM     19  C   UNL A   1      43.688  30.817  28.209  1.00  0.00     0.074 A 
ATOM     20  C   UNL A   1      43.957  29.744  27.310  1.00  0.00     0.031 C 
ATOM     21  C   UNL A   1      37.916  29.088  30.907  1.00  0.00     0.029 A 
ATOM     22  C   UNL A   1      38.489  30.427  30.938  1.00  0.00     0.049 A 
ATOM     23  H   UNL A   1      40.561  30.800  30.674  1.00  0.00     0.167 HD
ATOM     24  C   UNL A   1      44.515  31.878  28.420  1.00  0.00     0.034 A 
ATOM     25  C   UNL A   1      37.894  31.639  31.273  1.00  0.00     0.034 A 
ATOM     26  C   UNL A   1      44.703  32.016  29.834  1.00  0.00     0.049 A 
ATOM     27  C   UNL A   1      39.016  32.542  31.598  1.00  0.00     0.074 A 
ATOM     28  C   UNL A   1      45.437  31.257  30.714  1.00  0.00     0.029 A 
ATOM     29  N   UNL A   1      43.698  32.630  30.547  1.00  0.00    -0.354 N 
ATOM     30  N   UNL A   1      39.853  32.308  32.567  1.00  0.00    -0.248 NA
ATOM     31  C   UNL A   1      39.478  33.471  30.583  1.00  0.00     0.031 C 
ATOM     32  C   UNL A   1      44.557  31.052  31.806  1.00  0.00     0.029 A 
ATOM     33  C   UNL A   1      43.442  31.886  31.675  1.00  0.00     0.049 A 
ATOM     34  H   UNL A   1      43.239  33.463  30.290  1.00  0.00     0.167 HD
ATOM     35  C   UNL A   1      41.085  32.638  32.038  1.00  0.00     0.074 A 
ATOM     36  C   UNL A   1      40.783  33.476  30.876  1.00  0.00     0.031 C 
ATOM     37  C   UNL A   1      42.190  31.932  32.417  1.00  0.00     0.034 A 
BRANCH  24  38
ATOM     38  C   UNL A   1      44.614  33.053  27.468  1.00  0.00     0.023 A 
ATOM     39  C   UNL A   1      44.108  34.280  27.927  1.00  0.00     0.031 A 
ATOM     40  C   UNL A   1      44.893  32.981  26.091  1.00  0.00     0.131 A 
ATOM     41  C   UNL A   1      43.679  35.272  27.031  1.00  0.00     0.055 A 
ATOM     42  C   UNL A   1      44.425  33.952  25.187  1.00  0.00     0.041 A 
ATOM     43  F   UNL A   1      45.584  31.953  25.575  1.00  0.00    -0.206 F 
ATOM     44  C   UNL A   1      43.769  35.086  25.655  1.00  0.00     0.022 A 
BRANCH  41  45
ATOM     45  S   UNL A   1      42.906  36.753  27.727  1.00  0.00     0.124 S 
ATOM     46  O   UNL A   1      42.047  36.183  28.760  1.00  0.00    -0.237 OA
ATOM     47  O   UNL A   1      44.070  37.496  28.200  1.00  0.00    -0.237 OA
ATOM     48  O   UNL A   1      42.210  37.344  26.588  1.00  0.00    -0.744 OA
ENDBRANCH  41  45
ENDBRANCH  24  38
BRANCH  25  49
ATOM     49  C   UNL A   1      36.483  32.240  31.104  1.00  0.00     0.023 A 
ATOM     50  C   UNL A   1      35.855  33.222  31.960  1.00  0.00     0.031 A 
ATOM     51  C   UNL A   1      35.849  32.060  29.861  1.00  0.00     0.131 A 
ATOM     52  C   UNL A   1      34.679  33.943  31.546  1.00  0.00     0.055 A 
ATOM     53  C   UNL A   1      34.719  32.792  29.450  1.00  0.00     0.041 A 
ATOM     54  F   UNL A   1      36.365  31.220  28.952  1.00  0.00    -0.206 F 
ATOM     55  C   UNL A   1      34.137  33.739  30.280  1.00  0.00     0.022 A 
BRANCH  52  56
ATOM     56  S   UNL A   1      33.813  35.206  32.593  1.00  0.00     0.124 S 
ATOM     57  O   UNL A   1      32.465  34.662  32.707  1.00  0.00    -0.237 OA
ATOM     58  O   UNL A   1      34.612  35.226  33.813  1.00  0.00    -0.237 OA
ATOM     59  O   UNL A   1      33.898  36.435  31.799  1.00  0.00    -0.744 OA
ENDBRANCH  52  56
ENDBRANCH  25  49
BRANCH  37  60
ATOM     60  C   UNL A   1      42.086  31.036  33.653  1.00  0.00     0.023 A 
ATOM     61  C   UNL A   1      41.928  29.625  33.690  1.00  0.00     0.031 A 
ATOM     62  C   UNL A   1      42.247  31.690  34.886  1.00  0.00     0.131 A 
ATOM     63  C   UNL A   1      41.922  28.943  34.928  1.00  0.00     0.055 A 
ATOM     64  C   UNL A   1      42.293  31.010  36.098  1.00  0.00     0.041 A 
ATOM     65  F   UNL A   1      42.402  33.024  34.934  1.00  0.00    -0.206 F 
ATOM     66  C   UNL A   1      42.119  29.635  36.126  1.00  0.00     0.022 A 
BRANCH  63  67
ATOM     67  S   UNL A   1      41.589  27.148  35.032  1.00  0.00     0.124 S 
ATOM     68  O   UNL A   1      41.289  26.936  36.443  1.00  0.00    -0.237 OA
ATOM     69  O   UNL A   1      40.470  26.977  34.107  1.00  0.00    -0.237 OA
ATOM     70  O   UNL A   1      42.845  26.545  34.580  1.00  0.00    -0.744 OA
ENDBRANCH  63  67
ENDBRANCH  37  60
ENDBRANCH  11  12
ENDBRANCH   4   6
ENDBRANCH   3   4
ENDBRANCH   2   3
ENDBRANCH   1   2
BRANCH   1  71
ATOM     71  O   UNL A   1      35.299  24.211  24.175  1.00  0.00    -0.461 OA
BRANCH  71  72
ATOM     72  C   UNL A   1      33.727  24.318  24.142  1.00  0.00     0.328 C 
ATOM     73  O   UNL A   1      32.894  24.017  23.263  1.00  0.00    -0.250 OA
BRANCH  72  74
ATOM     74  C   UNL A   1      33.055  25.270  24.945  1.00  0.00     0.195 C 
ATOM     75  C   UNL A   1      32.389  26.285  24.110  1.00  0.00     0.046 C 
ATOM     76  N   UNL A   1      32.214  24.505  25.709  1.00  0.00    -0.328 N 
ATOM     77  C   UNL A   1      31.242  26.729  24.999  1.00  0.00     0.001 C 
ATOM     78  C   UNL A   1      31.193  25.525  26.140  1.00  0.00     0.128 C 
ATOM     79  C   UNL A   1      29.955  26.681  24.195  1.00  0.00     0.071 C 
ATOM     80  C   UNL A   1      31.454  28.242  25.332  1.00  0.00     0.071 C 
ATOM     81  C   UNL A   1      29.974  27.559  22.940  1.00  0.00     0.270 C 
ATOM     82  C   UNL A   1      31.355  29.189  24.070  1.00  0.00     0.270 C 
ATOM     83  N   UNL A   1      30.167  28.949  23.244  1.00  0.00    -0.272 N 
ATOM     84  H   UNL A   1      29.717  29.346  22.464  1.00  0.00     0.356 HD
BRANCH  76  85
ATOM     85  C   UNL A   1      32.741  23.238  26.155  1.00  0.00     0.225 C 
ATOM     86  O   UNL A   1      33.673  23.229  26.969  1.00  0.00    -0.275 OA
BRANCH  85  87
ATOM     87  C   UNL A   1      32.114  21.601  25.562  1.00  0.00     0.124 C 
BRANCH  87  88
ATOM     88  C   UNL A   1      32.747  20.214  24.428  1.00  0.00     0.154 C 
BRANCH  88  89
ATOM     89  N   UNL A   1      33.483  18.658  25.016  1.00  0.00    -0.272 N 
ATOM     90  C   UNL A   1      35.048  17.604  24.528  1.00  0.00     0.108 A 
ATOM     91  N   UNL A   1      32.207  17.415  25.584  1.00  0.00    -0.182 NA
ATOM     92  C   UNL A   1      34.636  15.875  24.794  1.00  0.00     0.042 A 
ATOM     93  C   UNL A   1      32.816  15.841  25.438  1.00  0.00     0.135 A 
ENDBRANCH  88  89
ENDBRANCH  87  88
ENDBRANCH  85  87
ENDBRANCH  76  85
BRANCH  83  94
ATOM     94  C   UNL A   1      29.513  30.035  22.621  1.00  0.00     0.315 C 
ATOM     95  O   UNL A   1      29.594  30.174  21.399  1.00  0.00    -0.231 OA
BRANCH  94  96
ATOM     96  C   UNL A   1      28.692  31.092  23.323  1.00  0.00     0.119 C 
ATOM     97  C   UNL A   1      28.946  32.567  23.289  1.00  0.00     0.019 C 
ATOM     98  C   UNL A   1      27.712  32.009  22.652  1.00  0.00     0.019 C 
ENDBRANCH  94  96
ENDBRANCH  83  94
ENDBRANCH  72  74
ENDBRANCH  71  72
ENDBRANCH   1  71
TORSDOF 20
ENDMDL
MODEL 2
REMARK VINA RESULT:     -16.8      3.553     10.376
REMARK SMILES O=C(OCCOC(=O)[C@H]1CC2(CC[NH+](C(=O)C3CC3)CC2)CN1C(=O)CCn1cccn1)c1ccc(-c2c3nc(c(-c4cc(S(=O)(=O)[O-])ccc4F)c4ccc([nH]4)c(-c4cc(S(=O)(=O)[O-])ccc4F)c4nc(c(-c5cc(S(=O)(=O)[O-])ccc5F)c5ccc2[nH]5)C=C4)C=C3)cc1
REMARK SMILES IDX 5 1 4 2 3 3 2 4 1 5 33 6 34 7 95 8 35 9 94 10 36 11 37 12
REMARK SMILES IDX 38 13 88 14 39 15 93 16 87 17 89 18 40 19 92 20 86 21 85 22
REMARK SMILES IDX 41 24 73 25 53 26 72 27 54 28 57 29 71 30 90 31 55 32 56 33
REMARK SMILES IDX 70 35 91 36 58 37 42 38 43 39 51 40 44 41 50 42 52 43 49 44
REMARK SMILES IDX 45 45 46 46 47 47 48 48 74 49 75 50 83 51 76 52 82 53 84 54
REMARK SMILES IDX 81 55 77 56 78 57 79 58 80 59 59 60 60 61 68 62 61 63 67 64
REMARK SMILES IDX 69 65 66 66 62 67 63 68 64 69 65 70 6 71 7 72 8 73 9 74
REMARK SMILES IDX 10 75 23 76 11 77 22 78 12 79 21 80 13 81 20 82 14 83 24 85
REMARK SMILES IDX 25 86 26 87 27 88 28 89 29 90 32 91 30 92 31 93 15 94 16 95
REMARK SMILES IDX 17 96 18 97 19 98
REMARK H PARENT 89 23 57 34 14 84
REMARK Flexibility Score: inf
ROOT
ATOM      1  C   UNL A   1      31.668  28.450  26.772  1.00  0.00     0.274 C 
ENDROOT
BRANCH   1   2
ATOM      2  C   UNL A   1      33.140  29.351  27.353  1.00  0.00     0.275 C 
BRANCH   2   3
ATOM      3  O   UNL A   1      33.260  30.964  27.262  1.00  0.00    -0.458 OA
BRANCH   3   4
ATOM      4  C   UNL A   1      34.203  32.015  28.182  1.00  0.00     0.338 C 
ATOM      5  O   UNL A   1      33.663  33.121  27.930  1.00  0.00    -0.246 OA
BRANCH   4   6
ATOM      6  C   UNL A   1      35.857  31.179  29.437  1.00  0.00     0.060 A 
ATOM      7  C   UNL A   1      37.235  31.814  29.755  1.00  0.00     0.016 A 
ATOM      8  C   UNL A   1      36.262  29.783  29.851  1.00  0.00     0.016 A 
ATOM      9  C   UNL A   1      38.555  31.287  29.646  1.00  0.00     0.010 A 
ATOM     10  C   UNL A   1      37.614  29.207  29.911  1.00  0.00     0.010 A 
ATOM     11  C   UNL A   1      38.783  29.940  29.692  1.00  0.00    -0.014 A 
BRANCH  11  12
ATOM     12  C   UNL A   1      40.186  29.403  29.903  1.00  0.00     0.031 A 
ATOM     13  C   UNL A   1      40.630  29.317  31.410  1.00  0.00     0.074 A 
ATOM     14  C   UNL A   1      40.848  28.775  28.865  1.00  0.00     0.049 A 
ATOM     15  N   UNL A   1      41.714  28.799  31.903  1.00  0.00    -0.248 NA
ATOM     16  C   UNL A   1      39.735  29.739  32.528  1.00  0.00     0.031 C 
ATOM     17  C   UNL A   1      40.443  28.728  27.449  1.00  0.00     0.029 A 
ATOM     18  N   UNL A   1      41.966  27.953  28.811  1.00  0.00    -0.354 N 
ATOM     19  C   UNL A   1      41.563  28.685  33.297  1.00  0.00     0.074 A 
ATOM     20  C   UNL A   1      40.288  29.228  33.635  1.00  0.00     0.031 C 
ATOM     21  C   UNL A   1      41.100  27.741  26.780  1.00  0.00     0.029 A 
ATOM     22  C   UNL A   1      42.098  27.130  27.647  1.00  0.00     0.049 A 
ATOM     23  H   UNL A   1      42.632  27.937  29.535  1.00  0.00     0.167 HD
ATOM     24  C   UNL A   1      42.581  28.491  34.179  1.00  0.00     0.034 A 
ATOM     25  C   UNL A   1      42.962  26.070  27.396  1.00  0.00     0.034 A 
ATOM     26  C   UNL A   1      43.762  29.086  33.627  1.00  0.00     0.049 A 
ATOM     27  C   UNL A   1      44.038  26.202  28.398  1.00  0.00     0.074 A 
ATOM     28  C   UNL A   1      44.117  30.407  33.495  1.00  0.00     0.029 A 
ATOM     29  N   UNL A   1      44.434  28.373  32.661  1.00  0.00    -0.354 N 
ATOM     30  N   UNL A   1      44.811  27.246  28.470  1.00  0.00    -0.248 NA
ATOM     31  C   UNL A   1      43.976  25.386  29.598  1.00  0.00     0.031 C 
ATOM     32  C   UNL A   1      44.588  30.504  32.162  1.00  0.00     0.029 A 
ATOM     33  C   UNL A   1      44.745  29.222  31.625  1.00  0.00     0.049 A 
ATOM     34  H   UNL A   1      44.655  27.413  32.705  1.00  0.00     0.167 HD
ATOM     35  C   UNL A   1      44.920  27.495  29.824  1.00  0.00     0.074 A 
ATOM     36  C   UNL A   1      44.510  26.248  30.470  1.00  0.00     0.031 C 
ATOM     37  C   UNL A   1      45.025  28.784  30.265  1.00  0.00     0.034 A 
BRANCH  24  38
ATOM     38  C   UNL A   1      42.633  27.320  35.139  1.00  0.00     0.023 A 
ATOM     39  C   UNL A   1      43.532  26.287  34.825  1.00  0.00     0.031 A 
ATOM     40  C   UNL A   1      41.688  27.026  36.140  1.00  0.00     0.131 A 
ATOM     41  C   UNL A   1      43.335  24.980  35.299  1.00  0.00     0.055 A 
ATOM     42  C   UNL A   1      41.460  25.711  36.584  1.00  0.00     0.041 A 
ATOM     43  F   UNL A   1      40.932  27.992  36.684  1.00  0.00    -0.206 F 
ATOM     44  C   UNL A   1      42.259  24.669  36.124  1.00  0.00     0.022 A 
BRANCH  41  45
ATOM     45  S   UNL A   1      44.468  23.696  34.712  1.00  0.00     0.124 S 
ATOM     46  O   UNL A   1      44.708  24.117  33.336  1.00  0.00    -0.237 OA
ATOM     47  O   UNL A   1      45.589  23.850  35.635  1.00  0.00    -0.237 OA
ATOM     48  O   UNL A   1      43.698  22.465  34.866  1.00  0.00    -0.744 OA
ENDBRANCH  41  45
ENDBRANCH  24  38
BRANCH  25  49
ATOM     49  C   UNL A   1      42.875  24.769  26.570  1.00  0.00     0.023 A 
ATOM     50  C   UNL A   1      43.826  24.308  25.583  1.00  0.00     0.031 A 
ATOM     51  C   UNL A   1      41.964  23.788  27.005  1.00  0.00     0.131 A 
ATOM     52  C   UNL A   1      43.818  22.950  25.104  1.00  0.00     0.055 A 
ATOM     53  C   UNL A   1      41.984  22.454  26.556  1.00  0.00     0.041 A 
ATOM     54  F   UNL A   1      41.068  24.072  27.961  1.00  0.00    -0.206 F 
ATOM     55  C   UNL A   1      42.911  22.027  25.617  1.00  0.00     0.022 A 
BRANCH  52  56
ATOM     56  S   UNL A   1      44.998  22.290  23.832  1.00  0.00     0.124 S 
ATOM     57  O   UNL A   1      45.370  20.991  24.380  1.00  0.00    -0.237 OA
ATOM     58  O   UNL A   1      44.194  22.276  22.615  1.00  0.00    -0.237 OA
ATOM     59  O   UNL A   1      46.086  23.272  23.822  1.00  0.00    -0.744 OA
ENDBRANCH  52  56
ENDBRANCH  25  49
BRANCH  37  60
ATOM     60  C   UNL A   1      45.356  29.873  29.242  1.00  0.00     0.023 A 
ATOM     61  C   UNL A   1      46.628  30.190  28.695  1.00  0.00     0.031 A 
ATOM     62  C   UNL A   1      44.252  30.581  28.738  1.00  0.00     0.131 A 
ATOM     63  C   UNL A   1      46.743  31.186  27.699  1.00  0.00     0.055 A 
ATOM     64  C   UNL A   1      44.364  31.523  27.721  1.00  0.00     0.041 A 
ATOM     65  F   UNL A   1      43.016  30.337  29.205  1.00  0.00    -0.206 F 
ATOM     66  C   UNL A   1      45.611  31.839  27.206  1.00  0.00     0.022 A 
BRANCH  63  67
ATOM     67  S   UNL A   1      48.373  31.720  27.062  1.00  0.00     0.124 S 
ATOM     68  O   UNL A   1      49.087  32.144  28.259  1.00  0.00    -0.237 OA
ATOM     69  O   UNL A   1      48.873  30.510  26.413  1.00  0.00    -0.237 OA
ATOM     70  O   UNL A   1      48.035  32.805  26.138  1.00  0.00    -0.744 OA
ENDBRANCH  63  67
ENDBRANCH  37  60
ENDBRANCH  11  12
ENDBRANCH   4   6
ENDBRANCH   3   4
ENDBRANCH   2   3
ENDBRANCH   1   2
BRANCH   1  71
ATOM     71  O   UNL A   1      31.453  26.684  26.520  1.00  0.00    -0.461 OA
BRANCH  71  72
ATOM     72  C   UNL A   1      31.521  25.592  25.385  1.00  0.00     0.328 C 
ATOM     73  O   UNL A   1      30.636  24.887  24.860  1.00  0.00    -0.250 OA
BRANCH  72  74
ATOM     74  C   UNL A   1      32.720  24.881  25.144  1.00  0.00     0.195 C 
ATOM     75  C   UNL A   1      32.504  23.429  25.273  1.00  0.00     0.046 C 
ATOM     76  N   UNL A   1      33.095  25.303  23.896  1.00  0.00    -0.328 N 
ATOM     77  C   UNL A   1      33.575  22.863  24.358  1.00  0.00     0.001 C 
ATOM     78  C   UNL A   1      34.022  24.194  23.472  1.00  0.00     0.128 C 
ATOM     79  C   UNL A   1      32.933  21.856  23.420  1.00  0.00     0.071 C 
ATOM     80  C   UNL A   1      34.561  22.027  25.236  1.00  0.00     0.071 C 
ATOM     81  C   UNL A   1      32.236  20.697  24.137  1.00  0.00     0.270 C 
ATOM     82  C   UNL A   1      33.897  20.750  25.892  1.00  0.00     0.270 C 
ATOM     83  N   UNL A   1      33.140  19.925  24.944  1.00  0.00    -0.272 N 
ATOM     84  H   UNL A   1      32.668  19.062  24.928  1.00  0.00     0.356 HD
BRANCH  76  85
ATOM     85  C   UNL A   1      32.860  26.696  23.602  1.00  0.00     0.225 C 
ATOM     86  O   UNL A   1      33.646  27.543  24.044  1.00  0.00    -0.275 OA
BRANCH  85  87
ATOM     87  C   UNL A   1      31.424  27.305  22.607  1.00  0.00     0.124 C 
BRANCH  87  88
ATOM     88  C   UNL A   1      29.815  28.257  22.952  1.00  0.00     0.154 C 
BRANCH  88  89
ATOM     89  N   UNL A   1      29.609  30.049  22.720  1.00  0.00    -0.272 N 
ATOM     90  C   UNL A   1      29.078  31.534  23.866  1.00  0.00     0.108 A 
ATOM     91  N   UNL A   1      28.996  30.499  21.012  1.00  0.00    -0.182 NA
ATOM     92  C   UNL A   1      28.201  32.719  22.838  1.00  0.00     0.042 A 
ATOM     93  C   UNL A   1      28.173  31.979  21.055  1.00  0.00     0.135 A 
ENDBRANCH  88  89
ENDBRANCH  87  88
ENDBRANCH  85  87
ENDBRANCH  76  85
BRANCH  83  94
ATOM     94  C   UNL A   1      33.143  18.519  25.076  1.00  0.00     0.315 C 
ATOM     95  O   UNL A   1      32.264  17.968  25.740  1.00  0.00    -0.231 OA
BRANCH  94  96
ATOM     96  C   UNL A   1      34.156  17.578  24.465  1.00  0.00     0.119 C 
ATOM     97  C   UNL A   1      34.006  16.095  24.329  1.00  0.00     0.019 C 
ATOM     98  C   UNL A   1      34.043  16.955  23.104  1.00  0.00     0.019 C 
ENDBRANCH  94  96
ENDBRANCH  83  94
ENDBRANCH  72  74
ENDBRANCH  71  72
ENDBRANCH   1  71
TORSDOF 20
ENDMDL
MODEL 3
REMARK VINA RESULT:     -16.4      3.739      9.630
REMARK SMILES O=C(OCCOC(=O)[C@H]1CC2(CC[NH+](C(=O)C3CC3)CC2)CN1C(=O)CCn1cccn1)c1ccc(-c2c3nc(c(-c4cc(S(=O)(=O)[O-])ccc4F)c4ccc([nH]4)c(-c4cc(S(=O)(=O)[O-])ccc4F)c4nc(c(-c5cc(S(=O)(=O)[O-])ccc5F)c5ccc2[nH]5)C=C4)C=C3)cc1
REMARK SMILES IDX 5 1 4 2 3 3 2 4 1 5 33 6 34 7 95 8 35 9 94 10 36 11 37 12
REMARK SMILES IDX 38 13 88 14 39 15 93 16 87 17 89 18 40 19 92 20 86 21 85 22
REMARK SMILES IDX 41 24 73 25 53 26 72 27 54 28 57 29 71 30 90 31 55 32 56 33
REMARK SMILES IDX 70 35 91 36 58 37 42 38 43 39 51 40 44 41 50 42 52 43 49 44
REMARK SMILES IDX 45 45 46 46 47 47 48 48 74 49 75 50 83 51 76 52 82 53 84 54
REMARK SMILES IDX 81 55 77 56 78 57 79 58 80 59 59 60 60 61 68 62 61 63 67 64
REMARK SMILES IDX 69 65 66 66 62 67 63 68 64 69 65 70 6 71 7 72 8 73 9 74
REMARK SMILES IDX 10 75 23 76 11 77 22 78 12 79 21 80 13 81 20 82 14 83 24 85
REMARK SMILES IDX 25 86 26 87 27 88 28 89 29 90 32 91 30 92 31 93 15 94 16 95
REMARK SMILES IDX 17 96 18 97 19 98
REMARK H PARENT 89 23 57 34 14 84
REMARK Flexibility Score: inf
ROOT
ATOM      1  C   UNL A   1      31.343  27.056  26.815  1.00  0.00     0.274 C 
ENDROOT
BRANCH   1   2
ATOM      2  C   UNL A   1      32.451  28.170  27.734  1.00  0.00     0.275 C 
BRANCH   2   3
ATOM      3  O   UNL A   1      33.992  28.415  27.296  1.00  0.00    -0.458 OA
BRANCH   3   4
ATOM      4  C   UNL A   1      34.922  29.815  27.412  1.00  0.00     0.338 C 
ATOM      5  O   UNL A   1      34.179  30.657  26.848  1.00  0.00    -0.246 OA
BRANCH   4   6
ATOM      6  C   UNL A   1      36.898  29.726  28.459  1.00  0.00     0.060 A 
ATOM      7  C   UNL A   1      38.301  30.068  27.892  1.00  0.00     0.016 A 
ATOM      8  C   UNL A   1      37.426  28.956  29.648  1.00  0.00     0.016 A 
ATOM      9  C   UNL A   1      39.519  29.328  27.903  1.00  0.00     0.010 A 
ATOM     10  C   UNL A   1      38.730  28.292  29.797  1.00  0.00     0.010 A 
ATOM     11  C   UNL A   1      39.761  28.380  28.858  1.00  0.00    -0.014 A 
BRANCH  11  12
ATOM     12  C   UNL A   1      41.160  27.834  29.066  1.00  0.00     0.031 A 
ATOM     13  C   UNL A   1      41.430  26.450  28.367  1.00  0.00     0.074 A 
ATOM     14  C   UNL A   1      42.155  28.655  29.564  1.00  0.00     0.049 A 
ATOM     15  N   UNL A   1      42.549  25.799  28.271  1.00  0.00    -0.248 NA
ATOM     16  C   UNL A   1      40.382  25.743  27.573  1.00  0.00     0.031 C 
ATOM     17  C   UNL A   1      41.993  30.001  30.143  1.00  0.00     0.029 A 
ATOM     18  N   UNL A   1      43.540  28.557  29.595  1.00  0.00    -0.354 N 
ATOM     19  C   UNL A   1      42.389  24.768  27.328  1.00  0.00     0.074 A 
ATOM     20  C   UNL A   1      41.038  24.809  26.875  1.00  0.00     0.031 C 
ATOM     21  C   UNL A   1      43.180  30.664  30.189  1.00  0.00     0.029 A 
ATOM     22  C   UNL A   1      44.262  29.780  29.777  1.00  0.00     0.049 A 
ATOM     23  H   UNL A   1      44.000  27.693  29.496  1.00  0.00     0.167 HD
ATOM     24  C   UNL A   1      43.219  23.698  27.193  1.00  0.00     0.034 A 
ATOM     25  C   UNL A   1      45.621  30.044  29.640  1.00  0.00     0.034 A 
ATOM     26  C   UNL A   1      43.794  23.420  28.477  1.00  0.00     0.049 A 
ATOM     27  C   UNL A   1      46.277  28.722  29.680  1.00  0.00     0.074 A 
ATOM     28  C   UNL A   1      43.235  22.857  29.600  1.00  0.00     0.029 A 
ATOM     29  N   UNL A   1      44.843  24.212  28.883  1.00  0.00    -0.354 N 
ATOM     30  N   UNL A   1      46.200  27.927  30.707  1.00  0.00    -0.248 NA
ATOM     31  C   UNL A   1      46.649  28.091  28.427  1.00  0.00     0.031 C 
ATOM     32  C   UNL A   1      43.647  23.712  30.653  1.00  0.00     0.029 A 
ATOM     33  C   UNL A   1      44.628  24.593  30.187  1.00  0.00     0.049 A 
ATOM     34  H   UNL A   1      45.620  24.464  28.330  1.00  0.00     0.167 HD
ATOM     35  C   UNL A   1      46.012  26.676  30.154  1.00  0.00     0.074 A 
ATOM     36  C   UNL A   1      46.436  26.813  28.761  1.00  0.00     0.031 C 
ATOM     37  C   UNL A   1      45.235  25.762  30.807  1.00  0.00     0.034 A 
BRANCH  24  38
ATOM     38  C   UNL A   1      43.925  23.355  25.896  1.00  0.00     0.023 A 
ATOM     39  C   UNL A   1      43.954  21.997  25.535  1.00  0.00     0.031 A 
ATOM     40  C   UNL A   1      44.786  24.200  25.174  1.00  0.00     0.131 A 
ATOM     41  C   UNL A   1      44.953  21.491  24.690  1.00  0.00     0.055 A 
ATOM     42  C   UNL A   1      45.816  23.692  24.361  1.00  0.00     0.041 A 
ATOM     43  F   UNL A   1      44.687  25.535  25.266  1.00  0.00    -0.206 F 
ATOM     44  C   UNL A   1      45.932  22.321  24.153  1.00  0.00     0.022 A 
BRANCH  41  45
ATOM     45  S   UNL A   1      44.986  19.702  24.409  1.00  0.00     0.124 S 
ATOM     46  O   UNL A   1      44.032  19.227  25.405  1.00  0.00    -0.237 OA
ATOM     47  O   UNL A   1      44.555  19.616  23.016  1.00  0.00    -0.237 OA
ATOM     48  O   UNL A   1      46.380  19.344  24.654  1.00  0.00    -0.744 OA
ENDBRANCH  41  45
ENDBRANCH  24  38
BRANCH  25  49
ATOM     49  C   UNL A   1      46.450  31.271  29.207  1.00  0.00     0.023 A 
ATOM     50  C   UNL A   1      46.115  32.215  28.164  1.00  0.00     0.031 A 
ATOM     51  C   UNL A   1      47.469  31.701  30.077  1.00  0.00     0.131 A 
ATOM     52  C   UNL A   1      46.785  33.485  28.051  1.00  0.00     0.055 A 
ATOM     53  C   UNL A   1      48.096  32.958  29.981  1.00  0.00     0.041 A 
ATOM     54  F   UNL A   1      47.833  30.943  31.122  1.00  0.00    -0.206 F 
ATOM     55  C   UNL A   1      47.754  33.855  28.980  1.00  0.00     0.022 A 
BRANCH  52  56
ATOM     56  S   UNL A   1      46.418  34.740  26.734  1.00  0.00     0.124 S 
ATOM     57  O   UNL A   1      46.782  34.037  25.509  1.00  0.00    -0.237 OA
ATOM     58  O   UNL A   1      45.000  35.015  26.929  1.00  0.00    -0.237 OA
ATOM     59  O   UNL A   1      47.300  35.862  27.066  1.00  0.00    -0.744 OA
ENDBRANCH  52  56
ENDBRANCH  25  49
BRANCH  37  60
ATOM     60  C   UNL A   1      44.882  26.028  32.272  1.00  0.00     0.023 A 
ATOM     61  C   UNL A   1      43.742  26.705  32.780  1.00  0.00     0.031 A 
ATOM     62  C   UNL A   1      45.759  25.464  33.215  1.00  0.00     0.131 A 
ATOM     63  C   UNL A   1      43.535  26.799  34.175  1.00  0.00     0.055 A 
ATOM     64  C   UNL A   1      45.524  25.514  34.584  1.00  0.00     0.041 A 
ATOM     65  F   UNL A   1      46.860  24.808  32.812  1.00  0.00    -0.206 F 
ATOM     66  C   UNL A   1      44.417  26.193  35.072  1.00  0.00     0.022 A 
BRANCH  63  67
ATOM     67  S   UNL A   1      42.154  27.773  34.875  1.00  0.00     0.124 S 
ATOM     68  O   UNL A   1      42.406  27.742  36.310  1.00  0.00    -0.237 OA
ATOM     69  O   UNL A   1      42.317  29.071  34.224  1.00  0.00    -0.237 OA
ATOM     70  O   UNL A   1      40.966  27.028  34.450  1.00  0.00    -0.744 OA
ENDBRANCH  63  67
ENDBRANCH  37  60
ENDBRANCH  11  12
ENDBRANCH   4   6
ENDBRANCH   3   4
ENDBRANCH   2   3
ENDBRANCH   1   2
BRANCH   1  71
ATOM     71  O   UNL A   1      31.385  25.263  26.703  1.00  0.00    -0.461 OA
BRANCH  71  72
ATOM     72  C   UNL A   1      32.081  24.103  25.894  1.00  0.00     0.328 C 
ATOM     73  O   UNL A   1      32.078  22.866  26.051  1.00  0.00    -0.250 OA
BRANCH  72  74
ATOM     74  C   UNL A   1      33.253  24.355  25.143  1.00  0.00     0.195 C 
ATOM     75  C   UNL A   1      34.328  23.419  25.518  1.00  0.00     0.046 C 
ATOM     76  N   UNL A   1      32.827  24.259  23.845  1.00  0.00    -0.328 N 
ATOM     77  C   UNL A   1      35.154  23.354  24.247  1.00  0.00     0.001 C 
ATOM     78  C   UNL A   1      34.125  24.011  23.122  1.00  0.00     0.128 C 
ATOM     79  C   UNL A   1      35.386  21.896  23.890  1.00  0.00     0.071 C 
ATOM     80  C   UNL A   1      36.574  23.922  24.570  1.00  0.00     0.071 C 
ATOM     81  C   UNL A   1      36.100  21.096  24.984  1.00  0.00     0.270 C 
ATOM     82  C   UNL A   1      37.386  23.046  25.606  1.00  0.00     0.270 C 
ATOM     83  N   UNL A   1      37.406  21.615  25.282  1.00  0.00    -0.272 N 
ATOM     84  H   UNL A   1      37.835  20.790  25.604  1.00  0.00     0.356 HD
BRANCH  76  85
ATOM     85  C   UNL A   1      31.512  24.786  23.570  1.00  0.00     0.225 C 
ATOM     86  O   UNL A   1      30.552  24.007  23.518  1.00  0.00    -0.275 OA
BRANCH  85  87
ATOM     87  C   UNL A   1      31.170  26.579  23.267  1.00  0.00     0.124 C 
BRANCH  87  88
ATOM     88  C   UNL A   1      29.896  27.857  23.864  1.00  0.00     0.154 C 
BRANCH  88  89
ATOM     89  N   UNL A   1      29.758  29.552  23.219  1.00  0.00    -0.272 N 
ATOM     90  C   UNL A   1      29.216  31.269  23.965  1.00  0.00     0.108 A 
ATOM     91  N   UNL A   1      29.248  29.611  21.421  1.00  0.00    -0.182 NA
ATOM     92  C   UNL A   1      28.430  32.204  22.646  1.00  0.00     0.042 A 
ATOM     93  C   UNL A   1      28.470  31.076  21.080  1.00  0.00     0.135 A 
ENDBRANCH  88  89
ENDBRANCH  87  88
ENDBRANCH  85  87
ENDBRANCH  76  85
BRANCH  83  94
ATOM     94  C   UNL A   1      38.566  20.851  25.540  1.00  0.00     0.315 C 
ATOM     95  O   UNL A   1      38.545  19.634  25.354  1.00  0.00    -0.231 OA
BRANCH  94  96
ATOM     96  C   UNL A   1      39.884  21.390  26.047  1.00  0.00     0.119 C 
ATOM     97  C   UNL A   1      40.249  21.612  27.481  1.00  0.00     0.019 C 
ATOM     98  C   UNL A   1      40.964  20.565  26.684  1.00  0.00     0.019 C 
ENDBRANCH  94  96
ENDBRANCH  83  94
ENDBRANCH  72  74
ENDBRANCH  71  72
ENDBRANCH   1  71
TORSDOF 20
ENDMDL
