MODEL 1
REMARK VINA RESULT:     -12.8      0.000      0.000
REMARK SMILES O=C(OCCOC(=O)[C@H]1[C@@H](c2ccccc2)[C@@H](C(=O)N2CCCCC2)[C@@H]1c1ccccc1)c1ccc(-c2c3nc(c(-c4cc(S(=O)(=O)[O-])ccc4F)c4ccc([nH]4)c(-c4cc(S(=O)(=O)[O-])ccc4F)c4nc(c(-c5cc(S(=O)(=O)[O-])ccc5F)c5ccc2[nH]5)C=C4)C=C3)cc1
REMARK SMILES IDX 4 1 3 2 2 3 1 4 33 5 34 6 95 7 35 8 94 9 36 10 37 11 38 12
REMARK SMILES IDX 88 13 39 14 93 15 87 16 89 17 40 18 92 19 86 20 85 21 41 23
REMARK SMILES IDX 73 24 53 25 72 26 54 27 57 28 71 29 90 30 55 31 56 32 70 34
REMARK SMILES IDX 91 35 58 36 42 37 43 38 51 39 44 40 50 41 52 42 49 43 45 44
REMARK SMILES IDX 46 45 47 46 48 47 74 48 75 49 83 50 76 51 82 52 84 53 81 54
REMARK SMILES IDX 77 55 78 56 79 57 80 58 59 59 60 60 68 61 61 62 67 63 69 64
REMARK SMILES IDX 66 65 62 66 63 67 64 68 65 69 5 70 6 71 7 72 8 73 9 74 10 75
REMARK SMILES IDX 26 76 17 77 11 78 12 79 16 80 13 81 15 82 14 83 27 84 28 85
REMARK SMILES IDX 32 86 29 87 31 88 30 89 18 90 19 91 20 92 21 93 25 94 22 95
REMARK SMILES IDX 24 96 23 97
REMARK H PARENT 89 22 57 33
REMARK Flexibility Score: inf
ROOT
ATOM      1  C   UNL A   1      36.829  21.634  25.539  1.00  0.00     0.275 C 
ENDROOT
BRANCH   1   2
ATOM      2  O   UNL A   1      38.271  21.628  25.368  1.00  0.00    -0.458 OA
BRANCH   2   3
ATOM      3  C   UNL A   1      39.317  21.832  26.207  1.00  0.00     0.338 C 
ATOM      4  O   UNL A   1      40.024  20.857  26.472  1.00  0.00    -0.246 OA
BRANCH   3   5
ATOM      5  C   UNL A   1      39.692  23.132  26.875  1.00  0.00     0.060 A 
ATOM      6  C   UNL A   1      40.656  23.286  27.861  1.00  0.00     0.016 A 
ATOM      7  C   UNL A   1      38.971  24.298  26.512  1.00  0.00     0.016 A 
ATOM      8  C   UNL A   1      40.953  24.565  28.375  1.00  0.00     0.010 A 
ATOM      9  C   UNL A   1      39.276  25.585  27.026  1.00  0.00     0.010 A 
ATOM     10  C   UNL A   1      40.320  25.752  27.933  1.00  0.00    -0.014 A 
BRANCH  10  11
ATOM     11  C   UNL A   1      40.784  27.070  28.523  1.00  0.00     0.031 A 
ATOM     12  C   UNL A   1      42.139  27.554  28.109  1.00  0.00     0.074 A 
ATOM     13  C   UNL A   1      40.033  27.905  29.286  1.00  0.00     0.049 A 
ATOM     14  N   UNL A   1      42.657  28.750  28.171  1.00  0.00    -0.248 NA
ATOM     15  C   UNL A   1      43.028  26.521  27.560  1.00  0.00     0.031 C 
ATOM     16  C   UNL A   1      38.773  27.554  29.909  1.00  0.00     0.029 A 
ATOM     17  N   UNL A   1      40.173  29.246  29.623  1.00  0.00    -0.354 N 
ATOM     18  C   UNL A   1      43.954  28.611  27.701  1.00  0.00     0.074 A 
ATOM     19  C   UNL A   1      44.108  27.230  27.286  1.00  0.00     0.031 C 
ATOM     20  C   UNL A   1      38.169  28.659  30.384  1.00  0.00     0.029 A 
ATOM     21  C   UNL A   1      39.029  29.821  30.180  1.00  0.00     0.049 A 
ATOM     22  H   UNL A   1      41.009  29.748  29.482  1.00  0.00     0.167 HD
ATOM     23  C   UNL A   1      44.958  29.521  27.698  1.00  0.00     0.034 A 
ATOM     24  C   UNL A   1      38.720  31.117  30.465  1.00  0.00     0.034 A 
ATOM     25  C   UNL A   1      44.855  30.847  28.246  1.00  0.00     0.049 A 
ATOM     26  C   UNL A   1      39.837  32.134  30.344  1.00  0.00     0.074 A 
ATOM     27  C   UNL A   1      45.857  31.784  28.424  1.00  0.00     0.029 A 
ATOM     28  N   UNL A   1      43.691  31.409  28.751  1.00  0.00    -0.354 N 
ATOM     29  N   UNL A   1      41.035  31.996  29.822  1.00  0.00    -0.248 NA
ATOM     30  C   UNL A   1      39.578  33.474  30.895  1.00  0.00     0.031 C 
ATOM     31  C   UNL A   1      45.315  32.883  29.099  1.00  0.00     0.029 A 
ATOM     32  C   UNL A   1      43.957  32.670  29.262  1.00  0.00     0.049 A 
ATOM     33  H   UNL A   1      42.807  30.976  28.748  1.00  0.00     0.167 HD
ATOM     34  C   UNL A   1      41.668  33.221  30.016  1.00  0.00     0.074 A 
ATOM     35  C   UNL A   1      40.685  34.121  30.575  1.00  0.00     0.031 C 
ATOM     36  C   UNL A   1      42.968  33.557  29.822  1.00  0.00     0.034 A 
BRANCH  23  37
ATOM     37  C   UNL A   1      46.295  28.989  27.260  1.00  0.00     0.023 A 
ATOM     38  C   UNL A   1      46.609  28.832  25.900  1.00  0.00     0.031 A 
ATOM     39  C   UNL A   1      47.165  28.441  28.219  1.00  0.00     0.131 A 
ATOM     40  C   UNL A   1      47.698  28.028  25.538  1.00  0.00     0.055 A 
ATOM     41  C   UNL A   1      48.306  27.733  27.849  1.00  0.00     0.041 A 
ATOM     42  F   UNL A   1      46.880  28.524  29.528  1.00  0.00    -0.206 F 
ATOM     43  C   UNL A   1      48.564  27.499  26.501  1.00  0.00     0.022 A 
BRANCH  40  44
ATOM     44  S   UNL A   1      47.817  27.478  23.813  1.00  0.00     0.124 S 
ATOM     45  O   UNL A   1      49.203  27.818  23.496  1.00  0.00    -0.237 OA
ATOM     46  O   UNL A   1      47.518  26.054  23.913  1.00  0.00    -0.237 OA
ATOM     47  O   UNL A   1      46.810  28.283  23.127  1.00  0.00    -0.744 OA
ENDBRANCH  40  44
ENDBRANCH  23  37
BRANCH  24  48
ATOM     48  C   UNL A   1      37.347  31.620  30.884  1.00  0.00     0.023 A 
ATOM     49  C   UNL A   1      36.495  32.256  29.937  1.00  0.00     0.031 A 
ATOM     50  C   UNL A   1      36.857  31.552  32.197  1.00  0.00     0.131 A 
ATOM     51  C   UNL A   1      35.233  32.767  30.302  1.00  0.00     0.055 A 
ATOM     52  C   UNL A   1      35.572  31.999  32.544  1.00  0.00     0.041 A 
ATOM     53  F   UNL A   1      37.624  31.073  33.189  1.00  0.00    -0.206 F 
ATOM     54  C   UNL A   1      34.753  32.611  31.598  1.00  0.00     0.022 A 
BRANCH  51  55
ATOM     55  S   UNL A   1      34.252  33.692  29.075  1.00  0.00     0.124 S 
ATOM     56  O   UNL A   1      35.253  34.584  28.502  1.00  0.00    -0.237 OA
ATOM     57  O   UNL A   1      33.768  32.636  28.193  1.00  0.00    -0.237 OA
ATOM     58  O   UNL A   1      33.223  34.344  29.881  1.00  0.00    -0.744 OA
ENDBRANCH  51  55
ENDBRANCH  24  48
BRANCH  36  59
ATOM     59  C   UNL A   1      43.384  34.949  30.235  1.00  0.00     0.023 A 
ATOM     60  C   UNL A   1      43.321  36.032  29.337  1.00  0.00     0.031 A 
ATOM     61  C   UNL A   1      43.875  35.192  31.528  1.00  0.00     0.131 A 
ATOM     62  C   UNL A   1      43.815  37.288  29.717  1.00  0.00     0.055 A 
ATOM     63  C   UNL A   1      44.296  36.463  31.925  1.00  0.00     0.041 A 
ATOM     64  F   UNL A   1      43.960  34.198  32.426  1.00  0.00    -0.206 F 
ATOM     65  C   UNL A   1      44.284  37.515  31.013  1.00  0.00     0.022 A 
BRANCH  62  66
ATOM     66  S   UNL A   1      43.939  38.593  28.462  1.00  0.00     0.124 S 
ATOM     67  O   UNL A   1      42.833  39.471  28.827  1.00  0.00    -0.237 OA
ATOM     68  O   UNL A   1      45.278  39.124  28.694  1.00  0.00    -0.237 OA
ATOM     69  O   UNL A   1      43.770  37.871  27.202  1.00  0.00    -0.744 OA
ENDBRANCH  62  66
ENDBRANCH  36  59
ENDBRANCH  10  11
ENDBRANCH   3   5
ENDBRANCH   2   3
ENDBRANCH   1   2
BRANCH   1  70
ATOM     70  C   UNL A   1      36.097  22.218  24.342  1.00  0.00     0.274 C 
BRANCH  70  71
ATOM     71  O   UNL A   1      35.536  23.459  24.757  1.00  0.00    -0.462 OA
BRANCH  71  72
ATOM     72  C   UNL A   1      34.868  23.518  25.935  1.00  0.00     0.310 C 
ATOM     73  O   UNL A   1      35.409  23.738  27.019  1.00  0.00    -0.252 OA
BRANCH  72  74
ATOM     74  C   UNL A   1      33.368  23.319  25.705  1.00  0.00     0.116 C 
ATOM     75  C   UNL A   1      32.378  24.496  25.921  1.00  0.00     0.047 C 
ATOM     76  C   UNL A   1      32.848  23.174  24.248  1.00  0.00     0.047 C 
ATOM     77  C   UNL A   1      31.600  24.004  24.684  1.00  0.00     0.095 C 
BRANCH  75  78
ATOM     78  C   UNL A   1      32.860  26.009  26.189  1.00  0.00    -0.043 A 
ATOM     79  C   UNL A   1      34.013  26.599  25.643  1.00  0.00     0.004 A 
ATOM     80  C   UNL A   1      32.100  26.857  27.030  1.00  0.00     0.004 A 
ATOM     81  C   UNL A   1      34.408  27.906  25.972  1.00  0.00     0.000 A 
ATOM     82  C   UNL A   1      32.490  28.150  27.387  1.00  0.00     0.000 A 
ATOM     83  C   UNL A   1      33.657  28.673  26.859  1.00  0.00     0.000 A 
ENDBRANCH  75  78
BRANCH  76  84
ATOM     84  C   UNL A   1      32.543  21.686  23.706  1.00  0.00    -0.043 A 
ATOM     85  C   UNL A   1      32.706  20.561  24.539  1.00  0.00     0.004 A 
ATOM     86  C   UNL A   1      32.154  21.415  22.378  1.00  0.00     0.004 A 
ATOM     87  C   UNL A   1      32.532  19.253  24.077  1.00  0.00     0.000 A 
ATOM     88  C   UNL A   1      31.977  20.108  21.906  1.00  0.00     0.000 A 
ATOM     89  C   UNL A   1      32.172  19.026  22.757  1.00  0.00     0.000 A 
ENDBRANCH  76  84
BRANCH  77  90
ATOM     90  C   UNL A   1      30.948  24.908  23.638  1.00  0.00     0.226 C 
ATOM     91  O   UNL A   1      30.858  24.596  22.446  1.00  0.00    -0.275 OA
ATOM     92  N   UNL A   1      30.578  26.159  24.076  1.00  0.00    -0.342 N 
ATOM     93  C   UNL A   1      29.217  26.379  24.563  1.00  0.00     0.119 C 
ATOM     94  C   UNL A   1      31.230  27.298  23.470  1.00  0.00     0.119 C 
ATOM     95  C   UNL A   1      28.348  27.008  23.501  1.00  0.00     0.022 C 
ATOM     96  C   UNL A   1      30.368  27.928  22.388  1.00  0.00     0.022 C 
ATOM     97  C   UNL A   1      28.994  28.270  22.953  1.00  0.00     0.004 C 
ENDBRANCH  77  90
ENDBRANCH  72  74
ENDBRANCH  71  72
ENDBRANCH  70  71
ENDBRANCH   1  70
TORSDOF 17
ENDMDL
MODEL 2
REMARK VINA RESULT:     -12.1      1.152      3.267
REMARK SMILES O=C(OCCOC(=O)[C@H]1[C@@H](c2ccccc2)[C@@H](C(=O)N2CCCCC2)[C@@H]1c1ccccc1)c1ccc(-c2c3nc(c(-c4cc(S(=O)(=O)[O-])ccc4F)c4ccc([nH]4)c(-c4cc(S(=O)(=O)[O-])ccc4F)c4nc(c(-c5cc(S(=O)(=O)[O-])ccc5F)c5ccc2[nH]5)C=C4)C=C3)cc1
REMARK SMILES IDX 4 1 3 2 2 3 1 4 33 5 34 6 95 7 35 8 94 9 36 10 37 11 38 12
REMARK SMILES IDX 88 13 39 14 93 15 87 16 89 17 40 18 92 19 86 20 85 21 41 23
REMARK SMILES IDX 73 24 53 25 72 26 54 27 57 28 71 29 90 30 55 31 56 32 70 34
REMARK SMILES IDX 91 35 58 36 42 37 43 38 51 39 44 40 50 41 52 42 49 43 45 44
REMARK SMILES IDX 46 45 47 46 48 47 74 48 75 49 83 50 76 51 82 52 84 53 81 54
REMARK SMILES IDX 77 55 78 56 79 57 80 58 59 59 60 60 68 61 61 62 67 63 69 64
REMARK SMILES IDX 66 65 62 66 63 67 64 68 65 69 5 70 6 71 7 72 8 73 9 74 10 75
REMARK SMILES IDX 26 76 17 77 11 78 12 79 16 80 13 81 15 82 14 83 27 84 28 85
REMARK SMILES IDX 32 86 29 87 31 88 30 89 18 90 19 91 20 92 21 93 25 94 22 95
REMARK SMILES IDX 24 96 23 97
REMARK H PARENT 89 22 57 33
REMARK Flexibility Score: inf
ROOT
ATOM      1  C   UNL A   1      36.896  22.106  25.946  1.00  0.00     0.275 C 
ENDROOT
BRANCH   1   2
ATOM      2  O   UNL A   1      38.234  21.577  25.748  1.00  0.00    -0.458 OA
BRANCH   2   3
ATOM      3  C   UNL A   1      39.455  21.901  26.244  1.00  0.00     0.338 C 
ATOM      4  O   UNL A   1      40.341  21.050  26.155  1.00  0.00    -0.246 OA
BRANCH   3   5
ATOM      5  C   UNL A   1      39.834  23.195  26.920  1.00  0.00     0.060 A 
ATOM      6  C   UNL A   1      40.782  23.336  27.923  1.00  0.00     0.016 A 
ATOM      7  C   UNL A   1      39.135  24.371  26.545  1.00  0.00     0.016 A 
ATOM      8  C   UNL A   1      41.086  24.611  28.445  1.00  0.00     0.010 A 
ATOM      9  C   UNL A   1      39.448  25.654  27.067  1.00  0.00     0.010 A 
ATOM     10  C   UNL A   1      40.477  25.806  27.993  1.00  0.00    -0.014 A 
BRANCH  10  11
ATOM     11  C   UNL A   1      40.947  27.117  28.593  1.00  0.00     0.031 A 
ATOM     12  C   UNL A   1      42.294  27.610  28.164  1.00  0.00     0.074 A 
ATOM     13  C   UNL A   1      40.207  27.939  29.380  1.00  0.00     0.049 A 
ATOM     14  N   UNL A   1      42.810  28.807  28.234  1.00  0.00    -0.248 NA
ATOM     15  C   UNL A   1      43.176  26.588  27.587  1.00  0.00     0.031 C 
ATOM     16  C   UNL A   1      38.958  27.576  30.019  1.00  0.00     0.029 A 
ATOM     17  N   UNL A   1      40.349  29.276  29.733  1.00  0.00    -0.354 N 
ATOM     18  C   UNL A   1      44.099  28.678  27.741  1.00  0.00     0.074 A 
ATOM     19  C   UNL A   1      44.250  27.303  27.305  1.00  0.00     0.031 C 
ATOM     20  C   UNL A   1      38.359  28.673  30.519  1.00  0.00     0.029 A 
ATOM     21  C   UNL A   1      39.212  29.840  30.316  1.00  0.00     0.049 A 
ATOM     22  H   UNL A   1      41.181  29.782  29.585  1.00  0.00     0.167 HD
ATOM     23  C   UNL A   1      45.101  29.590  27.733  1.00  0.00     0.034 A 
ATOM     24  C   UNL A   1      38.905  31.131  30.624  1.00  0.00     0.034 A 
ATOM     25  C   UNL A   1      45.004  30.909  28.301  1.00  0.00     0.049 A 
ATOM     26  C   UNL A   1      40.018  32.153  30.498  1.00  0.00     0.074 A 
ATOM     27  C   UNL A   1      46.006  31.846  28.475  1.00  0.00     0.029 A 
ATOM     28  N   UNL A   1      43.847  31.461  28.833  1.00  0.00    -0.354 N 
ATOM     29  N   UNL A   1      41.207  32.025  29.955  1.00  0.00    -0.248 NA
ATOM     30  C   UNL A   1      39.764  33.485  31.072  1.00  0.00     0.031 C 
ATOM     31  C   UNL A   1      45.472  32.934  29.174  1.00  0.00     0.029 A 
ATOM     32  C   UNL A   1      44.117  32.716  29.357  1.00  0.00     0.049 A 
ATOM     33  H   UNL A   1      42.964  31.025  28.839  1.00  0.00     0.167 HD
ATOM     34  C   UNL A   1      41.840  33.250  30.156  1.00  0.00     0.074 A 
ATOM     35  C   UNL A   1      40.864  34.139  30.742  1.00  0.00     0.031 C 
ATOM     36  C   UNL A   1      43.136  33.592  29.945  1.00  0.00     0.034 A 
BRANCH  23  37
ATOM     37  C   UNL A   1      46.432  29.068  27.267  1.00  0.00     0.023 A 
ATOM     38  C   UNL A   1      46.697  28.859  25.903  1.00  0.00     0.031 A 
ATOM     39  C   UNL A   1      47.350  28.580  28.213  1.00  0.00     0.131 A 
ATOM     40  C   UNL A   1      47.789  28.064  25.533  1.00  0.00     0.055 A 
ATOM     41  C   UNL A   1      48.492  27.881  27.828  1.00  0.00     0.041 A 
ATOM     42  F   UNL A   1      47.113  28.714  29.527  1.00  0.00    -0.206 F 
ATOM     43  C   UNL A   1      48.703  27.595  26.483  1.00  0.00     0.022 A 
BRANCH  40  44
ATOM     44  S   UNL A   1      47.855  27.442  23.829  1.00  0.00     0.124 S 
ATOM     45  O   UNL A   1      49.242  27.731  23.469  1.00  0.00    -0.237 OA
ATOM     46  O   UNL A   1      47.521  26.032  23.993  1.00  0.00    -0.237 OA
ATOM     47  O   UNL A   1      46.855  28.247  23.133  1.00  0.00    -0.744 OA
ENDBRANCH  40  44
ENDBRANCH  23  37
BRANCH  24  48
ATOM     48  C   UNL A   1      37.538  31.625  31.073  1.00  0.00     0.023 A 
ATOM     49  C   UNL A   1      36.668  32.270  30.148  1.00  0.00     0.031 A 
ATOM     50  C   UNL A   1      37.070  31.540  32.393  1.00  0.00     0.131 A 
ATOM     51  C   UNL A   1      35.411  32.772  30.540  1.00  0.00     0.055 A 
ATOM     52  C   UNL A   1      35.790  31.978  32.767  1.00  0.00     0.041 A 
ATOM     53  F   UNL A   1      37.856  31.051  33.366  1.00  0.00    -0.206 F 
ATOM     54  C   UNL A   1      34.954  32.599  31.842  1.00  0.00     0.022 A 
BRANCH  51  55
ATOM     55  S   UNL A   1      34.406  33.708  29.341  1.00  0.00     0.124 S 
ATOM     56  O   UNL A   1      33.874  32.642  28.500  1.00  0.00    -0.237 OA
ATOM     57  O   UNL A   1      33.435  34.382  30.196  1.00  0.00    -0.237 OA
ATOM     58  O   UNL A   1      35.377  34.588  28.695  1.00  0.00    -0.744 OA
ENDBRANCH  51  55
ENDBRANCH  24  48
BRANCH  36  59
ATOM     59  C   UNL A   1      43.555  34.979  30.370  1.00  0.00     0.023 A 
ATOM     60  C   UNL A   1      43.499  36.069  29.480  1.00  0.00     0.031 A 
ATOM     61  C   UNL A   1      44.043  35.210  31.666  1.00  0.00     0.131 A 
ATOM     62  C   UNL A   1      43.995  37.321  29.872  1.00  0.00     0.055 A 
ATOM     63  C   UNL A   1      44.467  36.476  32.074  1.00  0.00     0.041 A 
ATOM     64  F   UNL A   1      44.122  34.209  32.557  1.00  0.00    -0.206 F 
ATOM     65  C   UNL A   1      44.461  37.536  31.171  1.00  0.00     0.022 A 
BRANCH  62  66
ATOM     66  S   UNL A   1      44.127  38.635  28.627  1.00  0.00     0.124 S 
ATOM     67  O   UNL A   1      43.217  39.645  29.155  1.00  0.00    -0.237 OA
ATOM     68  O   UNL A   1      45.547  38.969  28.674  1.00  0.00    -0.237 OA
ATOM     69  O   UNL A   1      43.685  37.984  27.395  1.00  0.00    -0.744 OA
ENDBRANCH  62  66
ENDBRANCH  36  59
ENDBRANCH  10  11
ENDBRANCH   3   5
ENDBRANCH   2   3
ENDBRANCH   1   2
BRANCH   1  70
ATOM     70  C   UNL A   1      35.913  21.629  24.890  1.00  0.00     0.274 C 
BRANCH  70  71
ATOM     71  O   UNL A   1      35.239  22.780  24.393  1.00  0.00    -0.462 OA
BRANCH  71  72
ATOM     72  C   UNL A   1      35.383  23.115  23.088  1.00  0.00     0.310 C 
ATOM     73  O   UNL A   1      36.369  22.824  22.411  1.00  0.00    -0.252 OA
BRANCH  72  74
ATOM     74  C   UNL A   1      34.138  23.853  22.589  1.00  0.00     0.116 C 
ATOM     75  C   UNL A   1      32.836  23.069  22.268  1.00  0.00     0.047 C 
ATOM     76  C   UNL A   1      33.339  24.732  23.590  1.00  0.00     0.047 C 
ATOM     77  C   UNL A   1      32.039  24.239  22.882  1.00  0.00     0.095 C 
BRANCH  75  78
ATOM     78  C   UNL A   1      32.641  21.510  22.625  1.00  0.00    -0.043 A 
ATOM     79  C   UNL A   1      32.253  20.514  21.713  1.00  0.00     0.004 A 
ATOM     80  C   UNL A   1      32.867  21.051  23.945  1.00  0.00     0.004 A 
ATOM     81  C   UNL A   1      32.040  19.183  22.109  1.00  0.00     0.000 A 
ATOM     82  C   UNL A   1      32.638  19.738  24.362  1.00  0.00     0.000 A 
ATOM     83  C   UNL A   1      32.213  18.801  23.436  1.00  0.00     0.000 A 
ENDBRANCH  75  78
BRANCH  76  84
ATOM     84  C   UNL A   1      33.591  26.325  23.555  1.00  0.00    -0.043 A 
ATOM     85  C   UNL A   1      33.667  27.075  24.747  1.00  0.00     0.004 A 
ATOM     86  C   UNL A   1      33.697  27.063  22.359  1.00  0.00     0.004 A 
ATOM     87  C   UNL A   1      33.801  28.466  24.751  1.00  0.00     0.000 A 
ATOM     88  C   UNL A   1      33.832  28.456  22.353  1.00  0.00     0.000 A 
ATOM     89  C   UNL A   1      33.878  29.159  23.551  1.00  0.00     0.000 A 
ENDBRANCH  76  84
BRANCH  77  90
ATOM     90  C   UNL A   1      30.777  24.093  23.732  1.00  0.00     0.226 C 
ATOM     91  O   UNL A   1      29.642  24.056  23.244  1.00  0.00    -0.275 OA
ATOM     92  N   UNL A   1      30.965  24.137  25.094  1.00  0.00    -0.342 N 
ATOM     93  C   UNL A   1      31.151  22.892  25.837  1.00  0.00     0.119 C 
ATOM     94  C   UNL A   1      30.346  25.225  25.818  1.00  0.00     0.119 C 
ATOM     95  C   UNL A   1      29.868  22.450  26.499  1.00  0.00     0.022 C 
ATOM     96  C   UNL A   1      29.046  24.792  26.476  1.00  0.00     0.022 C 
ATOM     97  C   UNL A   1      29.288  23.568  27.350  1.00  0.00     0.004 C 
ENDBRANCH  77  90
ENDBRANCH  72  74
ENDBRANCH  71  72
ENDBRANCH  70  71
ENDBRANCH   1  70
TORSDOF 17
ENDMDL
MODEL 3
REMARK VINA RESULT:     -12.1      4.607      9.608
REMARK SMILES O=C(OCCOC(=O)[C@H]1[C@@H](c2ccccc2)[C@@H](C(=O)N2CCCCC2)[C@@H]1c1ccccc1)c1ccc(-c2c3nc(c(-c4cc(S(=O)(=O)[O-])ccc4F)c4ccc([nH]4)c(-c4cc(S(=O)(=O)[O-])ccc4F)c4nc(c(-c5cc(S(=O)(=O)[O-])ccc5F)c5ccc2[nH]5)C=C4)C=C3)cc1
REMARK SMILES IDX 4 1 3 2 2 3 1 4 33 5 34 6 95 7 35 8 94 9 36 10 37 11 38 12
REMARK SMILES IDX 88 13 39 14 93 15 87 16 89 17 40 18 92 19 86 20 85 21 41 23
REMARK SMILES IDX 73 24 53 25 72 26 54 27 57 28 71 29 90 30 55 31 56 32 70 34
REMARK SMILES IDX 91 35 58 36 42 37 43 38 51 39 44 40 50 41 52 42 49 43 45 44
REMARK SMILES IDX 46 45 47 46 48 47 74 48 75 49 83 50 76 51 82 52 84 53 81 54
REMARK SMILES IDX 77 55 78 56 79 57 80 58 59 59 60 60 68 61 61 62 67 63 69 64
REMARK SMILES IDX 66 65 62 66 63 67 64 68 65 69 5 70 6 71 7 72 8 73 9 74 10 75
REMARK SMILES IDX 26 76 17 77 11 78 12 79 16 80 13 81 15 82 14 83 27 84 28 85
REMARK SMILES IDX 32 86 29 87 31 88 30 89 18 90 19 91 20 92 21 93 25 94 22 95
REMARK SMILES IDX 24 96 23 97
REMARK H PARENT 89 22 57 33
REMARK Flexibility Score: inf
ROOT
ATOM      1  C   UNL A   1      31.768  30.378  26.826  1.00  0.00     0.275 C 
ENDROOT
BRANCH   1   2
ATOM      2  O   UNL A   1      33.169  30.747  26.732  1.00  0.00    -0.458 OA
BRANCH   2   3
ATOM      3  C   UNL A   1      34.008  31.459  27.526  1.00  0.00     0.338 C 
ATOM      4  O   UNL A   1      33.681  32.618  27.793  1.00  0.00    -0.246 OA
BRANCH   3   5
ATOM      5  C   UNL A   1      35.321  30.985  28.099  1.00  0.00     0.060 A 
ATOM      6  C   UNL A   1      35.582  29.708  28.573  1.00  0.00     0.016 A 
ATOM      7  C   UNL A   1      36.374  31.928  28.216  1.00  0.00     0.016 A 
ATOM      8  C   UNL A   1      36.869  29.369  29.039  1.00  0.00     0.010 A 
ATOM      9  C   UNL A   1      37.671  31.583  28.679  1.00  0.00     0.010 A 
ATOM     10  C   UNL A   1      37.960  30.271  29.049  1.00  0.00    -0.014 A 
BRANCH  10  11
ATOM     11  C   UNL A   1      39.309  29.756  29.515  1.00  0.00     0.031 A 
ATOM     12  C   UNL A   1      39.675  30.021  30.942  1.00  0.00     0.074 A 
ATOM     13  C   UNL A   1      40.150  28.972  28.793  1.00  0.00     0.049 A 
ATOM     14  N   UNL A   1      40.567  29.444  31.699  1.00  0.00    -0.248 NA
ATOM     15  C   UNL A   1      38.923  31.106  31.586  1.00  0.00     0.031 C 
ATOM     16  C   UNL A   1      40.047  28.734  27.367  1.00  0.00     0.029 A 
ATOM     17  N   UNL A   1      41.223  28.167  29.157  1.00  0.00    -0.354 N 
ATOM     18  C   UNL A   1      40.514  30.121  32.908  1.00  0.00     0.074 A 
ATOM     19  C   UNL A   1      39.445  31.096  32.799  1.00  0.00     0.031 C 
ATOM     20  C   UNL A   1      40.869  27.731  27.006  1.00  0.00     0.029 A 
ATOM     21  C   UNL A   1      41.640  27.281  28.161  1.00  0.00     0.049 A 
ATOM     22  H   UNL A   1      41.653  28.218  30.042  1.00  0.00     0.167 HD
ATOM     23  C   UNL A   1      41.334  30.012  33.980  1.00  0.00     0.034 A 
ATOM     24  C   UNL A   1      42.515  26.237  28.194  1.00  0.00     0.034 A 
ATOM     25  C   UNL A   1      42.488  29.154  34.036  1.00  0.00     0.049 A 
ATOM     26  C   UNL A   1      43.342  26.071  29.454  1.00  0.00     0.074 A 
ATOM     27  C   UNL A   1      43.461  29.086  35.017  1.00  0.00     0.029 A 
ATOM     28  N   UNL A   1      42.853  28.248  33.050  1.00  0.00    -0.354 N 
ATOM     29  N   UNL A   1      43.220  26.673  30.615  1.00  0.00    -0.248 NA
ATOM     30  C   UNL A   1      44.460  25.114  29.393  1.00  0.00     0.031 C 
ATOM     31  C   UNL A   1      44.450  28.191  34.591  1.00  0.00     0.029 A 
ATOM     32  C   UNL A   1      44.049  27.635  33.388  1.00  0.00     0.049 A 
ATOM     33  H   UNL A   1      42.338  28.068  32.230  1.00  0.00     0.167 HD
ATOM     34  C   UNL A   1      44.264  26.185  31.397  1.00  0.00     0.074 A 
ATOM     35  C   UNL A   1      44.918  25.150  30.632  1.00  0.00     0.031 C 
ATOM     36  C   UNL A   1      44.695  26.606  32.613  1.00  0.00     0.034 A 
BRANCH  23  37
ATOM     37  C   UNL A   1      41.089  31.017  35.072  1.00  0.00     0.023 A 
ATOM     38  C   UNL A   1      39.993  30.897  35.942  1.00  0.00     0.031 A 
ATOM     39  C   UNL A   1      41.840  32.205  35.094  1.00  0.00     0.131 A 
ATOM     40  C   UNL A   1      39.601  32.005  36.704  1.00  0.00     0.055 A 
ATOM     41  C   UNL A   1      41.504  33.264  35.936  1.00  0.00     0.041 A 
ATOM     42  F   UNL A   1      42.865  32.383  34.247  1.00  0.00    -0.206 F 
ATOM     43  C   UNL A   1      40.363  33.178  36.728  1.00  0.00     0.022 A 
BRANCH  40  44
ATOM     44  S   UNL A   1      37.953  31.981  37.463  1.00  0.00     0.124 S 
ATOM     45  O   UNL A   1      37.206  32.855  36.560  1.00  0.00    -0.237 OA
ATOM     46  O   UNL A   1      37.602  30.567  37.414  1.00  0.00    -0.237 OA
ATOM     47  O   UNL A   1      38.184  32.524  38.799  1.00  0.00    -0.744 OA
ENDBRANCH  40  44
ENDBRANCH  23  37
BRANCH  24  48
ATOM     48  C   UNL A   1      42.719  25.227  27.075  1.00  0.00     0.023 A 
ATOM     49  C   UNL A   1      42.086  23.953  27.133  1.00  0.00     0.031 A 
ATOM     50  C   UNL A   1      43.559  25.442  25.972  1.00  0.00     0.131 A 
ATOM     51  C   UNL A   1      42.284  22.981  26.132  1.00  0.00     0.055 A 
ATOM     52  C   UNL A   1      43.700  24.500  24.940  1.00  0.00     0.041 A 
ATOM     53  F   UNL A   1      44.289  26.564  25.876  1.00  0.00    -0.206 F 
ATOM     54  C   UNL A   1      43.065  23.263  25.016  1.00  0.00     0.022 A 
BRANCH  51  55
ATOM     55  S   UNL A   1      41.556  21.323  26.337  1.00  0.00     0.124 S 
ATOM     56  O   UNL A   1      42.379  20.521  25.439  1.00  0.00    -0.237 OA
ATOM     57  O   UNL A   1      41.742  21.067  27.761  1.00  0.00    -0.237 OA
ATOM     58  O   UNL A   1      40.168  21.504  25.917  1.00  0.00    -0.744 OA
ENDBRANCH  51  55
ENDBRANCH  24  48
BRANCH  36  59
ATOM     59  C   UNL A   1      45.937  25.947  33.164  1.00  0.00     0.023 A 
ATOM     60  C   UNL A   1      45.864  24.784  33.954  1.00  0.00     0.031 A 
ATOM     61  C   UNL A   1      47.205  26.501  32.922  1.00  0.00     0.131 A 
ATOM     62  C   UNL A   1      47.025  24.258  34.538  1.00  0.00     0.055 A 
ATOM     63  C   UNL A   1      48.366  25.929  33.446  1.00  0.00     0.041 A 
ATOM     64  F   UNL A   1      47.337  27.611  32.178  1.00  0.00    -0.206 F 
ATOM     65  C   UNL A   1      48.279  24.813  34.273  1.00  0.00     0.022 A 
BRANCH  62  66
ATOM     66  S   UNL A   1      46.862  22.907  35.738  1.00  0.00     0.124 S 
ATOM     67  O   UNL A   1      47.480  21.793  35.027  1.00  0.00    -0.237 OA
ATOM     68  O   UNL A   1      47.601  23.418  36.888  1.00  0.00    -0.237 OA
ATOM     69  O   UNL A   1      45.417  22.794  35.932  1.00  0.00    -0.744 OA
ENDBRANCH  62  66
ENDBRANCH  36  59
ENDBRANCH  10  11
ENDBRANCH   3   5
ENDBRANCH   2   3
ENDBRANCH   1   2
BRANCH   1  70
ATOM     70  C   UNL A   1      31.564  28.989  27.408  1.00  0.00     0.274 C 
BRANCH  70  71
ATOM     71  O   UNL A   1      32.813  28.312  27.327  1.00  0.00    -0.462 OA
BRANCH  71  72
ATOM     72  C   UNL A   1      33.138  27.666  26.180  1.00  0.00     0.310 C 
ATOM     73  O   UNL A   1      34.030  28.034  25.416  1.00  0.00    -0.252 OA
BRANCH  72  74
ATOM     74  C   UNL A   1      32.274  26.414  26.013  1.00  0.00     0.116 C 
ATOM     75  C   UNL A   1      31.084  26.407  25.014  1.00  0.00     0.047 C 
ATOM     76  C   UNL A   1      32.874  25.185  25.276  1.00  0.00     0.047 C 
ATOM     77  C   UNL A   1      31.464  24.958  24.648  1.00  0.00     0.095 C 
BRANCH  75  78
ATOM     78  C   UNL A   1      30.813  27.601  23.968  1.00  0.00    -0.043 A 
ATOM     79  C   UNL A   1      31.808  28.352  23.321  1.00  0.00     0.004 A 
ATOM     80  C   UNL A   1      29.485  27.965  23.635  1.00  0.00     0.004 A 
ATOM     81  C   UNL A   1      31.498  29.424  22.468  1.00  0.00     0.000 A 
ATOM     82  C   UNL A   1      29.157  29.042  22.809  1.00  0.00     0.000 A 
ATOM     83  C   UNL A   1      30.174  29.781  22.229  1.00  0.00     0.000 A 
ENDBRANCH  75  78
BRANCH  76  84
ATOM     84  C   UNL A   1      33.440  23.973  26.178  1.00  0.00    -0.043 A 
ATOM     85  C   UNL A   1      34.653  23.331  25.854  1.00  0.00     0.004 A 
ATOM     86  C   UNL A   1      32.749  23.453  27.292  1.00  0.00     0.004 A 
ATOM     87  C   UNL A   1      35.129  22.225  26.564  1.00  0.00     0.000 A 
ATOM     88  C   UNL A   1      33.219  22.346  28.009  1.00  0.00     0.000 A 
ATOM     89  C   UNL A   1      34.408  21.728  27.640  1.00  0.00     0.000 A 
ENDBRANCH  76  84
BRANCH  77  90
ATOM     90  C   UNL A   1      31.399  24.360  23.243  1.00  0.00     0.226 C 
ATOM     91  O   UNL A   1      30.415  23.739  22.824  1.00  0.00    -0.275 OA
ATOM     92  N   UNL A   1      32.558  24.438  22.505  1.00  0.00    -0.342 N 
ATOM     93  C   UNL A   1      32.764  25.570  21.603  1.00  0.00     0.119 C 
ATOM     94  C   UNL A   1      33.191  23.195  22.123  1.00  0.00     0.119 C 
ATOM     95  C   UNL A   1      32.434  25.203  20.176  1.00  0.00     0.022 C 
ATOM     96  C   UNL A   1      32.852  22.811  20.692  1.00  0.00     0.022 C 
ATOM     97  C   UNL A   1      33.196  23.958  19.751  1.00  0.00     0.004 C 
ENDBRANCH  77  90
ENDBRANCH  72  74
ENDBRANCH  71  72
ENDBRANCH  70  71
ENDBRANCH   1  70
TORSDOF 17
ENDMDL
