MODEL 1
REMARK VINA RESULT:     -12.5      0.000      0.000
REMARK SMILES O=C(C[C@@H]1C(=O)NCCN1C(=O)OCC1c2ccccc2-c2ccccc21)OCCOC(=O)c1ccc(-c2c3nc(c(-c4cc(S(=O)(=O)[O-])ccc4F)c4ccc([nH]4)c(-c4cc(S(=O)(=O)[O-])ccc4F)c4nc(c(-c5cc(S(=O)(=O)[O-])ccc5F)c5ccc2[nH]5)C=C4)C=C3)cc1
REMARK SMILES IDX 29 1 28 2 2 3 1 4 3 5 4 6 5 7 10 8 6 9 7 10 9 11 8 12 11 14
REMARK SMILES IDX 12 15 13 16 14 17 15 18 16 19 27 20 17 21 21 22 22 23 26 24
REMARK SMILES IDX 18 25 20 26 23 27 25 28 19 29 24 30 30 31 31 32 32 33 33 34
REMARK SMILES IDX 34 35 35 36 96 37 36 38 95 39 37 40 38 41 39 42 89 43 40 44
REMARK SMILES IDX 94 45 88 46 90 47 41 48 93 49 87 50 86 51 42 53 74 54 54 55
REMARK SMILES IDX 73 56 55 57 58 58 72 59 91 60 56 61 57 62 71 64 92 65 59 66
REMARK SMILES IDX 43 67 44 68 52 69 45 70 51 71 53 72 50 73 46 74 47 75 48 76
REMARK SMILES IDX 49 77 75 78 76 79 84 80 77 81 83 82 85 83 82 84 78 85 79 86
REMARK SMILES IDX 80 87 81 88 60 89 61 90 69 91 62 92 68 93 70 94 67 95 63 96
REMARK SMILES IDX 64 97 65 98 66 99
REMARK H PARENT 7 13 90 52 58 63
REMARK Flexibility Score: inf
ROOT
ATOM      1  C   UNL A   1      31.476  30.214  26.735  1.00  0.00     0.274 C 
ENDROOT
BRANCH   1   2
ATOM      2  O   UNL A   1      32.113  29.048  26.198  1.00  0.00    -0.462 OA
BRANCH   2   3
ATOM      3  C   UNL A   1      32.105  27.824  26.764  1.00  0.00     0.308 C 
ATOM      4  O   UNL A   1      31.409  27.643  27.763  1.00  0.00    -0.252 OA
BRANCH   3   5
ATOM      5  C   UNL A   1      32.986  26.720  26.238  1.00  0.00     0.158 C 
BRANCH   5   6
ATOM      6  C   UNL A   1      32.623  25.972  24.954  1.00  0.00     0.189 C 
ATOM      7  C   UNL A   1      32.960  26.898  23.749  1.00  0.00     0.243 C 
ATOM      8  N   UNL A   1      31.344  25.232  24.854  1.00  0.00    -0.294 N 
ATOM      9  O   UNL A   1      34.023  27.509  23.647  1.00  0.00    -0.273 OA
ATOM     10  N   UNL A   1      32.006  27.086  22.787  1.00  0.00    -0.353 N 
ATOM     11  C   UNL A   1      30.774  25.111  23.517  1.00  0.00     0.145 C 
ATOM     12  C   UNL A   1      30.699  26.481  22.860  1.00  0.00     0.137 C 
ATOM     13  H   UNL A   1      32.220  27.658  22.014  1.00  0.00     0.163 HD
BRANCH   8  14
ATOM     14  C   UNL A   1      30.871  24.355  25.816  1.00  0.00     0.410 C 
ATOM     15  O   UNL A   1      30.321  24.717  26.854  1.00  0.00    -0.224 OA
BRANCH  14  16
ATOM     16  O   UNL A   1      31.150  23.076  25.515  1.00  0.00    -0.448 OA
BRANCH  16  17
ATOM     17  C   UNL A   1      32.451  22.543  25.831  1.00  0.00     0.248 C 
BRANCH  17  18
ATOM     18  C   UNL A   1      33.383  22.192  24.631  1.00  0.00     0.088 C 
ATOM     19  C   UNL A   1      34.877  22.439  24.802  1.00  0.00    -0.029 A 
ATOM     20  C   UNL A   1      33.373  20.679  24.423  1.00  0.00    -0.029 A 
ATOM     21  C   UNL A   1      35.578  23.629  24.736  1.00  0.00     0.005 A 
ATOM     22  C   UNL A   1      35.557  21.222  25.003  1.00  0.00    -0.014 A 
ATOM     23  C   UNL A   1      34.640  20.137  24.722  1.00  0.00    -0.014 A 
ATOM     24  C   UNL A   1      32.318  19.884  24.000  1.00  0.00     0.005 A 
ATOM     25  C   UNL A   1      36.935  23.626  25.060  1.00  0.00     0.000 A 
ATOM     26  C   UNL A   1      36.901  21.213  25.344  1.00  0.00     0.009 A 
ATOM     27  C   UNL A   1      34.855  18.775  24.625  1.00  0.00     0.009 A 
ATOM     28  C   UNL A   1      32.540  18.513  23.892  1.00  0.00     0.000 A 
ATOM     29  C   UNL A   1      37.584  22.432  25.403  1.00  0.00     0.001 A 
ATOM     30  C   UNL A   1      33.795  17.962  24.209  1.00  0.00     0.001 A 
ENDBRANCH  17  18
ENDBRANCH  16  17
ENDBRANCH  14  16
ENDBRANCH   8  14
ENDBRANCH   5   6
ENDBRANCH   3   5
ENDBRANCH   2   3
ENDBRANCH   1   2
BRANCH   1  31
ATOM     31  C   UNL A   1      32.413  31.412  26.879  1.00  0.00     0.275 C 
BRANCH  31  32
ATOM     32  O   UNL A   1      33.779  30.985  26.988  1.00  0.00    -0.458 OA
BRANCH  32  33
ATOM     33  C   UNL A   1      34.628  31.834  27.625  1.00  0.00     0.338 C 
ATOM     34  O   UNL A   1      34.403  32.991  27.927  1.00  0.00    -0.246 OA
BRANCH  33  35
ATOM     35  C   UNL A   1      35.792  31.037  28.090  1.00  0.00     0.060 A 
ATOM     36  C   UNL A   1      35.674  29.642  28.162  1.00  0.00     0.016 A 
ATOM     37  C   UNL A   1      37.019  31.651  28.357  1.00  0.00     0.016 A 
ATOM     38  C   UNL A   1      36.783  28.857  28.487  1.00  0.00     0.010 A 
ATOM     39  C   UNL A   1      38.120  30.869  28.710  1.00  0.00     0.010 A 
ATOM     40  C   UNL A   1      38.003  29.471  28.796  1.00  0.00    -0.014 A 
BRANCH  40  41
ATOM     41  C   UNL A   1      39.085  28.701  29.456  1.00  0.00     0.031 A 
ATOM     42  C   UNL A   1      39.559  29.198  30.793  1.00  0.00     0.074 A 
ATOM     43  C   UNL A   1      39.661  27.630  28.883  1.00  0.00     0.049 A 
ATOM     44  N   UNL A   1      40.564  28.797  31.525  1.00  0.00    -0.248 NA
ATOM     45  C   UNL A   1      38.798  30.318  31.369  1.00  0.00     0.031 C 
ATOM     46  C   UNL A   1      39.261  27.034  27.611  1.00  0.00     0.029 A 
ATOM     47  N   UNL A   1      40.729  26.868  29.293  1.00  0.00    -0.354 N 
ATOM     48  C   UNL A   1      40.562  29.621  32.644  1.00  0.00     0.074 A 
ATOM     49  C   UNL A   1      39.483  30.569  32.471  1.00  0.00     0.031 C 
ATOM     50  C   UNL A   1      40.093  26.014  27.329  1.00  0.00     0.029 A 
ATOM     51  C   UNL A   1      41.110  25.913  28.379  1.00  0.00     0.049 A 
ATOM     52  H   UNL A   1      41.179  26.995  30.159  1.00  0.00     0.167 HD
ATOM     53  C   UNL A   1      41.387  29.590  33.719  1.00  0.00     0.034 A 
ATOM     54  C   UNL A   1      42.177  25.085  28.373  1.00  0.00     0.034 A 
ATOM     55  C   UNL A   1      42.477  28.660  33.856  1.00  0.00     0.049 A 
ATOM     56  C   UNL A   1      43.147  25.129  29.535  1.00  0.00     0.074 A 
ATOM     57  C   UNL A   1      43.364  28.523  34.908  1.00  0.00     0.029 A 
ATOM     58  N   UNL A   1      42.849  27.725  32.898  1.00  0.00    -0.354 N 
ATOM     59  N   UNL A   1      43.124  25.893  30.604  1.00  0.00    -0.248 NA
ATOM     60  C   UNL A   1      44.284  24.198  29.492  1.00  0.00     0.031 C 
ATOM     61  C   UNL A   1      44.326  27.574  34.548  1.00  0.00     0.029 A 
ATOM     62  C   UNL A   1      43.981  27.042  33.315  1.00  0.00     0.049 A 
ATOM     63  H   UNL A   1      42.378  27.570  32.047  1.00  0.00     0.167 HD
ATOM     64  C   UNL A   1      44.221  25.509  31.374  1.00  0.00     0.074 A 
ATOM     65  C   UNL A   1      44.884  24.445  30.649  1.00  0.00     0.031 C 
ATOM     66  C   UNL A   1      44.636  25.984  32.577  1.00  0.00     0.034 A 
BRANCH  53  67
ATOM     67  C   UNL A   1      41.172  30.643  34.779  1.00  0.00     0.023 A 
ATOM     68  C   UNL A   1      40.013  30.668  35.577  1.00  0.00     0.031 A 
ATOM     69  C   UNL A   1      42.107  31.678  34.946  1.00  0.00     0.131 A 
ATOM     70  C   UNL A   1      39.778  31.753  36.433  1.00  0.00     0.055 A 
ATOM     71  C   UNL A   1      41.912  32.706  35.870  1.00  0.00     0.041 A 
ATOM     72  F   UNL A   1      43.218  31.726  34.193  1.00  0.00    -0.206 F 
ATOM     73  C   UNL A   1      40.731  32.758  36.606  1.00  0.00     0.022 A 
BRANCH  70  74
ATOM     74  S   UNL A   1      38.131  31.927  37.173  1.00  0.00     0.124 S 
ATOM     75  O   UNL A   1      37.753  30.531  37.383  1.00  0.00    -0.237 OA
ATOM     76  O   UNL A   1      38.407  32.703  38.376  1.00  0.00    -0.237 OA
ATOM     77  O   UNL A   1      37.363  32.623  36.143  1.00  0.00    -0.744 OA
ENDBRANCH  70  74
ENDBRANCH  53  67
BRANCH  54  78
ATOM     78  C   UNL A   1      42.430  24.189  27.204  1.00  0.00     0.023 A 
ATOM     79  C   UNL A   1      41.991  22.855  27.190  1.00  0.00     0.031 A 
ATOM     80  C   UNL A   1      43.166  24.649  26.097  1.00  0.00     0.131 A 
ATOM     81  C   UNL A   1      42.322  22.020  26.109  1.00  0.00     0.055 A 
ATOM     82  C   UNL A   1      43.446  23.832  25.000  1.00  0.00     0.041 A 
ATOM     83  F   UNL A   1      43.621  25.912  26.061  1.00  0.00    -0.206 F 
ATOM     84  C   UNL A   1      43.031  22.504  25.007  1.00  0.00     0.022 A 
BRANCH  81  85
ATOM     85  S   UNL A   1      41.884  20.261  26.197  1.00  0.00     0.124 S 
ATOM     86  O   UNL A   1      40.446  20.300  25.957  1.00  0.00    -0.237 OA
ATOM     87  O   UNL A   1      42.699  19.690  25.130  1.00  0.00    -0.237 OA
ATOM     88  O   UNL A   1      42.280  19.879  27.552  1.00  0.00    -0.744 OA
ENDBRANCH  81  85
ENDBRANCH  54  78
BRANCH  66  89
ATOM     89  C   UNL A   1      45.830  25.320  33.225  1.00  0.00     0.023 A 
ATOM     90  C   UNL A   1      45.710  24.162  34.011  1.00  0.00     0.031 A 
ATOM     91  C   UNL A   1      47.120  25.840  33.005  1.00  0.00     0.131 A 
ATOM     92  C   UNL A   1      46.857  23.579  34.575  1.00  0.00     0.055 A 
ATOM     93  C   UNL A   1      48.261  25.222  33.517  1.00  0.00     0.041 A 
ATOM     94  F   UNL A   1      47.293  26.945  32.264  1.00  0.00    -0.206 F 
ATOM     95  C   UNL A   1      48.133  24.090  34.313  1.00  0.00     0.022 A 
BRANCH  92  96
ATOM     96  S   UNL A   1      46.662  22.180  35.712  1.00  0.00     0.124 S 
ATOM     97  O   UNL A   1      46.579  21.051  34.791  1.00  0.00    -0.237 OA
ATOM     98  O   UNL A   1      47.877  22.258  36.518  1.00  0.00    -0.237 OA
ATOM     99  O   UNL A   1      45.425  22.488  36.428  1.00  0.00    -0.744 OA
ENDBRANCH  92  96
ENDBRANCH  66  89
ENDBRANCH  40  41
ENDBRANCH  33  35
ENDBRANCH  32  33
ENDBRANCH  31  32
ENDBRANCH   1  31
TORSDOF 19
ENDMDL
MODEL 2
REMARK VINA RESULT:     -12.5      4.843      8.297
REMARK SMILES O=C(C[C@@H]1C(=O)NCCN1C(=O)OCC1c2ccccc2-c2ccccc21)OCCOC(=O)c1ccc(-c2c3nc(c(-c4cc(S(=O)(=O)[O-])ccc4F)c4ccc([nH]4)c(-c4cc(S(=O)(=O)[O-])ccc4F)c4nc(c(-c5cc(S(=O)(=O)[O-])ccc5F)c5ccc2[nH]5)C=C4)C=C3)cc1
REMARK SMILES IDX 29 1 28 2 2 3 1 4 3 5 4 6 5 7 10 8 6 9 7 10 9 11 8 12 11 14
REMARK SMILES IDX 12 15 13 16 14 17 15 18 16 19 27 20 17 21 21 22 22 23 26 24
REMARK SMILES IDX 18 25 20 26 23 27 25 28 19 29 24 30 30 31 31 32 32 33 33 34
REMARK SMILES IDX 34 35 35 36 96 37 36 38 95 39 37 40 38 41 39 42 89 43 40 44
REMARK SMILES IDX 94 45 88 46 90 47 41 48 93 49 87 50 86 51 42 53 74 54 54 55
REMARK SMILES IDX 73 56 55 57 58 58 72 59 91 60 56 61 57 62 71 64 92 65 59 66
REMARK SMILES IDX 43 67 44 68 52 69 45 70 51 71 53 72 50 73 46 74 47 75 48 76
REMARK SMILES IDX 49 77 75 78 76 79 84 80 77 81 83 82 85 83 82 84 78 85 79 86
REMARK SMILES IDX 80 87 81 88 60 89 61 90 69 91 62 92 68 93 70 94 67 95 63 96
REMARK SMILES IDX 64 97 65 98 66 99
REMARK H PARENT 7 13 90 52 58 63
REMARK Flexibility Score: inf
ROOT
ATOM      1  C   UNL A   1      35.874  20.638  24.884  1.00  0.00     0.274 C 
ENDROOT
BRANCH   1   2
ATOM      2  O   UNL A   1      35.611  21.936  24.334  1.00  0.00    -0.462 OA
BRANCH   2   3
ATOM      3  C   UNL A   1      34.403  22.533  24.287  1.00  0.00     0.308 C 
ATOM      4  O   UNL A   1      33.451  21.898  23.832  1.00  0.00    -0.252 OA
BRANCH   3   5
ATOM      5  C   UNL A   1      34.230  23.970  24.707  1.00  0.00     0.158 C 
BRANCH   5   6
ATOM      6  C   UNL A   1      32.901  24.696  24.489  1.00  0.00     0.189 C 
ATOM      7  C   UNL A   1      31.824  23.996  25.367  1.00  0.00     0.243 C 
ATOM      8  N   UNL A   1      32.468  25.073  23.124  1.00  0.00    -0.294 N 
ATOM      9  O   UNL A   1      32.006  23.703  26.548  1.00  0.00    -0.273 OA
ATOM     10  N   UNL A   1      30.641  23.640  24.782  1.00  0.00    -0.353 N 
ATOM     11  C   UNL A   1      31.029  25.146  22.903  1.00  0.00     0.145 C 
ATOM     12  C   UNL A   1      30.365  23.865  23.385  1.00  0.00     0.137 C 
ATOM     13  H   UNL A   1      29.948  23.211  25.337  1.00  0.00     0.163 HD
BRANCH   8  14
ATOM     14  C   UNL A   1      33.275  25.709  22.195  1.00  0.00     0.410 C 
ATOM     15  O   UNL A   1      33.484  25.274  21.064  1.00  0.00    -0.224 OA
BRANCH  14  16
ATOM     16  O   UNL A   1      33.857  26.809  22.701  1.00  0.00    -0.448 OA
BRANCH  16  17
ATOM     17  C   UNL A   1      33.508  28.102  22.170  1.00  0.00     0.248 C 
BRANCH  17  18
ATOM     18  C   UNL A   1      32.698  29.055  23.102  1.00  0.00     0.088 C 
ATOM     19  C   UNL A   1      31.188  29.118  22.906  1.00  0.00    -0.029 A 
ATOM     20  C   UNL A   1      32.771  28.526  24.533  1.00  0.00    -0.029 A 
ATOM     21  C   UNL A   1      30.461  29.782  21.934  1.00  0.00     0.005 A 
ATOM     22  C   UNL A   1      30.529  28.415  23.932  1.00  0.00    -0.014 A 
ATOM     23  C   UNL A   1      31.498  28.091  24.958  1.00  0.00    -0.014 A 
ATOM     24  C   UNL A   1      33.882  28.455  25.359  1.00  0.00     0.005 A 
ATOM     25  C   UNL A   1      29.081  29.585  21.879  1.00  0.00     0.000 A 
ATOM     26  C   UNL A   1      29.160  28.198  23.873  1.00  0.00     0.009 A 
ATOM     27  C   UNL A   1      31.332  27.550  26.219  1.00  0.00     0.009 A 
ATOM     28  C   UNL A   1      33.711  27.920  26.634  1.00  0.00     0.000 A 
ATOM     29  C   UNL A   1      28.440  28.765  22.816  1.00  0.00     0.001 A 
ATOM     30  C   UNL A   1      32.450  27.465  27.058  1.00  0.00     0.001 A 
ENDBRANCH  17  18
ENDBRANCH  16  17
ENDBRANCH  14  16
ENDBRANCH   8  14
ENDBRANCH   5   6
ENDBRANCH   3   5
ENDBRANCH   2   3
ENDBRANCH   1   2
BRANCH   1  31
ATOM     31  C   UNL A   1      37.362  20.307  24.984  1.00  0.00     0.275 C 
BRANCH  31  32
ATOM     32  O   UNL A   1      38.094  21.399  25.558  1.00  0.00    -0.458 OA
BRANCH  32  33
ATOM     33  C   UNL A   1      39.289  21.092  26.130  1.00  0.00     0.338 C 
ATOM     34  O   UNL A   1      39.863  20.020  26.074  1.00  0.00    -0.246 OA
BRANCH  33  35
ATOM     35  C   UNL A   1      39.880  22.356  26.639  1.00  0.00     0.060 A 
ATOM     36  C   UNL A   1      39.411  23.576  26.133  1.00  0.00     0.016 A 
ATOM     37  C   UNL A   1      40.814  22.342  27.678  1.00  0.00     0.016 A 
ATOM     38  C   UNL A   1      39.865  24.783  26.671  1.00  0.00     0.010 A 
ATOM     39  C   UNL A   1      41.290  23.547  28.197  1.00  0.00     0.010 A 
ATOM     40  C   UNL A   1      40.832  24.773  27.683  1.00  0.00    -0.014 A 
BRANCH  40  41
ATOM     41  C   UNL A   1      41.564  26.014  28.035  1.00  0.00     0.031 A 
ATOM     42  C   UNL A   1      40.783  27.097  28.725  1.00  0.00     0.074 A 
ATOM     43  C   UNL A   1      42.858  26.201  27.720  1.00  0.00     0.049 A 
ATOM     44  N   UNL A   1      41.136  28.317  29.030  1.00  0.00    -0.248 NA
ATOM     45  C   UNL A   1      39.404  26.751  29.104  1.00  0.00     0.031 C 
ATOM     46  C   UNL A   1      43.726  25.212  27.088  1.00  0.00     0.029 A 
ATOM     47  N   UNL A   1      43.659  27.308  27.872  1.00  0.00    -0.354 N 
ATOM     48  C   UNL A   1      40.019  28.890  29.628  1.00  0.00     0.074 A 
ATOM     49  C   UNL A   1      38.969  27.895  29.604  1.00  0.00     0.031 C 
ATOM     50  C   UNL A   1      44.935  25.766  26.878  1.00  0.00     0.029 A 
ATOM     51  C   UNL A   1      44.912  27.161  27.322  1.00  0.00     0.049 A 
ATOM     52  H   UNL A   1      43.364  28.127  28.330  1.00  0.00     0.167 HD
ATOM     53  C   UNL A   1      39.883  30.132  30.151  1.00  0.00     0.034 A 
ATOM     54  C   UNL A   1      45.906  28.062  27.160  1.00  0.00     0.034 A 
ATOM     55  C   UNL A   1      40.931  31.119  30.134  1.00  0.00     0.049 A 
ATOM     56  C   UNL A   1      45.704  29.477  27.661  1.00  0.00     0.074 A 
ATOM     57  C   UNL A   1      40.914  32.402  30.651  1.00  0.00     0.029 A 
ATOM     58  N   UNL A   1      42.178  30.944  29.545  1.00  0.00    -0.354 N 
ATOM     59  N   UNL A   1      44.655  30.004  28.252  1.00  0.00    -0.248 NA
ATOM     60  C   UNL A   1      46.819  30.417  27.478  1.00  0.00     0.031 C 
ATOM     61  C   UNL A   1      42.109  33.033  30.293  1.00  0.00     0.029 A 
ATOM     62  C   UNL A   1      42.918  32.112  29.644  1.00  0.00     0.049 A 
ATOM     63  H   UNL A   1      42.490  30.113  29.119  1.00  0.00     0.167 HD
ATOM     64  C   UNL A   1      45.000  31.324  28.540  1.00  0.00     0.074 A 
ATOM     65  C   UNL A   1      46.352  31.513  28.061  1.00  0.00     0.031 C 
ATOM     66  C   UNL A   1      44.268  32.289  29.156  1.00  0.00     0.034 A 
BRANCH  53  67
ATOM     67  C   UNL A   1      38.529  30.497  30.709  1.00  0.00     0.023 A 
ATOM     68  C   UNL A   1      37.560  31.161  29.934  1.00  0.00     0.031 A 
ATOM     69  C   UNL A   1      38.229  30.240  32.058  1.00  0.00     0.131 A 
ATOM     70  C   UNL A   1      36.384  31.627  30.537  1.00  0.00     0.055 A 
ATOM     71  C   UNL A   1      37.014  30.622  32.628  1.00  0.00     0.041 A 
ATOM     72  F   UNL A   1      39.125  29.637  32.856  1.00  0.00    -0.206 F 
ATOM     73  C   UNL A   1      36.090  31.338  31.871  1.00  0.00     0.022 A 
BRANCH  70  74
ATOM     74  S   UNL A   1      35.330  32.772  29.604  1.00  0.00     0.124 S 
ATOM     75  O   UNL A   1      34.736  33.566  30.678  1.00  0.00    -0.237 OA
ATOM     76  O   UNL A   1      36.292  33.463  28.754  1.00  0.00    -0.237 OA
ATOM     77  O   UNL A   1      34.398  31.890  28.905  1.00  0.00    -0.744 OA
ENDBRANCH  70  74
ENDBRANCH  53  67
BRANCH  54  78
ATOM     78  C   UNL A   1      47.157  27.683  26.437  1.00  0.00     0.023 A 
ATOM     79  C   UNL A   1      47.301  27.888  25.055  1.00  0.00     0.031 A 
ATOM     80  C   UNL A   1      48.217  27.060  27.122  1.00  0.00     0.131 A 
ATOM     81  C   UNL A   1      48.460  27.441  24.398  1.00  0.00     0.055 A 
ATOM     82  C   UNL A   1      49.390  26.667  26.473  1.00  0.00     0.041 A 
ATOM     83  F   UNL A   1      48.131  26.829  28.442  1.00  0.00    -0.206 F 
ATOM     84  C   UNL A   1      49.511  26.848  25.100  1.00  0.00     0.022 A 
BRANCH  81  85
ATOM     85  S   UNL A   1      48.543  27.569  22.589  1.00  0.00     0.124 S 
ATOM     86  O   UNL A   1      47.337  28.333  22.290  1.00  0.00    -0.237 OA
ATOM     87  O   UNL A   1      49.810  28.265  22.391  1.00  0.00    -0.237 OA
ATOM     88  O   UNL A   1      48.524  26.176  22.148  1.00  0.00    -0.744 OA
ENDBRANCH  81  85
ENDBRANCH  54  78
BRANCH  66  89
ATOM     89  C   UNL A   1      44.930  33.624  29.408  1.00  0.00     0.023 A 
ATOM     90  C   UNL A   1      44.934  34.652  28.449  1.00  0.00     0.031 A 
ATOM     91  C   UNL A   1      45.527  33.881  30.656  1.00  0.00     0.131 A 
ATOM     92  C   UNL A   1      45.551  35.879  28.745  1.00  0.00     0.055 A 
ATOM     93  C   UNL A   1      46.085  35.123  30.965  1.00  0.00     0.041 A 
ATOM     94  F   UNL A   1      45.556  32.935  31.608  1.00  0.00    -0.206 F 
ATOM     95  C   UNL A   1      46.106  36.127  30.004  1.00  0.00     0.022 A 
BRANCH  92  96
ATOM     96  S   UNL A   1      45.680  37.132  27.441  1.00  0.00     0.124 S 
ATOM     97  O   UNL A   1      44.319  37.656  27.387  1.00  0.00    -0.237 OA
ATOM     98  O   UNL A   1      46.692  38.039  27.974  1.00  0.00    -0.237 OA
ATOM     99  O   UNL A   1      46.095  36.366  26.266  1.00  0.00    -0.744 OA
ENDBRANCH  92  96
ENDBRANCH  66  89
ENDBRANCH  40  41
ENDBRANCH  33  35
ENDBRANCH  32  33
ENDBRANCH  31  32
ENDBRANCH   1  31
TORSDOF 19
ENDMDL
MODEL 3
REMARK VINA RESULT:     -12.4      1.515      7.407
REMARK SMILES O=C(C[C@@H]1C(=O)NCCN1C(=O)OCC1c2ccccc2-c2ccccc21)OCCOC(=O)c1ccc(-c2c3nc(c(-c4cc(S(=O)(=O)[O-])ccc4F)c4ccc([nH]4)c(-c4cc(S(=O)(=O)[O-])ccc4F)c4nc(c(-c5cc(S(=O)(=O)[O-])ccc5F)c5ccc2[nH]5)C=C4)C=C3)cc1
REMARK SMILES IDX 29 1 28 2 2 3 1 4 3 5 4 6 5 7 10 8 6 9 7 10 9 11 8 12 11 14
REMARK SMILES IDX 12 15 13 16 14 17 15 18 16 19 27 20 17 21 21 22 22 23 26 24
REMARK SMILES IDX 18 25 20 26 23 27 25 28 19 29 24 30 30 31 31 32 32 33 33 34
REMARK SMILES IDX 34 35 35 36 96 37 36 38 95 39 37 40 38 41 39 42 89 43 40 44
REMARK SMILES IDX 94 45 88 46 90 47 41 48 93 49 87 50 86 51 42 53 74 54 54 55
REMARK SMILES IDX 73 56 55 57 58 58 72 59 91 60 56 61 57 62 71 64 92 65 59 66
REMARK SMILES IDX 43 67 44 68 52 69 45 70 51 71 53 72 50 73 46 74 47 75 48 76
REMARK SMILES IDX 49 77 75 78 76 79 84 80 77 81 83 82 85 83 82 84 78 85 79 86
REMARK SMILES IDX 80 87 81 88 60 89 61 90 69 91 62 92 68 93 70 94 67 95 63 96
REMARK SMILES IDX 64 97 65 98 66 99
REMARK H PARENT 7 13 90 52 58 63
REMARK Flexibility Score: inf
ROOT
ATOM      1  C   UNL A   1      31.935  29.079  27.196  1.00  0.00     0.274 C 
ENDROOT
BRANCH   1   2
ATOM      2  O   UNL A   1      32.206  28.253  26.056  1.00  0.00    -0.462 OA
BRANCH   2   3
ATOM      3  C   UNL A   1      33.410  27.738  25.734  1.00  0.00     0.308 C 
ATOM      4  O   UNL A   1      34.403  28.460  25.830  1.00  0.00    -0.252 OA
BRANCH   3   5
ATOM      5  C   UNL A   1      33.536  26.337  25.193  1.00  0.00     0.158 C 
BRANCH   5   6
ATOM      6  C   UNL A   1      32.526  25.796  24.178  1.00  0.00     0.189 C 
ATOM      7  C   UNL A   1      32.449  26.805  22.996  1.00  0.00     0.243 C 
ATOM      8  N   UNL A   1      31.231  25.241  24.632  1.00  0.00    -0.294 N 
ATOM      9  O   UNL A   1      33.444  27.283  22.453  1.00  0.00    -0.273 OA
ATOM     10  N   UNL A   1      31.215  27.223  22.579  1.00  0.00    -0.353 N 
ATOM     11  C   UNL A   1      30.121  25.349  23.694  1.00  0.00     0.145 C 
ATOM     12  C   UNL A   1      29.993  26.785  23.206  1.00  0.00     0.137 C 
ATOM     13  H   UNL A   1      31.159  27.849  21.820  1.00  0.00     0.163 HD
BRANCH   8  14
ATOM     14  C   UNL A   1      31.090  24.326  25.662  1.00  0.00     0.410 C 
ATOM     15  O   UNL A   1      31.064  24.638  26.851  1.00  0.00    -0.224 OA
BRANCH  14  16
ATOM     16  O   UNL A   1      31.063  23.060  25.213  1.00  0.00    -0.448 OA
BRANCH  16  17
ATOM     17  C   UNL A   1      32.142  22.167  25.549  1.00  0.00     0.248 C 
BRANCH  17  18
ATOM     18  C   UNL A   1      33.152  21.817  24.412  1.00  0.00     0.088 C 
ATOM     19  C   UNL A   1      34.621  22.145  24.647  1.00  0.00    -0.029 A 
ATOM     20  C   UNL A   1      33.225  20.299  24.266  1.00  0.00    -0.029 A 
ATOM     21  C   UNL A   1      35.266  23.365  24.567  1.00  0.00     0.005 A 
ATOM     22  C   UNL A   1      35.347  20.972  24.931  1.00  0.00    -0.014 A 
ATOM     23  C   UNL A   1      34.499  19.833  24.649  1.00  0.00    -0.014 A 
ATOM     24  C   UNL A   1      32.232  19.436  23.824  1.00  0.00     0.005 A 
ATOM     25  C   UNL A   1      36.604  23.442  24.958  1.00  0.00     0.000 A 
ATOM     26  C   UNL A   1      36.670  21.043  25.339  1.00  0.00     0.009 A 
ATOM     27  C   UNL A   1      34.784  18.480  24.619  1.00  0.00     0.009 A 
ATOM     28  C   UNL A   1      32.525  18.075  23.783  1.00  0.00     0.000 A 
ATOM     29  C   UNL A   1      37.290  22.296  25.381  1.00  0.00     0.001 A 
ATOM     30  C   UNL A   1      33.787  17.600  24.184  1.00  0.00     0.001 A 
ENDBRANCH  17  18
ENDBRANCH  16  17
ENDBRANCH  14  16
ENDBRANCH   8  14
ENDBRANCH   5   6
ENDBRANCH   3   5
ENDBRANCH   2   3
ENDBRANCH   1   2
BRANCH   1  31
ATOM     31  C   UNL A   1      31.841  30.567  26.865  1.00  0.00     0.275 C 
BRANCH  31  32
ATOM     32  O   UNL A   1      33.139  31.118  26.602  1.00  0.00    -0.458 OA
BRANCH  32  33
ATOM     33  C   UNL A   1      33.544  32.127  27.419  1.00  0.00     0.338 C 
ATOM     34  O   UNL A   1      32.891  33.102  27.744  1.00  0.00    -0.246 OA
BRANCH  33  35
ATOM     35  C   UNL A   1      34.835  31.718  28.028  1.00  0.00     0.060 A 
ATOM     36  C   UNL A   1      35.002  30.388  28.437  1.00  0.00     0.016 A 
ATOM     37  C   UNL A   1      35.907  32.612  28.101  1.00  0.00     0.016 A 
ATOM     38  C   UNL A   1      36.240  29.945  28.909  1.00  0.00     0.010 A 
ATOM     39  C   UNL A   1      37.137  32.178  28.599  1.00  0.00     0.010 A 
ATOM     40  C   UNL A   1      37.304  30.848  29.023  1.00  0.00    -0.014 A 
BRANCH  40  41
ATOM     41  C   UNL A   1      38.506  30.496  29.817  1.00  0.00     0.031 A 
ATOM     42  C   UNL A   1      39.435  29.469  29.233  1.00  0.00     0.074 A 
ATOM     43  C   UNL A   1      38.751  31.027  31.028  1.00  0.00     0.049 A 
ATOM     44  N   UNL A   1      40.479  28.890  29.762  1.00  0.00    -0.248 NA
ATOM     45  C   UNL A   1      39.122  29.024  27.866  1.00  0.00     0.031 C 
ATOM     46  C   UNL A   1      37.946  32.058  31.678  1.00  0.00     0.029 A 
ATOM     47  N   UNL A   1      39.743  30.748  31.937  1.00  0.00    -0.354 N 
ATOM     48  C   UNL A   1      40.944  28.004  28.796  1.00  0.00     0.074 A 
ATOM     49  C   UNL A   1      40.042  28.096  27.669  1.00  0.00     0.031 C 
ATOM     50  C   UNL A   1      38.460  32.305  32.897  1.00  0.00     0.029 A 
ATOM     51  C   UNL A   1      39.604  31.420  33.130  1.00  0.00     0.049 A 
ATOM     52  H   UNL A   1      40.483  30.126  31.752  1.00  0.00     0.167 HD
ATOM     53  C   UNL A   1      42.025  27.190  28.846  1.00  0.00     0.034 A 
ATOM     54  C   UNL A   1      40.293  31.302  34.285  1.00  0.00     0.034 A 
ATOM     55  C   UNL A   1      42.892  27.090  29.991  1.00  0.00     0.049 A 
ATOM     56  C   UNL A   1      41.440  30.316  34.359  1.00  0.00     0.074 A 
ATOM     57  C   UNL A   1      44.026  26.314  30.147  1.00  0.00     0.029 A 
ATOM     58  N   UNL A   1      42.703  27.765  31.191  1.00  0.00    -0.354 N 
ATOM     59  N   UNL A   1      41.892  29.501  33.432  1.00  0.00    -0.248 NA
ATOM     60  C   UNL A   1      42.172  30.234  35.631  1.00  0.00     0.031 C 
ATOM     61  C   UNL A   1      44.469  26.448  31.466  1.00  0.00     0.029 A 
ATOM     62  C   UNL A   1      43.674  27.387  32.106  1.00  0.00     0.049 A 
ATOM     63  H   UNL A   1      41.987  28.416  31.366  1.00  0.00     0.167 HD
ATOM     64  C   UNL A   1      42.979  28.838  34.000  1.00  0.00     0.074 A 
ATOM     65  C   UNL A   1      43.118  29.349  35.347  1.00  0.00     0.031 C 
ATOM     66  C   UNL A   1      43.797  27.902  33.452  1.00  0.00     0.034 A 
BRANCH  53  67
ATOM     67  C   UNL A   1      42.270  26.301  27.650  1.00  0.00     0.023 A 
ATOM     68  C   UNL A   1      41.787  24.980  27.596  1.00  0.00     0.031 A 
ATOM     69  C   UNL A   1      43.057  26.757  26.580  1.00  0.00     0.131 A 
ATOM     70  C   UNL A   1      42.175  24.138  26.545  1.00  0.00     0.055 A 
ATOM     71  C   UNL A   1      43.360  25.943  25.488  1.00  0.00     0.041 A 
ATOM     72  F   UNL A   1      43.571  27.998  26.588  1.00  0.00    -0.206 F 
ATOM     73  C   UNL A   1      42.935  24.617  25.476  1.00  0.00     0.022 A 
BRANCH  70  74
ATOM     74  S   UNL A   1      41.829  22.363  26.688  1.00  0.00     0.124 S 
ATOM     75  O   UNL A   1      42.248  21.875  25.375  1.00  0.00    -0.237 OA
ATOM     76  O   UNL A   1      42.666  21.968  27.814  1.00  0.00    -0.237 OA
ATOM     77  O   UNL A   1      40.389  22.312  26.930  1.00  0.00    -0.744 OA
ENDBRANCH  70  74
ENDBRANCH  53  67
BRANCH  54  78
ATOM     78  C   UNL A   1      39.887  32.086  35.491  1.00  0.00     0.023 A 
ATOM     79  C   UNL A   1      38.986  31.568  36.436  1.00  0.00     0.031 A 
ATOM     80  C   UNL A   1      40.363  33.395  35.687  1.00  0.00     0.131 A 
ATOM     81  C   UNL A   1      38.563  32.369  37.512  1.00  0.00     0.055 A 
ATOM     82  C   UNL A   1      39.983  34.166  36.786  1.00  0.00     0.041 A 
ATOM     83  F   UNL A   1      41.218  33.945  34.809  1.00  0.00    -0.206 F 
ATOM     84  C   UNL A   1      39.068  33.656  37.702  1.00  0.00     0.022 A 
BRANCH  81  85
ATOM     85  S   UNL A   1      37.274  31.733  38.620  1.00  0.00     0.124 S 
ATOM     86  O   UNL A   1      36.209  32.711  38.429  1.00  0.00    -0.237 OA
ATOM     87  O   UNL A   1      37.031  30.403  38.073  1.00  0.00    -0.237 OA
ATOM     88  O   UNL A   1      37.914  31.756  39.934  1.00  0.00    -0.744 OA
ENDBRANCH  81  85
ENDBRANCH  54  78
BRANCH  66  89
ATOM     89  C   UNL A   1      44.958  27.406  34.283  1.00  0.00     0.023 A 
ATOM     90  C   UNL A   1      44.872  26.251  35.078  1.00  0.00     0.031 A 
ATOM     91  C   UNL A   1      46.190  28.086  34.235  1.00  0.00     0.131 A 
ATOM     92  C   UNL A   1      45.989  25.827  35.818  1.00  0.00     0.055 A 
ATOM     93  C   UNL A   1      47.314  27.626  34.924  1.00  0.00     0.041 A 
ATOM     94  F   UNL A   1      46.329  29.196  33.494  1.00  0.00    -0.206 F 
ATOM     95  C   UNL A   1      47.215  26.495  35.726  1.00  0.00     0.022 A 
BRANCH  92  96
ATOM     96  S   UNL A   1      45.809  24.427  36.955  1.00  0.00     0.124 S 
ATOM     97  O   UNL A   1      44.377  24.157  36.880  1.00  0.00    -0.237 OA
ATOM     98  O   UNL A   1      46.681  23.421  36.356  1.00  0.00    -0.237 OA
ATOM     99  O   UNL A   1      46.272  24.961  38.235  1.00  0.00    -0.744 OA
ENDBRANCH  92  96
ENDBRANCH  66  89
ENDBRANCH  40  41
ENDBRANCH  33  35
ENDBRANCH  32  33
ENDBRANCH  31  32
ENDBRANCH   1  31
TORSDOF 19
ENDMDL
