MODEL 1
REMARK VINA RESULT:     -10.6      0.000      0.000
REMARK SMILES CC(C)[NH2+][C@](C)(C[N@H+]1CCC(C)(C)C1)C(=O)OCCOC(=O)c1ccc(-c2c3nc(c(-c4cc(S(=O)(=O)[O-])ccc4F)c4ccc([nH]4)c(-c4cc(S(=O)(=O)[O-])ccc4F)c4nc(c(-c5cc(S(=O)(=O)[O-])ccc5F)c5ccc2[nH]5)C=C4)C=C3)cc1
REMARK SMILES IDX 19 1 18 2 17 3 15 4 16 5 5 6 6 7 4 8 2 11 1 12 3 13 7 14
REMARK SMILES IDX 8 15 9 16 14 17 10 19 11 20 12 21 13 22 20 23 21 24 22 25
REMARK SMILES IDX 23 26 24 27 85 28 25 29 84 30 26 31 27 32 28 33 78 34 29 35
REMARK SMILES IDX 83 36 77 37 79 38 30 39 82 40 76 41 75 42 31 44 63 45 43 46
REMARK SMILES IDX 62 47 44 48 47 49 61 50 80 51 45 52 46 53 60 55 81 56 48 57
REMARK SMILES IDX 32 58 33 59 41 60 34 61 40 62 42 63 39 64 35 65 36 66 37 67
REMARK SMILES IDX 38 68 64 69 65 70 73 71 66 72 72 73 74 74 71 75 67 76 68 77
REMARK SMILES IDX 69 78 70 79 49 80 50 81 58 82 51 83 57 84 59 85 56 86 52 87
REMARK SMILES IDX 53 88 54 89 55 90
REMARK H PARENT 4 9 4 10 8 18 79 43 47 54
REMARK Flexibility Score: inf
ROOT
ATOM      1  C   UNL A   1      31.791  30.278  26.060  1.00  0.00     0.275 C 
ENDROOT
BRANCH   1   2
ATOM      2  C   UNL A   1      31.587  29.681  24.670  1.00  0.00     0.274 C 
BRANCH   2   3
ATOM      3  O   UNL A   1      30.686  28.555  24.678  1.00  0.00    -0.457 OA
BRANCH   3   4
ATOM      4  C   UNL A   1      30.819  27.725  23.601  1.00  0.00     0.373 C 
ATOM      5  O   UNL A   1      30.482  28.046  22.462  1.00  0.00    -0.244 OA
BRANCH   4   6
ATOM      6  C   UNL A   1      31.228  26.278  23.984  1.00  0.00     0.240 C 
ATOM      7  C   UNL A   1      30.607  25.985  25.364  1.00  0.00     0.099 C 
BRANCH   6   8
ATOM      8  N   UNL A   1      32.705  26.262  24.273  1.00  0.00    -0.326 N 
ATOM      9  H   UNL A   1      33.109  25.508  23.719  1.00  0.00     0.347 HD
ATOM     10  H   UNL A   1      33.008  27.209  24.047  1.00  0.00     0.347 HD
BRANCH   8  11
ATOM     11  C   UNL A   1      33.159  26.071  25.649  1.00  0.00     0.177 C 
ATOM     12  C   UNL A   1      34.105  24.867  25.646  1.00  0.00     0.075 C 
ATOM     13  C   UNL A   1      33.869  27.290  26.229  1.00  0.00     0.075 C 
ENDBRANCH   8  11
ENDBRANCH   6   8
BRANCH   6  14
ATOM     14  C   UNL A   1      30.850  25.148  22.954  1.00  0.00     0.343 C 
BRANCH  14  15
ATOM     15  N   UNL A   1      31.590  23.903  22.781  1.00  0.00    -0.329 N 
ATOM     16  C   UNL A   1      32.862  23.887  22.066  1.00  0.00     0.263 C 
ATOM     17  C   UNL A   1      31.592  22.912  23.845  1.00  0.00     0.269 C 
ATOM     18  H   UNL A   1      30.898  23.596  22.098  1.00  0.00     0.348 HD
ATOM     19  C   UNL A   1      33.686  22.796  22.749  1.00  0.00     0.073 C 
ATOM     20  C   UNL A   1      32.632  21.878  23.378  1.00  0.00     0.019 C 
ATOM     21  C   UNL A   1      32.070  20.906  22.325  1.00  0.00     0.017 C 
ATOM     22  C   UNL A   1      33.189  21.057  24.538  1.00  0.00     0.017 C 
ENDBRANCH  14  15
ENDBRANCH   6  14
ENDBRANCH   4   6
ENDBRANCH   3   4
ENDBRANCH   2   3
ENDBRANCH   1   2
BRANCH   1  23
ATOM     23  O   UNL A   1      33.173  30.607  26.267  1.00  0.00    -0.458 OA
BRANCH  23  24
ATOM     24  C   UNL A   1      33.404  31.588  27.170  1.00  0.00     0.338 C 
ATOM     25  O   UNL A   1      32.661  32.523  27.421  1.00  0.00    -0.246 OA
BRANCH  24  26
ATOM     26  C   UNL A   1      34.679  31.368  27.892  1.00  0.00     0.060 A 
ATOM     27  C   UNL A   1      35.664  32.355  27.959  1.00  0.00     0.016 A 
ATOM     28  C   UNL A   1      34.955  30.084  28.368  1.00  0.00     0.016 A 
ATOM     29  C   UNL A   1      36.940  32.047  28.432  1.00  0.00     0.010 A 
ATOM     30  C   UNL A   1      36.212  29.791  28.902  1.00  0.00     0.010 A 
ATOM     31  C   UNL A   1      37.220  30.765  28.924  1.00  0.00    -0.014 A 
BRANCH  31  32
ATOM     32  C   UNL A   1      38.516  30.466  29.582  1.00  0.00     0.031 A 
ATOM     33  C   UNL A   1      39.473  29.461  29.005  1.00  0.00     0.074 A 
ATOM     34  C   UNL A   1      38.775  31.058  30.763  1.00  0.00     0.049 A 
ATOM     35  N   UNL A   1      40.533  28.924  29.553  1.00  0.00    -0.248 NA
ATOM     36  C   UNL A   1      39.204  28.999  27.636  1.00  0.00     0.031 C 
ATOM     37  C   UNL A   1      37.928  32.071  31.398  1.00  0.00     0.029 A 
ATOM     38  N   UNL A   1      39.802  30.875  31.654  1.00  0.00    -0.354 N 
ATOM     39  C   UNL A   1      41.051  28.044  28.609  1.00  0.00     0.074 A 
ATOM     40  C   UNL A   1      40.180  28.118  27.451  1.00  0.00     0.031 C 
ATOM     41  C   UNL A   1      38.456  32.406  32.582  1.00  0.00     0.029 A 
ATOM     42  C   UNL A   1      39.628  31.575  32.824  1.00  0.00     0.049 A 
ATOM     43  H   UNL A   1      40.581  30.302  31.473  1.00  0.00     0.167 HD
ATOM     44  C   UNL A   1      42.145  27.247  28.712  1.00  0.00     0.034 A 
ATOM     45  C   UNL A   1      40.290  31.509  33.993  1.00  0.00     0.034 A 
ATOM     46  C   UNL A   1      42.989  27.191  29.889  1.00  0.00     0.049 A 
ATOM     47  C   UNL A   1      41.445  30.561  34.116  1.00  0.00     0.074 A 
ATOM     48  C   UNL A   1      44.142  26.451  30.090  1.00  0.00     0.029 A 
ATOM     49  N   UNL A   1      42.760  27.888  31.070  1.00  0.00    -0.354 N 
ATOM     50  N   UNL A   1      41.913  29.717  33.225  1.00  0.00    -0.248 NA
ATOM     51  C   UNL A   1      42.156  30.555  35.397  1.00  0.00     0.031 C 
ATOM     52  C   UNL A   1      44.570  26.647  31.410  1.00  0.00     0.029 A 
ATOM     53  C   UNL A   1      43.727  27.566  32.014  1.00  0.00     0.049 A 
ATOM     54  H   UNL A   1      42.020  28.520  31.216  1.00  0.00     0.167 HD
ATOM     55  C   UNL A   1      42.985  29.082  33.839  1.00  0.00     0.074 A 
ATOM     56  C   UNL A   1      43.103  29.657  35.166  1.00  0.00     0.031 C 
ATOM     57  C   UNL A   1      43.802  28.114  33.348  1.00  0.00     0.034 A 
BRANCH  44  58
ATOM     58  C   UNL A   1      42.465  26.326  27.558  1.00  0.00     0.023 A 
ATOM     59  C   UNL A   1      41.990  25.004  27.496  1.00  0.00     0.031 A 
ATOM     60  C   UNL A   1      43.243  26.794  26.482  1.00  0.00     0.131 A 
ATOM     61  C   UNL A   1      42.326  24.187  26.402  1.00  0.00     0.055 A 
ATOM     62  C   UNL A   1      43.526  25.997  25.370  1.00  0.00     0.041 A 
ATOM     63  F   UNL A   1      43.743  28.040  26.493  1.00  0.00    -0.206 F 
ATOM     64  C   UNL A   1      43.074  24.682  25.329  1.00  0.00     0.022 A 
BRANCH  61  65
ATOM     65  S   UNL A   1      41.859  22.434  26.441  1.00  0.00     0.124 S 
ATOM     66  O   UNL A   1      42.528  21.920  25.249  1.00  0.00    -0.237 OA
ATOM     67  O   UNL A   1      42.402  21.992  27.720  1.00  0.00    -0.237 OA
ATOM     68  O   UNL A   1      40.399  22.466  26.361  1.00  0.00    -0.744 OA
ENDBRANCH  61  65
ENDBRANCH  44  58
BRANCH  45  69
ATOM     69  C   UNL A   1      39.815  32.318  35.146  1.00  0.00     0.023 A 
ATOM     70  C   UNL A   1      38.968  31.768  36.117  1.00  0.00     0.031 A 
ATOM     71  C   UNL A   1      40.245  33.648  35.312  1.00  0.00     0.131 A 
ATOM     72  C   UNL A   1      38.571  32.549  37.213  1.00  0.00     0.055 A 
ATOM     73  C   UNL A   1      39.883  34.405  36.426  1.00  0.00     0.041 A 
ATOM     74  F   UNL A   1      41.065  34.214  34.412  1.00  0.00    -0.206 F 
ATOM     75  C   UNL A   1      39.036  33.856  37.382  1.00  0.00     0.022 A 
BRANCH  72  76
ATOM     76  S   UNL A   1      37.406  31.838  38.406  1.00  0.00     0.124 S 
ATOM     77  O   UNL A   1      37.212  30.496  37.872  1.00  0.00    -0.237 OA
ATOM     78  O   UNL A   1      38.156  31.930  39.654  1.00  0.00    -0.237 OA
ATOM     79  O   UNL A   1      36.244  32.720  38.313  1.00  0.00    -0.744 OA
ENDBRANCH  72  76
ENDBRANCH  45  69
BRANCH  57  80
ATOM     80  C   UNL A   1      44.899  27.646  34.268  1.00  0.00     0.023 A 
ATOM     81  C   UNL A   1      44.693  26.592  35.176  1.00  0.00     0.031 A 
ATOM     82  C   UNL A   1      46.138  28.308  34.288  1.00  0.00     0.131 A 
ATOM     83  C   UNL A   1      45.686  26.278  36.115  1.00  0.00     0.055 A 
ATOM     84  C   UNL A   1      47.145  27.952  35.187  1.00  0.00     0.041 A 
ATOM     85  F   UNL A   1      46.384  29.325  33.446  1.00  0.00    -0.206 F 
ATOM     86  C   UNL A   1      46.915  26.943  36.118  1.00  0.00     0.022 A 
BRANCH  83  87
ATOM     87  S   UNL A   1      45.305  25.068  37.411  1.00  0.00     0.124 S 
ATOM     88  O   UNL A   1      45.739  25.768  38.617  1.00  0.00    -0.237 OA
ATOM     89  O   UNL A   1      43.864  24.893  37.261  1.00  0.00    -0.237 OA
ATOM     90  O   UNL A   1      46.111  23.906  37.044  1.00  0.00    -0.744 OA
ENDBRANCH  83  87
ENDBRANCH  57  80
ENDBRANCH  31  32
ENDBRANCH  24  26
ENDBRANCH  23  24
ENDBRANCH   1  23
TORSDOF 18
ENDMDL
MODEL 2
REMARK VINA RESULT:     -10.5      5.210     10.104
REMARK SMILES CC(C)[NH2+][C@](C)(C[N@H+]1CCC(C)(C)C1)C(=O)OCCOC(=O)c1ccc(-c2c3nc(c(-c4cc(S(=O)(=O)[O-])ccc4F)c4ccc([nH]4)c(-c4cc(S(=O)(=O)[O-])ccc4F)c4nc(c(-c5cc(S(=O)(=O)[O-])ccc5F)c5ccc2[nH]5)C=C4)C=C3)cc1
REMARK SMILES IDX 19 1 18 2 17 3 15 4 16 5 5 6 6 7 4 8 2 11 1 12 3 13 7 14
REMARK SMILES IDX 8 15 9 16 14 17 10 19 11 20 12 21 13 22 20 23 21 24 22 25
REMARK SMILES IDX 23 26 24 27 85 28 25 29 84 30 26 31 27 32 28 33 78 34 29 35
REMARK SMILES IDX 83 36 77 37 79 38 30 39 82 40 76 41 75 42 31 44 63 45 43 46
REMARK SMILES IDX 62 47 44 48 47 49 61 50 80 51 45 52 46 53 60 55 81 56 48 57
REMARK SMILES IDX 32 58 33 59 41 60 34 61 40 62 42 63 39 64 35 65 36 66 37 67
REMARK SMILES IDX 38 68 64 69 65 70 73 71 66 72 72 73 74 74 71 75 67 76 68 77
REMARK SMILES IDX 69 78 70 79 49 80 50 81 58 82 51 83 57 84 59 85 56 86 52 87
REMARK SMILES IDX 53 88 54 89 55 90
REMARK H PARENT 4 9 4 10 8 18 79 43 47 54
REMARK Flexibility Score: inf
ROOT
ATOM      1  C   UNL A   1      37.112  21.400  24.364  1.00  0.00     0.275 C 
ENDROOT
BRANCH   1   2
ATOM      2  C   UNL A   1      36.687  22.680  23.647  1.00  0.00     0.274 C 
BRANCH   2   3
ATOM      3  O   UNL A   1      35.816  23.501  24.451  1.00  0.00    -0.457 OA
BRANCH   3   4
ATOM      4  C   UNL A   1      34.646  23.844  23.836  1.00  0.00     0.373 C 
ATOM      5  O   UNL A   1      34.601  24.345  22.713  1.00  0.00    -0.244 OA
BRANCH   4   6
ATOM      6  C   UNL A   1      33.407  23.742  24.765  1.00  0.00     0.240 C 
ATOM      7  C   UNL A   1      33.839  24.265  26.149  1.00  0.00     0.099 C 
BRANCH   6   8
ATOM      8  N   UNL A   1      33.129  22.286  25.030  1.00  0.00    -0.326 N 
ATOM      9  H   UNL A   1      33.721  22.007  25.811  1.00  0.00     0.347 HD
ATOM     10  H   UNL A   1      32.121  22.255  25.184  1.00  0.00     0.347 HD
BRANCH   8  11
ATOM     11  C   UNL A   1      33.347  21.314  23.960  1.00  0.00     0.177 C 
ATOM     12  C   UNL A   1      33.591  19.959  24.630  1.00  0.00     0.075 C 
ATOM     13  C   UNL A   1      32.177  21.211  22.986  1.00  0.00     0.075 C 
ENDBRANCH   8  11
ENDBRANCH   6   8
BRANCH   6  14
ATOM     14  C   UNL A   1      32.103  24.478  24.276  1.00  0.00     0.343 C 
BRANCH  14  15
ATOM     15  N   UNL A   1      31.749  25.851  24.619  1.00  0.00    -0.329 N 
ATOM     16  C   UNL A   1      31.046  26.149  25.862  1.00  0.00     0.263 C 
ATOM     17  C   UNL A   1      32.651  26.937  24.272  1.00  0.00     0.269 C 
ATOM     18  H   UNL A   1      31.024  25.834  23.902  1.00  0.00     0.348 HD
ATOM     19  C   UNL A   1      31.560  27.524  26.287  1.00  0.00     0.073 C 
ATOM     20  C   UNL A   1      32.039  28.159  24.978  1.00  0.00     0.019 C 
ATOM     21  C   UNL A   1      30.849  28.756  24.205  1.00  0.00     0.017 C 
ATOM     22  C   UNL A   1      33.065  29.266  25.206  1.00  0.00     0.017 C 
ENDBRANCH  14  15
ENDBRANCH   6  14
ENDBRANCH   4   6
ENDBRANCH   3   4
ENDBRANCH   2   3
ENDBRANCH   1   2
BRANCH   1  23
ATOM     23  O   UNL A   1      37.461  21.682  25.727  1.00  0.00    -0.458 OA
BRANCH  23  24
ATOM     24  C   UNL A   1      38.764  21.492  26.041  1.00  0.00     0.338 C 
ATOM     25  O   UNL A   1      39.406  20.471  25.856  1.00  0.00    -0.246 OA
BRANCH  24  26
ATOM     26  C   UNL A   1      39.369  22.722  26.603  1.00  0.00     0.060 A 
ATOM     27  C   UNL A   1      39.024  23.991  26.134  1.00  0.00     0.016 A 
ATOM     28  C   UNL A   1      40.425  22.585  27.506  1.00  0.00     0.016 A 
ATOM     29  C   UNL A   1      39.773  25.109  26.505  1.00  0.00     0.010 A 
ATOM     30  C   UNL A   1      41.135  23.710  27.931  1.00  0.00     0.010 A 
ATOM     31  C   UNL A   1      40.825  24.980  27.422  1.00  0.00    -0.014 A 
BRANCH  31  32
ATOM     32  C   UNL A   1      41.524  26.175  27.955  1.00  0.00     0.031 A 
ATOM     33  C   UNL A   1      40.784  27.244  28.710  1.00  0.00     0.074 A 
ATOM     34  C   UNL A   1      42.832  26.320  27.668  1.00  0.00     0.049 A 
ATOM     35  N   UNL A   1      41.188  28.440  29.051  1.00  0.00    -0.248 NA
ATOM     36  C   UNL A   1      39.414  26.927  29.135  1.00  0.00     0.031 C 
ATOM     37  C   UNL A   1      43.652  25.330  26.967  1.00  0.00     0.029 A 
ATOM     38  N   UNL A   1      43.691  27.364  27.898  1.00  0.00    -0.354 N 
ATOM     39  C   UNL A   1      40.119  29.033  29.714  1.00  0.00     0.074 A 
ATOM     40  C   UNL A   1      39.044  28.059  29.721  1.00  0.00     0.031 C 
ATOM     41  C   UNL A   1      44.889  25.818  26.807  1.00  0.00     0.029 A 
ATOM     42  C   UNL A   1      44.923  27.182  27.318  1.00  0.00     0.049 A 
ATOM     43  H   UNL A   1      43.450  28.160  28.424  1.00  0.00     0.167 HD
ATOM     44  C   UNL A   1      40.049  30.277  30.254  1.00  0.00     0.034 A 
ATOM     45  C   UNL A   1      45.949  28.036  27.146  1.00  0.00     0.034 A 
ATOM     46  C   UNL A   1      41.140  31.228  30.221  1.00  0.00     0.049 A 
ATOM     47  C   UNL A   1      45.820  29.432  27.676  1.00  0.00     0.074 A 
ATOM     48  C   UNL A   1      41.194  32.500  30.768  1.00  0.00     0.029 A 
ATOM     49  N   UNL A   1      42.362  31.022  29.591  1.00  0.00    -0.354 N 
ATOM     50  N   UNL A   1      44.797  29.990  28.281  1.00  0.00    -0.248 NA
ATOM     51  C   UNL A   1      46.978  30.312  27.498  1.00  0.00     0.031 C 
ATOM     52  C   UNL A   1      42.416  33.084  30.412  1.00  0.00     0.029 A 
ATOM     53  C   UNL A   1      43.159  32.154  29.703  1.00  0.00     0.049 A 
ATOM     54  H   UNL A   1      42.625  30.192  29.132  1.00  0.00     0.167 HD
ATOM     55  C   UNL A   1      45.193  31.291  28.565  1.00  0.00     0.074 A 
ATOM     56  C   UNL A   1      46.556  31.423  28.082  1.00  0.00     0.031 C 
ATOM     57  C   UNL A   1      44.497  32.285  29.175  1.00  0.00     0.034 A 
BRANCH  44  58
ATOM     58  C   UNL A   1      38.739  30.710  30.871  1.00  0.00     0.023 A 
ATOM     59  C   UNL A   1      37.708  31.294  30.114  1.00  0.00     0.031 A 
ATOM     60  C   UNL A   1      38.510  30.508  32.245  1.00  0.00     0.131 A 
ATOM     61  C   UNL A   1      36.512  31.688  30.741  1.00  0.00     0.055 A 
ATOM     62  C   UNL A   1      37.298  30.848  32.853  1.00  0.00     0.041 A 
ATOM     63  F   UNL A   1      39.464  29.974  33.025  1.00  0.00    -0.206 F 
ATOM     64  C   UNL A   1      36.294  31.450  32.102  1.00  0.00     0.022 A 
BRANCH  61  65
ATOM     65  S   UNL A   1      35.280  32.610  29.780  1.00  0.00     0.124 S 
ATOM     66  O   UNL A   1      34.889  31.626  28.774  1.00  0.00    -0.237 OA
ATOM     67  O   UNL A   1      34.274  32.932  30.785  1.00  0.00    -0.237 OA
ATOM     68  O   UNL A   1      36.032  33.752  29.262  1.00  0.00    -0.744 OA
ENDBRANCH  61  65
ENDBRANCH  44  58
BRANCH  45  69
ATOM     69  C   UNL A   1      47.142  27.597  26.377  1.00  0.00     0.023 A 
ATOM     70  C   UNL A   1      47.236  27.816  24.997  1.00  0.00     0.031 A 
ATOM     71  C   UNL A   1      48.230  26.989  27.031  1.00  0.00     0.131 A 
ATOM     72  C   UNL A   1      48.394  27.425  24.309  1.00  0.00     0.055 A 
ATOM     73  C   UNL A   1      49.397  26.641  26.351  1.00  0.00     0.041 A 
ATOM     74  F   UNL A   1      48.189  26.767  28.355  1.00  0.00    -0.206 F 
ATOM     75  C   UNL A   1      49.481  26.855  24.979  1.00  0.00     0.022 A 
BRANCH  72  76
ATOM     76  S   UNL A   1      48.449  27.642  22.511  1.00  0.00     0.124 S 
ATOM     77  O   UNL A   1      47.195  28.340  22.254  1.00  0.00    -0.237 OA
ATOM     78  O   UNL A   1      49.667  28.427  22.337  1.00  0.00    -0.237 OA
ATOM     79  O   UNL A   1      48.517  26.273  22.004  1.00  0.00    -0.744 OA
ENDBRANCH  72  76
ENDBRANCH  45  69
BRANCH  57  80
ATOM     80  C   UNL A   1      45.228  33.590  29.356  1.00  0.00     0.023 A 
ATOM     81  C   UNL A   1      45.145  34.614  28.397  1.00  0.00     0.031 A 
ATOM     82  C   UNL A   1      46.073  33.781  30.462  1.00  0.00     0.131 A 
ATOM     83  C   UNL A   1      45.951  35.755  28.525  1.00  0.00     0.055 A 
ATOM     84  C   UNL A   1      46.828  34.944  30.615  1.00  0.00     0.041 A 
ATOM     85  F   UNL A   1      46.193  32.830  31.404  1.00  0.00    -0.206 F 
ATOM     86  C   UNL A   1      46.782  35.932  29.635  1.00  0.00     0.022 A 
BRANCH  83  87
ATOM     87  S   UNL A   1      45.986  36.952  27.163  1.00  0.00     0.124 S 
ATOM     88  O   UNL A   1      44.566  37.226  26.964  1.00  0.00    -0.237 OA
ATOM     89  O   UNL A   1      46.773  38.044  27.728  1.00  0.00    -0.237 OA
ATOM     90  O   UNL A   1      46.634  36.219  26.078  1.00  0.00    -0.744 OA
ENDBRANCH  83  87
ENDBRANCH  57  80
ENDBRANCH  31  32
ENDBRANCH  24  26
ENDBRANCH  23  24
ENDBRANCH   1  23
TORSDOF 18
ENDMDL
MODEL 3
REMARK VINA RESULT:     -10.4      1.707      2.177
REMARK SMILES CC(C)[NH2+][C@](C)(C[N@H+]1CCC(C)(C)C1)C(=O)OCCOC(=O)c1ccc(-c2c3nc(c(-c4cc(S(=O)(=O)[O-])ccc4F)c4ccc([nH]4)c(-c4cc(S(=O)(=O)[O-])ccc4F)c4nc(c(-c5cc(S(=O)(=O)[O-])ccc5F)c5ccc2[nH]5)C=C4)C=C3)cc1
REMARK SMILES IDX 19 1 18 2 17 3 15 4 16 5 5 6 6 7 4 8 2 11 1 12 3 13 7 14
REMARK SMILES IDX 8 15 9 16 14 17 10 19 11 20 12 21 13 22 20 23 21 24 22 25
REMARK SMILES IDX 23 26 24 27 85 28 25 29 84 30 26 31 27 32 28 33 78 34 29 35
REMARK SMILES IDX 83 36 77 37 79 38 30 39 82 40 76 41 75 42 31 44 63 45 43 46
REMARK SMILES IDX 62 47 44 48 47 49 61 50 80 51 45 52 46 53 60 55 81 56 48 57
REMARK SMILES IDX 32 58 33 59 41 60 34 61 40 62 42 63 39 64 35 65 36 66 37 67
REMARK SMILES IDX 38 68 64 69 65 70 73 71 66 72 72 73 74 74 71 75 67 76 68 77
REMARK SMILES IDX 69 78 70 79 49 80 50 81 58 82 51 83 57 84 59 85 56 86 52 87
REMARK SMILES IDX 53 88 54 89 55 90
REMARK H PARENT 4 9 4 10 8 18 79 43 47 54
REMARK Flexibility Score: inf
ROOT
ATOM      1  C   UNL A   1      31.717  30.041  25.700  1.00  0.00     0.275 C 
ENDROOT
BRANCH   1   2
ATOM      2  C   UNL A   1      31.600  28.854  24.746  1.00  0.00     0.274 C 
BRANCH   2   3
ATOM      3  O   UNL A   1      31.380  27.608  25.437  1.00  0.00    -0.457 OA
BRANCH   3   4
ATOM      4  C   UNL A   1      30.912  26.602  24.641  1.00  0.00     0.373 C 
ATOM      5  O   UNL A   1      29.847  26.672  24.030  1.00  0.00    -0.244 OA
BRANCH   4   6
ATOM      6  C   UNL A   1      31.738  25.293  24.750  1.00  0.00     0.240 C 
ATOM      7  C   UNL A   1      30.998  24.224  23.921  1.00  0.00     0.099 C 
BRANCH   6   8
ATOM      8  N   UNL A   1      31.616  24.769  26.156  1.00  0.00    -0.326 N 
ATOM      9  H   UNL A   1      32.498  24.968  26.626  1.00  0.00     0.347 HD
ATOM     10  H   UNL A   1      30.786  25.238  26.519  1.00  0.00     0.347 HD
BRANCH   8  11
ATOM     11  C   UNL A   1      31.332  23.350  26.364  1.00  0.00     0.177 C 
ATOM     12  C   UNL A   1      32.433  22.802  27.276  1.00  0.00     0.075 C 
ATOM     13  C   UNL A   1      29.963  23.089  26.985  1.00  0.00     0.075 C 
ENDBRANCH   8  11
ENDBRANCH   6   8
BRANCH   6  14
ATOM     14  C   UNL A   1      33.250  25.381  24.318  1.00  0.00     0.343 C 
BRANCH  14  15
ATOM     15  N   UNL A   1      34.221  24.304  24.477  1.00  0.00    -0.329 N 
ATOM     16  C   UNL A   1      34.680  23.541  23.322  1.00  0.00     0.263 C 
ATOM     17  C   UNL A   1      35.286  24.432  25.458  1.00  0.00     0.269 C 
ATOM     18  H   UNL A   1      33.498  23.727  24.906  1.00  0.00     0.348 HD
ATOM     19  C   UNL A   1      36.130  23.176  23.640  1.00  0.00     0.073 C 
ATOM     20  C   UNL A   1      36.195  23.225  25.170  1.00  0.00     0.019 C 
ATOM     21  C   UNL A   1      35.650  21.916  25.772  1.00  0.00     0.017 C 
ATOM     22  C   UNL A   1      37.614  23.435  25.689  1.00  0.00     0.017 C 
ENDBRANCH  14  15
ENDBRANCH   6  14
ENDBRANCH   4   6
ENDBRANCH   3   4
ENDBRANCH   2   3
ENDBRANCH   1   2
BRANCH   1  23
ATOM     23  O   UNL A   1      32.997  30.037  26.350  1.00  0.00    -0.458 OA
BRANCH  23  24
ATOM     24  C   UNL A   1      33.294  31.159  27.046  1.00  0.00     0.338 C 
ATOM     25  O   UNL A   1      32.611  32.168  27.109  1.00  0.00    -0.246 OA
BRANCH  24  26
ATOM     26  C   UNL A   1      34.562  31.008  27.799  1.00  0.00     0.060 A 
ATOM     27  C   UNL A   1      35.496  32.042  27.879  1.00  0.00     0.016 A 
ATOM     28  C   UNL A   1      34.888  29.743  28.295  1.00  0.00     0.016 A 
ATOM     29  C   UNL A   1      36.774  31.801  28.384  1.00  0.00     0.010 A 
ATOM     30  C   UNL A   1      36.144  29.516  28.860  1.00  0.00     0.010 A 
ATOM     31  C   UNL A   1      37.104  30.538  28.896  1.00  0.00    -0.014 A 
BRANCH  31  32
ATOM     32  C   UNL A   1      38.397  30.308  29.586  1.00  0.00     0.031 A 
ATOM     33  C   UNL A   1      39.410  29.337  29.048  1.00  0.00     0.074 A 
ATOM     34  C   UNL A   1      38.604  30.931  30.762  1.00  0.00     0.049 A 
ATOM     35  N   UNL A   1      40.480  28.857  29.627  1.00  0.00    -0.248 NA
ATOM     36  C   UNL A   1      39.192  28.841  27.681  1.00  0.00     0.031 C 
ATOM     37  C   UNL A   1      37.698  31.915  31.361  1.00  0.00     0.029 A 
ATOM     38  N   UNL A   1      39.617  30.809  31.677  1.00  0.00    -0.354 N 
ATOM     39  C   UNL A   1      41.058  27.986  28.710  1.00  0.00     0.074 A 
ATOM     40  C   UNL A   1      40.210  28.002  27.533  1.00  0.00     0.031 C 
ATOM     41  C   UNL A   1      38.186  32.293  32.549  1.00  0.00     0.029 A 
ATOM     42  C   UNL A   1      39.388  31.519  32.831  1.00  0.00     0.049 A 
ATOM     43  H   UNL A   1      40.425  30.268  31.523  1.00  0.00     0.167 HD
ATOM     44  C   UNL A   1      42.184  27.241  28.851  1.00  0.00     0.034 A 
ATOM     45  C   UNL A   1      40.026  31.503  34.015  1.00  0.00     0.034 A 
ATOM     46  C   UNL A   1      43.002  27.242  30.045  1.00  0.00     0.049 A 
ATOM     47  C   UNL A   1      41.218  30.610  34.178  1.00  0.00     0.074 A 
ATOM     48  C   UNL A   1      44.183  26.558  30.285  1.00  0.00     0.029 A 
ATOM     49  N   UNL A   1      42.717  27.947  31.209  1.00  0.00    -0.354 N 
ATOM     50  N   UNL A   1      41.743  29.773  33.313  1.00  0.00    -0.248 NA
ATOM     51  C   UNL A   1      41.901  30.656  35.474  1.00  0.00     0.031 C 
ATOM     52  C   UNL A   1      44.572  26.795  31.609  1.00  0.00     0.029 A 
ATOM     53  C   UNL A   1      43.676  27.685  32.179  1.00  0.00     0.049 A 
ATOM     54  H   UNL A   1      41.946  28.548  31.328  1.00  0.00     0.167 HD
ATOM     55  C   UNL A   1      42.829  29.196  33.960  1.00  0.00     0.074 A 
ATOM     56  C   UNL A   1      42.892  29.798  35.280  1.00  0.00     0.031 C 
ATOM     57  C   UNL A   1      43.698  28.258  33.504  1.00  0.00     0.034 A 
BRANCH  44  58
ATOM     58  C   UNL A   1      42.569  26.316  27.719  1.00  0.00     0.023 A 
ATOM     59  C   UNL A   1      42.222  24.953  27.710  1.00  0.00     0.031 A 
ATOM     60  C   UNL A   1      43.279  26.819  26.613  1.00  0.00     0.131 A 
ATOM     61  C   UNL A   1      42.615  24.135  26.636  1.00  0.00     0.055 A 
ATOM     62  C   UNL A   1      43.617  26.015  25.521  1.00  0.00     0.041 A 
ATOM     63  F   UNL A   1      43.657  28.107  26.573  1.00  0.00    -0.206 F 
ATOM     64  C   UNL A   1      43.292  24.662  25.532  1.00  0.00     0.022 A 
BRANCH  61  65
ATOM     65  S   UNL A   1      42.319  22.348  26.741  1.00  0.00     0.124 S 
ATOM     66  O   UNL A   1      41.067  22.208  26.001  1.00  0.00    -0.237 OA
ATOM     67  O   UNL A   1      43.506  21.794  26.101  1.00  0.00    -0.237 OA
ATOM     68  O   UNL A   1      42.214  22.102  28.178  1.00  0.00    -0.744 OA
ENDBRANCH  61  65
ENDBRANCH  44  58
BRANCH  45  69
ATOM     69  C   UNL A   1      39.490  32.309  35.143  1.00  0.00     0.023 A 
ATOM     70  C   UNL A   1      39.959  33.605  35.394  1.00  0.00     0.031 A 
ATOM     71  C   UNL A   1      38.460  31.803  35.958  1.00  0.00     0.131 A 
ATOM     72  C   UNL A   1      39.402  34.353  36.443  1.00  0.00     0.055 A 
ATOM     73  C   UNL A   1      37.880  32.567  36.970  1.00  0.00     0.041 A 
ATOM     74  F   UNL A   1      37.972  30.570  35.748  1.00  0.00    -0.206 F 
ATOM     75  C   UNL A   1      38.355  33.849  37.220  1.00  0.00     0.022 A 
BRANCH  72  76
ATOM     76  S   UNL A   1      40.091  35.991  36.799  1.00  0.00     0.124 S 
ATOM     77  O   UNL A   1      41.483  35.674  37.092  1.00  0.00    -0.237 OA
ATOM     78  O   UNL A   1      39.844  36.702  35.548  1.00  0.00    -0.237 OA
ATOM     79  O   UNL A   1      39.302  36.451  37.940  1.00  0.00    -0.744 OA
ENDBRANCH  72  76
ENDBRANCH  45  69
BRANCH  57  80
ATOM     80  C   UNL A   1      44.794  27.854  34.456  1.00  0.00     0.023 A 
ATOM     81  C   UNL A   1      44.627  26.786  35.355  1.00  0.00     0.031 A 
ATOM     82  C   UNL A   1      45.989  28.591  34.514  1.00  0.00     0.131 A 
ATOM     83  C   UNL A   1      45.608  26.531  36.323  1.00  0.00     0.055 A 
ATOM     84  C   UNL A   1      46.989  28.294  35.441  1.00  0.00     0.041 A 
ATOM     85  F   UNL A   1      46.196  29.625  33.682  1.00  0.00    -0.206 F 
ATOM     86  C   UNL A   1      46.794  27.270  36.364  1.00  0.00     0.022 A 
BRANCH  83  87
ATOM     87  S   UNL A   1      45.264  25.294  37.605  1.00  0.00     0.124 S 
ATOM     88  O   UNL A   1      45.871  25.904  38.784  1.00  0.00    -0.237 OA
ATOM     89  O   UNL A   1      43.806  25.234  37.597  1.00  0.00    -0.237 OA
ATOM     90  O   UNL A   1      45.936  24.093  37.113  1.00  0.00    -0.744 OA
ENDBRANCH  83  87
ENDBRANCH  57  80
ENDBRANCH  31  32
ENDBRANCH  24  26
ENDBRANCH  23  24
ENDBRANCH   1  23
TORSDOF 18
ENDMDL
