MODEL 1
REMARK VINA RESULT:     -10.5      0.000      0.000
REMARK SMILES O=C(/C=C/c1ccc(O)c(O)c1)OCCOC(=O)c1ccc(-c2c3nc(c(-c4cc(S(=O)(=O)[O-])ccc4F)c4ccc([nH]4)c(-c4cc(S(=O)(=O)[O-])ccc4F)c4nc(c(-c5cc(S(=O)(=O)[O-])ccc5F)c5ccc2[nH]5)C=C4)C=C3)cc1
REMARK SMILES IDX 15 1 14 2 13 3 2 4 1 5 3 6 4 7 5 8 6 9 12 10 7 11 10 12 8 13
REMARK SMILES IDX 11 14 9 16 16 18 17 19 18 20 19 21 20 22 81 23 21 24 80 25
REMARK SMILES IDX 22 26 23 27 24 28 74 29 25 30 79 31 73 32 75 33 26 34 78 35
REMARK SMILES IDX 72 36 71 37 27 39 59 40 39 41 58 42 40 43 43 44 57 45 76 46
REMARK SMILES IDX 41 47 42 48 56 50 77 51 44 52 28 53 29 54 37 55 30 56 36 57
REMARK SMILES IDX 38 58 35 59 31 60 32 61 33 62 34 63 60 64 61 65 69 66 62 67
REMARK SMILES IDX 68 68 70 69 67 70 63 71 64 72 65 73 66 74 45 75 46 76 54 77
REMARK SMILES IDX 47 78 53 79 55 80 52 81 48 82 49 83 50 84 51 85
REMARK H PARENT 11 15 9 17 75 38 43 49
REMARK Flexibility Score: inf
ROOT
ATOM      1  C   UNL A   1      33.201  34.289  28.512  1.00  0.00     0.275 C 
ENDROOT
BRANCH   1   2
ATOM      2  C   UNL A   1      33.405  35.791  28.735  1.00  0.00     0.275 C 
BRANCH   2   3
ATOM      3  O   UNL A   1      32.627  36.377  29.799  1.00  0.00    -0.459 OA
BRANCH   3   4
ATOM      4  C   UNL A   1      33.069  36.782  31.014  1.00  0.00     0.330 C 
ATOM      5  O   UNL A   1      32.903  37.938  31.392  1.00  0.00    -0.247 OA
BRANCH   4   6
ATOM      6  C   UNL A   1      33.926  35.892  31.813  1.00  0.00     0.094 C 
ATOM      7  C   UNL A   1      33.663  34.625  32.158  1.00  0.00     0.016 C 
BRANCH   7   8
ATOM      8  C   UNL A   1      34.682  33.771  32.774  1.00  0.00    -0.021 A 
ATOM      9  C   UNL A   1      35.206  32.642  32.128  1.00  0.00     0.012 A 
ATOM     10  C   UNL A   1      35.128  34.098  34.062  1.00  0.00     0.058 A 
ATOM     11  C   UNL A   1      36.170  31.846  32.759  1.00  0.00     0.051 A 
ATOM     12  C   UNL A   1      36.081  33.302  34.679  1.00  0.00     0.157 A 
ATOM     13  C   UNL A   1      36.603  32.186  34.034  1.00  0.00     0.157 A 
BRANCH  12  14
ATOM     14  O   UNL A   1      36.499  33.621  35.941  1.00  0.00    -0.504 OA
ATOM     15  H   UNL A   1      37.024  34.385  36.082  1.00  0.00     0.293 HD
ENDBRANCH  12  14
BRANCH  13  16
ATOM     16  O   UNL A   1      37.546  31.453  34.700  1.00  0.00    -0.504 OA
ATOM     17  H   UNL A   1      38.413  31.377  34.353  1.00  0.00     0.293 HD
ENDBRANCH  13  16
ENDBRANCH   7   8
ENDBRANCH   4   6
ENDBRANCH   3   4
ENDBRANCH   2   3
ENDBRANCH   1   2
BRANCH   1  18
ATOM     18  O   UNL A   1      34.352  33.640  27.954  1.00  0.00    -0.458 OA
BRANCH  18  19
ATOM     19  C   UNL A   1      34.304  32.284  27.993  1.00  0.00     0.338 C 
ATOM     20  O   UNL A   1      33.358  31.590  27.651  1.00  0.00    -0.246 OA
BRANCH  19  21
ATOM     21  C   UNL A   1      35.623  31.723  28.368  1.00  0.00     0.060 A 
ATOM     22  C   UNL A   1      35.687  30.346  28.606  1.00  0.00     0.016 A 
ATOM     23  C   UNL A   1      36.778  32.505  28.485  1.00  0.00     0.016 A 
ATOM     24  C   UNL A   1      36.890  29.755  28.990  1.00  0.00     0.010 A 
ATOM     25  C   UNL A   1      37.988  31.908  28.868  1.00  0.00     0.010 A 
ATOM     26  C   UNL A   1      38.047  30.531  29.146  1.00  0.00    -0.014 A 
BRANCH  26  27
ATOM     27  C   UNL A   1      39.280  29.890  29.675  1.00  0.00     0.031 A 
ATOM     28  C   UNL A   1      39.908  30.406  30.942  1.00  0.00     0.074 A 
ATOM     29  C   UNL A   1      39.795  28.801  29.071  1.00  0.00     0.049 A 
ATOM     30  N   UNL A   1      40.923  29.929  31.619  1.00  0.00    -0.248 NA
ATOM     31  C   UNL A   1      39.314  31.618  31.523  1.00  0.00     0.031 C 
ATOM     32  C   UNL A   1      39.273  28.190  27.847  1.00  0.00     0.029 A 
ATOM     33  N   UNL A   1      40.862  28.006  29.412  1.00  0.00    -0.354 N 
ATOM     34  C   UNL A   1      41.073  30.765  32.720  1.00  0.00     0.074 A 
ATOM     35  C   UNL A   1      40.083  31.814  32.585  1.00  0.00     0.031 C 
ATOM     36  C   UNL A   1      40.018  27.113  27.546  1.00  0.00     0.029 A 
ATOM     37  C   UNL A   1      41.081  26.965  28.539  1.00  0.00     0.049 A 
ATOM     38  H   UNL A   1      41.418  28.166  30.208  1.00  0.00     0.167 HD
ATOM     39  C   UNL A   1      41.937  30.657  33.760  1.00  0.00     0.034 A 
ATOM     40  C   UNL A   1      42.029  26.005  28.536  1.00  0.00     0.034 A 
ATOM     41  C   UNL A   1      42.938  29.625  33.882  1.00  0.00     0.049 A 
ATOM     42  C   UNL A   1      43.028  25.951  29.670  1.00  0.00     0.074 A 
ATOM     43  C   UNL A   1      43.859  29.432  34.899  1.00  0.00     0.029 A 
ATOM     44  N   UNL A   1      43.163  28.617  32.954  1.00  0.00    -0.354 N 
ATOM     45  N   UNL A   1      43.130  26.730  30.723  1.00  0.00    -0.248 NA
ATOM     46  C   UNL A   1      44.025  24.872  29.622  1.00  0.00     0.031 C 
ATOM     47  C   UNL A   1      44.681  28.352  34.553  1.00  0.00     0.029 A 
ATOM     48  C   UNL A   1      44.226  27.821  33.358  1.00  0.00     0.049 A 
ATOM     49  H   UNL A   1      42.643  28.486  32.128  1.00  0.00     0.167 HD
ATOM     50  C   UNL A   1      44.185  26.213  31.474  1.00  0.00     0.074 A 
ATOM     51  C   UNL A   1      44.663  25.043  30.770  1.00  0.00     0.031 C 
ATOM     52  C   UNL A   1      44.713  26.666  32.641  1.00  0.00     0.034 A 
BRANCH  39  53
ATOM     53  C   UNL A   1      41.854  31.708  34.842  1.00  0.00     0.023 A 
ATOM     54  C   UNL A   1      40.857  31.664  35.832  1.00  0.00     0.031 A 
ATOM     55  C   UNL A   1      42.780  32.764  34.885  1.00  0.00     0.131 A 
ATOM     56  C   UNL A   1      40.777  32.687  36.791  1.00  0.00     0.055 A 
ATOM     57  C   UNL A   1      42.740  33.739  35.883  1.00  0.00     0.041 A 
ATOM     58  F   UNL A   1      43.741  32.868  33.953  1.00  0.00    -0.206 F 
ATOM     59  C   UNL A   1      41.727  33.710  36.837  1.00  0.00     0.022 A 
BRANCH  56  60
ATOM     60  S   UNL A   1      39.347  32.725  37.906  1.00  0.00     0.124 S 
ATOM     61  O   UNL A   1      38.880  34.099  37.739  1.00  0.00    -0.237 OA
ATOM     62  O   UNL A   1      38.487  31.686  37.351  1.00  0.00    -0.237 OA
ATOM     63  O   UNL A   1      39.924  32.425  39.214  1.00  0.00    -0.744 OA
ENDBRANCH  56  60
ENDBRANCH  39  53
BRANCH  40  64
ATOM     64  C   UNL A   1      42.119  25.029  27.412  1.00  0.00     0.023 A 
ATOM     65  C   UNL A   1      41.394  23.826  27.426  1.00  0.00     0.031 A 
ATOM     66  C   UNL A   1      43.010  25.247  26.346  1.00  0.00     0.131 A 
ATOM     67  C   UNL A   1      41.624  22.859  26.435  1.00  0.00     0.055 A 
ATOM     68  C   UNL A   1      43.188  24.308  25.327  1.00  0.00     0.041 A 
ATOM     69  F   UNL A   1      43.728  26.380  26.280  1.00  0.00    -0.206 F 
ATOM     70  C   UNL A   1      42.507  23.097  25.379  1.00  0.00     0.022 A 
BRANCH  67  71
ATOM     71  S   UNL A   1      40.842  21.231  26.610  1.00  0.00     0.124 S 
ATOM     72  O   UNL A   1      39.552  21.451  25.966  1.00  0.00    -0.237 OA
ATOM     73  O   UNL A   1      41.777  20.369  25.897  1.00  0.00    -0.237 OA
ATOM     74  O   UNL A   1      40.793  21.033  28.058  1.00  0.00    -0.744 OA
ENDBRANCH  67  71
ENDBRANCH  40  64
BRANCH  52  75
ATOM     75  C   UNL A   1      45.851  25.867  33.236  1.00  0.00     0.023 A 
ATOM     76  C   UNL A   1      45.619  24.736  34.040  1.00  0.00     0.031 A 
ATOM     77  C   UNL A   1      47.185  26.262  33.029  1.00  0.00     0.131 A 
ATOM     78  C   UNL A   1      46.694  24.088  34.669  1.00  0.00     0.055 A 
ATOM     79  C   UNL A   1      48.256  25.573  33.602  1.00  0.00     0.041 A 
ATOM     80  F   UNL A   1      47.471  27.334  32.272  1.00  0.00    -0.206 F 
ATOM     81  C   UNL A   1      48.012  24.490  34.442  1.00  0.00     0.022 A 
BRANCH  78  82
ATOM     82  S   UNL A   1      46.337  22.788  35.883  1.00  0.00     0.124 S 
ATOM     83  O   UNL A   1      44.951  23.075  36.237  1.00  0.00    -0.237 OA
ATOM     84  O   UNL A   1      46.557  21.571  35.108  1.00  0.00    -0.237 OA
ATOM     85  O   UNL A   1      47.312  23.032  36.945  1.00  0.00    -0.744 OA
ENDBRANCH  78  82
ENDBRANCH  52  75
ENDBRANCH  26  27
ENDBRANCH  19  21
ENDBRANCH  18  19
ENDBRANCH   1  18
TORSDOF 17
ENDMDL
MODEL 2
REMARK VINA RESULT:     -10.5      4.997     12.451
REMARK SMILES O=C(/C=C/c1ccc(O)c(O)c1)OCCOC(=O)c1ccc(-c2c3nc(c(-c4cc(S(=O)(=O)[O-])ccc4F)c4ccc([nH]4)c(-c4cc(S(=O)(=O)[O-])ccc4F)c4nc(c(-c5cc(S(=O)(=O)[O-])ccc5F)c5ccc2[nH]5)C=C4)C=C3)cc1
REMARK SMILES IDX 15 1 14 2 13 3 2 4 1 5 3 6 4 7 5 8 6 9 12 10 7 11 10 12 8 13
REMARK SMILES IDX 11 14 9 16 16 18 17 19 18 20 19 21 20 22 81 23 21 24 80 25
REMARK SMILES IDX 22 26 23 27 24 28 74 29 25 30 79 31 73 32 75 33 26 34 78 35
REMARK SMILES IDX 72 36 71 37 27 39 59 40 39 41 58 42 40 43 43 44 57 45 76 46
REMARK SMILES IDX 41 47 42 48 56 50 77 51 44 52 28 53 29 54 37 55 30 56 36 57
REMARK SMILES IDX 38 58 35 59 31 60 32 61 33 62 34 63 60 64 61 65 69 66 62 67
REMARK SMILES IDX 68 68 70 69 67 70 63 71 64 72 65 73 66 74 45 75 46 76 54 77
REMARK SMILES IDX 47 78 53 79 55 80 52 81 48 82 49 83 50 84 51 85
REMARK H PARENT 11 15 9 17 75 38 43 49
REMARK Flexibility Score: inf
ROOT
ATOM      1  C   UNL A   1      41.638  19.139  26.284  1.00  0.00     0.275 C 
ENDROOT
BRANCH   1   2
ATOM      2  C   UNL A   1      43.013  18.492  26.465  1.00  0.00     0.275 C 
BRANCH   2   3
ATOM      3  O   UNL A   1      43.805  18.356  25.268  1.00  0.00    -0.459 OA
BRANCH   3   4
ATOM      4  C   UNL A   1      44.989  18.954  24.992  1.00  0.00     0.330 C 
ATOM      5  O   UNL A   1      46.046  18.338  25.096  1.00  0.00    -0.247 OA
BRANCH   4   6
ATOM      6  C   UNL A   1      45.034  20.405  24.754  1.00  0.00     0.094 C 
ATOM      7  C   UNL A   1      44.564  21.364  25.561  1.00  0.00     0.016 C 
BRANCH   7   8
ATOM      8  C   UNL A   1      44.854  22.781  25.319  1.00  0.00    -0.021 A 
ATOM      9  C   UNL A   1      46.161  23.287  25.299  1.00  0.00     0.012 A 
ATOM     10  C   UNL A   1      43.773  23.650  25.115  1.00  0.00     0.058 A 
ATOM     11  C   UNL A   1      46.392  24.650  25.077  1.00  0.00     0.051 A 
ATOM     12  C   UNL A   1      44.012  24.999  24.898  1.00  0.00     0.157 A 
ATOM     13  C   UNL A   1      45.310  25.498  24.875  1.00  0.00     0.157 A 
BRANCH  12  14
ATOM     14  O   UNL A   1      42.952  25.842  24.716  1.00  0.00    -0.504 OA
ATOM     15  H   UNL A   1      42.417  25.765  23.950  1.00  0.00     0.293 HD
ENDBRANCH  12  14
BRANCH  13  16
ATOM     16  O   UNL A   1      45.470  26.837  24.647  1.00  0.00    -0.504 OA
ATOM     17  H   UNL A   1      44.967  27.459  25.136  1.00  0.00     0.293 HD
ENDBRANCH  13  16
ENDBRANCH   7   8
ENDBRANCH   4   6
ENDBRANCH   3   4
ENDBRANCH   2   3
ENDBRANCH   1   2
BRANCH   1  18
ATOM     18  O   UNL A   1      41.386  20.203  27.213  1.00  0.00    -0.458 OA
BRANCH  18  19
ATOM     19  C   UNL A   1      40.534  21.156  26.755  1.00  0.00     0.338 C 
ATOM     20  O   UNL A   1      39.545  20.962  26.064  1.00  0.00    -0.246 OA
BRANCH  19  21
ATOM     21  C   UNL A   1      40.867  22.478  27.334  1.00  0.00     0.060 A 
ATOM     22  C   UNL A   1      40.180  23.588  26.829  1.00  0.00     0.016 A 
ATOM     23  C   UNL A   1      41.819  22.649  28.346  1.00  0.00     0.016 A 
ATOM     24  C   UNL A   1      40.464  24.866  27.308  1.00  0.00     0.010 A 
ATOM     25  C   UNL A   1      42.100  23.936  28.828  1.00  0.00     0.010 A 
ATOM     26  C   UNL A   1      41.440  25.056  28.296  1.00  0.00    -0.014 A 
BRANCH  26  27
ATOM     27  C   UNL A   1      41.803  26.443  28.694  1.00  0.00     0.031 A 
ATOM     28  C   UNL A   1      43.230  26.907  28.577  1.00  0.00     0.074 A 
ATOM     29  C   UNL A   1      40.849  27.311  29.085  1.00  0.00     0.049 A 
ATOM     30  N   UNL A   1      43.735  28.099  28.778  1.00  0.00    -0.248 NA
ATOM     31  C   UNL A   1      44.219  25.895  28.180  1.00  0.00     0.031 C 
ATOM     32  C   UNL A   1      39.427  26.994  29.225  1.00  0.00     0.029 A 
ATOM     33  N   UNL A   1      40.930  28.640  29.422  1.00  0.00    -0.354 N 
ATOM     34  C   UNL A   1      45.094  27.988  28.505  1.00  0.00     0.074 A 
ATOM     35  C   UNL A   1      45.343  26.598  28.186  1.00  0.00     0.031 C 
ATOM     36  C   UNL A   1      38.770  28.101  29.612  1.00  0.00     0.029 A 
ATOM     37  C   UNL A   1      39.721  29.200  29.767  1.00  0.00     0.049 A 
ATOM     38  H   UNL A   1      41.775  29.146  29.416  1.00  0.00     0.167 HD
ATOM     39  C   UNL A   1      46.043  28.957  28.499  1.00  0.00     0.034 A 
ATOM     40  C   UNL A   1      39.416  30.453  30.167  1.00  0.00     0.034 A 
ATOM     41  C   UNL A   1      45.797  30.338  28.841  1.00  0.00     0.049 A 
ATOM     42  C   UNL A   1      40.506  31.498  30.221  1.00  0.00     0.074 A 
ATOM     43  C   UNL A   1      46.694  31.394  28.861  1.00  0.00     0.029 A 
ATOM     44  N   UNL A   1      44.572  30.858  29.233  1.00  0.00    -0.354 N 
ATOM     45  N   UNL A   1      41.780  31.382  29.924  1.00  0.00    -0.248 NA
ATOM     46  C   UNL A   1      40.109  32.847  30.644  1.00  0.00     0.031 C 
ATOM     47  C   UNL A   1      46.027  32.532  29.331  1.00  0.00     0.029 A 
ATOM     48  C   UNL A   1      44.696  32.208  29.529  1.00  0.00     0.049 A 
ATOM     49  H   UNL A   1      43.735  30.343  29.293  1.00  0.00     0.167 HD
ATOM     50  C   UNL A   1      42.326  32.653  30.099  1.00  0.00     0.074 A 
ATOM     51  C   UNL A   1      41.239  33.521  30.495  1.00  0.00     0.031 C 
ATOM     52  C   UNL A   1      43.612  33.066  29.946  1.00  0.00     0.034 A 
BRANCH  39  53
ATOM     53  C   UNL A   1      47.449  28.547  28.133  1.00  0.00     0.023 A 
ATOM     54  C   UNL A   1      47.844  28.389  26.793  1.00  0.00     0.031 A 
ATOM     55  C   UNL A   1      48.408  28.312  29.134  1.00  0.00     0.131 A 
ATOM     56  C   UNL A   1      49.144  27.955  26.493  1.00  0.00     0.055 A 
ATOM     57  C   UNL A   1      49.720  27.950  28.827  1.00  0.00     0.041 A 
ATOM     58  F   UNL A   1      48.082  28.427  30.432  1.00  0.00    -0.206 F 
ATOM     59  C   UNL A   1      50.091  27.758  27.500  1.00  0.00     0.022 A 
BRANCH  56  60
ATOM     60  S   UNL A   1      49.547  27.539  24.774  1.00  0.00     0.124 S 
ATOM     61  O   UNL A   1      50.638  28.469  24.493  1.00  0.00    -0.237 OA
ATOM     62  O   UNL A   1      49.915  26.132  24.867  1.00  0.00    -0.237 OA
ATOM     63  O   UNL A   1      48.305  27.813  24.055  1.00  0.00    -0.744 OA
ENDBRANCH  56  60
ENDBRANCH  39  53
BRANCH  40  64
ATOM     64  C   UNL A   1      38.025  30.798  30.585  1.00  0.00     0.023 A 
ATOM     65  C   UNL A   1      37.098  31.333  29.676  1.00  0.00     0.031 A 
ATOM     66  C   UNL A   1      37.636  30.684  31.932  1.00  0.00     0.131 A 
ATOM     67  C   UNL A   1      35.856  31.797  30.137  1.00  0.00     0.055 A 
ATOM     68  C   UNL A   1      36.375  31.088  32.373  1.00  0.00     0.041 A 
ATOM     69  F   UNL A   1      38.482  30.178  32.844  1.00  0.00    -0.206 F 
ATOM     70  C   UNL A   1      35.483  31.667  31.477  1.00  0.00     0.022 A 
BRANCH  67  71
ATOM     71  S   UNL A   1      34.777  32.687  28.980  1.00  0.00     0.124 S 
ATOM     72  O   UNL A   1      35.750  33.377  28.139  1.00  0.00    -0.237 OA
ATOM     73  O   UNL A   1      34.044  31.595  28.351  1.00  0.00    -0.237 OA
ATOM     74  O   UNL A   1      33.982  33.549  29.853  1.00  0.00    -0.744 OA
ENDBRANCH  67  71
ENDBRANCH  40  64
BRANCH  52  75
ATOM     75  C   UNL A   1      43.894  34.533  30.184  1.00  0.00     0.023 A 
ATOM     76  C   UNL A   1      43.640  35.505  29.199  1.00  0.00     0.031 A 
ATOM     77  C   UNL A   1      44.462  34.962  31.397  1.00  0.00     0.131 A 
ATOM     78  C   UNL A   1      44.022  36.838  29.412  1.00  0.00     0.055 A 
ATOM     79  C   UNL A   1      44.778  36.303  31.631  1.00  0.00     0.041 A 
ATOM     80  F   UNL A   1      44.729  34.083  32.376  1.00  0.00    -0.206 F 
ATOM     81  C   UNL A   1      44.575  37.246  30.628  1.00  0.00     0.022 A 
BRANCH  78  82
ATOM     82  S   UNL A   1      43.897  38.010  28.033  1.00  0.00     0.124 S 
ATOM     83  O   UNL A   1      45.215  38.636  28.044  1.00  0.00    -0.237 OA
ATOM     84  O   UNL A   1      43.619  37.131  26.901  1.00  0.00    -0.237 OA
ATOM     85  O   UNL A   1      42.792  38.885  28.424  1.00  0.00    -0.744 OA
ENDBRANCH  78  82
ENDBRANCH  52  75
ENDBRANCH  26  27
ENDBRANCH  19  21
ENDBRANCH  18  19
ENDBRANCH   1  18
TORSDOF 17
ENDMDL
MODEL 3
REMARK VINA RESULT:     -10.4      1.605      1.881
REMARK SMILES O=C(/C=C/c1ccc(O)c(O)c1)OCCOC(=O)c1ccc(-c2c3nc(c(-c4cc(S(=O)(=O)[O-])ccc4F)c4ccc([nH]4)c(-c4cc(S(=O)(=O)[O-])ccc4F)c4nc(c(-c5cc(S(=O)(=O)[O-])ccc5F)c5ccc2[nH]5)C=C4)C=C3)cc1
REMARK SMILES IDX 15 1 14 2 13 3 2 4 1 5 3 6 4 7 5 8 6 9 12 10 7 11 10 12 8 13
REMARK SMILES IDX 11 14 9 16 16 18 17 19 18 20 19 21 20 22 81 23 21 24 80 25
REMARK SMILES IDX 22 26 23 27 24 28 74 29 25 30 79 31 73 32 75 33 26 34 78 35
REMARK SMILES IDX 72 36 71 37 27 39 59 40 39 41 58 42 40 43 43 44 57 45 76 46
REMARK SMILES IDX 41 47 42 48 56 50 77 51 44 52 28 53 29 54 37 55 30 56 36 57
REMARK SMILES IDX 38 58 35 59 31 60 32 61 33 62 34 63 60 64 61 65 69 66 62 67
REMARK SMILES IDX 68 68 70 69 67 70 63 71 64 72 65 73 66 74 45 75 46 76 54 77
REMARK SMILES IDX 47 78 53 79 55 80 52 81 48 82 49 83 50 84 51 85
REMARK H PARENT 11 15 9 17 75 38 43 49
REMARK Flexibility Score: inf
ROOT
ATOM      1  C   UNL A   1      33.289  33.897  28.033  1.00  0.00     0.275 C 
ENDROOT
BRANCH   1   2
ATOM      2  C   UNL A   1      33.463  35.385  28.350  1.00  0.00     0.275 C 
BRANCH   2   3
ATOM      3  O   UNL A   1      32.595  35.914  29.373  1.00  0.00    -0.459 OA
BRANCH   3   4
ATOM      4  C   UNL A   1      32.907  36.165  30.668  1.00  0.00     0.330 C 
ATOM      5  O   UNL A   1      32.461  37.154  31.243  1.00  0.00    -0.247 OA
BRANCH   4   6
ATOM      6  C   UNL A   1      33.939  35.360  31.339  1.00  0.00     0.094 C 
ATOM      7  C   UNL A   1      33.898  34.887  32.591  1.00  0.00     0.016 C 
BRANCH   7   8
ATOM      8  C   UNL A   1      34.887  33.921  33.078  1.00  0.00    -0.021 A 
ATOM      9  C   UNL A   1      35.298  32.818  32.317  1.00  0.00     0.012 A 
ATOM     10  C   UNL A   1      35.420  34.112  34.360  1.00  0.00     0.058 A 
ATOM     11  C   UNL A   1      36.236  31.913  32.827  1.00  0.00     0.051 A 
ATOM     12  C   UNL A   1      36.347  33.209  34.858  1.00  0.00     0.157 A 
ATOM     13  C   UNL A   1      36.757  32.118  34.098  1.00  0.00     0.157 A 
BRANCH  12  14
ATOM     14  O   UNL A   1      36.850  33.395  36.115  1.00  0.00    -0.504 OA
ATOM     15  H   UNL A   1      37.734  33.148  36.307  1.00  0.00     0.293 HD
ENDBRANCH  12  14
BRANCH  13  16
ATOM     16  O   UNL A   1      37.680  31.274  34.650  1.00  0.00    -0.504 OA
ATOM     17  H   UNL A   1      37.589  30.347  34.545  1.00  0.00     0.293 HD
ENDBRANCH  13  16
ENDBRANCH   7   8
ENDBRANCH   4   6
ENDBRANCH   3   4
ENDBRANCH   2   3
ENDBRANCH   1   2
BRANCH   1  18
ATOM     18  O   UNL A   1      34.161  33.050  28.796  1.00  0.00    -0.458 OA
BRANCH  18  19
ATOM     19  C   UNL A   1      34.306  31.798  28.292  1.00  0.00     0.338 C 
ATOM     20  O   UNL A   1      33.498  31.210  27.588  1.00  0.00    -0.246 OA
BRANCH  19  21
ATOM     21  C   UNL A   1      35.661  31.272  28.579  1.00  0.00     0.060 A 
ATOM     22  C   UNL A   1      35.751  29.948  29.024  1.00  0.00     0.016 A 
ATOM     23  C   UNL A   1      36.824  32.035  28.420  1.00  0.00     0.016 A 
ATOM     24  C   UNL A   1      36.992  29.397  29.340  1.00  0.00     0.010 A 
ATOM     25  C   UNL A   1      38.071  31.476  28.735  1.00  0.00     0.010 A 
ATOM     26  C   UNL A   1      38.162  30.160  29.219  1.00  0.00    -0.014 A 
BRANCH  26  27
ATOM     27  C   UNL A   1      39.452  29.580  29.681  1.00  0.00     0.031 A 
ATOM     28  C   UNL A   1      40.147  30.164  30.882  1.00  0.00     0.074 A 
ATOM     29  C   UNL A   1      39.962  28.488  29.080  1.00  0.00     0.049 A 
ATOM     30  N   UNL A   1      41.224  29.748  31.502  1.00  0.00    -0.248 NA
ATOM     31  C   UNL A   1      39.551  31.376  31.462  1.00  0.00     0.031 C 
ATOM     32  C   UNL A   1      39.379  27.816  27.918  1.00  0.00     0.029 A 
ATOM     33  N   UNL A   1      41.079  27.743  29.371  1.00  0.00    -0.354 N 
ATOM     34  C   UNL A   1      41.419  30.628  32.560  1.00  0.00     0.074 A 
ATOM     35  C   UNL A   1      40.384  31.637  32.459  1.00  0.00     0.031 C 
ATOM     36  C   UNL A   1      40.140  26.754  27.602  1.00  0.00     0.029 A 
ATOM     37  C   UNL A   1      41.274  26.679  28.521  1.00  0.00     0.049 A 
ATOM     38  H   UNL A   1      41.683  27.951  30.120  1.00  0.00     0.167 HD
ATOM     39  C   UNL A   1      42.357  30.588  33.539  1.00  0.00     0.034 A 
ATOM     40  C   UNL A   1      42.255  25.753  28.484  1.00  0.00     0.034 A 
ATOM     41  C   UNL A   1      43.401  29.595  33.624  1.00  0.00     0.049 A 
ATOM     42  C   UNL A   1      43.331  25.774  29.545  1.00  0.00     0.074 A 
ATOM     43  C   UNL A   1      44.397  29.471  34.580  1.00  0.00     0.029 A 
ATOM     44  N   UNL A   1      43.598  28.562  32.718  1.00  0.00    -0.354 N 
ATOM     45  N   UNL A   1      43.478  26.594  30.561  1.00  0.00    -0.248 NA
ATOM     46  C   UNL A   1      44.361  24.729  29.464  1.00  0.00     0.031 C 
ATOM     47  C   UNL A   1      45.232  28.408  34.214  1.00  0.00     0.029 A 
ATOM     48  C   UNL A   1      44.714  27.819  33.073  1.00  0.00     0.049 A 
ATOM     49  H   UNL A   1      43.027  28.383  31.936  1.00  0.00     0.167 HD
ATOM     50  C   UNL A   1      44.601  26.142  31.253  1.00  0.00     0.074 A 
ATOM     51  C   UNL A   1      45.071  24.963  30.557  1.00  0.00     0.031 C 
ATOM     52  C   UNL A   1      45.192  26.655  32.363  1.00  0.00     0.034 A 
BRANCH  39  53
ATOM     53  C   UNL A   1      42.311  31.674  34.587  1.00  0.00     0.023 A 
ATOM     54  C   UNL A   1      41.363  31.653  35.626  1.00  0.00     0.031 A 
ATOM     55  C   UNL A   1      43.224  32.742  34.550  1.00  0.00     0.131 A 
ATOM     56  C   UNL A   1      41.316  32.707  36.552  1.00  0.00     0.055 A 
ATOM     57  C   UNL A   1      43.218  33.750  35.515  1.00  0.00     0.041 A 
ATOM     58  F   UNL A   1      44.137  32.826  33.569  1.00  0.00    -0.206 F 
ATOM     59  C   UNL A   1      42.252  33.742  36.517  1.00  0.00     0.022 A 
BRANCH  56  60
ATOM     60  S   UNL A   1      39.940  32.765  37.732  1.00  0.00     0.124 S 
ATOM     61  O   UNL A   1      40.614  32.435  38.986  1.00  0.00    -0.237 OA
ATOM     62  O   UNL A   1      39.471  34.139  37.602  1.00  0.00    -0.237 OA
ATOM     63  O   UNL A   1      39.021  31.742  37.239  1.00  0.00    -0.744 OA
ENDBRANCH  56  60
ENDBRANCH  39  53
BRANCH  40  64
ATOM     64  C   UNL A   1      42.301  24.739  27.390  1.00  0.00     0.023 A 
ATOM     65  C   UNL A   1      41.510  23.580  27.431  1.00  0.00     0.031 A 
ATOM     66  C   UNL A   1      43.214  24.875  26.329  1.00  0.00     0.131 A 
ATOM     67  C   UNL A   1      41.696  22.572  26.472  1.00  0.00     0.055 A 
ATOM     68  C   UNL A   1      43.350  23.897  25.342  1.00  0.00     0.041 A 
ATOM     69  F   UNL A   1      43.996  25.964  26.239  1.00  0.00    -0.206 F 
ATOM     70  C   UNL A   1      42.602  22.728  25.421  1.00  0.00     0.022 A 
BRANCH  67  71
ATOM     71  S   UNL A   1      40.821  20.996  26.686  1.00  0.00     0.124 S 
ATOM     72  O   UNL A   1      40.793  20.868  28.140  1.00  0.00    -0.237 OA
ATOM     73  O   UNL A   1      39.543  21.271  26.041  1.00  0.00    -0.237 OA
ATOM     74  O   UNL A   1      41.677  20.036  25.990  1.00  0.00    -0.744 OA
ENDBRANCH  67  71
ENDBRANCH  40  64
BRANCH  52  75
ATOM     75  C   UNL A   1      46.397  25.917  32.903  1.00  0.00     0.023 A 
ATOM     76  C   UNL A   1      47.696  26.172  32.426  1.00  0.00     0.031 A 
ATOM     77  C   UNL A   1      46.242  24.915  33.878  1.00  0.00     0.131 A 
ATOM     78  C   UNL A   1      48.773  25.388  32.866  1.00  0.00     0.055 A 
ATOM     79  C   UNL A   1      47.329  24.184  34.363  1.00  0.00     0.041 A 
ATOM     80  F   UNL A   1      45.028  24.624  34.373  1.00  0.00    -0.206 F 
ATOM     81  C   UNL A   1      48.600  24.406  33.843  1.00  0.00     0.022 A 
BRANCH  78  82
ATOM     82  S   UNL A   1      50.383  25.588  32.054  1.00  0.00     0.124 S 
ATOM     83  O   UNL A   1      50.386  24.480  31.105  1.00  0.00    -0.237 OA
ATOM     84  O   UNL A   1      50.276  26.923  31.474  1.00  0.00    -0.237 OA
ATOM     85  O   UNL A   1      51.340  25.465  33.153  1.00  0.00    -0.744 OA
ENDBRANCH  78  82
ENDBRANCH  52  75
ENDBRANCH  26  27
ENDBRANCH  19  21
ENDBRANCH  18  19
ENDBRANCH   1  18
TORSDOF 17
ENDMDL
