MODEL 1
REMARK VINA RESULT:     -11.7      0.000      0.000
REMARK SMILES O=C(OCCOC(=O)[C@H]1CCCCN1C(=O)c1nc(C2CC2)n[nH]1)c1ccc(-c2c3nc(c(-c4cc(S(=O)(=O)[O-])ccc4F)c4ccc([nH]4)c(-c4cc(S(=O)(=O)[O-])ccc4F)c4nc(c(-c5cc(S(=O)(=O)[O-])ccc5F)c5ccc2[nH]5)C=C4)C=C3)cc1
REMARK SMILES IDX 4 1 3 2 2 3 1 4 25 5 26 6 87 7 27 8 86 9 28 10 29 11 30 12
REMARK SMILES IDX 80 13 31 14 85 15 79 16 81 17 32 18 84 19 78 20 77 21 33 23
REMARK SMILES IDX 65 24 45 25 64 26 46 27 49 28 63 29 82 30 47 31 48 32 62 34
REMARK SMILES IDX 83 35 50 36 34 37 35 38 43 39 36 40 42 41 44 42 41 43 37 44
REMARK SMILES IDX 38 45 39 46 40 47 66 48 67 49 75 50 68 51 74 52 76 53 73 54
REMARK SMILES IDX 69 55 70 56 71 57 72 58 51 59 52 60 60 61 53 62 59 63 61 64
REMARK SMILES IDX 58 65 54 66 55 67 56 68 57 69 5 70 6 71 7 72 8 73 9 74 10 75
REMARK SMILES IDX 14 76 11 77 13 78 12 79 15 80 16 81 17 82 18 83 24 84 19 85
REMARK SMILES IDX 23 86 20 88 21 89 22 90
REMARK H PARENT 81 22 49 33 24 87
REMARK Flexibility Score: inf
ROOT
ATOM      1  C   UNL A   1      31.477  31.681  26.514  1.00  0.00     0.275 C 
ENDROOT
BRANCH   1   2
ATOM      2  O   UNL A   1      32.758  32.295  26.560  1.00  0.00    -0.458 OA
BRANCH   2   3
ATOM      3  C   UNL A   1      33.329  32.697  27.708  1.00  0.00     0.338 C 
ATOM      4  O   UNL A   1      33.072  33.805  28.169  1.00  0.00    -0.246 OA
BRANCH   3   5
ATOM      5  C   UNL A   1      34.412  31.903  28.361  1.00  0.00     0.060 A 
ATOM      6  C   UNL A   1      34.566  30.127  28.385  1.00  0.00     0.016 A 
ATOM      7  C   UNL A   1      35.900  32.801  28.489  1.00  0.00     0.016 A 
ATOM      8  C   UNL A   1      36.368  29.377  28.403  1.00  0.00     0.010 A 
ATOM      9  C   UNL A   1      37.469  32.089  28.553  1.00  0.00     0.010 A 
ATOM     10  C   UNL A   1      37.769  30.409  28.592  1.00  0.00    -0.014 A 
BRANCH  10  11
ATOM     11  C   UNL A   1      38.904  29.802  29.403  1.00  0.00     0.031 A 
ATOM     12  C   UNL A   1      39.931  28.873  28.751  1.00  0.00     0.074 A 
ATOM     13  C   UNL A   1      39.226  30.372  30.588  1.00  0.00     0.049 A 
ATOM     14  N   UNL A   1      41.055  28.418  29.253  1.00  0.00    -0.248 NA
ATOM     15  C   UNL A   1      39.726  28.438  27.360  1.00  0.00     0.031 C 
ATOM     16  C   UNL A   1      38.442  31.418  31.252  1.00  0.00     0.029 A 
ATOM     17  N   UNL A   1      40.332  30.249  31.399  1.00  0.00    -0.354 N 
ATOM     18  C   UNL A   1      41.649  27.647  28.251  1.00  0.00     0.074 A 
ATOM     19  C   UNL A   1      40.821  27.757  27.087  1.00  0.00     0.031 C 
ATOM     20  C   UNL A   1      39.175  31.955  32.231  1.00  0.00     0.029 A 
ATOM     21  C   UNL A   1      40.305  31.092  32.488  1.00  0.00     0.049 A 
ATOM     22  H   UNL A   1      41.068  29.620  31.219  1.00  0.00     0.167 HD
ATOM     23  C   UNL A   1      42.732  26.838  28.315  1.00  0.00     0.034 A 
ATOM     24  C   UNL A   1      40.983  31.097  33.654  1.00  0.00     0.034 A 
ATOM     25  C   UNL A   1      43.456  26.629  29.536  1.00  0.00     0.049 A 
ATOM     26  C   UNL A   1      42.000  30.016  33.828  1.00  0.00     0.074 A 
ATOM     27  C   UNL A   1      44.441  25.700  29.809  1.00  0.00     0.029 A 
ATOM     28  N   UNL A   1      43.221  27.331  30.712  1.00  0.00    -0.354 N 
ATOM     29  N   UNL A   1      42.414  29.151  32.932  1.00  0.00    -0.248 NA
ATOM     30  C   UNL A   1      42.599  29.861  35.154  1.00  0.00     0.031 C 
ATOM     31  C   UNL A   1      44.708  25.756  31.179  1.00  0.00     0.029 A 
ATOM     32  C   UNL A   1      44.000  26.815  31.730  1.00  0.00     0.049 A 
ATOM     33  H   UNL A   1      42.595  28.083  30.807  1.00  0.00     0.167 HD
ATOM     34  C   UNL A   1      43.338  28.350  33.581  1.00  0.00     0.074 A 
ATOM     35  C   UNL A   1      43.419  28.838  34.946  1.00  0.00     0.031 C 
ATOM     36  C   UNL A   1      44.057  27.316  33.083  1.00  0.00     0.034 A 
BRANCH  23  37
ATOM     37  C   UNL A   1      42.987  25.952  27.111  1.00  0.00     0.023 A 
ATOM     38  C   UNL A   1      42.403  24.680  26.965  1.00  0.00     0.031 A 
ATOM     39  C   UNL A   1      43.979  26.329  26.185  1.00  0.00     0.131 A 
ATOM     40  C   UNL A   1      42.897  23.798  25.986  1.00  0.00     0.055 A 
ATOM     41  C   UNL A   1      44.386  25.487  25.151  1.00  0.00     0.041 A 
ATOM     42  F   UNL A   1      44.616  27.505  26.306  1.00  0.00    -0.206 F 
ATOM     43  C   UNL A   1      43.861  24.203  25.060  1.00  0.00     0.022 A 
BRANCH  40  44
ATOM     44  S   UNL A   1      42.445  22.040  26.095  1.00  0.00     0.124 S 
ATOM     45  O   UNL A   1      42.838  21.722  27.466  1.00  0.00    -0.237 OA
ATOM     46  O   UNL A   1      41.011  22.066  25.833  1.00  0.00    -0.237 OA
ATOM     47  O   UNL A   1      43.260  21.410  25.059  1.00  0.00    -0.744 OA
ENDBRANCH  40  44
ENDBRANCH  23  37
BRANCH  24  48
ATOM     48  C   UNL A   1      40.540  31.985  34.783  1.00  0.00     0.023 A 
ATOM     49  C   UNL A   1      39.544  31.613  35.696  1.00  0.00     0.031 A 
ATOM     50  C   UNL A   1      41.149  33.249  34.971  1.00  0.00     0.131 A 
ATOM     51  C   UNL A   1      39.208  32.480  36.756  1.00  0.00     0.055 A 
ATOM     52  C   UNL A   1      40.869  34.066  36.064  1.00  0.00     0.041 A 
ATOM     53  F   UNL A   1      42.087  33.688  34.114  1.00  0.00    -0.206 F 
ATOM     54  C   UNL A   1      39.887  33.684  36.965  1.00  0.00     0.022 A 
BRANCH  51  55
ATOM     55  S   UNL A   1      37.796  32.067  37.820  1.00  0.00     0.124 S 
ATOM     56  O   UNL A   1      36.790  33.016  37.354  1.00  0.00    -0.237 OA
ATOM     57  O   UNL A   1      37.557  30.666  37.491  1.00  0.00    -0.237 OA
ATOM     58  O   UNL A   1      38.300  32.313  39.171  1.00  0.00    -0.744 OA
ENDBRANCH  51  55
ENDBRANCH  24  48
BRANCH  36  59
ATOM     59  C   UNL A   1      45.070  26.693  33.991  1.00  0.00     0.023 A 
ATOM     60  C   UNL A   1      44.772  25.580  34.787  1.00  0.00     0.031 A 
ATOM     61  C   UNL A   1      46.378  27.209  34.011  1.00  0.00     0.131 A 
ATOM     62  C   UNL A   1      45.770  25.035  35.603  1.00  0.00     0.055 A 
ATOM     63  C   UNL A   1      47.384  26.615  34.763  1.00  0.00     0.041 A 
ATOM     64  F   UNL A   1      46.698  28.284  33.271  1.00  0.00    -0.206 F 
ATOM     65  C   UNL A   1      47.080  25.525  35.572  1.00  0.00     0.022 A 
BRANCH  62  66
ATOM     66  S   UNL A   1      45.311  23.734  36.774  1.00  0.00     0.124 S 
ATOM     67  O   UNL A   1      44.531  24.478  37.758  1.00  0.00    -0.237 OA
ATOM     68  O   UNL A   1      44.562  22.805  35.936  1.00  0.00    -0.237 OA
ATOM     69  O   UNL A   1      46.600  23.237  37.252  1.00  0.00    -0.744 OA
ENDBRANCH  62  66
ENDBRANCH  36  59
ENDBRANCH  10  11
ENDBRANCH   3   5
ENDBRANCH   2   3
ENDBRANCH   1   2
BRANCH   1  70
ATOM     70  C   UNL A   1      31.541  30.201  26.944  1.00  0.00     0.274 C 
BRANCH  70  71
ATOM     71  O   UNL A   1      31.754  29.209  25.899  1.00  0.00    -0.461 OA
BRANCH  71  72
ATOM     72  C   UNL A   1      31.711  27.856  26.159  1.00  0.00     0.328 C 
ATOM     73  O   UNL A   1      31.009  27.363  27.030  1.00  0.00    -0.250 OA
BRANCH  72  74
ATOM     74  C   UNL A   1      32.474  27.021  25.015  1.00  0.00     0.195 C 
ATOM     75  C   UNL A   1      33.982  25.976  25.653  1.00  0.00     0.037 C 
ATOM     76  N   UNL A   1      31.353  26.156  24.132  1.00  0.00    -0.322 N 
ATOM     77  C   UNL A   1      33.503  23.917  26.286  1.00  0.00     0.005 C 
ATOM     78  C   UNL A   1      30.686  24.599  24.629  1.00  0.00     0.121 C 
ATOM     79  C   UNL A   1      31.739  23.329  25.596  1.00  0.00     0.022 C 
BRANCH  76  80
ATOM     80  C   UNL A   1      31.271  26.686  22.817  1.00  0.00     0.291 C 
ATOM     81  O   UNL A   1      31.828  26.114  21.874  1.00  0.00    -0.265 OA
BRANCH  80  82
ATOM     82  C   UNL A   1      30.492  27.849  22.531  1.00  0.00     0.214 A 
ATOM     83  N   UNL A   1      29.246  28.078  22.864  1.00  0.00    -0.207 NA
ATOM     84  N   UNL A   1      31.024  28.983  21.979  1.00  0.00    -0.255 N 
ATOM     85  C   UNL A   1      29.037  29.349  22.386  1.00  0.00     0.154 A 
ATOM     86  N   UNL A   1      30.085  29.915  21.786  1.00  0.00    -0.158 NA
ATOM     87  H   UNL A   1      31.975  29.098  21.754  1.00  0.00     0.192 HD
BRANCH  85  88
ATOM     88  C   UNL A   1      27.729  30.068  22.602  1.00  0.00     0.060 C 
ATOM     89  C   UNL A   1      27.689  31.102  23.709  1.00  0.00     0.012 C 
ATOM     90  C   UNL A   1      27.679  31.545  22.281  1.00  0.00     0.012 C 
ENDBRANCH  85  88
ENDBRANCH  80  82
ENDBRANCH  76  80
ENDBRANCH  72  74
ENDBRANCH  71  72
ENDBRANCH  70  71
ENDBRANCH   1  70
TORSDOF 17
ENDMDL
MODEL 2
REMARK VINA RESULT:     -11.5      5.641     10.822
REMARK SMILES O=C(OCCOC(=O)[C@H]1CCCCN1C(=O)c1nc(C2CC2)n[nH]1)c1ccc(-c2c3nc(c(-c4cc(S(=O)(=O)[O-])ccc4F)c4ccc([nH]4)c(-c4cc(S(=O)(=O)[O-])ccc4F)c4nc(c(-c5cc(S(=O)(=O)[O-])ccc5F)c5ccc2[nH]5)C=C4)C=C3)cc1
REMARK SMILES IDX 4 1 3 2 2 3 1 4 25 5 26 6 87 7 27 8 86 9 28 10 29 11 30 12
REMARK SMILES IDX 80 13 31 14 85 15 79 16 81 17 32 18 84 19 78 20 77 21 33 23
REMARK SMILES IDX 65 24 45 25 64 26 46 27 49 28 63 29 82 30 47 31 48 32 62 34
REMARK SMILES IDX 83 35 50 36 34 37 35 38 43 39 36 40 42 41 44 42 41 43 37 44
REMARK SMILES IDX 38 45 39 46 40 47 66 48 67 49 75 50 68 51 74 52 76 53 73 54
REMARK SMILES IDX 69 55 70 56 71 57 72 58 51 59 52 60 60 61 53 62 59 63 61 64
REMARK SMILES IDX 58 65 54 66 55 67 56 68 57 69 5 70 6 71 7 72 8 73 9 74 10 75
REMARK SMILES IDX 14 76 11 77 13 78 12 79 15 80 16 81 17 82 18 83 24 84 19 85
REMARK SMILES IDX 23 86 20 88 21 89 22 90
REMARK H PARENT 81 22 49 33 24 87
REMARK Flexibility Score: inf
ROOT
ATOM      1  C   UNL A   1      37.497  19.951  24.984  1.00  0.00     0.275 C 
ENDROOT
BRANCH   1   2
ATOM      2  O   UNL A   1      38.658  20.668  25.379  1.00  0.00    -0.458 OA
BRANCH   2   3
ATOM      3  C   UNL A   1      39.818  20.061  25.683  1.00  0.00     0.338 C 
ATOM      4  O   UNL A   1      39.929  18.845  25.552  1.00  0.00    -0.246 OA
BRANCH   3   5
ATOM      5  C   UNL A   1      40.934  20.796  26.348  1.00  0.00     0.060 A 
ATOM      6  C   UNL A   1      42.647  20.304  26.412  1.00  0.00     0.016 A 
ATOM      7  C   UNL A   1      40.628  22.509  26.445  1.00  0.00     0.016 A 
ATOM      8  C   UNL A   1      43.992  21.718  26.437  1.00  0.00     0.010 A 
ATOM      9  C   UNL A   1      41.854  23.719  26.516  1.00  0.00     0.010 A 
ATOM     10  C   UNL A   1      43.528  23.398  26.593  1.00  0.00    -0.014 A 
BRANCH  10  11
ATOM     11  C   UNL A   1      44.486  24.251  27.411  1.00  0.00     0.031 A 
ATOM     12  C   UNL A   1      44.422  24.263  28.940  1.00  0.00     0.074 A 
ATOM     13  C   UNL A   1      45.619  24.694  26.819  1.00  0.00     0.049 A 
ATOM     14  N   UNL A   1      45.274  24.790  29.789  1.00  0.00    -0.248 NA
ATOM     15  C   UNL A   1      43.321  23.563  29.621  1.00  0.00     0.031 C 
ATOM     16  C   UNL A   1      45.913  24.581  25.387  1.00  0.00     0.029 A 
ATOM     17  N   UNL A   1      46.780  25.227  27.334  1.00  0.00    -0.354 N 
ATOM     18  C   UNL A   1      44.790  24.496  31.065  1.00  0.00     0.074 A 
ATOM     19  C   UNL A   1      43.625  23.678  30.897  1.00  0.00     0.031 C 
ATOM     20  C   UNL A   1      47.208  24.843  25.187  1.00  0.00     0.029 A 
ATOM     21  C   UNL A   1      47.742  25.464  26.378  1.00  0.00     0.049 A 
ATOM     22  H   UNL A   1      46.908  25.421  28.291  1.00  0.00     0.167 HD
ATOM     23  C   UNL A   1      45.211  24.944  32.271  1.00  0.00     0.034 A 
ATOM     24  C   UNL A   1      48.855  26.225  26.373  1.00  0.00     0.034 A 
ATOM     25  C   UNL A   1      46.288  25.884  32.400  1.00  0.00     0.049 A 
ATOM     26  C   UNL A   1      49.165  26.944  27.646  1.00  0.00     0.074 A 
ATOM     27  C   UNL A   1      46.700  26.577  33.521  1.00  0.00     0.029 A 
ATOM     28  N   UNL A   1      47.087  26.304  31.345  1.00  0.00    -0.354 N 
ATOM     29  N   UNL A   1      48.569  26.815  28.808  1.00  0.00    -0.248 NA
ATOM     30  C   UNL A   1      50.237  27.941  27.613  1.00  0.00     0.031 C 
ATOM     31  C   UNL A   1      47.659  27.508  33.115  1.00  0.00     0.029 A 
ATOM     32  C   UNL A   1      47.950  27.293  31.775  1.00  0.00     0.049 A 
ATOM     33  H   UNL A   1      47.046  25.951  30.428  1.00  0.00     0.167 HD
ATOM     34  C   UNL A   1      49.201  27.706  29.657  1.00  0.00     0.074 A 
ATOM     35  C   UNL A   1      50.227  28.367  28.870  1.00  0.00     0.031 C 
ATOM     36  C   UNL A   1      48.958  27.940  30.968  1.00  0.00     0.034 A 
BRANCH  23  37
ATOM     37  C   UNL A   1      44.326  24.623  33.459  1.00  0.00     0.023 A 
ATOM     38  C   UNL A   1      43.350  25.513  33.943  1.00  0.00     0.031 A 
ATOM     39  C   UNL A   1      44.601  23.472  34.224  1.00  0.00     0.131 A 
ATOM     40  C   UNL A   1      42.769  25.289  35.205  1.00  0.00     0.055 A 
ATOM     41  C   UNL A   1      43.942  23.204  35.423  1.00  0.00     0.041 A 
ATOM     42  F   UNL A   1      45.563  22.616  33.847  1.00  0.00    -0.206 F 
ATOM     43  C   UNL A   1      43.036  24.126  35.933  1.00  0.00     0.022 A 
BRANCH  40  44
ATOM     44  S   UNL A   1      41.857  26.648  35.995  1.00  0.00     0.124 S 
ATOM     45  O   UNL A   1      40.800  25.922  36.696  1.00  0.00    -0.237 OA
ATOM     46  O   UNL A   1      42.875  27.264  36.839  1.00  0.00    -0.237 OA
ATOM     47  O   UNL A   1      41.403  27.459  34.868  1.00  0.00    -0.744 OA
ENDBRANCH  40  44
ENDBRANCH  23  37
BRANCH  24  48
ATOM     48  C   UNL A   1      49.569  26.514  25.082  1.00  0.00     0.023 A 
ATOM     49  C   UNL A   1      48.963  27.189  24.013  1.00  0.00     0.031 A 
ATOM     50  C   UNL A   1      50.918  26.118  24.915  1.00  0.00     0.131 A 
ATOM     51  C   UNL A   1      49.706  27.461  22.847  1.00  0.00     0.055 A 
ATOM     52  C   UNL A   1      51.670  26.460  23.793  1.00  0.00     0.041 A 
ATOM     53  F   UNL A   1      51.553  25.437  25.883  1.00  0.00    -0.206 F 
ATOM     54  C   UNL A   1      51.061  27.133  22.745  1.00  0.00     0.022 A 
BRANCH  51  55
ATOM     55  S   UNL A   1      48.859  28.171  21.406  1.00  0.00     0.124 S 
ATOM     56  O   UNL A   1      49.047  27.123  20.409  1.00  0.00    -0.237 OA
ATOM     57  O   UNL A   1      47.498  28.348  21.901  1.00  0.00    -0.237 OA
ATOM     58  O   UNL A   1      49.595  29.409  21.150  1.00  0.00    -0.744 OA
ENDBRANCH  51  55
ENDBRANCH  24  48
BRANCH  36  59
ATOM     59  C   UNL A   1      49.877  28.891  31.670  1.00  0.00     0.023 A 
ATOM     60  C   UNL A   1      51.021  28.456  32.350  1.00  0.00     0.031 A 
ATOM     61  C   UNL A   1      49.611  30.270  31.604  1.00  0.00     0.131 A 
ATOM     62  C   UNL A   1      51.847  29.399  32.973  1.00  0.00     0.055 A 
ATOM     63  C   UNL A   1      50.477  31.206  32.157  1.00  0.00     0.041 A 
ATOM     64  F   UNL A   1      48.515  30.724  30.973  1.00  0.00    -0.206 F 
ATOM     65  C   UNL A   1      51.599  30.771  32.853  1.00  0.00     0.022 A 
BRANCH  62  66
ATOM     66  S   UNL A   1      53.199  28.804  34.018  1.00  0.00     0.124 S 
ATOM     67  O   UNL A   1      53.426  27.465  33.482  1.00  0.00    -0.237 OA
ATOM     68  O   UNL A   1      54.251  29.781  33.759  1.00  0.00    -0.237 OA
ATOM     69  O   UNL A   1      52.631  28.846  35.364  1.00  0.00    -0.744 OA
ENDBRANCH  62  66
ENDBRANCH  36  59
ENDBRANCH  10  11
ENDBRANCH   3   5
ENDBRANCH   2   3
ENDBRANCH   1   2
BRANCH   1  70
ATOM     70  C   UNL A   1      36.251  20.859  24.954  1.00  0.00     0.274 C 
BRANCH  70  71
ATOM     71  O   UNL A   1      36.472  22.298  24.959  1.00  0.00    -0.461 OA
BRANCH  71  72
ATOM     72  C   UNL A   1      35.796  23.142  24.104  1.00  0.00     0.328 C 
ATOM     73  O   UNL A   1      36.083  23.269  22.922  1.00  0.00    -0.250 OA
BRANCH  72  74
ATOM     74  C   UNL A   1      34.453  23.706  24.787  1.00  0.00     0.195 C 
ATOM     75  C   UNL A   1      34.317  25.643  24.814  1.00  0.00     0.037 C 
ATOM     76  N   UNL A   1      33.135  22.926  24.124  1.00  0.00    -0.322 N 
ATOM     77  C   UNL A   1      33.332  26.544  23.056  1.00  0.00     0.005 C 
ATOM     78  C   UNL A   1      32.381  23.378  22.594  1.00  0.00     0.121 C 
ATOM     79  C   UNL A   1      32.295  25.203  22.028  1.00  0.00     0.022 C 
BRANCH  76  80
ATOM     80  C   UNL A   1      32.537  22.088  25.103  1.00  0.00     0.291 C 
ATOM     81  O   UNL A   1      31.936  22.577  26.065  1.00  0.00    -0.265 OA
BRANCH  80  82
ATOM     82  C   UNL A   1      32.549  20.665  24.972  1.00  0.00     0.214 A 
ATOM     83  N   UNL A   1      32.673  19.964  23.872  1.00  0.00    -0.207 NA
ATOM     84  N   UNL A   1      32.586  19.820  26.047  1.00  0.00    -0.255 N 
ATOM     85  C   UNL A   1      32.672  18.672  24.337  1.00  0.00     0.154 A 
ATOM     86  N   UNL A   1      32.562  18.540  25.660  1.00  0.00    -0.158 NA
ATOM     87  H   UNL A   1      32.627  20.115  26.985  1.00  0.00     0.192 HD
BRANCH  85  88
ATOM     88  C   UNL A   1      32.860  17.498  23.409  1.00  0.00     0.060 C 
ATOM     89  C   UNL A   1      34.277  17.003  23.207  1.00  0.00     0.012 C 
ATOM     90  C   UNL A   1      33.317  16.191  24.016  1.00  0.00     0.012 C 
ENDBRANCH  85  88
ENDBRANCH  80  82
ENDBRANCH  76  80
ENDBRANCH  72  74
ENDBRANCH  71  72
ENDBRANCH  70  71
ENDBRANCH   1  70
TORSDOF 17
ENDMDL
MODEL 3
REMARK VINA RESULT:     -11.5      2.137      2.453
REMARK SMILES O=C(OCCOC(=O)[C@H]1CCCCN1C(=O)c1nc(C2CC2)n[nH]1)c1ccc(-c2c3nc(c(-c4cc(S(=O)(=O)[O-])ccc4F)c4ccc([nH]4)c(-c4cc(S(=O)(=O)[O-])ccc4F)c4nc(c(-c5cc(S(=O)(=O)[O-])ccc5F)c5ccc2[nH]5)C=C4)C=C3)cc1
REMARK SMILES IDX 4 1 3 2 2 3 1 4 25 5 26 6 87 7 27 8 86 9 28 10 29 11 30 12
REMARK SMILES IDX 80 13 31 14 85 15 79 16 81 17 32 18 84 19 78 20 77 21 33 23
REMARK SMILES IDX 65 24 45 25 64 26 46 27 49 28 63 29 82 30 47 31 48 32 62 34
REMARK SMILES IDX 83 35 50 36 34 37 35 38 43 39 36 40 42 41 44 42 41 43 37 44
REMARK SMILES IDX 38 45 39 46 40 47 66 48 67 49 75 50 68 51 74 52 76 53 73 54
REMARK SMILES IDX 69 55 70 56 71 57 72 58 51 59 52 60 60 61 53 62 59 63 61 64
REMARK SMILES IDX 58 65 54 66 55 67 56 68 57 69 5 70 6 71 7 72 8 73 9 74 10 75
REMARK SMILES IDX 14 76 11 77 13 78 12 79 15 80 16 81 17 82 18 83 24 84 19 85
REMARK SMILES IDX 23 86 20 88 21 89 22 90
REMARK H PARENT 81 22 49 33 24 87
REMARK Flexibility Score: inf
ROOT
ATOM      1  C   UNL A   1      33.681  30.920  27.516  1.00  0.00     0.275 C 
ENDROOT
BRANCH   1   2
ATOM      2  O   UNL A   1      33.637  32.284  27.912  1.00  0.00    -0.458 OA
BRANCH   2   3
ATOM      3  C   UNL A   1      34.615  32.862  28.630  1.00  0.00     0.338 C 
ATOM      4  O   UNL A   1      34.717  34.085  28.660  1.00  0.00    -0.246 OA
BRANCH   3   5
ATOM      5  C   UNL A   1      35.702  32.055  29.260  1.00  0.00     0.060 A 
ATOM      6  C   UNL A   1      35.522  30.872  30.581  1.00  0.00     0.016 A 
ATOM      7  C   UNL A   1      37.040  31.791  28.174  1.00  0.00     0.016 A 
ATOM      8  C   UNL A   1      36.734  29.341  30.592  1.00  0.00     0.010 A 
ATOM      9  C   UNL A   1      38.115  30.446  28.256  1.00  0.00     0.010 A 
ATOM     10  C   UNL A   1      38.070  29.243  29.466  1.00  0.00    -0.014 A 
BRANCH  10  11
ATOM     11  C   UNL A   1      39.331  28.602  30.026  1.00  0.00     0.031 A 
ATOM     12  C   UNL A   1      40.102  27.549  29.227  1.00  0.00     0.074 A 
ATOM     13  C   UNL A   1      39.973  29.224  31.042  1.00  0.00     0.049 A 
ATOM     14  N   UNL A   1      41.285  27.037  29.478  1.00  0.00    -0.248 NA
ATOM     15  C   UNL A   1      39.530  27.037  27.971  1.00  0.00     0.031 C 
ATOM     16  C   UNL A   1      39.447  30.374  31.783  1.00  0.00     0.029 A 
ATOM     17  N   UNL A   1      41.236  29.066  31.567  1.00  0.00    -0.354 N 
ATOM     18  C   UNL A   1      41.560  26.154  28.432  1.00  0.00     0.074 A 
ATOM     19  C   UNL A   1      40.477  26.250  27.500  1.00  0.00     0.031 C 
ATOM     20  C   UNL A   1      40.433  30.915  32.504  1.00  0.00     0.029 A 
ATOM     21  C   UNL A   1      41.535  29.981  32.552  1.00  0.00     0.049 A 
ATOM     22  H   UNL A   1      41.863  28.367  31.268  1.00  0.00     0.167 HD
ATOM     23  C   UNL A   1      42.572  25.264  28.300  1.00  0.00     0.034 A 
ATOM     24  C   UNL A   1      42.481  30.010  33.513  1.00  0.00     0.034 A 
ATOM     25  C   UNL A   1      43.563  25.081  29.322  1.00  0.00     0.049 A 
ATOM     26  C   UNL A   1      43.439  28.863  33.527  1.00  0.00     0.074 A 
ATOM     27  C   UNL A   1      44.525  24.095  29.426  1.00  0.00     0.029 A 
ATOM     28  N   UNL A   1      43.674  25.878  30.454  1.00  0.00    -0.354 N 
ATOM     29  N   UNL A   1      43.562  27.908  32.636  1.00  0.00    -0.248 NA
ATOM     30  C   UNL A   1      44.339  28.751  34.676  1.00  0.00     0.031 C 
ATOM     31  C   UNL A   1      45.127  24.222  30.680  1.00  0.00     0.029 A 
ATOM     32  C   UNL A   1      44.648  25.372  31.292  1.00  0.00     0.049 A 
ATOM     33  H   UNL A   1      43.139  26.685  30.632  1.00  0.00     0.167 HD
ATOM     34  C   UNL A   1      44.566  27.080  33.108  1.00  0.00     0.074 A 
ATOM     35  C   UNL A   1      45.016  27.653  34.364  1.00  0.00     0.031 C 
ATOM     36  C   UNL A   1      45.071  25.958  32.541  1.00  0.00     0.034 A 
BRANCH  23  37
ATOM     37  C   UNL A   1      42.463  24.279  27.153  1.00  0.00     0.023 A 
ATOM     38  C   UNL A   1      41.761  23.064  27.257  1.00  0.00     0.031 A 
ATOM     39  C   UNL A   1      43.233  24.494  25.994  1.00  0.00     0.131 A 
ATOM     40  C   UNL A   1      41.936  22.074  26.272  1.00  0.00     0.055 A 
ATOM     41  C   UNL A   1      43.315  23.549  24.971  1.00  0.00     0.041 A 
ATOM     42  F   UNL A   1      43.972  25.607  25.861  1.00  0.00    -0.206 F 
ATOM     43  C   UNL A   1      42.682  22.320  25.117  1.00  0.00     0.022 A 
BRANCH  40  44
ATOM     44  S   UNL A   1      41.384  20.381  26.636  1.00  0.00     0.124 S 
ATOM     45  O   UNL A   1      42.130  20.087  27.858  1.00  0.00    -0.237 OA
ATOM     46  O   UNL A   1      39.944  20.545  26.792  1.00  0.00    -0.237 OA
ATOM     47  O   UNL A   1      41.804  19.621  25.460  1.00  0.00    -0.744 OA
ENDBRANCH  40  44
ENDBRANCH  23  37
BRANCH  24  48
ATOM     48  C   UNL A   1      42.391  31.007  34.634  1.00  0.00     0.023 A 
ATOM     49  C   UNL A   1      43.073  32.232  34.619  1.00  0.00     0.031 A 
ATOM     50  C   UNL A   1      41.575  30.736  35.758  1.00  0.00     0.131 A 
ATOM     51  C   UNL A   1      42.909  33.136  35.688  1.00  0.00     0.055 A 
ATOM     52  C   UNL A   1      41.355  31.666  36.773  1.00  0.00     0.041 A 
ATOM     53  F   UNL A   1      40.919  29.567  35.859  1.00  0.00    -0.206 F 
ATOM     54  C   UNL A   1      42.030  32.877  36.743  1.00  0.00     0.022 A 
BRANCH  51  55
ATOM     55  S   UNL A   1      43.936  34.633  35.742  1.00  0.00     0.124 S 
ATOM     56  O   UNL A   1      42.967  35.639  36.162  1.00  0.00    -0.237 OA
ATOM     57  O   UNL A   1      44.956  34.276  36.721  1.00  0.00    -0.237 OA
ATOM     58  O   UNL A   1      44.414  34.771  34.366  1.00  0.00    -0.744 OA
ENDBRANCH  51  55
ENDBRANCH  24  48
BRANCH  36  59
ATOM     59  C   UNL A   1      46.238  25.318  33.226  1.00  0.00     0.023 A 
ATOM     60  C   UNL A   1      46.080  24.268  34.140  1.00  0.00     0.031 A 
ATOM     61  C   UNL A   1      47.537  25.748  32.906  1.00  0.00     0.131 A 
ATOM     62  C   UNL A   1      47.214  23.702  34.734  1.00  0.00     0.055 A 
ATOM     63  C   UNL A   1      48.662  25.129  33.440  1.00  0.00     0.041 A 
ATOM     64  F   UNL A   1      47.727  26.761  32.045  1.00  0.00    -0.206 F 
ATOM     65  C   UNL A   1      48.502  24.104  34.366  1.00  0.00     0.022 A 
BRANCH  62  66
ATOM     66  S   UNL A   1      46.980  22.495  36.062  1.00  0.00     0.124 S 
ATOM     67  O   UNL A   1      48.343  22.327  36.558  1.00  0.00    -0.237 OA
ATOM     68  O   UNL A   1      46.057  23.185  36.956  1.00  0.00    -0.237 OA
ATOM     69  O   UNL A   1      46.423  21.334  35.371  1.00  0.00    -0.744 OA
ENDBRANCH  62  66
ENDBRANCH  36  59
ENDBRANCH  10  11
ENDBRANCH   3   5
ENDBRANCH   2   3
ENDBRANCH   1   2
BRANCH   1  70
ATOM     70  C   UNL A   1      32.317  30.441  26.980  1.00  0.00     0.274 C 
BRANCH  70  71
ATOM     71  O   UNL A   1      32.326  29.408  25.952  1.00  0.00    -0.461 OA
BRANCH  71  72
ATOM     72  C   UNL A   1      32.059  28.088  26.245  1.00  0.00     0.328 C 
ATOM     73  O   UNL A   1      31.292  27.739  27.131  1.00  0.00    -0.250 OA
BRANCH  72  74
ATOM     74  C   UNL A   1      32.660  27.111  25.116  1.00  0.00     0.195 C 
ATOM     75  C   UNL A   1      34.003  25.866  25.762  1.00  0.00     0.037 C 
ATOM     76  N   UNL A   1      31.400  26.403  24.281  1.00  0.00    -0.322 N 
ATOM     77  C   UNL A   1      33.227  23.925  26.471  1.00  0.00     0.005 C 
ATOM     78  C   UNL A   1      30.513  24.983  24.840  1.00  0.00     0.121 C 
ATOM     79  C   UNL A   1      31.380  23.596  25.831  1.00  0.00     0.022 C 
BRANCH  76  80
ATOM     80  C   UNL A   1      31.372  26.900  22.951  1.00  0.00     0.291 C 
ATOM     81  O   UNL A   1      32.012  26.336  22.057  1.00  0.00    -0.265 OA
BRANCH  80  82
ATOM     82  C   UNL A   1      30.556  28.015  22.590  1.00  0.00     0.214 A 
ATOM     83  N   UNL A   1      29.316  28.247  22.946  1.00  0.00    -0.207 NA
ATOM     84  N   UNL A   1      31.040  29.105  21.920  1.00  0.00    -0.255 N 
ATOM     85  C   UNL A   1      29.060  29.464  22.364  1.00  0.00     0.154 A 
ATOM     86  N   UNL A   1      30.072  29.996  21.678  1.00  0.00    -0.158 NA
ATOM     87  H   UNL A   1      31.979  29.220  21.651  1.00  0.00     0.192 HD
BRANCH  85  88
ATOM     88  C   UNL A   1      27.743  30.172  22.562  1.00  0.00     0.060 C 
ATOM     89  C   UNL A   1      27.667  31.177  23.693  1.00  0.00     0.012 C 
ATOM     90  C   UNL A   1      27.694  31.657  22.277  1.00  0.00     0.012 C 
ENDBRANCH  85  88
ENDBRANCH  80  82
ENDBRANCH  76  80
ENDBRANCH  72  74
ENDBRANCH  71  72
ENDBRANCH  70  71
ENDBRANCH   1  70
TORSDOF 17
ENDMDL
