MODEL 1
REMARK VINA RESULT:     -10.5      0.000      0.000
REMARK SMILES CCC1(CC)C[NH+](C2(C(=O)OCCOC(=O)c3ccc(-c4c5nc(c(-c6cc(S(=O)(=O)[O-])ccc6F)c6ccc([nH]6)c(-c6cc(S(=O)(=O)[O-])ccc6F)c6nc(c(-c7cc(S(=O)(=O)[O-])ccc7F)c7ccc4[nH]7)C=C6)C=C5)cc3)CC2)C1
REMARK SMILES IDX 13 1 12 2 11 3 9 4 10 5 8 6 80 7 81 8 7 9 3 10 6 11 82 12
REMARK SMILES IDX 2 14 1 15 4 16 5 17 14 18 15 19 16 20 17 21 18 22 79 23
REMARK SMILES IDX 19 24 78 25 20 26 21 27 22 28 72 29 23 30 77 31 71 32 73 33
REMARK SMILES IDX 24 34 76 35 70 36 69 37 25 39 57 40 37 41 56 42 38 43 41 44
REMARK SMILES IDX 55 45 74 46 39 47 40 48 54 50 75 51 42 52 26 53 27 54 35 55
REMARK SMILES IDX 28 56 34 57 36 58 33 59 29 60 30 61 31 62 32 63 58 64 59 65
REMARK SMILES IDX 67 66 60 67 66 68 68 69 65 70 61 71 62 72 63 73 64 74 43 75
REMARK SMILES IDX 44 76 52 77 45 78 51 79 53 80 50 81 46 82 47 83 48 84 49 85
REMARK H PARENT 7 13 73 38 41 49
REMARK Flexibility Score: inf
ROOT
ATOM      1  C   UNL A   1      31.589  30.413  25.673  1.00  0.00     0.275 C 
ENDROOT
BRANCH   1   2
ATOM      2  C   UNL A   1      31.578  29.063  24.960  1.00  0.00     0.274 C 
BRANCH   2   3
ATOM      3  O   UNL A   1      32.792  28.356  25.262  1.00  0.00    -0.457 OA
BRANCH   3   4
ATOM      4  C   UNL A   1      33.502  27.874  24.199  1.00  0.00     0.368 C 
ATOM      5  O   UNL A   1      34.200  28.537  23.450  1.00  0.00    -0.245 OA
BRANCH   4   6
ATOM      6  C   UNL A   1      33.325  26.371  24.033  1.00  0.00     0.196 C 
ATOM      7  C   UNL A   1      33.658  25.795  22.666  1.00  0.00     0.088 C 
ATOM      8  C   UNL A   1      32.231  25.879  23.097  1.00  0.00     0.088 C 
BRANCH   6   9
ATOM      9  N   UNL A   1      33.678  25.664  25.286  1.00  0.00    -0.319 N 
ATOM     10  C   UNL A   1      33.996  23.592  25.715  1.00  0.00     0.068 C 
ATOM     11  C   UNL A   1      32.814  24.609  25.802  1.00  0.00     0.276 C 
ATOM     12  C   UNL A   1      34.875  24.837  25.363  1.00  0.00     0.276 C 
ATOM     13  H   UNL A   1      33.689  26.562  25.772  1.00  0.00     0.349 HD
BRANCH  10  14
ATOM     14  C   UNL A   1      34.396  22.931  27.051  1.00  0.00     0.015 C 
ATOM     15  C   UNL A   1      33.199  22.423  27.842  1.00  0.00     0.005 C 
ENDBRANCH  10  14
BRANCH  10  16
ATOM     16  C   UNL A   1      33.794  22.587  24.565  1.00  0.00     0.015 C 
ATOM     17  C   UNL A   1      34.534  21.276  24.769  1.00  0.00     0.005 C 
ENDBRANCH  10  16
ENDBRANCH   6   9
ENDBRANCH   4   6
ENDBRANCH   3   4
ENDBRANCH   2   3
ENDBRANCH   1   2
BRANCH   1  18
ATOM     18  O   UNL A   1      32.386  30.328  26.866  1.00  0.00    -0.458 OA
BRANCH  18  19
ATOM     19  C   UNL A   1      33.016  31.476  27.208  1.00  0.00     0.338 C 
ATOM     20  O   UNL A   1      32.551  32.603  27.213  1.00  0.00    -0.246 OA
BRANCH  19  21
ATOM     21  C   UNL A   1      34.401  31.187  27.602  1.00  0.00     0.060 A 
ATOM     22  C   UNL A   1      34.762  29.880  27.908  1.00  0.00     0.016 A 
ATOM     23  C   UNL A   1      35.275  32.239  27.862  1.00  0.00     0.016 A 
ATOM     24  C   UNL A   1      35.935  29.640  28.622  1.00  0.00     0.010 A 
ATOM     25  C   UNL A   1      36.517  31.971  28.446  1.00  0.00     0.010 A 
ATOM     26  C   UNL A   1      36.845  30.675  28.885  1.00  0.00    -0.014 A 
BRANCH  26  27
ATOM     27  C   UNL A   1      38.121  30.421  29.622  1.00  0.00     0.031 A 
ATOM     28  C   UNL A   1      39.185  29.528  29.024  1.00  0.00     0.074 A 
ATOM     29  C   UNL A   1      38.330  30.967  30.839  1.00  0.00     0.049 A 
ATOM     30  N   UNL A   1      40.233  28.986  29.593  1.00  0.00    -0.248 NA
ATOM     31  C   UNL A   1      39.039  29.185  27.601  1.00  0.00     0.031 C 
ATOM     32  C   UNL A   1      37.427  31.901  31.518  1.00  0.00     0.029 A 
ATOM     33  N   UNL A   1      39.365  30.811  31.731  1.00  0.00    -0.354 N 
ATOM     34  C   UNL A   1      40.840  28.200  28.616  1.00  0.00     0.074 A 
ATOM     35  C   UNL A   1      40.035  28.328  27.420  1.00  0.00     0.031 C 
ATOM     36  C   UNL A   1      37.960  32.257  32.694  1.00  0.00     0.029 A 
ATOM     37  C   UNL A   1      39.171  31.481  32.919  1.00  0.00     0.049 A 
ATOM     38  H   UNL A   1      40.167  30.272  31.539  1.00  0.00     0.167 HD
ATOM     39  C   UNL A   1      41.960  27.438  28.713  1.00  0.00     0.034 A 
ATOM     40  C   UNL A   1      39.839  31.428  34.088  1.00  0.00     0.034 A 
ATOM     41  C   UNL A   1      42.762  27.342  29.910  1.00  0.00     0.049 A 
ATOM     42  C   UNL A   1      41.021  30.504  34.206  1.00  0.00     0.074 A 
ATOM     43  C   UNL A   1      43.916  26.605  30.119  1.00  0.00     0.029 A 
ATOM     44  N   UNL A   1      42.497  28.004  31.103  1.00  0.00    -0.354 N 
ATOM     45  N   UNL A   1      41.542  29.712  33.297  1.00  0.00    -0.248 NA
ATOM     46  C   UNL A   1      41.696  30.454  35.508  1.00  0.00     0.031 C 
ATOM     47  C   UNL A   1      44.303  26.759  31.454  1.00  0.00     0.029 A 
ATOM     48  C   UNL A   1      43.446  27.666  32.057  1.00  0.00     0.049 A 
ATOM     49  H   UNL A   1      41.745  28.622  31.250  1.00  0.00     0.167 HD
ATOM     50  C   UNL A   1      42.628  29.096  33.912  1.00  0.00     0.074 A 
ATOM     51  C   UNL A   1      42.690  29.613  35.263  1.00  0.00     0.031 C 
ATOM     52  C   UNL A   1      43.498  28.189  33.402  1.00  0.00     0.034 A 
BRANCH  39  53
ATOM     53  C   UNL A   1      42.347  26.594  27.518  1.00  0.00     0.023 A 
ATOM     54  C   UNL A   1      41.955  25.251  27.388  1.00  0.00     0.031 A 
ATOM     55  C   UNL A   1      43.132  27.149  26.490  1.00  0.00     0.131 A 
ATOM     56  C   UNL A   1      42.400  24.494  26.291  1.00  0.00     0.055 A 
ATOM     57  C   UNL A   1      43.503  26.415  25.361  1.00  0.00     0.041 A 
ATOM     58  F   UNL A   1      43.558  28.421  26.566  1.00  0.00    -0.206 F 
ATOM     59  C   UNL A   1      43.148  25.074  25.264  1.00  0.00     0.022 A 
BRANCH  56  60
ATOM     60  S   UNL A   1      42.103  22.704  26.291  1.00  0.00     0.124 S 
ATOM     61  O   UNL A   1      42.640  22.315  24.990  1.00  0.00    -0.237 OA
ATOM     62  O   UNL A   1      42.861  22.259  27.454  1.00  0.00    -0.237 OA
ATOM     63  O   UNL A   1      40.650  22.596  26.414  1.00  0.00    -0.744 OA
ENDBRANCH  56  60
ENDBRANCH  39  53
BRANCH  40  64
ATOM     64  C   UNL A   1      39.357  32.209  35.265  1.00  0.00     0.023 A 
ATOM     65  C   UNL A   1      39.775  33.530  35.479  1.00  0.00     0.031 A 
ATOM     66  C   UNL A   1      38.493  31.630  36.216  1.00  0.00     0.131 A 
ATOM     67  C   UNL A   1      39.364  34.216  36.633  1.00  0.00     0.055 A 
ATOM     68  C   UNL A   1      38.031  32.340  37.325  1.00  0.00     0.041 A 
ATOM     69  F   UNL A   1      38.068  30.366  36.069  1.00  0.00    -0.206 F 
ATOM     70  C   UNL A   1      38.478  33.638  37.546  1.00  0.00     0.022 A 
BRANCH  67  71
ATOM     71  S   UNL A   1      40.086  35.843  36.978  1.00  0.00     0.124 S 
ATOM     72  O   UNL A   1      39.382  36.226  38.196  1.00  0.00    -0.237 OA
ATOM     73  O   UNL A   1      41.501  35.519  37.130  1.00  0.00    -0.237 OA
ATOM     74  O   UNL A   1      39.750  36.623  35.790  1.00  0.00    -0.744 OA
ENDBRANCH  67  71
ENDBRANCH  40  64
BRANCH  52  75
ATOM     75  C   UNL A   1      44.638  27.755  34.290  1.00  0.00     0.023 A 
ATOM     76  C   UNL A   1      44.512  26.690  35.197  1.00  0.00     0.031 A 
ATOM     77  C   UNL A   1      45.872  28.427  34.220  1.00  0.00     0.131 A 
ATOM     78  C   UNL A   1      45.588  26.360  36.036  1.00  0.00     0.055 A 
ATOM     79  C   UNL A   1      46.958  28.053  35.012  1.00  0.00     0.041 A 
ATOM     80  F   UNL A   1      46.044  29.455  33.375  1.00  0.00    -0.206 F 
ATOM     81  C   UNL A   1      46.815  27.021  35.935  1.00  0.00     0.022 A 
BRANCH  78  82
ATOM     82  S   UNL A   1      45.339  25.104  37.321  1.00  0.00     0.124 S 
ATOM     83  O   UNL A   1      44.877  25.910  38.446  1.00  0.00    -0.237 OA
ATOM     84  O   UNL A   1      44.344  24.226  36.714  1.00  0.00    -0.237 OA
ATOM     85  O   UNL A   1      46.667  24.513  37.485  1.00  0.00    -0.744 OA
ENDBRANCH  78  82
ENDBRANCH  52  75
ENDBRANCH  26  27
ENDBRANCH  19  21
ENDBRANCH  18  19
ENDBRANCH   1  18
TORSDOF 17
ENDMDL
MODEL 2
REMARK VINA RESULT:     -10.3      4.814     10.077
REMARK SMILES CCC1(CC)C[NH+](C2(C(=O)OCCOC(=O)c3ccc(-c4c5nc(c(-c6cc(S(=O)(=O)[O-])ccc6F)c6ccc([nH]6)c(-c6cc(S(=O)(=O)[O-])ccc6F)c6nc(c(-c7cc(S(=O)(=O)[O-])ccc7F)c7ccc4[nH]7)C=C6)C=C5)cc3)CC2)C1
REMARK SMILES IDX 13 1 12 2 11 3 9 4 10 5 8 6 80 7 81 8 7 9 3 10 6 11 82 12
REMARK SMILES IDX 2 14 1 15 4 16 5 17 14 18 15 19 16 20 17 21 18 22 79 23
REMARK SMILES IDX 19 24 78 25 20 26 21 27 22 28 72 29 23 30 77 31 71 32 73 33
REMARK SMILES IDX 24 34 76 35 70 36 69 37 25 39 57 40 37 41 56 42 38 43 41 44
REMARK SMILES IDX 55 45 74 46 39 47 40 48 54 50 75 51 42 52 26 53 27 54 35 55
REMARK SMILES IDX 28 56 34 57 36 58 33 59 29 60 30 61 31 62 32 63 58 64 59 65
REMARK SMILES IDX 67 66 60 67 66 68 68 69 65 70 61 71 62 72 63 73 64 74 43 75
REMARK SMILES IDX 44 76 52 77 45 78 51 79 53 80 50 81 46 82 47 83 48 84 49 85
REMARK H PARENT 7 13 73 38 41 49
REMARK Flexibility Score: inf
ROOT
ATOM      1  C   UNL A   1      36.463  20.457  24.776  1.00  0.00     0.275 C 
ENDROOT
BRANCH   1   2
ATOM      2  C   UNL A   1      34.960  20.524  25.031  1.00  0.00     0.274 C 
BRANCH   2   3
ATOM      3  O   UNL A   1      34.435  21.737  24.468  1.00  0.00    -0.457 OA
BRANCH   3   4
ATOM      4  C   UNL A   1      33.244  22.182  24.968  1.00  0.00     0.368 C 
ATOM      5  O   UNL A   1      32.592  21.636  25.842  1.00  0.00    -0.245 OA
BRANCH   4   6
ATOM      6  C   UNL A   1      32.792  23.471  24.297  1.00  0.00     0.196 C 
ATOM      7  C   UNL A   1      31.465  23.422  23.556  1.00  0.00     0.088 C 
ATOM      8  C   UNL A   1      32.737  23.505  22.777  1.00  0.00     0.088 C 
BRANCH   6   9
ATOM      9  N   UNL A   1      33.193  24.646  25.106  1.00  0.00    -0.319 N 
ATOM     10  C   UNL A   1      32.211  26.505  25.507  1.00  0.00     0.068 C 
ATOM     11  C   UNL A   1      33.271  25.966  24.494  1.00  0.00     0.276 C 
ATOM     12  C   UNL A   1      32.357  25.113  26.205  1.00  0.00     0.276 C 
ATOM     13  H   UNL A   1      34.063  24.168  25.341  1.00  0.00     0.349 HD
BRANCH  10  14
ATOM     14  C   UNL A   1      32.683  27.677  26.393  1.00  0.00     0.015 C 
ATOM     15  C   UNL A   1      31.696  28.017  27.500  1.00  0.00     0.005 C 
ENDBRANCH  10  14
BRANCH  10  16
ATOM     16  C   UNL A   1      30.852  26.754  24.824  1.00  0.00     0.015 C 
ATOM     17  C   UNL A   1      30.777  28.084  24.093  1.00  0.00     0.005 C 
ENDBRANCH  10  16
ENDBRANCH   6   9
ENDBRANCH   4   6
ENDBRANCH   3   4
ENDBRANCH   2   3
ENDBRANCH   1   2
BRANCH   1  18
ATOM     18  O   UNL A   1      37.125  21.516  25.489  1.00  0.00    -0.458 OA
BRANCH  18  19
ATOM     19  C   UNL A   1      38.433  21.288  25.753  1.00  0.00     0.338 C 
ATOM     20  O   UNL A   1      39.089  20.304  25.455  1.00  0.00    -0.246 OA
BRANCH  19  21
ATOM     21  C   UNL A   1      39.003  22.432  26.477  1.00  0.00     0.060 A 
ATOM     22  C   UNL A   1      38.522  23.710  26.215  1.00  0.00     0.016 A 
ATOM     23  C   UNL A   1      40.144  22.254  27.255  1.00  0.00     0.016 A 
ATOM     24  C   UNL A   1      39.274  24.819  26.598  1.00  0.00     0.010 A 
ATOM     25  C   UNL A   1      40.811  23.374  27.762  1.00  0.00     0.010 A 
ATOM     26  C   UNL A   1      40.418  24.675  27.397  1.00  0.00    -0.014 A 
BRANCH  26  27
ATOM     27  C   UNL A   1      41.213  25.862  27.840  1.00  0.00     0.031 A 
ATOM     28  C   UNL A   1      40.566  26.951  28.666  1.00  0.00     0.074 A 
ATOM     29  C   UNL A   1      42.511  25.987  27.490  1.00  0.00     0.049 A 
ATOM     30  N   UNL A   1      40.996  28.158  28.936  1.00  0.00    -0.248 NA
ATOM     31  C   UNL A   1      39.251  26.645  29.252  1.00  0.00     0.031 C 
ATOM     32  C   UNL A   1      43.292  24.991  26.751  1.00  0.00     0.029 A 
ATOM     33  N   UNL A   1      43.406  27.011  27.698  1.00  0.00    -0.354 N 
ATOM     34  C   UNL A   1      39.987  28.772  29.675  1.00  0.00     0.074 A 
ATOM     35  C   UNL A   1      38.918  27.804  29.801  1.00  0.00     0.031 C 
ATOM     36  C   UNL A   1      44.547  25.434  26.599  1.00  0.00     0.029 A 
ATOM     37  C   UNL A   1      44.631  26.796  27.107  1.00  0.00     0.049 A 
ATOM     38  H   UNL A   1      43.191  27.818  28.220  1.00  0.00     0.167 HD
ATOM     39  C   UNL A   1      39.956  30.027  30.192  1.00  0.00     0.034 A 
ATOM     40  C   UNL A   1      45.683  27.618  26.919  1.00  0.00     0.034 A 
ATOM     41  C   UNL A   1      41.044  30.969  30.074  1.00  0.00     0.049 A 
ATOM     42  C   UNL A   1      45.591  29.036  27.414  1.00  0.00     0.074 A 
ATOM     43  C   UNL A   1      41.123  32.263  30.560  1.00  0.00     0.029 A 
ATOM     44  N   UNL A   1      42.247  30.720  29.423  1.00  0.00    -0.354 N 
ATOM     45  N   UNL A   1      44.604  29.626  28.049  1.00  0.00    -0.248 NA
ATOM     46  C   UNL A   1      46.747  29.904  27.157  1.00  0.00     0.031 C 
ATOM     47  C   UNL A   1      42.333  32.821  30.140  1.00  0.00     0.029 A 
ATOM     48  C   UNL A   1      43.056  31.847  29.470  1.00  0.00     0.049 A 
ATOM     49  H   UNL A   1      42.490  29.869  28.992  1.00  0.00     0.167 HD
ATOM     50  C   UNL A   1      45.037  30.925  28.295  1.00  0.00     0.074 A 
ATOM     51  C   UNL A   1      46.374  31.029  27.748  1.00  0.00     0.031 C 
ATOM     52  C   UNL A   1      44.388  31.938  28.922  1.00  0.00     0.034 A 
BRANCH  39  53
ATOM     53  C   UNL A   1      38.683  30.481  30.871  1.00  0.00     0.023 A 
ATOM     54  C   UNL A   1      37.624  31.077  30.164  1.00  0.00     0.031 A 
ATOM     55  C   UNL A   1      38.530  30.316  32.261  1.00  0.00     0.131 A 
ATOM     56  C   UNL A   1      36.493  31.542  30.855  1.00  0.00     0.055 A 
ATOM     57  C   UNL A   1      37.368  30.706  32.931  1.00  0.00     0.041 A 
ATOM     58  F   UNL A   1      39.514  29.774  32.997  1.00  0.00    -0.206 F 
ATOM     59  C   UNL A   1      36.346  31.337  32.229  1.00  0.00     0.022 A 
BRANCH  56  60
ATOM     60  S   UNL A   1      35.275  32.543  29.957  1.00  0.00     0.124 S 
ATOM     61  O   UNL A   1      34.833  31.612  28.922  1.00  0.00    -0.237 OA
ATOM     62  O   UNL A   1      34.298  32.855  30.994  1.00  0.00    -0.237 OA
ATOM     63  O   UNL A   1      36.055  33.679  29.471  1.00  0.00    -0.744 OA
ENDBRANCH  56  60
ENDBRANCH  39  53
BRANCH  40  64
ATOM     64  C   UNL A   1      46.877  27.148  26.157  1.00  0.00     0.023 A 
ATOM     65  C   UNL A   1      47.941  26.502  26.803  1.00  0.00     0.031 A 
ATOM     66  C   UNL A   1      46.988  27.371  24.771  1.00  0.00     0.131 A 
ATOM     67  C   UNL A   1      49.083  26.135  26.074  1.00  0.00     0.055 A 
ATOM     68  C   UNL A   1      48.096  26.944  24.038  1.00  0.00     0.041 A 
ATOM     69  F   UNL A   1      46.006  27.995  24.101  1.00  0.00    -0.206 F 
ATOM     70  C   UNL A   1      49.159  26.333  24.693  1.00  0.00     0.022 A 
BRANCH  67  71
ATOM     71  S   UNL A   1      50.517  25.490  26.977  1.00  0.00     0.124 S 
ATOM     72  O   UNL A   1      50.864  26.622  27.828  1.00  0.00    -0.237 OA
ATOM     73  O   UNL A   1      49.951  24.328  27.654  1.00  0.00    -0.237 OA
ATOM     74  O   UNL A   1      51.477  25.187  25.918  1.00  0.00    -0.744 OA
ENDBRANCH  67  71
ENDBRANCH  40  64
BRANCH  52  75
ATOM     75  C   UNL A   1      45.150  33.227  29.115  1.00  0.00     0.023 A 
ATOM     76  C   UNL A   1      45.068  34.287  28.196  1.00  0.00     0.031 A 
ATOM     77  C   UNL A   1      45.973  33.389  30.244  1.00  0.00     0.131 A 
ATOM     78  C   UNL A   1      45.836  35.444  28.399  1.00  0.00     0.055 A 
ATOM     79  C   UNL A   1      46.685  34.566  30.472  1.00  0.00     0.041 A 
ATOM     80  F   UNL A   1      46.092  32.405  31.150  1.00  0.00    -0.206 F 
ATOM     81  C   UNL A   1      46.627  35.598  29.539  1.00  0.00     0.022 A 
BRANCH  78  82
ATOM     82  S   UNL A   1      45.851  36.717  27.107  1.00  0.00     0.124 S 
ATOM     83  O   UNL A   1      46.696  37.745  27.705  1.00  0.00    -0.237 OA
ATOM     84  O   UNL A   1      46.422  36.003  25.969  1.00  0.00    -0.237 OA
ATOM     85  O   UNL A   1      44.441  37.078  26.965  1.00  0.00    -0.744 OA
ENDBRANCH  78  82
ENDBRANCH  52  75
ENDBRANCH  26  27
ENDBRANCH  19  21
ENDBRANCH  18  19
ENDBRANCH   1  18
TORSDOF 17
ENDMDL
MODEL 3
REMARK VINA RESULT:     -10.1      5.047      8.022
REMARK SMILES CCC1(CC)C[NH+](C2(C(=O)OCCOC(=O)c3ccc(-c4c5nc(c(-c6cc(S(=O)(=O)[O-])ccc6F)c6ccc([nH]6)c(-c6cc(S(=O)(=O)[O-])ccc6F)c6nc(c(-c7cc(S(=O)(=O)[O-])ccc7F)c7ccc4[nH]7)C=C6)C=C5)cc3)CC2)C1
REMARK SMILES IDX 13 1 12 2 11 3 9 4 10 5 8 6 80 7 81 8 7 9 3 10 6 11 82 12
REMARK SMILES IDX 2 14 1 15 4 16 5 17 14 18 15 19 16 20 17 21 18 22 79 23
REMARK SMILES IDX 19 24 78 25 20 26 21 27 22 28 72 29 23 30 77 31 71 32 73 33
REMARK SMILES IDX 24 34 76 35 70 36 69 37 25 39 57 40 37 41 56 42 38 43 41 44
REMARK SMILES IDX 55 45 74 46 39 47 40 48 54 50 75 51 42 52 26 53 27 54 35 55
REMARK SMILES IDX 28 56 34 57 36 58 33 59 29 60 30 61 31 62 32 63 58 64 59 65
REMARK SMILES IDX 67 66 60 67 66 68 68 69 65 70 61 71 62 72 63 73 64 74 43 75
REMARK SMILES IDX 44 76 52 77 45 78 51 79 53 80 50 81 46 82 47 83 48 84 49 85
REMARK H PARENT 7 13 73 38 41 49
REMARK Flexibility Score: inf
ROOT
ATOM      1  C   UNL A   1      38.678  19.590  25.519  1.00  0.00     0.275 C 
ENDROOT
BRANCH   1   2
ATOM      2  C   UNL A   1      37.688  20.496  24.794  1.00  0.00     0.274 C 
BRANCH   2   3
ATOM      3  O   UNL A   1      36.354  20.001  24.993  1.00  0.00    -0.457 OA
BRANCH   3   4
ATOM      4  C   UNL A   1      35.445  20.875  25.518  1.00  0.00     0.368 C 
ATOM      5  O   UNL A   1      35.650  21.642  26.444  1.00  0.00    -0.245 OA
BRANCH   4   6
ATOM      6  C   UNL A   1      34.101  20.790  24.809  1.00  0.00     0.196 C 
ATOM      7  C   UNL A   1      32.925  20.300  25.640  1.00  0.00     0.088 C 
ATOM      8  C   UNL A   1      33.497  19.413  24.584  1.00  0.00     0.088 C 
BRANCH   6   9
ATOM      9  N   UNL A   1      33.960  21.892  23.829  1.00  0.00    -0.319 N 
ATOM     10  C   UNL A   1      33.968  24.020  24.061  1.00  0.00     0.068 C 
ATOM     11  C   UNL A   1      32.901  22.881  23.984  1.00  0.00     0.276 C 
ATOM     12  C   UNL A   1      35.000  22.904  23.691  1.00  0.00     0.276 C 
ATOM     13  H   UNL A   1      33.871  21.199  23.085  1.00  0.00     0.349 HD
BRANCH  10  14
ATOM     14  C   UNL A   1      33.846  25.111  22.978  1.00  0.00     0.015 C 
ATOM     15  C   UNL A   1      32.440  25.225  22.407  1.00  0.00     0.005 C 
ENDBRANCH  10  14
BRANCH  10  16
ATOM     16  C   UNL A   1      34.095  24.579  25.491  1.00  0.00     0.015 C 
ATOM     17  C   UNL A   1      33.882  26.081  25.575  1.00  0.00     0.005 C 
ENDBRANCH  10  16
ENDBRANCH   6   9
ENDBRANCH   4   6
ENDBRANCH   3   4
ENDBRANCH   2   3
ENDBRANCH   1   2
BRANCH   1  18
ATOM     18  O   UNL A   1      39.941  20.263  25.661  1.00  0.00    -0.458 OA
BRANCH  18  19
ATOM     19  C   UNL A   1      40.387  20.364  26.935  1.00  0.00     0.338 C 
ATOM     20  O   UNL A   1      40.632  19.454  27.710  1.00  0.00    -0.246 OA
BRANCH  19  21
ATOM     21  C   UNL A   1      40.559  21.778  27.293  1.00  0.00     0.060 A 
ATOM     22  C   UNL A   1      39.829  22.745  26.611  1.00  0.00     0.016 A 
ATOM     23  C   UNL A   1      41.586  22.150  28.156  1.00  0.00     0.016 A 
ATOM     24  C   UNL A   1      40.232  24.078  26.669  1.00  0.00     0.010 A 
ATOM     25  C   UNL A   1      41.888  23.505  28.322  1.00  0.00     0.010 A 
ATOM     26  C   UNL A   1      41.251  24.487  27.541  1.00  0.00    -0.014 A 
BRANCH  26  27
ATOM     27  C   UNL A   1      41.668  25.921  27.634  1.00  0.00     0.031 A 
ATOM     28  C   UNL A   1      42.970  26.380  27.017  1.00  0.00     0.074 A 
ATOM     29  C   UNL A   1      40.898  26.817  28.287  1.00  0.00     0.049 A 
ATOM     30  N   UNL A   1      43.626  27.500  27.196  1.00  0.00    -0.248 NA
ATOM     31  C   UNL A   1      43.630  25.447  26.091  1.00  0.00     0.031 C 
ATOM     32  C   UNL A   1      39.586  26.541  28.877  1.00  0.00     0.029 A 
ATOM     33  N   UNL A   1      41.110  28.145  28.576  1.00  0.00    -0.354 N 
ATOM     34  C   UNL A   1      44.796  27.385  26.448  1.00  0.00     0.074 A 
ATOM     35  C   UNL A   1      44.763  26.080  25.823  1.00  0.00     0.031 C 
ATOM     36  C   UNL A   1      39.099  27.663  29.423  1.00  0.00     0.029 A 
ATOM     37  C   UNL A   1      40.113  28.705  29.345  1.00  0.00     0.049 A 
ATOM     38  H   UNL A   1      41.897  28.647  28.264  1.00  0.00     0.167 HD
ATOM     39  C   UNL A   1      45.805  28.283  26.305  1.00  0.00     0.034 A 
ATOM     40  C   UNL A   1      40.042  29.889  29.983  1.00  0.00     0.034 A 
ATOM     41  C   UNL A   1      45.807  29.590  26.921  1.00  0.00     0.049 A 
ATOM     42  C   UNL A   1      41.212  30.831  29.893  1.00  0.00     0.074 A 
ATOM     43  C   UNL A   1      46.772  30.580  26.842  1.00  0.00     0.029 A 
ATOM     44  N   UNL A   1      44.794  30.092  27.731  1.00  0.00    -0.354 N 
ATOM     45  N   UNL A   1      42.343  30.683  29.241  1.00  0.00    -0.248 NA
ATOM     46  C   UNL A   1      41.105  32.095  30.632  1.00  0.00     0.031 C 
ATOM     47  C   UNL A   1      46.382  31.644  27.661  1.00  0.00     0.029 A 
ATOM     48  C   UNL A   1      45.129  31.361  28.180  1.00  0.00     0.049 A 
ATOM     49  H   UNL A   1      43.962  29.616  27.953  1.00  0.00     0.167 HD
ATOM     50  C   UNL A   1      43.065  31.849  29.468  1.00  0.00     0.074 A 
ATOM     51  C   UNL A   1      42.241  32.693  30.308  1.00  0.00     0.031 C 
ATOM     52  C   UNL A   1      44.297  32.194  29.017  1.00  0.00     0.034 A 
BRANCH  39  53
ATOM     53  C   UNL A   1      47.021  27.861  25.510  1.00  0.00     0.023 A 
ATOM     54  C   UNL A   1      47.161  28.147  24.141  1.00  0.00     0.031 A 
ATOM     55  C   UNL A   1      48.061  27.151  26.140  1.00  0.00     0.131 A 
ATOM     56  C   UNL A   1      48.280  27.672  23.437  1.00  0.00     0.055 A 
ATOM     57  C   UNL A   1      49.209  26.753  25.452  1.00  0.00     0.041 A 
ATOM     58  F   UNL A   1      47.977  26.827  27.441  1.00  0.00    -0.206 F 
ATOM     59  C   UNL A   1      49.317  27.001  24.088  1.00  0.00     0.022 A 
BRANCH  56  60
ATOM     60  S   UNL A   1      48.298  27.824  21.629  1.00  0.00     0.124 S 
ATOM     61  O   UNL A   1      48.576  26.451  21.219  1.00  0.00    -0.237 OA
ATOM     62  O   UNL A   1      46.957  28.318  21.340  1.00  0.00    -0.237 OA
ATOM     63  O   UNL A   1      49.381  28.773  21.375  1.00  0.00    -0.744 OA
ENDBRANCH  56  60
ENDBRANCH  39  53
BRANCH  40  64
ATOM     64  C   UNL A   1      38.860  30.216  30.834  1.00  0.00     0.023 A 
ATOM     65  C   UNL A   1      37.789  30.966  30.328  1.00  0.00     0.031 A 
ATOM     66  C   UNL A   1      38.800  29.809  32.181  1.00  0.00     0.131 A 
ATOM     67  C   UNL A   1      36.723  31.320  31.171  1.00  0.00     0.055 A 
ATOM     68  C   UNL A   1      37.706  30.105  32.996  1.00  0.00     0.041 A 
ATOM     69  F   UNL A   1      39.801  29.098  32.723  1.00  0.00    -0.206 F 
ATOM     70  C   UNL A   1      36.664  30.877  32.495  1.00  0.00     0.022 A 
BRANCH  67  71
ATOM     71  S   UNL A   1      35.462  32.460  30.540  1.00  0.00     0.124 S 
ATOM     72  O   UNL A   1      36.154  33.741  30.621  1.00  0.00    -0.237 OA
ATOM     73  O   UNL A   1      35.228  31.940  29.198  1.00  0.00    -0.237 OA
ATOM     74  O   UNL A   1      34.353  32.290  31.476  1.00  0.00    -0.744 OA
ENDBRANCH  67  71
ENDBRANCH  40  64
BRANCH  52  75
ATOM     75  C   UNL A   1      44.795  33.575  29.363  1.00  0.00     0.023 A 
ATOM     76  C   UNL A   1      44.569  34.681  28.526  1.00  0.00     0.031 A 
ATOM     77  C   UNL A   1      45.512  33.781  30.556  1.00  0.00     0.131 A 
ATOM     78  C   UNL A   1      45.098  35.935  28.871  1.00  0.00     0.055 A 
ATOM     79  C   UNL A   1      45.980  35.042  30.924  1.00  0.00     0.041 A 
ATOM     80  F   UNL A   1      45.761  32.757  31.388  1.00  0.00    -0.206 F 
ATOM     81  C   UNL A   1      45.784  36.126  30.073  1.00  0.00     0.022 A 
BRANCH  78  82
ATOM     82  S   UNL A   1      44.947  37.301  27.687  1.00  0.00     0.124 S 
ATOM     83  O   UNL A   1      45.763  36.828  26.574  1.00  0.00    -0.237 OA
ATOM     84  O   UNL A   1      43.508  37.352  27.448  1.00  0.00    -0.237 OA
ATOM     85  O   UNL A   1      45.494  38.446  28.414  1.00  0.00    -0.744 OA
ENDBRANCH  78  82
ENDBRANCH  52  75
ENDBRANCH  26  27
ENDBRANCH  19  21
ENDBRANCH  18  19
ENDBRANCH   1  18
TORSDOF 17
ENDMDL
