MODEL 1
REMARK VINA RESULT:     -12.9      0.000      0.000
REMARK SMILES Cc1ccc(-c2c(C(=O)OCCOC(=O)c3ccc(-c4c5nc(c(-c6cc(S(=O)(=O)[O-])ccc6F)c6ccc([nH]6)c(-c6cc(S(=O)(=O)[O-])ccc6F)c6nc(c(-c7cc(S(=O)(=O)[O-])ccc7F)c7ccc4[nH]7)C=C6)C=C5)cc3)nnn2Cc2c(F)cccc2Cl)cc1
REMARK SMILES IDX 12 1 11 2 10 3 8 4 9 5 7 6 6 7 81 8 79 9 80 10 5 11 1 12
REMARK SMILES IDX 2 13 3 14 92 15 4 16 91 17 82 18 83 19 84 20 89 21 85 22
REMARK SMILES IDX 86 23 88 24 90 25 87 26 13 27 14 28 15 29 16 30 17 31 78 32
REMARK SMILES IDX 18 33 77 34 19 35 20 36 21 37 71 38 22 39 76 40 70 41 72 42
REMARK SMILES IDX 23 43 75 44 69 45 68 46 24 48 56 49 36 50 55 51 37 52 40 53
REMARK SMILES IDX 54 54 73 55 38 56 39 57 53 59 74 60 41 61 25 62 26 63 34 64
REMARK SMILES IDX 27 65 33 66 35 67 32 68 28 69 29 70 30 71 31 72 57 73 58 74
REMARK SMILES IDX 66 75 59 76 65 77 67 78 64 79 60 80 61 81 62 82 63 83 42 84
REMARK SMILES IDX 43 85 51 86 44 87 50 88 52 89 49 90 45 91 46 92 47 93 48 94
REMARK H PARENT 72 47 40 58
REMARK Flexibility Score: inf
ROOT
ATOM      1  C   UNL A   1      34.071  30.899  27.618  1.00  0.00     0.275 C 
ENDROOT
BRANCH   1   2
ATOM      2  C   UNL A   1      33.222  29.955  26.765  1.00  0.00     0.275 C 
BRANCH   2   3
ATOM      3  O   UNL A   1      33.760  28.634  26.823  1.00  0.00    -0.457 OA
BRANCH   3   4
ATOM      4  C   UNL A   1      33.501  27.879  25.724  1.00  0.00     0.361 C 
ATOM      5  O   UNL A   1      33.937  28.136  24.602  1.00  0.00    -0.244 OA
BRANCH   4   6
ATOM      6  C   UNL A   1      32.626  26.757  26.003  1.00  0.00     0.198 A 
ATOM      7  C   UNL A   1      32.983  25.418  25.941  1.00  0.00     0.104 A 
ATOM      8  N   UNL A   1      31.889  24.778  26.464  1.00  0.00    -0.239 N 
ATOM      9  N   UNL A   1      31.310  26.859  26.363  1.00  0.00    -0.122 NA
ATOM     10  N   UNL A   1      30.862  25.640  26.630  1.00  0.00    -0.066 NA
BRANCH   7  11
ATOM     11  C   UNL A   1      34.227  24.876  25.429  1.00  0.00     0.002 A 
ATOM     12  C   UNL A   1      37.176  22.049  24.091  1.00  0.00     0.044 C 
ATOM     13  C   UNL A   1      36.231  23.117  24.553  1.00  0.00    -0.051 A 
ATOM     14  C   UNL A   1      35.325  23.668  23.642  1.00  0.00     0.004 A 
ATOM     15  C   UNL A   1      36.167  23.501  25.897  1.00  0.00     0.004 A 
ATOM     16  C   UNL A   1      34.331  24.543  24.077  1.00  0.00     0.011 A 
ATOM     17  C   UNL A   1      35.171  24.378  26.333  1.00  0.00     0.011 A 
ENDBRANCH   7  11
BRANCH   8  18
ATOM     18  C   UNL A   1      31.663  23.380  26.801  1.00  0.00     0.187 C 
BRANCH  18  19
ATOM     19  C   UNL A   1      32.177  22.382  25.799  1.00  0.00     0.028 A 
ATOM     20  C   UNL A   1      33.143  21.461  26.225  1.00  0.00     0.129 A 
ATOM     21  C   UNL A   1      31.787  22.334  24.452  1.00  0.00     0.049 A 
ATOM     22  F   UNL A   1      33.608  21.519  27.482  1.00  0.00    -0.207 F 
ATOM     23  C   UNL A   1      33.658  20.483  25.378  1.00  0.00     0.040 A 
ATOM     24  C   UNL A   1      32.273  21.332  23.603  1.00  0.00     0.021 A 
ATOM     25  Cl  UNL A   1      30.707  23.491  23.764  1.00  0.00    -0.084 Cl
ATOM     26  C   UNL A   1      33.203  20.402  24.067  1.00  0.00     0.005 A 
ENDBRANCH  18  19
ENDBRANCH   8  18
ENDBRANCH   4   6
ENDBRANCH   3   4
ENDBRANCH   2   3
ENDBRANCH   1   2
BRANCH   1  27
ATOM     27  O   UNL A   1      35.515  30.672  27.616  1.00  0.00    -0.458 OA
BRANCH  27  28
ATOM     28  C   UNL A   1      36.390  30.503  28.651  1.00  0.00     0.338 C 
ATOM     29  O   UNL A   1      36.167  30.990  29.755  1.00  0.00    -0.246 OA
BRANCH  28  30
ATOM     30  C   UNL A   1      37.542  29.596  28.459  1.00  0.00     0.060 A 
ATOM     31  C   UNL A   1      38.350  29.677  27.310  1.00  0.00     0.016 A 
ATOM     32  C   UNL A   1      37.877  28.715  29.471  1.00  0.00     0.016 A 
ATOM     33  C   UNL A   1      39.543  28.945  27.238  1.00  0.00     0.010 A 
ATOM     34  C   UNL A   1      39.136  28.171  29.494  1.00  0.00     0.010 A 
ATOM     35  C   UNL A   1      39.950  28.216  28.357  1.00  0.00    -0.014 A 
BRANCH  35  36
ATOM     36  C   UNL A   1      41.081  27.289  28.406  1.00  0.00     0.031 A 
ATOM     37  C   UNL A   1      40.946  25.830  28.297  1.00  0.00     0.074 A 
ATOM     38  C   UNL A   1      42.293  27.868  28.544  1.00  0.00     0.049 A 
ATOM     39  N   UNL A   1      41.687  24.970  28.912  1.00  0.00    -0.248 NA
ATOM     40  C   UNL A   1      39.941  25.213  27.445  1.00  0.00     0.031 C 
ATOM     41  C   UNL A   1      43.631  27.306  28.513  1.00  0.00     0.029 A 
ATOM     42  N   UNL A   1      42.516  29.173  28.943  1.00  0.00    -0.354 N 
ATOM     43  C   UNL A   1      41.497  23.751  28.291  1.00  0.00     0.074 A 
ATOM     44  C   UNL A   1      40.307  23.925  27.493  1.00  0.00     0.031 C 
ATOM     45  C   UNL A   1      44.462  28.157  29.154  1.00  0.00     0.029 A 
ATOM     46  C   UNL A   1      43.643  29.221  29.732  1.00  0.00     0.049 A 
ATOM     47  H   UNL A   1      41.957  29.946  28.700  1.00  0.00     0.167 HD
ATOM     48  C   UNL A   1      42.479  22.801  28.347  1.00  0.00     0.034 A 
ATOM     49  C   UNL A   1      43.467  29.488  31.063  1.00  0.00     0.034 A 
ATOM     50  C   UNL A   1      43.632  23.302  29.099  1.00  0.00     0.049 A 
ATOM     51  C   UNL A   1      43.876  28.299  31.898  1.00  0.00     0.074 A 
ATOM     52  C   UNL A   1      44.839  23.838  28.680  1.00  0.00     0.029 A 
ATOM     53  N   UNL A   1      43.505  23.622  30.446  1.00  0.00    -0.354 N 
ATOM     54  N   UNL A   1      43.846  27.059  31.486  1.00  0.00    -0.248 NA
ATOM     55  C   UNL A   1      44.425  28.439  33.237  1.00  0.00     0.031 C 
ATOM     56  C   UNL A   1      45.389  24.572  29.763  1.00  0.00     0.029 A 
ATOM     57  C   UNL A   1      44.540  24.446  30.851  1.00  0.00     0.049 A 
ATOM     58  H   UNL A   1      42.780  23.305  31.032  1.00  0.00     0.167 HD
ATOM     59  C   UNL A   1      44.437  26.254  32.425  1.00  0.00     0.074 A 
ATOM     60  C   UNL A   1      44.775  27.170  33.505  1.00  0.00     0.031 C 
ATOM     61  C   UNL A   1      44.631  24.912  32.229  1.00  0.00     0.034 A 
BRANCH  48  62
ATOM     62  C   UNL A   1      42.567  21.591  27.426  1.00  0.00     0.023 A 
ATOM     63  C   UNL A   1      43.642  21.489  26.513  1.00  0.00     0.031 A 
ATOM     64  C   UNL A   1      41.637  20.535  27.367  1.00  0.00     0.131 A 
ATOM     65  C   UNL A   1      43.698  20.474  25.538  1.00  0.00     0.055 A 
ATOM     66  C   UNL A   1      41.662  19.550  26.367  1.00  0.00     0.041 A 
ATOM     67  F   UNL A   1      40.692  20.378  28.306  1.00  0.00    -0.206 F 
ATOM     68  C   UNL A   1      42.688  19.525  25.433  1.00  0.00     0.022 A 
BRANCH  65  69
ATOM     69  S   UNL A   1      45.122  20.401  24.413  1.00  0.00     0.124 S 
ATOM     70  O   UNL A   1      45.172  18.984  24.067  1.00  0.00    -0.237 OA
ATOM     71  O   UNL A   1      44.722  21.313  23.348  1.00  0.00    -0.237 OA
ATOM     72  O   UNL A   1      46.233  20.872  25.240  1.00  0.00    -0.744 OA
ENDBRANCH  65  69
ENDBRANCH  48  62
BRANCH  49  73
ATOM     73  C   UNL A   1      42.321  30.424  31.364  1.00  0.00     0.023 A 
ATOM     74  C   UNL A   1      41.098  29.849  31.787  1.00  0.00     0.031 A 
ATOM     75  C   UNL A   1      42.470  31.805  31.563  1.00  0.00     0.131 A 
ATOM     76  C   UNL A   1      40.168  30.586  32.540  1.00  0.00     0.055 A 
ATOM     77  C   UNL A   1      41.494  32.561  32.238  1.00  0.00     0.041 A 
ATOM     78  F   UNL A   1      43.592  32.435  31.187  1.00  0.00    -0.206 F 
ATOM     79  C   UNL A   1      40.355  31.947  32.767  1.00  0.00     0.022 A 
BRANCH  76  80
ATOM     80  S   UNL A   1      38.896  29.656  33.452  1.00  0.00     0.124 S 
ATOM     81  O   UNL A   1      37.661  30.240  32.943  1.00  0.00    -0.237 OA
ATOM     82  O   UNL A   1      39.168  28.278  33.039  1.00  0.00    -0.237 OA
ATOM     83  O   UNL A   1      39.196  29.929  34.853  1.00  0.00    -0.744 OA
ENDBRANCH  76  80
ENDBRANCH  49  73
BRANCH  61  84
ATOM     84  C   UNL A   1      45.052  23.922  33.294  1.00  0.00     0.023 A 
ATOM     85  C   UNL A   1      46.347  23.878  33.819  1.00  0.00     0.031 A 
ATOM     86  C   UNL A   1      44.128  23.020  33.878  1.00  0.00     0.131 A 
ATOM     87  C   UNL A   1      46.721  22.912  34.765  1.00  0.00     0.055 A 
ATOM     88  C   UNL A   1      44.474  22.129  34.898  1.00  0.00     0.041 A 
ATOM     89  F   UNL A   1      42.843  22.969  33.500  1.00  0.00    -0.206 F 
ATOM     90  C   UNL A   1      45.787  22.052  35.332  1.00  0.00     0.022 A 
BRANCH  87  91
ATOM     91  S   UNL A   1      48.481  22.757  35.155  1.00  0.00     0.124 S 
ATOM     92  O   UNL A   1      49.095  23.491  34.050  1.00  0.00    -0.237 OA
ATOM     93  O   UNL A   1      48.570  23.394  36.464  1.00  0.00    -0.237 OA
ATOM     94  O   UNL A   1      48.709  21.315  35.145  1.00  0.00    -0.744 OA
ENDBRANCH  87  91
ENDBRANCH  61  84
ENDBRANCH  35  36
ENDBRANCH  28  30
ENDBRANCH  27  28
ENDBRANCH   1  27
TORSDOF 17
ENDMDL
MODEL 2
REMARK VINA RESULT:     -12.8      1.999      2.482
REMARK SMILES Cc1ccc(-c2c(C(=O)OCCOC(=O)c3ccc(-c4c5nc(c(-c6cc(S(=O)(=O)[O-])ccc6F)c6ccc([nH]6)c(-c6cc(S(=O)(=O)[O-])ccc6F)c6nc(c(-c7cc(S(=O)(=O)[O-])ccc7F)c7ccc4[nH]7)C=C6)C=C5)cc3)nnn2Cc2c(F)cccc2Cl)cc1
REMARK SMILES IDX 12 1 11 2 10 3 8 4 9 5 7 6 6 7 81 8 79 9 80 10 5 11 1 12
REMARK SMILES IDX 2 13 3 14 92 15 4 16 91 17 82 18 83 19 84 20 89 21 85 22
REMARK SMILES IDX 86 23 88 24 90 25 87 26 13 27 14 28 15 29 16 30 17 31 78 32
REMARK SMILES IDX 18 33 77 34 19 35 20 36 21 37 71 38 22 39 76 40 70 41 72 42
REMARK SMILES IDX 23 43 75 44 69 45 68 46 24 48 56 49 36 50 55 51 37 52 40 53
REMARK SMILES IDX 54 54 73 55 38 56 39 57 53 59 74 60 41 61 25 62 26 63 34 64
REMARK SMILES IDX 27 65 33 66 35 67 32 68 28 69 29 70 30 71 31 72 57 73 58 74
REMARK SMILES IDX 66 75 59 76 65 77 67 78 64 79 60 80 61 81 62 82 63 83 42 84
REMARK SMILES IDX 43 85 51 86 44 87 50 88 52 89 49 90 45 91 46 92 47 93 48 94
REMARK H PARENT 72 47 40 58
REMARK Flexibility Score: inf
ROOT
ATOM      1  C   UNL A   1      34.059  28.831  27.027  1.00  0.00     0.275 C 
ENDROOT
BRANCH   1   2
ATOM      2  C   UNL A   1      33.498  29.220  25.658  1.00  0.00     0.275 C 
BRANCH   2   3
ATOM      3  O   UNL A   1      34.042  28.366  24.651  1.00  0.00    -0.457 OA
BRANCH   3   4
ATOM      4  C   UNL A   1      33.122  27.869  23.785  1.00  0.00     0.361 C 
ATOM      5  O   UNL A   1      32.984  28.272  22.630  1.00  0.00    -0.244 OA
BRANCH   4   6
ATOM      6  C   UNL A   1      32.290  26.839  24.375  1.00  0.00     0.198 A 
ATOM      7  C   UNL A   1      32.724  25.590  24.794  1.00  0.00     0.104 A 
ATOM      8  N   UNL A   1      31.627  25.075  25.436  1.00  0.00    -0.239 N 
ATOM      9  N   UNL A   1      30.944  26.949  24.599  1.00  0.00    -0.122 NA
ATOM     10  N   UNL A   1      30.544  25.858  25.237  1.00  0.00    -0.066 NA
BRANCH   7  11
ATOM     11  C   UNL A   1      34.035  25.009  24.574  1.00  0.00     0.002 A 
ATOM     12  C   UNL A   1      37.226  22.134  24.416  1.00  0.00     0.044 C 
ATOM     13  C   UNL A   1      36.193  23.219  24.447  1.00  0.00    -0.051 A 
ATOM     14  C   UNL A   1      35.353  23.395  23.343  1.00  0.00     0.004 A 
ATOM     15  C   UNL A   1      35.983  23.992  25.594  1.00  0.00     0.004 A 
ATOM     16  C   UNL A   1      34.283  24.286  23.406  1.00  0.00     0.011 A 
ATOM     17  C   UNL A   1      34.911  24.885  25.658  1.00  0.00     0.011 A 
ENDBRANCH   7  11
BRANCH   8  18
ATOM     18  C   UNL A   1      31.451  23.858  26.214  1.00  0.00     0.187 C 
BRANCH  18  19
ATOM     19  C   UNL A   1      32.129  22.634  25.661  1.00  0.00     0.028 A 
ATOM     20  C   UNL A   1      31.756  22.195  24.384  1.00  0.00     0.129 A 
ATOM     21  C   UNL A   1      33.082  21.872  26.354  1.00  0.00     0.049 A 
ATOM     22  F   UNL A   1      30.791  22.843  23.715  1.00  0.00    -0.207 F 
ATOM     23  C   UNL A   1      32.347  21.090  23.779  1.00  0.00     0.040 A 
ATOM     24  C   UNL A   1      33.707  20.779  25.740  1.00  0.00     0.021 A 
ATOM     25  Cl  UNL A   1      33.535  22.222  27.983  1.00  0.00    -0.084 Cl
ATOM     26  C   UNL A   1      33.345  20.392  24.449  1.00  0.00     0.005 A 
ENDBRANCH  18  19
ENDBRANCH   8  18
ENDBRANCH   4   6
ENDBRANCH   3   4
ENDBRANCH   2   3
ENDBRANCH   1   2
BRANCH   1  27
ATOM     27  O   UNL A   1      34.500  29.922  27.893  1.00  0.00    -0.458 OA
BRANCH  27  28
ATOM     28  C   UNL A   1      35.617  30.706  27.837  1.00  0.00     0.338 C 
ATOM     29  O   UNL A   1      35.529  31.927  27.758  1.00  0.00    -0.246 OA
BRANCH  28  30
ATOM     30  C   UNL A   1      36.938  30.068  28.024  1.00  0.00     0.060 A 
ATOM     31  C   UNL A   1      37.214  29.285  29.161  1.00  0.00     0.016 A 
ATOM     32  C   UNL A   1      37.882  30.174  27.021  1.00  0.00     0.016 A 
ATOM     33  C   UNL A   1      38.395  28.535  29.227  1.00  0.00     0.010 A 
ATOM     34  C   UNL A   1      38.926  29.283  26.987  1.00  0.00     0.010 A 
ATOM     35  C   UNL A   1      39.236  28.512  28.112  1.00  0.00    -0.014 A 
BRANCH  35  36
ATOM     36  C   UNL A   1      40.567  27.906  28.061  1.00  0.00     0.031 A 
ATOM     37  C   UNL A   1      40.803  26.468  27.876  1.00  0.00     0.074 A 
ATOM     38  C   UNL A   1      41.597  28.771  28.180  1.00  0.00     0.049 A 
ATOM     39  N   UNL A   1      41.771  25.802  28.410  1.00  0.00    -0.248 NA
ATOM     40  C   UNL A   1      39.943  25.650  27.034  1.00  0.00     0.031 C 
ATOM     41  C   UNL A   1      43.031  28.574  28.062  1.00  0.00     0.029 A 
ATOM     42  N   UNL A   1      41.502  30.071  28.642  1.00  0.00    -0.354 N 
ATOM     43  C   UNL A   1      41.864  24.603  27.730  1.00  0.00     0.074 A 
ATOM     44  C   UNL A   1      40.627  24.500  26.993  1.00  0.00     0.031 C 
ATOM     45  C   UNL A   1      43.651  29.582  28.714  1.00  0.00     0.029 A 
ATOM     46  C   UNL A   1      42.622  30.373  29.385  1.00  0.00     0.049 A 
ATOM     47  H   UNL A   1      40.752  30.684  28.467  1.00  0.00     0.167 HD
ATOM     48  C   UNL A   1      43.058  23.936  27.692  1.00  0.00     0.034 A 
ATOM     49  C   UNL A   1      42.457  30.527  30.735  1.00  0.00     0.034 A 
ATOM     50  C   UNL A   1      44.084  24.684  28.421  1.00  0.00     0.049 A 
ATOM     51  C   UNL A   1      43.200  29.448  31.484  1.00  0.00     0.074 A 
ATOM     52  C   UNL A   1      45.089  25.530  27.983  1.00  0.00     0.029 A 
ATOM     53  N   UNL A   1      43.955  24.902  29.789  1.00  0.00    -0.354 N 
ATOM     54  N   UNL A   1      43.465  28.262  31.005  1.00  0.00    -0.248 NA
ATOM     55  C   UNL A   1      43.768  29.666  32.804  1.00  0.00     0.031 C 
ATOM     56  C   UNL A   1      45.493  26.333  29.081  1.00  0.00     0.029 A 
ATOM     57  C   UNL A   1      44.765  25.945  30.195  1.00  0.00     0.049 A 
ATOM     58  H   UNL A   1      43.367  24.383  30.385  1.00  0.00     0.167 HD
ATOM     59  C   UNL A   1      44.292  27.596  31.871  1.00  0.00     0.074 A 
ATOM     60  C   UNL A   1      44.445  28.519  32.985  1.00  0.00     0.031 C 
ATOM     61  C   UNL A   1      44.811  26.359  31.592  1.00  0.00     0.034 A 
BRANCH  48  62
ATOM     62  C   UNL A   1      43.400  22.831  26.701  1.00  0.00     0.023 A 
ATOM     63  C   UNL A   1      42.857  21.538  26.886  1.00  0.00     0.031 A 
ATOM     64  C   UNL A   1      44.256  22.961  25.590  1.00  0.00     0.131 A 
ATOM     65  C   UNL A   1      43.252  20.444  26.092  1.00  0.00     0.055 A 
ATOM     66  C   UNL A   1      44.688  21.864  24.826  1.00  0.00     0.041 A 
ATOM     67  F   UNL A   1      44.670  24.162  25.159  1.00  0.00    -0.206 F 
ATOM     68  C   UNL A   1      44.200  20.593  25.087  1.00  0.00     0.022 A 
BRANCH  65  69
ATOM     69  S   UNL A   1      42.495  18.818  26.382  1.00  0.00     0.124 S 
ATOM     70  O   UNL A   1      43.485  17.909  25.813  1.00  0.00    -0.237 OA
ATOM     71  O   UNL A   1      42.356  18.796  27.834  1.00  0.00    -0.237 OA
ATOM     72  O   UNL A   1      41.234  18.894  25.646  1.00  0.00    -0.744 OA
ENDBRANCH  65  69
ENDBRANCH  48  62
BRANCH  49  73
ATOM     73  C   UNL A   1      41.128  31.123  31.136  1.00  0.00     0.023 A 
ATOM     74  C   UNL A   1      40.102  30.232  31.532  1.00  0.00     0.031 A 
ATOM     75  C   UNL A   1      40.941  32.478  31.448  1.00  0.00     0.131 A 
ATOM     76  C   UNL A   1      39.050  30.654  32.362  1.00  0.00     0.055 A 
ATOM     77  C   UNL A   1      39.835  32.914  32.203  1.00  0.00     0.041 A 
ATOM     78  F   UNL A   1      41.857  33.394  31.105  1.00  0.00    -0.206 F 
ATOM     79  C   UNL A   1      38.905  31.997  32.700  1.00  0.00     0.022 A 
BRANCH  76  80
ATOM     80  S   UNL A   1      38.083  29.369  33.217  1.00  0.00     0.124 S 
ATOM     81  O   UNL A   1      38.841  28.160  32.917  1.00  0.00    -0.237 OA
ATOM     82  O   UNL A   1      38.131  29.824  34.607  1.00  0.00    -0.237 OA
ATOM     83  O   UNL A   1      36.762  29.457  32.606  1.00  0.00    -0.744 OA
ENDBRANCH  76  80
ENDBRANCH  49  73
BRANCH  61  84
ATOM     84  C   UNL A   1      45.528  25.465  32.581  1.00  0.00     0.023 A 
ATOM     85  C   UNL A   1      44.884  24.446  33.288  1.00  0.00     0.031 A 
ATOM     86  C   UNL A   1      46.926  25.565  32.796  1.00  0.00     0.131 A 
ATOM     87  C   UNL A   1      45.565  23.671  34.239  1.00  0.00     0.055 A 
ATOM     88  C   UNL A   1      47.625  24.722  33.665  1.00  0.00     0.041 A 
ATOM     89  F   UNL A   1      47.682  26.473  32.164  1.00  0.00    -0.206 F 
ATOM     90  C   UNL A   1      46.939  23.781  34.415  1.00  0.00     0.022 A 
BRANCH  87  91
ATOM     91  S   UNL A   1      44.578  22.589  35.301  1.00  0.00     0.124 S 
ATOM     92  O   UNL A   1      43.278  23.257  35.281  1.00  0.00    -0.237 OA
ATOM     93  O   UNL A   1      44.643  21.313  34.596  1.00  0.00    -0.237 OA
ATOM     94  O   UNL A   1      45.279  22.631  36.582  1.00  0.00    -0.744 OA
ENDBRANCH  87  91
ENDBRANCH  61  84
ENDBRANCH  35  36
ENDBRANCH  28  30
ENDBRANCH  27  28
ENDBRANCH   1  27
TORSDOF 17
ENDMDL
MODEL 3
REMARK VINA RESULT:     -12.7      1.943      2.408
REMARK SMILES Cc1ccc(-c2c(C(=O)OCCOC(=O)c3ccc(-c4c5nc(c(-c6cc(S(=O)(=O)[O-])ccc6F)c6ccc([nH]6)c(-c6cc(S(=O)(=O)[O-])ccc6F)c6nc(c(-c7cc(S(=O)(=O)[O-])ccc7F)c7ccc4[nH]7)C=C6)C=C5)cc3)nnn2Cc2c(F)cccc2Cl)cc1
REMARK SMILES IDX 12 1 11 2 10 3 8 4 9 5 7 6 6 7 81 8 79 9 80 10 5 11 1 12
REMARK SMILES IDX 2 13 3 14 92 15 4 16 91 17 82 18 83 19 84 20 89 21 85 22
REMARK SMILES IDX 86 23 88 24 90 25 87 26 13 27 14 28 15 29 16 30 17 31 78 32
REMARK SMILES IDX 18 33 77 34 19 35 20 36 21 37 71 38 22 39 76 40 70 41 72 42
REMARK SMILES IDX 23 43 75 44 69 45 68 46 24 48 56 49 36 50 55 51 37 52 40 53
REMARK SMILES IDX 54 54 73 55 38 56 39 57 53 59 74 60 41 61 25 62 26 63 34 64
REMARK SMILES IDX 27 65 33 66 35 67 32 68 28 69 29 70 30 71 31 72 57 73 58 74
REMARK SMILES IDX 66 75 59 76 65 77 67 78 64 79 60 80 61 81 62 82 63 83 42 84
REMARK SMILES IDX 43 85 51 86 44 87 50 88 52 89 49 90 45 91 46 92 47 93 48 94
REMARK H PARENT 72 47 40 58
REMARK Flexibility Score: inf
ROOT
ATOM      1  C   UNL A   1      34.524  29.072  27.197  1.00  0.00     0.275 C 
ENDROOT
BRANCH   1   2
ATOM      2  C   UNL A   1      33.618  29.030  25.966  1.00  0.00     0.275 C 
BRANCH   2   3
ATOM      3  O   UNL A   1      33.975  27.923  25.139  1.00  0.00    -0.457 OA
BRANCH   3   4
ATOM      4  C   UNL A   1      33.224  27.802  24.014  1.00  0.00     0.361 C 
ATOM      5  O   UNL A   1      33.304  28.568  23.054  1.00  0.00    -0.244 OA
BRANCH   4   6
ATOM      6  C   UNL A   1      32.288  26.697  24.076  1.00  0.00     0.198 A 
ATOM      7  C   UNL A   1      32.625  25.356  24.195  1.00  0.00     0.104 A 
ATOM      8  N   UNL A   1      31.415  24.745  24.398  1.00  0.00    -0.239 N 
ATOM      9  N   UNL A   1      30.926  26.817  24.019  1.00  0.00    -0.122 NA
ATOM     10  N   UNL A   1      30.399  25.615  24.203  1.00  0.00    -0.066 NA
BRANCH   7  11
ATOM     11  C   UNL A   1      33.957  24.787  24.109  1.00  0.00     0.002 A 
ATOM     12  C   UNL A   1      37.195  21.974  24.393  1.00  0.00     0.044 C 
ATOM     13  C   UNL A   1      36.145  23.037  24.269  1.00  0.00    -0.051 A 
ATOM     14  C   UNL A   1      35.379  23.109  23.101  1.00  0.00     0.004 A 
ATOM     15  C   UNL A   1      35.846  23.894  25.334  1.00  0.00     0.004 A 
ATOM     16  C   UNL A   1      34.294  23.979  23.022  1.00  0.00     0.011 A 
ATOM     17  C   UNL A   1      34.759  24.767  25.255  1.00  0.00     0.011 A 
ENDBRANCH   7  11
BRANCH   8  18
ATOM     18  C   UNL A   1      31.076  23.368  24.725  1.00  0.00     0.187 C 
BRANCH  18  19
ATOM     19  C   UNL A   1      32.051  22.658  25.625  1.00  0.00     0.028 A 
ATOM     20  C   UNL A   1      32.271  23.186  26.903  1.00  0.00     0.129 A 
ATOM     21  C   UNL A   1      32.789  21.522  25.258  1.00  0.00     0.049 A 
ATOM     22  F   UNL A   1      31.650  24.317  27.271  1.00  0.00    -0.207 F 
ATOM     23  C   UNL A   1      33.133  22.583  27.815  1.00  0.00     0.040 A 
ATOM     24  C   UNL A   1      33.632  20.889  26.181  1.00  0.00     0.021 A 
ATOM     25  Cl  UNL A   1      32.714  20.847  23.672  1.00  0.00    -0.084 Cl
ATOM     26  C   UNL A   1      33.798  21.416  27.462  1.00  0.00     0.005 A 
ENDBRANCH  18  19
ENDBRANCH   8  18
ENDBRANCH   4   6
ENDBRANCH   3   4
ENDBRANCH   2   3
ENDBRANCH   1   2
BRANCH   1  27
ATOM     27  O   UNL A   1      34.903  30.393  27.693  1.00  0.00    -0.458 OA
BRANCH  27  28
ATOM     28  C   UNL A   1      35.724  30.755  28.722  1.00  0.00     0.338 C 
ATOM     29  O   UNL A   1      35.365  31.577  29.560  1.00  0.00    -0.246 OA
BRANCH  28  30
ATOM     30  C   UNL A   1      37.000  30.029  28.896  1.00  0.00     0.060 A 
ATOM     31  C   UNL A   1      37.155  29.061  29.907  1.00  0.00     0.016 A 
ATOM     32  C   UNL A   1      38.024  30.246  27.993  1.00  0.00     0.016 A 
ATOM     33  C   UNL A   1      38.298  28.250  29.932  1.00  0.00     0.010 A 
ATOM     34  C   UNL A   1      39.031  29.320  27.889  1.00  0.00     0.010 A 
ATOM     35  C   UNL A   1      39.222  28.363  28.891  1.00  0.00    -0.014 A 
BRANCH  35  36
ATOM     36  C   UNL A   1      40.528  27.706  28.836  1.00  0.00     0.031 A 
ATOM     37  C   UNL A   1      40.721  26.303  28.444  1.00  0.00     0.074 A 
ATOM     38  C   UNL A   1      41.580  28.489  29.161  1.00  0.00     0.049 A 
ATOM     39  N   UNL A   1      41.619  25.515  28.931  1.00  0.00    -0.248 NA
ATOM     40  C   UNL A   1      39.896  25.671  27.426  1.00  0.00     0.031 C 
ATOM     41  C   UNL A   1      43.009  28.240  29.111  1.00  0.00     0.029 A 
ATOM     42  N   UNL A   1      41.501  29.705  29.814  1.00  0.00    -0.354 N 
ATOM     43  C   UNL A   1      41.716  24.432  28.077  1.00  0.00     0.074 A 
ATOM     44  C   UNL A   1      40.535  24.507  27.251  1.00  0.00     0.031 C 
ATOM     45  C   UNL A   1      43.617  29.103  29.955  1.00  0.00     0.029 A 
ATOM     46  C   UNL A   1      42.573  29.831  30.671  1.00  0.00     0.049 A 
ATOM     47  H   UNL A   1      40.791  30.375  29.687  1.00  0.00     0.167 HD
ATOM     48  C   UNL A   1      42.882  23.720  28.016  1.00  0.00     0.034 A 
ATOM     49  C   UNL A   1      42.312  29.783  32.013  1.00  0.00     0.034 A 
ATOM     50  C   UNL A   1      43.878  24.293  28.923  1.00  0.00     0.049 A 
ATOM     51  C   UNL A   1      42.954  28.565  32.631  1.00  0.00     0.074 A 
ATOM     52  C   UNL A   1      44.947  25.145  28.694  1.00  0.00     0.029 A 
ATOM     53  N   UNL A   1      43.655  24.303  30.296  1.00  0.00    -0.354 N 
ATOM     54  N   UNL A   1      43.207  27.455  31.990  1.00  0.00    -0.248 NA
ATOM     55  C   UNL A   1      43.429  28.547  34.006  1.00  0.00     0.031 C 
ATOM     56  C   UNL A   1      45.298  25.747  29.930  1.00  0.00     0.029 A 
ATOM     57  C   UNL A   1      44.473  25.229  30.916  1.00  0.00     0.049 A 
ATOM     58  H   UNL A   1      43.005  23.729  30.762  1.00  0.00     0.167 HD
ATOM     59  C   UNL A   1      43.940  26.622  32.795  1.00  0.00     0.074 A 
ATOM     60  C   UNL A   1      44.044  27.354  34.050  1.00  0.00     0.031 C 
ATOM     61  C   UNL A   1      44.429  25.419  32.360  1.00  0.00     0.034 A 
BRANCH  48  62
ATOM     62  C   UNL A   1      43.254  22.765  26.889  1.00  0.00     0.023 A 
ATOM     63  C   UNL A   1      42.772  21.436  26.916  1.00  0.00     0.031 A 
ATOM     64  C   UNL A   1      44.083  23.074  25.793  1.00  0.00     0.131 A 
ATOM     65  C   UNL A   1      43.200  20.470  25.985  1.00  0.00     0.055 A 
ATOM     66  C   UNL A   1      44.550  22.103  24.892  1.00  0.00     0.041 A 
ATOM     67  F   UNL A   1      44.437  24.336  25.513  1.00  0.00    -0.206 F 
ATOM     68  C   UNL A   1      44.122  20.787  24.995  1.00  0.00     0.022 A 
BRANCH  65  69
ATOM     69  S   UNL A   1      42.521  18.787  26.076  1.00  0.00     0.124 S 
ATOM     70  O   UNL A   1      41.123  18.997  25.712  1.00  0.00    -0.237 OA
ATOM     71  O   UNL A   1      43.341  18.069  25.107  1.00  0.00    -0.237 OA
ATOM     72  O   UNL A   1      42.743  18.406  27.470  1.00  0.00    -0.744 OA
ENDBRANCH  65  69
ENDBRANCH  48  62
BRANCH  49  73
ATOM     73  C   UNL A   1      40.981  30.377  32.412  1.00  0.00     0.023 A 
ATOM     74  C   UNL A   1      40.724  31.718  32.039  1.00  0.00     0.031 A 
ATOM     75  C   UNL A   1      39.879  29.617  32.831  1.00  0.00     0.131 A 
ATOM     76  C   UNL A   1      39.411  32.200  31.911  1.00  0.00     0.055 A 
ATOM     77  C   UNL A   1      38.571  30.133  32.789  1.00  0.00     0.041 A 
ATOM     78  F   UNL A   1      40.030  28.339  33.209  1.00  0.00    -0.206 F 
ATOM     79  C   UNL A   1      38.325  31.415  32.288  1.00  0.00     0.022 A 
BRANCH  76  80
ATOM     80  S   UNL A   1      39.165  33.735  30.964  1.00  0.00     0.124 S 
ATOM     81  O   UNL A   1      40.458  34.395  31.102  1.00  0.00    -0.237 OA
ATOM     82  O   UNL A   1      38.848  33.225  29.629  1.00  0.00    -0.237 OA
ATOM     83  O   UNL A   1      38.045  34.387  31.633  1.00  0.00    -0.744 OA
ENDBRANCH  76  80
ENDBRANCH  49  73
BRANCH  61  84
ATOM     84  C   UNL A   1      45.034  24.348  33.243  1.00  0.00     0.023 A 
ATOM     85  C   UNL A   1      46.333  24.430  33.752  1.00  0.00     0.031 A 
ATOM     86  C   UNL A   1      44.285  23.222  33.667  1.00  0.00     0.131 A 
ATOM     87  C   UNL A   1      46.884  23.394  34.522  1.00  0.00     0.055 A 
ATOM     88  C   UNL A   1      44.798  22.242  34.522  1.00  0.00     0.041 A 
ATOM     89  F   UNL A   1      43.014  23.025  33.286  1.00  0.00    -0.206 F 
ATOM     90  C   UNL A   1      46.118  22.310  34.936  1.00  0.00     0.022 A 
BRANCH  87  91
ATOM     91  S   UNL A   1      48.656  23.466  34.879  1.00  0.00     0.124 S 
ATOM     92  O   UNL A   1      48.659  23.800  36.302  1.00  0.00    -0.237 OA
ATOM     93  O   UNL A   1      49.100  22.117  34.546  1.00  0.00    -0.237 OA
ATOM     94  O   UNL A   1      49.143  24.521  33.993  1.00  0.00    -0.744 OA
ENDBRANCH  87  91
ENDBRANCH  61  84
ENDBRANCH  35  36
ENDBRANCH  28  30
ENDBRANCH  27  28
ENDBRANCH   1  27
TORSDOF 17
ENDMDL
