MODEL 1
REMARK VINA RESULT:     -11.1      0.000      0.000
REMARK SMILES CCCOc1cccc([C@H]2CC[NH2+][C@@H]2C(=O)OCCOC(=O)c2ccc(-c3c4nc(c(-c5cc(S(=O)(=O)[O-])ccc5F)c5ccc([nH]5)c(-c5cc(S(=O)(=O)[O-])ccc5F)c5nc(c(-c6cc(S(=O)(=O)[O-])ccc6F)c6ccc3[nH]6)C=C5)C=C4)cc2)c1
REMARK SMILES IDX 18 1 17 2 15 3 16 4 14 5 10 6 11 7 12 8 13 9 9 12 5 13 6 14
REMARK SMILES IDX 86 15 7 16 8 17 4 18 3 19 2 20 1 21 19 22 20 23 21 24 22 25
REMARK SMILES IDX 23 26 24 27 85 28 25 29 84 30 26 31 27 32 28 33 78 34 29 35
REMARK SMILES IDX 83 36 77 37 79 38 30 39 82 40 76 41 75 42 31 44 63 45 43 46
REMARK SMILES IDX 62 47 44 48 47 49 61 50 80 51 45 52 46 53 60 55 81 56 48 57
REMARK SMILES IDX 32 58 33 59 41 60 34 61 40 62 42 63 39 64 35 65 36 66 37 67
REMARK SMILES IDX 38 68 64 69 65 70 73 71 66 72 72 73 74 74 71 75 67 76 68 77
REMARK SMILES IDX 69 78 70 79 49 80 50 81 58 82 51 83 57 84 59 85 56 86 52 87
REMARK SMILES IDX 53 88 54 89 55 90
REMARK H PARENT 13 10 13 11 79 43 47 54
REMARK Flexibility Score: inf
ROOT
ATOM      1  C   UNL A   1      31.346  29.302  24.578  1.00  0.00     0.274 C 
ENDROOT
BRANCH   1   2
ATOM      2  O   UNL A   1      31.384  27.858  24.599  1.00  0.00    -0.458 OA
BRANCH   2   3
ATOM      3  C   UNL A   1      30.679  27.217  23.618  1.00  0.00     0.365 C 
ATOM      4  O   UNL A   1      29.666  27.664  23.095  1.00  0.00    -0.245 OA
BRANCH   3   5
ATOM      5  C   UNL A   1      31.345  25.863  23.279  1.00  0.00     0.301 C 
ATOM      6  C   UNL A   1      32.789  25.781  23.825  1.00  0.00     0.095 C 
ATOM      7  C   UNL A   1      33.638  25.475  22.591  1.00  0.00     0.076 C 
ATOM      8  C   UNL A   1      32.832  26.094  21.468  1.00  0.00     0.262 C 
ATOM      9  N   UNL A   1      31.455  25.703  21.794  1.00  0.00    -0.334 N 
ATOM     10  H   UNL A   1      31.284  24.734  21.525  1.00  0.00     0.347 HD
ATOM     11  H   UNL A   1      30.769  26.270  21.297  1.00  0.00     0.347 HD
BRANCH   6  12
ATOM     12  C   UNL A   1      33.120  24.909  25.018  1.00  0.00    -0.034 A 
ATOM     13  C   UNL A   1      34.633  23.438  26.240  1.00  0.00     0.119 A 
ATOM     14  C   UNL A   1      33.578  23.037  27.060  1.00  0.00     0.046 A 
ATOM     15  C   UNL A   1      34.404  24.403  25.260  1.00  0.00     0.050 A 
ATOM     16  C   UNL A   1      32.310  23.587  26.896  1.00  0.00     0.004 A 
ATOM     17  C   UNL A   1      32.079  24.505  25.872  1.00  0.00     0.004 A 
BRANCH  13  18
ATOM     18  O   UNL A   1      35.812  22.780  26.447  1.00  0.00    -0.494 OA
BRANCH  18  19
ATOM     19  C   UNL A   1      36.957  23.122  25.666  1.00  0.00     0.229 C 
BRANCH  19  20
ATOM     20  C   UNL A   1      37.157  22.187  24.467  1.00  0.00     0.038 C 
ATOM     21  C   UNL A   1      36.726  22.781  23.133  1.00  0.00     0.007 C 
ENDBRANCH  19  20
ENDBRANCH  18  19
ENDBRANCH  13  18
ENDBRANCH   6  12
ENDBRANCH   3   5
ENDBRANCH   2   3
ENDBRANCH   1   2
BRANCH   1  22
ATOM     22  C   UNL A   1      31.625  29.873  25.963  1.00  0.00     0.275 C 
BRANCH  22  23
ATOM     23  O   UNL A   1      32.912  30.504  25.942  1.00  0.00    -0.458 OA
BRANCH  23  24
ATOM     24  C   UNL A   1      33.184  31.327  26.980  1.00  0.00     0.338 C 
ATOM     25  O   UNL A   1      32.454  32.180  27.451  1.00  0.00    -0.246 OA
BRANCH  24  26
ATOM     26  C   UNL A   1      34.532  31.025  27.498  1.00  0.00     0.060 A 
ATOM     27  C   UNL A   1      34.884  29.713  27.814  1.00  0.00     0.016 A 
ATOM     28  C   UNL A   1      35.410  32.067  27.784  1.00  0.00     0.016 A 
ATOM     29  C   UNL A   1      36.038  29.458  28.546  1.00  0.00     0.010 A 
ATOM     30  C   UNL A   1      36.640  31.787  28.388  1.00  0.00     0.010 A 
ATOM     31  C   UNL A   1      36.949  30.486  28.821  1.00  0.00    -0.014 A 
BRANCH  31  32
ATOM     32  C   UNL A   1      38.199  30.211  29.589  1.00  0.00     0.031 A 
ATOM     33  C   UNL A   1      39.262  29.318  28.999  1.00  0.00     0.074 A 
ATOM     34  C   UNL A   1      38.394  30.760  30.806  1.00  0.00     0.049 A 
ATOM     35  N   UNL A   1      40.292  28.759  29.579  1.00  0.00    -0.248 NA
ATOM     36  C   UNL A   1      39.131  28.993  27.570  1.00  0.00     0.031 C 
ATOM     37  C   UNL A   1      37.480  31.688  31.477  1.00  0.00     0.029 A 
ATOM     38  N   UNL A   1      39.430  30.624  31.696  1.00  0.00    -0.354 N 
ATOM     39  C   UNL A   1      40.890  27.959  28.608  1.00  0.00     0.074 A 
ATOM     40  C   UNL A   1      40.101  28.107  27.403  1.00  0.00     0.031 C 
ATOM     41  C   UNL A   1      38.019  32.078  32.641  1.00  0.00     0.029 A 
ATOM     42  C   UNL A   1      39.255  31.339  32.859  1.00  0.00     0.049 A 
ATOM     43  H   UNL A   1      40.224  30.070  31.519  1.00  0.00     0.167 HD
ATOM     44  C   UNL A   1      41.988  27.170  28.720  1.00  0.00     0.034 A 
ATOM     45  C   UNL A   1      39.970  31.355  34.002  1.00  0.00     0.034 A 
ATOM     46  C   UNL A   1      42.790  27.081  29.918  1.00  0.00     0.049 A 
ATOM     47  C   UNL A   1      41.167  30.451  34.116  1.00  0.00     0.074 A 
ATOM     48  C   UNL A   1      43.922  26.318  30.147  1.00  0.00     0.029 A 
ATOM     49  N   UNL A   1      42.554  27.796  31.086  1.00  0.00    -0.354 N 
ATOM     50  N   UNL A   1      41.658  29.619  33.228  1.00  0.00    -0.248 NA
ATOM     51  C   UNL A   1      41.888  30.471  35.394  1.00  0.00     0.031 C 
ATOM     52  C   UNL A   1      44.341  26.534  31.466  1.00  0.00     0.029 A 
ATOM     53  C   UNL A   1      43.508  27.481  32.041  1.00  0.00     0.049 A 
ATOM     54  H   UNL A   1      41.816  28.434  31.217  1.00  0.00     0.167 HD
ATOM     55  C   UNL A   1      42.750  29.015  33.842  1.00  0.00     0.074 A 
ATOM     56  C   UNL A   1      42.859  29.601  35.163  1.00  0.00     0.031 C 
ATOM     57  C   UNL A   1      43.586  28.060  33.361  1.00  0.00     0.034 A 
BRANCH  44  58
ATOM     58  C   UNL A   1      42.338  26.293  27.541  1.00  0.00     0.023 A 
ATOM     59  C   UNL A   1      41.885  24.967  27.432  1.00  0.00     0.031 A 
ATOM     60  C   UNL A   1      43.178  26.786  26.526  1.00  0.00     0.131 A 
ATOM     61  C   UNL A   1      42.331  24.160  26.373  1.00  0.00     0.055 A 
ATOM     62  C   UNL A   1      43.555  26.002  25.433  1.00  0.00     0.041 A 
ATOM     63  F   UNL A   1      43.659  28.038  26.587  1.00  0.00    -0.206 F 
ATOM     64  C   UNL A   1      43.145  24.676  25.360  1.00  0.00     0.022 A 
BRANCH  61  65
ATOM     65  S   UNL A   1      41.951  22.387  26.411  1.00  0.00     0.124 S 
ATOM     66  O   UNL A   1      40.501  22.392  26.231  1.00  0.00    -0.237 OA
ATOM     67  O   UNL A   1      42.731  21.873  25.291  1.00  0.00    -0.237 OA
ATOM     68  O   UNL A   1      42.405  21.966  27.734  1.00  0.00    -0.744 OA
ENDBRANCH  61  65
ENDBRANCH  44  58
BRANCH  45  69
ATOM     69  C   UNL A   1      39.523  32.188  35.155  1.00  0.00     0.023 A 
ATOM     70  C   UNL A   1      38.791  31.629  36.214  1.00  0.00     0.031 A 
ATOM     71  C   UNL A   1      39.809  33.565  35.205  1.00  0.00     0.131 A 
ATOM     72  C   UNL A   1      38.352  32.448  37.266  1.00  0.00     0.055 A 
ATOM     73  C   UNL A   1      39.416  34.363  36.279  1.00  0.00     0.041 A 
ATOM     74  F   UNL A   1      40.504  34.150  34.215  1.00  0.00    -0.206 F 
ATOM     75  C   UNL A   1      38.673  33.806  37.314  1.00  0.00     0.022 A 
BRANCH  72  76
ATOM     76  S   UNL A   1      37.291  31.723  38.547  1.00  0.00     0.124 S 
ATOM     77  O   UNL A   1      37.107  30.364  38.048  1.00  0.00    -0.237 OA
ATOM     78  O   UNL A   1      38.120  31.861  39.740  1.00  0.00    -0.237 OA
ATOM     79  O   UNL A   1      36.099  32.566  38.519  1.00  0.00    -0.744 OA
ENDBRANCH  72  76
ENDBRANCH  45  69
BRANCH  57  80
ATOM     80  C   UNL A   1      44.701  27.624  34.272  1.00  0.00     0.023 A 
ATOM     81  C   UNL A   1      44.542  26.553  35.167  1.00  0.00     0.031 A 
ATOM     82  C   UNL A   1      45.927  28.311  34.266  1.00  0.00     0.131 A 
ATOM     83  C   UNL A   1      45.574  26.233  36.062  1.00  0.00     0.055 A 
ATOM     84  C   UNL A   1      46.970  27.955  35.123  1.00  0.00     0.041 A 
ATOM     85  F   UNL A   1      46.127  29.343  33.431  1.00  0.00    -0.206 F 
ATOM     86  C   UNL A   1      46.791  26.919  36.036  1.00  0.00     0.022 A 
BRANCH  83  87
ATOM     87  S   UNL A   1      45.275  24.961  37.320  1.00  0.00     0.124 S 
ATOM     88  O   UNL A   1      46.604  24.785  37.896  1.00  0.00    -0.237 OA
ATOM     89  O   UNL A   1      44.285  25.601  38.181  1.00  0.00    -0.237 OA
ATOM     90  O   UNL A   1      44.779  23.824  36.547  1.00  0.00    -0.744 OA
ENDBRANCH  83  87
ENDBRANCH  57  80
ENDBRANCH  31  32
ENDBRANCH  24  26
ENDBRANCH  23  24
ENDBRANCH  22  23
ENDBRANCH   1  22
TORSDOF 18
ENDMDL
MODEL 2
REMARK VINA RESULT:     -10.9      1.528      3.415
REMARK SMILES CCCOc1cccc([C@H]2CC[NH2+][C@@H]2C(=O)OCCOC(=O)c2ccc(-c3c4nc(c(-c5cc(S(=O)(=O)[O-])ccc5F)c5ccc([nH]5)c(-c5cc(S(=O)(=O)[O-])ccc5F)c5nc(c(-c6cc(S(=O)(=O)[O-])ccc6F)c6ccc3[nH]6)C=C5)C=C4)cc2)c1
REMARK SMILES IDX 18 1 17 2 15 3 16 4 14 5 10 6 11 7 12 8 13 9 9 12 5 13 6 14
REMARK SMILES IDX 86 15 7 16 8 17 4 18 3 19 2 20 1 21 19 22 20 23 21 24 22 25
REMARK SMILES IDX 23 26 24 27 85 28 25 29 84 30 26 31 27 32 28 33 78 34 29 35
REMARK SMILES IDX 83 36 77 37 79 38 30 39 82 40 76 41 75 42 31 44 63 45 43 46
REMARK SMILES IDX 62 47 44 48 47 49 61 50 80 51 45 52 46 53 60 55 81 56 48 57
REMARK SMILES IDX 32 58 33 59 41 60 34 61 40 62 42 63 39 64 35 65 36 66 37 67
REMARK SMILES IDX 38 68 64 69 65 70 73 71 66 72 72 73 74 74 71 75 67 76 68 77
REMARK SMILES IDX 69 78 70 79 49 80 50 81 58 82 51 83 57 84 59 85 56 86 52 87
REMARK SMILES IDX 53 88 54 89 55 90
REMARK H PARENT 13 10 13 11 79 43 47 54
REMARK Flexibility Score: inf
ROOT
ATOM      1  C   UNL A   1      33.080  29.391  24.528  1.00  0.00     0.274 C 
ENDROOT
BRANCH   1   2
ATOM      2  O   UNL A   1      33.691  28.221  25.114  1.00  0.00    -0.458 OA
BRANCH   2   3
ATOM      3  C   UNL A   1      32.931  27.084  25.133  1.00  0.00     0.365 C 
ATOM      4  O   UNL A   1      32.757  26.391  26.128  1.00  0.00    -0.245 OA
BRANCH   3   5
ATOM      5  C   UNL A   1      32.338  26.812  23.732  1.00  0.00     0.301 C 
ATOM      6  C   UNL A   1      30.970  26.096  23.817  1.00  0.00     0.095 C 
ATOM      7  C   UNL A   1      31.160  24.828  22.985  1.00  0.00     0.076 C 
ATOM      8  C   UNL A   1      32.645  24.560  23.116  1.00  0.00     0.262 C 
ATOM      9  N   UNL A   1      33.237  25.895  22.962  1.00  0.00    -0.334 N 
ATOM     10  H   UNL A   1      33.265  26.163  21.978  1.00  0.00     0.347 HD
ATOM     11  H   UNL A   1      34.198  25.928  23.302  1.00  0.00     0.347 HD
BRANCH   6  12
ATOM     12  C   UNL A   1      29.685  26.835  23.507  1.00  0.00    -0.034 A 
ATOM     13  C   UNL A   1      28.486  28.813  22.735  1.00  0.00     0.119 A 
ATOM     14  C   UNL A   1      27.301  28.298  23.263  1.00  0.00     0.046 A 
ATOM     15  C   UNL A   1      29.653  28.056  22.821  1.00  0.00     0.050 A 
ATOM     16  C   UNL A   1      27.287  27.048  23.876  1.00  0.00     0.004 A 
ATOM     17  C   UNL A   1      28.474  26.329  24.011  1.00  0.00     0.004 A 
BRANCH  13  18
ATOM     18  O   UNL A   1      28.393  30.075  22.222  1.00  0.00    -0.494 OA
BRANCH  18  19
ATOM     19  C   UNL A   1      29.158  31.131  22.803  1.00  0.00     0.229 C 
BRANCH  19  20
ATOM     20  C   UNL A   1      28.329  32.399  23.046  1.00  0.00     0.038 C 
ATOM     21  C   UNL A   1      29.152  33.677  23.126  1.00  0.00     0.007 C 
ENDBRANCH  19  20
ENDBRANCH  18  19
ENDBRANCH  13  18
ENDBRANCH   6  12
ENDBRANCH   3   5
ENDBRANCH   2   3
ENDBRANCH   1   2
BRANCH   1  22
ATOM     22  C   UNL A   1      31.961  29.923  25.416  1.00  0.00     0.275 C 
BRANCH  22  23
ATOM     23  O   UNL A   1      32.446  29.984  26.765  1.00  0.00    -0.458 OA
BRANCH  23  24
ATOM     24  C   UNL A   1      33.017  31.152  27.135  1.00  0.00     0.338 C 
ATOM     25  O   UNL A   1      32.518  32.262  27.085  1.00  0.00    -0.246 OA
BRANCH  24  26
ATOM     26  C   UNL A   1      34.375  30.887  27.648  1.00  0.00     0.060 A 
ATOM     27  C   UNL A   1      34.776  29.581  27.930  1.00  0.00     0.016 A 
ATOM     28  C   UNL A   1      35.213  31.954  27.961  1.00  0.00     0.016 A 
ATOM     29  C   UNL A   1      35.938  29.350  28.657  1.00  0.00     0.010 A 
ATOM     30  C   UNL A   1      36.452  31.704  28.559  1.00  0.00     0.010 A 
ATOM     31  C   UNL A   1      36.810  30.404  28.960  1.00  0.00    -0.014 A 
BRANCH  31  32
ATOM     32  C   UNL A   1      38.069  30.156  29.723  1.00  0.00     0.031 A 
ATOM     33  C   UNL A   1      39.134  29.261  29.141  1.00  0.00     0.074 A 
ATOM     34  C   UNL A   1      38.269  30.732  30.926  1.00  0.00     0.049 A 
ATOM     35  N   UNL A   1      40.174  28.722  29.725  1.00  0.00    -0.248 NA
ATOM     36  C   UNL A   1      38.994  28.905  27.721  1.00  0.00     0.031 C 
ATOM     37  C   UNL A   1      37.352  31.666  31.586  1.00  0.00     0.029 A 
ATOM     38  N   UNL A   1      39.314  30.624  31.809  1.00  0.00    -0.354 N 
ATOM     39  C   UNL A   1      40.771  27.908  28.765  1.00  0.00     0.074 A 
ATOM     40  C   UNL A   1      39.971  28.024  27.564  1.00  0.00     0.031 C 
ATOM     41  C   UNL A   1      37.898  32.084  32.736  1.00  0.00     0.029 A 
ATOM     42  C   UNL A   1      39.142  31.361  32.959  1.00  0.00     0.049 A 
ATOM     43  H   UNL A   1      40.111  30.072  31.637  1.00  0.00     0.167 HD
ATOM     44  C   UNL A   1      41.877  27.131  28.884  1.00  0.00     0.034 A 
ATOM     45  C   UNL A   1      39.866  31.406  34.095  1.00  0.00     0.034 A 
ATOM     46  C   UNL A   1      42.690  27.074  30.076  1.00  0.00     0.049 A 
ATOM     47  C   UNL A   1      41.072  30.516  34.217  1.00  0.00     0.074 A 
ATOM     48  C   UNL A   1      43.831  26.325  30.311  1.00  0.00     0.029 A 
ATOM     49  N   UNL A   1      42.457  27.810  31.231  1.00  0.00    -0.354 N 
ATOM     50  N   UNL A   1      41.563  29.670  33.343  1.00  0.00    -0.248 NA
ATOM     51  C   UNL A   1      41.804  30.568  35.489  1.00  0.00     0.031 C 
ATOM     52  C   UNL A   1      44.259  26.573  31.621  1.00  0.00     0.029 A 
ATOM     53  C   UNL A   1      43.423  27.524  32.184  1.00  0.00     0.049 A 
ATOM     54  H   UNL A   1      41.714  28.444  31.356  1.00  0.00     0.167 HD
ATOM     55  C   UNL A   1      42.666  29.089  33.959  1.00  0.00     0.074 A 
ATOM     56  C   UNL A   1      42.781  29.702  35.268  1.00  0.00     0.031 C 
ATOM     57  C   UNL A   1      43.506  28.131  33.491  1.00  0.00     0.034 A 
BRANCH  44  58
ATOM     58  C   UNL A   1      42.225  26.233  27.720  1.00  0.00     0.023 A 
ATOM     59  C   UNL A   1      41.807  24.892  27.656  1.00  0.00     0.031 A 
ATOM     60  C   UNL A   1      43.027  26.722  26.673  1.00  0.00     0.131 A 
ATOM     61  C   UNL A   1      42.251  24.071  26.608  1.00  0.00     0.055 A 
ATOM     62  C   UNL A   1      43.402  25.920  25.592  1.00  0.00     0.041 A 
ATOM     63  F   UNL A   1      43.475  27.987  26.690  1.00  0.00    -0.206 F 
ATOM     64  C   UNL A   1      43.027  24.581  25.564  1.00  0.00     0.022 A 
BRANCH  61  65
ATOM     65  S   UNL A   1      41.922  22.289  26.701  1.00  0.00     0.124 S 
ATOM     66  O   UNL A   1      42.432  21.826  25.413  1.00  0.00    -0.237 OA
ATOM     67  O   UNL A   1      42.692  21.888  27.874  1.00  0.00    -0.237 OA
ATOM     68  O   UNL A   1      40.471  22.214  26.852  1.00  0.00    -0.744 OA
ENDBRANCH  61  65
ENDBRANCH  44  58
BRANCH  45  69
ATOM     69  C   UNL A   1      39.422  32.260  35.234  1.00  0.00     0.023 A 
ATOM     70  C   UNL A   1      38.711  31.715  36.314  1.00  0.00     0.031 A 
ATOM     71  C   UNL A   1      39.690  33.641  35.250  1.00  0.00     0.131 A 
ATOM     72  C   UNL A   1      38.272  32.551  37.354  1.00  0.00     0.055 A 
ATOM     73  C   UNL A   1      39.299  34.458  36.310  1.00  0.00     0.041 A 
ATOM     74  F   UNL A   1      40.365  34.213  34.239  1.00  0.00    -0.206 F 
ATOM     75  C   UNL A   1      38.576  33.914  37.367  1.00  0.00     0.022 A 
BRANCH  72  76
ATOM     76  S   UNL A   1      37.237  31.842  38.663  1.00  0.00     0.124 S 
ATOM     77  O   UNL A   1      38.091  31.998  39.836  1.00  0.00    -0.237 OA
ATOM     78  O   UNL A   1      36.056  32.696  38.612  1.00  0.00    -0.237 OA
ATOM     79  O   UNL A   1      37.028  30.465  38.223  1.00  0.00    -0.744 OA
ENDBRANCH  72  76
ENDBRANCH  45  69
BRANCH  57  80
ATOM     80  C   UNL A   1      44.633  27.723  34.402  1.00  0.00     0.023 A 
ATOM     81  C   UNL A   1      44.498  26.655  35.304  1.00  0.00     0.031 A 
ATOM     82  C   UNL A   1      45.845  28.435  34.388  1.00  0.00     0.131 A 
ATOM     83  C   UNL A   1      45.540  26.362  36.197  1.00  0.00     0.055 A 
ATOM     84  C   UNL A   1      46.897  28.107  35.243  1.00  0.00     0.041 A 
ATOM     85  F   UNL A   1      46.021  29.466  33.545  1.00  0.00    -0.206 F 
ATOM     86  C   UNL A   1      46.743  27.073  36.162  1.00  0.00     0.022 A 
BRANCH  83  87
ATOM     87  S   UNL A   1      45.270  25.092  37.463  1.00  0.00     0.124 S 
ATOM     88  O   UNL A   1      46.535  25.115  38.191  1.00  0.00    -0.237 OA
ATOM     89  O   UNL A   1      44.111  25.610  38.184  1.00  0.00    -0.237 OA
ATOM     90  O   UNL A   1      45.025  23.879  36.686  1.00  0.00    -0.744 OA
ENDBRANCH  83  87
ENDBRANCH  57  80
ENDBRANCH  31  32
ENDBRANCH  24  26
ENDBRANCH  23  24
ENDBRANCH  22  23
ENDBRANCH   1  22
TORSDOF 18
ENDMDL
MODEL 3
REMARK VINA RESULT:     -10.7      1.864      2.230
REMARK SMILES CCCOc1cccc([C@H]2CC[NH2+][C@@H]2C(=O)OCCOC(=O)c2ccc(-c3c4nc(c(-c5cc(S(=O)(=O)[O-])ccc5F)c5ccc([nH]5)c(-c5cc(S(=O)(=O)[O-])ccc5F)c5nc(c(-c6cc(S(=O)(=O)[O-])ccc6F)c6ccc3[nH]6)C=C5)C=C4)cc2)c1
REMARK SMILES IDX 18 1 17 2 15 3 16 4 14 5 10 6 11 7 12 8 13 9 9 12 5 13 6 14
REMARK SMILES IDX 86 15 7 16 8 17 4 18 3 19 2 20 1 21 19 22 20 23 21 24 22 25
REMARK SMILES IDX 23 26 24 27 85 28 25 29 84 30 26 31 27 32 28 33 78 34 29 35
REMARK SMILES IDX 83 36 77 37 79 38 30 39 82 40 76 41 75 42 31 44 63 45 43 46
REMARK SMILES IDX 62 47 44 48 47 49 61 50 80 51 45 52 46 53 60 55 81 56 48 57
REMARK SMILES IDX 32 58 33 59 41 60 34 61 40 62 42 63 39 64 35 65 36 66 37 67
REMARK SMILES IDX 38 68 64 69 65 70 73 71 66 72 72 73 74 74 71 75 67 76 68 77
REMARK SMILES IDX 69 78 70 79 49 80 50 81 58 82 51 83 57 84 59 85 56 86 52 87
REMARK SMILES IDX 53 88 54 89 55 90
REMARK H PARENT 13 10 13 11 79 43 47 54
REMARK Flexibility Score: inf
ROOT
ATOM      1  C   UNL A   1      31.419  28.845  24.537  1.00  0.00     0.274 C 
ENDROOT
BRANCH   1   2
ATOM      2  O   UNL A   1      31.368  27.514  25.094  1.00  0.00    -0.458 OA
BRANCH   2   3
ATOM      3  C   UNL A   1      32.511  26.769  24.998  1.00  0.00     0.365 C 
ATOM      4  O   UNL A   1      33.613  27.150  25.373  1.00  0.00    -0.245 OA
BRANCH   3   5
ATOM      5  C   UNL A   1      32.204  25.398  24.353  1.00  0.00     0.301 C 
ATOM      6  C   UNL A   1      33.438  24.817  23.625  1.00  0.00     0.095 C 
ATOM      7  C   UNL A   1      32.951  24.578  22.196  1.00  0.00     0.076 C 
ATOM      8  C   UNL A   1      31.866  25.622  22.033  1.00  0.00     0.262 C 
ATOM      9  N   UNL A   1      31.141  25.549  23.309  1.00  0.00    -0.334 N 
ATOM     10  H   UNL A   1      30.514  24.744  23.318  1.00  0.00     0.347 HD
ATOM     11  H   UNL A   1      30.563  26.373  23.468  1.00  0.00     0.347 HD
BRANCH   6  12
ATOM     12  C   UNL A   1      34.202  23.646  24.206  1.00  0.00    -0.034 A 
ATOM     13  C   UNL A   1      34.437  21.265  24.678  1.00  0.00     0.119 A 
ATOM     14  C   UNL A   1      35.463  21.547  25.580  1.00  0.00     0.046 A 
ATOM     15  C   UNL A   1      33.851  22.311  23.967  1.00  0.00     0.050 A 
ATOM     16  C   UNL A   1      35.891  22.858  25.774  1.00  0.00     0.004 A 
ATOM     17  C   UNL A   1      35.254  23.901  25.103  1.00  0.00     0.004 A 
BRANCH  13  18
ATOM     18  O   UNL A   1      34.056  19.955  24.623  1.00  0.00    -0.494 OA
BRANCH  18  19
ATOM     19  C   UNL A   1      32.878  19.592  23.902  1.00  0.00     0.229 C 
BRANCH  19  20
ATOM     20  C   UNL A   1      32.614  18.082  23.921  1.00  0.00     0.038 C 
ATOM     21  C   UNL A   1      33.873  17.227  23.926  1.00  0.00     0.007 C 
ENDBRANCH  19  20
ENDBRANCH  18  19
ENDBRANCH  13  18
ENDBRANCH   6  12
ENDBRANCH   3   5
ENDBRANCH   2   3
ENDBRANCH   1   2
BRANCH   1  22
ATOM     22  C   UNL A   1      31.504  29.894  25.641  1.00  0.00     0.275 C 
BRANCH  22  23
ATOM     23  O   UNL A   1      32.886  30.203  25.865  1.00  0.00    -0.458 OA
BRANCH  23  24
ATOM     24  C   UNL A   1      33.138  31.098  26.846  1.00  0.00     0.338 C 
ATOM     25  O   UNL A   1      32.395  31.973  27.252  1.00  0.00    -0.246 OA
BRANCH  24  26
ATOM     26  C   UNL A   1      34.485  30.847  27.397  1.00  0.00     0.060 A 
ATOM     27  C   UNL A   1      34.899  29.544  27.669  1.00  0.00     0.016 A 
ATOM     28  C   UNL A   1      35.294  31.922  27.755  1.00  0.00     0.016 A 
ATOM     29  C   UNL A   1      36.042  29.319  28.427  1.00  0.00     0.010 A 
ATOM     30  C   UNL A   1      36.518  31.683  28.387  1.00  0.00     0.010 A 
ATOM     31  C   UNL A   1      36.886  30.382  28.776  1.00  0.00    -0.014 A 
BRANCH  31  32
ATOM     32  C   UNL A   1      38.124  30.143  29.573  1.00  0.00     0.031 A 
ATOM     33  C   UNL A   1      39.229  29.287  29.005  1.00  0.00     0.074 A 
ATOM     34  C   UNL A   1      38.272  30.691  30.797  1.00  0.00     0.049 A 
ATOM     35  N   UNL A   1      40.261  28.756  29.608  1.00  0.00    -0.248 NA
ATOM     36  C   UNL A   1      39.143  28.966  27.572  1.00  0.00     0.031 C 
ATOM     37  C   UNL A   1      37.313  31.586  31.450  1.00  0.00     0.029 A 
ATOM     38  N   UNL A   1      39.290  30.582  31.712  1.00  0.00    -0.354 N 
ATOM     39  C   UNL A   1      40.907  27.981  28.648  1.00  0.00     0.074 A 
ATOM     40  C   UNL A   1      40.144  28.111  27.425  1.00  0.00     0.031 C 
ATOM     41  C   UNL A   1      37.811  31.986  32.628  1.00  0.00     0.029 A 
ATOM     42  C   UNL A   1      39.064  31.285  32.874  1.00  0.00     0.049 A 
ATOM     43  H   UNL A   1      40.105  30.054  31.552  1.00  0.00     0.167 HD
ATOM     44  C   UNL A   1      42.026  27.226  28.783  1.00  0.00     0.034 A 
ATOM     45  C   UNL A   1      39.750  31.317  34.034  1.00  0.00     0.034 A 
ATOM     46  C   UNL A   1      42.802  27.156  30.000  1.00  0.00     0.049 A 
ATOM     47  C   UNL A   1      40.971  30.450  34.173  1.00  0.00     0.074 A 
ATOM     48  C   UNL A   1      43.951  26.427  30.253  1.00  0.00     0.029 A 
ATOM     49  N   UNL A   1      42.515  27.856  31.165  1.00  0.00    -0.354 N 
ATOM     50  N   UNL A   1      41.510  29.639  33.293  1.00  0.00    -0.248 NA
ATOM     51  C   UNL A   1      41.660  30.485  35.468  1.00  0.00     0.031 C 
ATOM     52  C   UNL A   1      44.330  26.649  31.583  1.00  0.00     0.029 A 
ATOM     53  C   UNL A   1      43.455  27.566  32.142  1.00  0.00     0.049 A 
ATOM     54  H   UNL A   1      41.754  28.470  31.282  1.00  0.00     0.167 HD
ATOM     55  C   UNL A   1      42.605  29.066  33.931  1.00  0.00     0.074 A 
ATOM     56  C   UNL A   1      42.663  29.647  35.258  1.00  0.00     0.031 C 
ATOM     57  C   UNL A   1      43.481  28.140  33.466  1.00  0.00     0.034 A 
BRANCH  44  58
ATOM     58  C   UNL A   1      42.433  26.367  27.609  1.00  0.00     0.023 A 
ATOM     59  C   UNL A   1      42.136  24.994  27.546  1.00  0.00     0.031 A 
ATOM     60  C   UNL A   1      43.168  26.929  26.551  1.00  0.00     0.131 A 
ATOM     61  C   UNL A   1      42.633  24.220  26.486  1.00  0.00     0.055 A 
ATOM     62  C   UNL A   1      43.594  26.169  25.459  1.00  0.00     0.041 A 
ATOM     63  F   UNL A   1      43.500  28.230  26.566  1.00  0.00    -0.206 F 
ATOM     64  C   UNL A   1      43.341  24.801  25.431  1.00  0.00     0.022 A 
BRANCH  61  65
ATOM     65  S   UNL A   1      42.468  22.415  26.576  1.00  0.00     0.124 S 
ATOM     66  O   UNL A   1      43.865  21.988  26.536  1.00  0.00    -0.237 OA
ATOM     67  O   UNL A   1      41.779  22.226  27.848  1.00  0.00    -0.237 OA
ATOM     68  O   UNL A   1      41.687  22.081  25.388  1.00  0.00    -0.744 OA
ENDBRANCH  61  65
ENDBRANCH  44  58
BRANCH  45  69
ATOM     69  C   UNL A   1      39.249  32.129  35.179  1.00  0.00     0.023 A 
ATOM     70  C   UNL A   1      39.742  33.420  35.423  1.00  0.00     0.031 A 
ATOM     71  C   UNL A   1      38.278  31.616  36.059  1.00  0.00     0.131 A 
ATOM     72  C   UNL A   1      39.279  34.145  36.533  1.00  0.00     0.055 A 
ATOM     73  C   UNL A   1      37.782  32.361  37.128  1.00  0.00     0.041 A 
ATOM     74  F   UNL A   1      37.775  30.385  35.871  1.00  0.00    -0.206 F 
ATOM     75  C   UNL A   1      38.291  33.632  37.376  1.00  0.00     0.022 A 
BRANCH  72  76
ATOM     76  S   UNL A   1      40.036  35.752  36.900  1.00  0.00     0.124 S 
ATOM     77  O   UNL A   1      39.397  36.101  38.164  1.00  0.00    -0.237 OA
ATOM     78  O   UNL A   1      41.453  35.410  36.970  1.00  0.00    -0.237 OA
ATOM     79  O   UNL A   1      39.653  36.578  35.758  1.00  0.00    -0.744 OA
ENDBRANCH  72  76
ENDBRANCH  45  69
BRANCH  57  80
ATOM     80  C   UNL A   1      44.588  27.733  34.403  1.00  0.00     0.023 A 
ATOM     81  C   UNL A   1      44.392  26.751  35.387  1.00  0.00     0.031 A 
ATOM     82  C   UNL A   1      45.842  28.363  34.329  1.00  0.00     0.131 A 
ATOM     83  C   UNL A   1      45.420  26.463  36.297  1.00  0.00     0.055 A 
ATOM     84  C   UNL A   1      46.878  28.035  35.204  1.00  0.00     0.041 A 
ATOM     85  F   UNL A   1      46.077  29.310  33.406  1.00  0.00    -0.206 F 
ATOM     86  C   UNL A   1      46.666  27.090  36.203  1.00  0.00     0.022 A 
BRANCH  83  87
ATOM     87  S   UNL A   1      45.080  25.317  37.662  1.00  0.00     0.124 S 
ATOM     88  O   UNL A   1      45.239  26.178  38.829  1.00  0.00    -0.237 OA
ATOM     89  O   UNL A   1      43.718  24.880  37.371  1.00  0.00    -0.237 OA
ATOM     90  O   UNL A   1      46.105  24.287  37.509  1.00  0.00    -0.744 OA
ENDBRANCH  83  87
ENDBRANCH  57  80
ENDBRANCH  31  32
ENDBRANCH  24  26
ENDBRANCH  23  24
ENDBRANCH  22  23
ENDBRANCH   1  22
TORSDOF 18
ENDMDL
