MODEL 1
REMARK VINA RESULT:     -11.5      0.000      0.000
REMARK SMILES COC(=O)[C@H]1CCN(S(=O)(=O)N2CCC[C@H](C(=O)OCCOC(=O)c3ccc(-c4c5nc(c(-c6cc(S(=O)(=O)[O-])ccc6F)c6ccc([nH]6)c(-c6cc(S(=O)(=O)[O-])ccc6F)c6nc(c(-c7cc(S(=O)(=O)[O-])ccc7F)c7ccc4[nH]7)C=C6)C=C5)cc3)C2)C1
REMARK SMILES IDX 20 1 19 2 17 3 18 4 16 5 12 6 13 7 88 8 14 9 15 10 9 11
REMARK SMILES IDX 10 12 11 13 8 14 5 15 6 16 89 17 7 18 3 19 4 20 2 21 1 22
REMARK SMILES IDX 21 23 22 24 23 25 24 26 25 27 26 28 87 29 27 30 86 31 28 32
REMARK SMILES IDX 29 33 30 34 80 35 31 36 85 37 79 38 81 39 32 40 84 41 78 42
REMARK SMILES IDX 77 43 33 45 65 46 45 47 64 48 46 49 49 50 63 51 82 52 47 53
REMARK SMILES IDX 48 54 62 56 83 57 50 58 34 59 35 60 43 61 36 62 42 63 44 64
REMARK SMILES IDX 41 65 37 66 38 67 39 68 40 69 66 70 67 71 75 72 68 73 74 74
REMARK SMILES IDX 76 75 73 76 69 77 70 78 71 79 72 80 51 81 52 82 60 83 53 84
REMARK SMILES IDX 59 85 61 86 58 87 54 88 55 89 56 90 57 91
REMARK H PARENT 81 44 49 55
REMARK Flexibility Score: inf
ROOT
ATOM      1  C   UNL A   1      35.354  21.062  24.788  1.00  0.00     0.274 C 
ENDROOT
BRANCH   1   2
ATOM      2  O   UNL A   1      34.552  22.254  24.735  1.00  0.00    -0.462 OA
BRANCH   2   3
ATOM      3  C   UNL A   1      33.519  22.297  25.608  1.00  0.00     0.310 C 
ATOM      4  O   UNL A   1      33.639  22.499  26.814  1.00  0.00    -0.252 OA
BRANCH   3   5
ATOM      5  C   UNL A   1      32.163  22.069  24.970  1.00  0.00     0.114 C 
ATOM      6  N   UNL A   1      32.060  24.181  23.754  1.00  0.00    -0.188 NA
ATOM      7  C   UNL A   1      30.772  24.574  24.367  1.00  0.00     0.103 C 
ATOM      8  C   UNL A   1      32.207  22.725  23.613  1.00  0.00     0.118 C 
ATOM      9  C   UNL A   1      30.650  23.952  25.758  1.00  0.00     0.018 C 
ATOM     10  C   UNL A   1      30.911  22.452  25.752  1.00  0.00     0.018 C 
BRANCH   6  11
ATOM     11  S   UNL A   1      32.627  25.118  22.483  1.00  0.00     0.282 S 
ATOM     12  O   UNL A   1      31.569  25.987  22.019  1.00  0.00    -0.195 OA
ATOM     13  O   UNL A   1      33.322  24.242  21.572  1.00  0.00    -0.195 OA
BRANCH  11  14
ATOM     14  N   UNL A   1      33.777  26.084  23.282  1.00  0.00    -0.188 NA
ATOM     15  C   UNL A   1      33.483  28.053  24.667  1.00  0.00     0.116 C 
ATOM     16  C   UNL A   1      33.276  26.804  25.499  1.00  0.00     0.033 C 
ATOM     17  C   UNL A   1      33.462  27.540  23.229  1.00  0.00     0.118 C 
ATOM     18  C   UNL A   1      34.054  25.769  24.715  1.00  0.00     0.104 C 
BRANCH  15  19
ATOM     19  C   UNL A   1      32.394  29.080  24.818  1.00  0.00     0.310 C 
ATOM     20  O   UNL A   1      31.304  29.057  24.269  1.00  0.00    -0.252 OA
BRANCH  19  21
ATOM     21  O   UNL A   1      32.834  30.062  25.657  1.00  0.00    -0.469 OA
ATOM     22  C   UNL A   1      32.261  30.041  26.963  1.00  0.00     0.282 C 
ENDBRANCH  19  21
ENDBRANCH  15  19
ENDBRANCH  11  14
ENDBRANCH   6  11
ENDBRANCH   3   5
ENDBRANCH   2   3
ENDBRANCH   1   2
BRANCH   1  23
ATOM     23  C   UNL A   1      36.518  21.239  25.766  1.00  0.00     0.275 C 
BRANCH  23  24
ATOM     24  O   UNL A   1      37.773  21.438  25.080  1.00  0.00    -0.458 OA
BRANCH  24  25
ATOM     25  C   UNL A   1      38.870  21.157  25.821  1.00  0.00     0.338 C 
ATOM     26  O   UNL A   1      39.463  20.092  25.878  1.00  0.00    -0.246 OA
BRANCH  25  27
ATOM     27  C   UNL A   1      39.367  22.353  26.513  1.00  0.00     0.060 A 
ATOM     28  C   UNL A   1      38.841  23.593  26.153  1.00  0.00     0.016 A 
ATOM     29  C   UNL A   1      40.479  22.283  27.344  1.00  0.00     0.016 A 
ATOM     30  C   UNL A   1      39.476  24.769  26.521  1.00  0.00     0.010 A 
ATOM     31  C   UNL A   1      41.071  23.471  27.790  1.00  0.00     0.010 A 
ATOM     32  C   UNL A   1      40.601  24.722  27.346  1.00  0.00    -0.014 A 
BRANCH  32  33
ATOM     33  C   UNL A   1      41.311  25.983  27.674  1.00  0.00     0.031 A 
ATOM     34  C   UNL A   1      40.618  27.034  28.498  1.00  0.00     0.074 A 
ATOM     35  C   UNL A   1      42.586  26.160  27.279  1.00  0.00     0.049 A 
ATOM     36  N   UNL A   1      41.012  28.244  28.800  1.00  0.00    -0.248 NA
ATOM     37  C   UNL A   1      39.300  26.676  29.041  1.00  0.00     0.031 C 
ATOM     38  C   UNL A   1      43.387  25.179  26.541  1.00  0.00     0.029 A 
ATOM     39  N   UNL A   1      43.438  27.221  27.447  1.00  0.00    -0.354 N 
ATOM     40  C   UNL A   1      39.976  28.806  29.539  1.00  0.00     0.074 A 
ATOM     41  C   UNL A   1      38.922  27.814  29.602  1.00  0.00     0.031 C 
ATOM     42  C   UNL A   1      44.618  25.674  26.346  1.00  0.00     0.029 A 
ATOM     43  C   UNL A   1      44.670  27.035  26.864  1.00  0.00     0.049 A 
ATOM     44  H   UNL A   1      43.192  28.037  27.938  1.00  0.00     0.167 HD
ATOM     45  C   UNL A   1      39.916  30.033  30.113  1.00  0.00     0.034 A 
ATOM     46  C   UNL A   1      45.709  27.881  26.727  1.00  0.00     0.034 A 
ATOM     47  C   UNL A   1      40.986  30.999  30.040  1.00  0.00     0.049 A 
ATOM     48  C   UNL A   1      45.580  29.273  27.288  1.00  0.00     0.074 A 
ATOM     49  C   UNL A   1      41.036  32.275  30.575  1.00  0.00     0.029 A 
ATOM     50  N   UNL A   1      42.197  30.799  29.387  1.00  0.00    -0.354 N 
ATOM     51  N   UNL A   1      44.579  29.812  27.947  1.00  0.00    -0.248 NA
ATOM     52  C   UNL A   1      46.724  30.170  27.089  1.00  0.00     0.031 C 
ATOM     53  C   UNL A   1      42.239  32.871  30.180  1.00  0.00     0.029 A 
ATOM     54  C   UNL A   1      42.985  31.937  29.480  1.00  0.00     0.049 A 
ATOM     55  H   UNL A   1      42.457  29.970  28.925  1.00  0.00     0.167 HD
ATOM     56  C   UNL A   1      44.992  31.101  28.276  1.00  0.00     0.074 A 
ATOM     57  C   UNL A   1      46.337  31.247  27.757  1.00  0.00     0.031 C 
ATOM     58  C   UNL A   1      44.324  32.072  28.951  1.00  0.00     0.034 A 
BRANCH  45  59
ATOM     59  C   UNL A   1      38.628  30.409  30.811  1.00  0.00     0.023 A 
ATOM     60  C   UNL A   1      37.567  31.037  30.133  1.00  0.00     0.031 A 
ATOM     61  C   UNL A   1      38.479  30.187  32.192  1.00  0.00     0.131 A 
ATOM     62  C   UNL A   1      36.452  31.499  30.848  1.00  0.00     0.055 A 
ATOM     63  C   UNL A   1      37.324  30.564  32.881  1.00  0.00     0.041 A 
ATOM     64  F   UNL A   1      39.464  29.616  32.903  1.00  0.00    -0.206 F 
ATOM     65  C   UNL A   1      36.310  31.242  32.213  1.00  0.00     0.022 A 
BRANCH  62  66
ATOM     66  S   UNL A   1      35.276  32.593  30.004  1.00  0.00     0.124 S 
ATOM     67  O   UNL A   1      34.708  31.696  28.999  1.00  0.00    -0.237 OA
ATOM     68  O   UNL A   1      34.381  32.989  31.084  1.00  0.00    -0.237 OA
ATOM     69  O   UNL A   1      36.122  33.659  29.470  1.00  0.00    -0.744 OA
ENDBRANCH  62  66
ENDBRANCH  45  59
BRANCH  46  70
ATOM     70  C   UNL A   1      46.940  27.460  25.998  1.00  0.00     0.023 A 
ATOM     71  C   UNL A   1      47.132  27.804  24.652  1.00  0.00     0.031 A 
ATOM     72  C   UNL A   1      47.920  26.664  26.620  1.00  0.00     0.131 A 
ATOM     73  C   UNL A   1      48.248  27.314  23.956  1.00  0.00     0.055 A 
ATOM     74  C   UNL A   1      49.061  26.233  25.943  1.00  0.00     0.041 A 
ATOM     75  F   UNL A   1      47.786  26.303  27.906  1.00  0.00    -0.206 F 
ATOM     76  C   UNL A   1      49.222  26.544  24.597  1.00  0.00     0.022 A 
BRANCH  73  77
ATOM     77  S   UNL A   1      48.354  27.612  22.171  1.00  0.00     0.124 S 
ATOM     78  O   UNL A   1      47.057  28.218  21.894  1.00  0.00    -0.237 OA
ATOM     79  O   UNL A   1      49.509  28.499  22.081  1.00  0.00    -0.237 OA
ATOM     80  O   UNL A   1      48.552  26.275  21.614  1.00  0.00    -0.744 OA
ENDBRANCH  73  77
ENDBRANCH  46  70
BRANCH  58  81
ATOM     81  C   UNL A   1      45.075  33.355  29.218  1.00  0.00     0.023 A 
ATOM     82  C   UNL A   1      45.026  34.447  28.333  1.00  0.00     0.031 A 
ATOM     83  C   UNL A   1      45.885  33.471  30.362  1.00  0.00     0.131 A 
ATOM     84  C   UNL A   1      45.832  35.571  28.564  1.00  0.00     0.055 A 
ATOM     85  C   UNL A   1      46.624  34.625  30.627  1.00  0.00     0.041 A 
ATOM     86  F   UNL A   1      45.978  32.460  31.240  1.00  0.00    -0.206 F 
ATOM     87  C   UNL A   1      46.615  35.676  29.716  1.00  0.00     0.022 A 
BRANCH  84  88
ATOM     88  S   UNL A   1      45.948  36.838  27.271  1.00  0.00     0.124 S 
ATOM     89  O   UNL A   1      46.274  36.039  26.094  1.00  0.00    -0.237 OA
ATOM     90  O   UNL A   1      44.614  37.427  27.292  1.00  0.00    -0.237 OA
ATOM     91  O   UNL A   1      47.020  37.713  27.744  1.00  0.00    -0.744 OA
ENDBRANCH  84  88
ENDBRANCH  58  81
ENDBRANCH  32  33
ENDBRANCH  25  27
ENDBRANCH  24  25
ENDBRANCH  23  24
ENDBRANCH   1  23
TORSDOF 18
ENDMDL
MODEL 2
REMARK VINA RESULT:     -11.4      4.947      9.991
REMARK SMILES COC(=O)[C@H]1CCN(S(=O)(=O)N2CCC[C@H](C(=O)OCCOC(=O)c3ccc(-c4c5nc(c(-c6cc(S(=O)(=O)[O-])ccc6F)c6ccc([nH]6)c(-c6cc(S(=O)(=O)[O-])ccc6F)c6nc(c(-c7cc(S(=O)(=O)[O-])ccc7F)c7ccc4[nH]7)C=C6)C=C5)cc3)C2)C1
REMARK SMILES IDX 20 1 19 2 17 3 18 4 16 5 12 6 13 7 88 8 14 9 15 10 9 11
REMARK SMILES IDX 10 12 11 13 8 14 5 15 6 16 89 17 7 18 3 19 4 20 2 21 1 22
REMARK SMILES IDX 21 23 22 24 23 25 24 26 25 27 26 28 87 29 27 30 86 31 28 32
REMARK SMILES IDX 29 33 30 34 80 35 31 36 85 37 79 38 81 39 32 40 84 41 78 42
REMARK SMILES IDX 77 43 33 45 65 46 45 47 64 48 46 49 49 50 63 51 82 52 47 53
REMARK SMILES IDX 48 54 62 56 83 57 50 58 34 59 35 60 43 61 36 62 42 63 44 64
REMARK SMILES IDX 41 65 37 66 38 67 39 68 40 69 66 70 67 71 75 72 68 73 74 74
REMARK SMILES IDX 76 75 73 76 69 77 70 78 71 79 72 80 51 81 52 82 60 83 53 84
REMARK SMILES IDX 59 85 61 86 58 87 54 88 55 89 56 90 57 91
REMARK H PARENT 81 44 49 55
REMARK Flexibility Score: inf
ROOT
ATOM      1  C   UNL A   1      32.585  29.367  24.975  1.00  0.00     0.274 C 
ENDROOT
BRANCH   1   2
ATOM      2  O   UNL A   1      31.712  28.534  24.195  1.00  0.00    -0.462 OA
BRANCH   2   3
ATOM      3  C   UNL A   1      32.321  27.787  23.244  1.00  0.00     0.310 C 
ATOM      4  O   UNL A   1      33.524  27.824  22.999  1.00  0.00    -0.252 OA
BRANCH   3   5
ATOM      5  C   UNL A   1      31.381  26.876  22.480  1.00  0.00     0.114 C 
ATOM      6  N   UNL A   1      31.388  25.043  24.088  1.00  0.00    -0.188 NA
ATOM      7  C   UNL A   1      31.822  24.045  23.085  1.00  0.00     0.103 C 
ATOM      8  C   UNL A   1      30.576  26.123  23.508  1.00  0.00     0.118 C 
ATOM      9  C   UNL A   1      32.656  24.731  22.002  1.00  0.00     0.018 C 
ATOM     10  C   UNL A   1      31.961  25.951  21.415  1.00  0.00     0.018 C 
BRANCH   6  11
ATOM     11  S   UNL A   1      30.908  24.468  25.589  1.00  0.00     0.282 S 
ATOM     12  O   UNL A   1      30.653  23.047  25.499  1.00  0.00    -0.195 OA
ATOM     13  O   UNL A   1      29.906  25.371  26.103  1.00  0.00    -0.195 OA
BRANCH  11  14
ATOM     14  N   UNL A   1      32.335  24.681  26.489  1.00  0.00    -0.188 NA
ATOM     15  C   UNL A   1      34.536  23.707  26.196  1.00  0.00     0.116 C 
ATOM     16  C   UNL A   1      34.383  24.910  25.288  1.00  0.00     0.033 C 
ATOM     17  C   UNL A   1      33.113  23.422  26.669  1.00  0.00     0.118 C 
ATOM     18  C   UNL A   1      33.305  25.704  25.996  1.00  0.00     0.104 C 
BRANCH  15  19
ATOM     19  C   UNL A   1      35.059  22.477  25.504  1.00  0.00     0.310 C 
ATOM     20  O   UNL A   1      36.231  22.224  25.277  1.00  0.00    -0.252 OA
BRANCH  19  21
ATOM     21  O   UNL A   1      34.000  21.693  25.148  1.00  0.00    -0.469 OA
ATOM     22  C   UNL A   1      34.304  20.311  24.977  1.00  0.00     0.282 C 
ENDBRANCH  19  21
ENDBRANCH  15  19
ENDBRANCH  11  14
ENDBRANCH   6  11
ENDBRANCH   3   5
ENDBRANCH   2   3
ENDBRANCH   1   2
BRANCH   1  23
ATOM     23  C   UNL A   1      31.783  30.428  25.733  1.00  0.00     0.275 C 
BRANCH  23  24
ATOM     24  O   UNL A   1      32.252  30.595  27.088  1.00  0.00    -0.458 OA
BRANCH  24  25
ATOM     25  C   UNL A   1      32.999  31.704  27.293  1.00  0.00     0.338 C 
ATOM     26  O   UNL A   1      32.618  32.862  27.250  1.00  0.00    -0.246 OA
BRANCH  25  27
ATOM     27  C   UNL A   1      34.369  31.358  27.693  1.00  0.00     0.060 A 
ATOM     28  C   UNL A   1      34.661  30.023  27.969  1.00  0.00     0.016 A 
ATOM     29  C   UNL A   1      35.292  32.351  28.001  1.00  0.00     0.016 A 
ATOM     30  C   UNL A   1      35.817  29.674  28.650  1.00  0.00     0.010 A 
ATOM     31  C   UNL A   1      36.500  31.991  28.610  1.00  0.00     0.010 A 
ATOM     32  C   UNL A   1      36.752  30.656  28.979  1.00  0.00    -0.014 A 
BRANCH  32  33
ATOM     33  C   UNL A   1      37.950  30.278  29.770  1.00  0.00     0.031 A 
ATOM     34  C   UNL A   1      38.978  29.360  29.168  1.00  0.00     0.074 A 
ATOM     35  C   UNL A   1      38.138  30.798  30.998  1.00  0.00     0.049 A 
ATOM     36  N   UNL A   1      40.032  28.819  29.722  1.00  0.00    -0.248 NA
ATOM     37  C   UNL A   1      38.783  28.993  27.758  1.00  0.00     0.031 C 
ATOM     38  C   UNL A   1      37.248  31.760  31.655  1.00  0.00     0.029 A 
ATOM     39  N   UNL A   1      39.141  30.600  31.912  1.00  0.00    -0.354 N 
ATOM     40  C   UNL A   1      40.607  28.019  28.740  1.00  0.00     0.074 A 
ATOM     41  C   UNL A   1      39.759  28.118  27.570  1.00  0.00     0.031 C 
ATOM     42  C   UNL A   1      37.760  32.087  32.850  1.00  0.00     0.029 A 
ATOM     43  C   UNL A   1      38.962  31.297  33.084  1.00  0.00     0.049 A 
ATOM     44  H   UNL A   1      39.915  30.016  31.744  1.00  0.00     0.167 HD
ATOM     45  C   UNL A   1      41.741  27.277  28.810  1.00  0.00     0.034 A 
ATOM     46  C   UNL A   1      39.665  31.270  34.232  1.00  0.00     0.034 A 
ATOM     47  C   UNL A   1      42.572  27.202  29.988  1.00  0.00     0.049 A 
ATOM     48  C   UNL A   1      40.864  30.363  34.320  1.00  0.00     0.074 A 
ATOM     49  C   UNL A   1      43.737  26.480  30.180  1.00  0.00     0.029 A 
ATOM     50  N   UNL A   1      42.325  27.874  31.181  1.00  0.00    -0.354 N 
ATOM     51  N   UNL A   1      41.376  29.575  33.401  1.00  0.00    -0.248 NA
ATOM     52  C   UNL A   1      41.582  30.344  35.599  1.00  0.00     0.031 C 
ATOM     53  C   UNL A   1      44.148  26.651  31.507  1.00  0.00     0.029 A 
ATOM     54  C   UNL A   1      43.298  27.558  32.119  1.00  0.00     0.049 A 
ATOM     55  H   UNL A   1      41.570  28.485  31.337  1.00  0.00     0.167 HD
ATOM     56  C   UNL A   1      42.502  28.998  33.982  1.00  0.00     0.074 A 
ATOM     57  C   UNL A   1      42.599  29.542  35.321  1.00  0.00     0.031 C 
ATOM     58  C   UNL A   1      43.378  28.104  33.455  1.00  0.00     0.034 A 
BRANCH  45  59
ATOM     59  C   UNL A   1      42.101  26.444  27.600  1.00  0.00     0.023 A 
ATOM     60  C   UNL A   1      41.711  25.099  27.476  1.00  0.00     0.031 A 
ATOM     61  C   UNL A   1      42.896  26.991  26.576  1.00  0.00     0.131 A 
ATOM     62  C   UNL A   1      42.189  24.325  26.408  1.00  0.00     0.055 A 
ATOM     63  C   UNL A   1      43.289  26.241  25.465  1.00  0.00     0.041 A 
ATOM     64  F   UNL A   1      43.324  28.262  26.646  1.00  0.00    -0.206 F 
ATOM     65  C   UNL A   1      42.952  24.894  25.387  1.00  0.00     0.022 A 
BRANCH  62  66
ATOM     66  S   UNL A   1      41.946  22.528  26.466  1.00  0.00     0.124 S 
ATOM     67  O   UNL A   1      42.436  22.207  27.805  1.00  0.00    -0.237 OA
ATOM     68  O   UNL A   1      40.508  22.396  26.264  1.00  0.00    -0.237 OA
ATOM     69  O   UNL A   1      42.778  22.034  25.371  1.00  0.00    -0.744 OA
ENDBRANCH  62  66
ENDBRANCH  45  59
BRANCH  46  70
ATOM     70  C   UNL A   1      39.238  32.090  35.403  1.00  0.00     0.023 A 
ATOM     71  C   UNL A   1      39.654  33.423  35.538  1.00  0.00     0.031 A 
ATOM     72  C   UNL A   1      38.449  31.539  36.430  1.00  0.00     0.131 A 
ATOM     73  C   UNL A   1      39.325  34.145  36.695  1.00  0.00     0.055 A 
ATOM     74  C   UNL A   1      38.069  32.282  37.549  1.00  0.00     0.041 A 
ATOM     75  F   UNL A   1      38.024  30.268  36.355  1.00  0.00    -0.206 F 
ATOM     76  C   UNL A   1      38.521  33.589  37.694  1.00  0.00     0.022 A 
BRANCH  73  77
ATOM     77  S   UNL A   1      40.050  35.791  36.923  1.00  0.00     0.124 S 
ATOM     78  O   UNL A   1      41.469  35.475  37.048  1.00  0.00    -0.237 OA
ATOM     79  O   UNL A   1      39.651  36.470  35.695  1.00  0.00    -0.237 OA
ATOM     80  O   UNL A   1      39.409  36.280  38.141  1.00  0.00    -0.744 OA
ENDBRANCH  73  77
ENDBRANCH  46  70
BRANCH  58  81
ATOM     81  C   UNL A   1      44.556  27.715  34.319  1.00  0.00     0.023 A 
ATOM     82  C   UNL A   1      44.491  26.650  35.234  1.00  0.00     0.031 A 
ATOM     83  C   UNL A   1      45.753  28.451  34.248  1.00  0.00     0.131 A 
ATOM     84  C   UNL A   1      45.569  26.403  36.097  1.00  0.00     0.055 A 
ATOM     85  C   UNL A   1      46.852  28.149  35.054  1.00  0.00     0.041 A 
ATOM     86  F   UNL A   1      45.873  29.483  33.398  1.00  0.00    -0.206 F 
ATOM     87  C   UNL A   1      46.757  27.132  35.999  1.00  0.00     0.022 A 
BRANCH  84  88
ATOM     88  S   UNL A   1      45.350  25.204  37.440  1.00  0.00     0.124 S 
ATOM     89  O   UNL A   1      43.941  24.850  37.302  1.00  0.00    -0.237 OA
ATOM     90  O   UNL A   1      46.307  24.161  37.087  1.00  0.00    -0.237 OA
ATOM     91  O   UNL A   1      45.683  25.970  38.641  1.00  0.00    -0.744 OA
ENDBRANCH  84  88
ENDBRANCH  58  81
ENDBRANCH  32  33
ENDBRANCH  25  27
ENDBRANCH  24  25
ENDBRANCH  23  24
ENDBRANCH   1  23
TORSDOF 18
ENDMDL
MODEL 3
REMARK VINA RESULT:     -11.3      1.502      7.676
REMARK SMILES COC(=O)[C@H]1CCN(S(=O)(=O)N2CCC[C@H](C(=O)OCCOC(=O)c3ccc(-c4c5nc(c(-c6cc(S(=O)(=O)[O-])ccc6F)c6ccc([nH]6)c(-c6cc(S(=O)(=O)[O-])ccc6F)c6nc(c(-c7cc(S(=O)(=O)[O-])ccc7F)c7ccc4[nH]7)C=C6)C=C5)cc3)C2)C1
REMARK SMILES IDX 20 1 19 2 17 3 18 4 16 5 12 6 13 7 88 8 14 9 15 10 9 11
REMARK SMILES IDX 10 12 11 13 8 14 5 15 6 16 89 17 7 18 3 19 4 20 2 21 1 22
REMARK SMILES IDX 21 23 22 24 23 25 24 26 25 27 26 28 87 29 27 30 86 31 28 32
REMARK SMILES IDX 29 33 30 34 80 35 31 36 85 37 79 38 81 39 32 40 84 41 78 42
REMARK SMILES IDX 77 43 33 45 65 46 45 47 64 48 46 49 49 50 63 51 82 52 47 53
REMARK SMILES IDX 48 54 62 56 83 57 50 58 34 59 35 60 43 61 36 62 42 63 44 64
REMARK SMILES IDX 41 65 37 66 38 67 39 68 40 69 66 70 67 71 75 72 68 73 74 74
REMARK SMILES IDX 76 75 73 76 69 77 70 78 71 79 72 80 51 81 52 82 60 83 53 84
REMARK SMILES IDX 59 85 61 86 58 87 54 88 55 89 56 90 57 91
REMARK H PARENT 81 44 49 55
REMARK Flexibility Score: inf
ROOT
ATOM      1  C   UNL A   1      35.991  20.196  24.977  1.00  0.00     0.274 C 
ENDROOT
BRANCH   1   2
ATOM      2  O   UNL A   1      35.670  21.598  24.968  1.00  0.00    -0.462 OA
BRANCH   2   3
ATOM      3  C   UNL A   1      34.452  21.916  25.466  1.00  0.00     0.310 C 
ATOM      4  O   UNL A   1      34.271  22.499  26.532  1.00  0.00    -0.252 OA
BRANCH   3   5
ATOM      5  C   UNL A   1      33.296  21.488  24.586  1.00  0.00     0.114 C 
ATOM      6  N   UNL A   1      32.641  23.723  23.863  1.00  0.00    -0.188 NA
ATOM      7  C   UNL A   1      31.247  23.565  24.333  1.00  0.00     0.103 C 
ATOM      8  C   UNL A   1      33.248  22.455  23.431  1.00  0.00     0.118 C 
ATOM      9  C   UNL A   1      31.208  22.597  25.517  1.00  0.00     0.018 C 
ATOM     10  C   UNL A   1      31.925  21.286  25.223  1.00  0.00     0.018 C 
BRANCH   6  11
ATOM     11  S   UNL A   1      32.993  25.077  22.936  1.00  0.00     0.282 S 
ATOM     12  O   UNL A   1      31.782  25.836  22.717  1.00  0.00    -0.195 OA
ATOM     13  O   UNL A   1      33.810  24.646  21.827  1.00  0.00    -0.195 OA
BRANCH  11  14
ATOM     14  N   UNL A   1      33.970  25.960  24.012  1.00  0.00    -0.188 NA
ATOM     15  C   UNL A   1      33.449  27.892  25.381  1.00  0.00     0.116 C 
ATOM     16  C   UNL A   1      33.013  26.627  26.091  1.00  0.00     0.033 C 
ATOM     17  C   UNL A   1      33.731  27.430  23.954  1.00  0.00     0.118 C 
ATOM     18  C   UNL A   1      33.907  25.584  25.455  1.00  0.00     0.104 C 
BRANCH  15  19
ATOM     19  C   UNL A   1      32.393  28.963  25.331  1.00  0.00     0.310 C 
ATOM     20  O   UNL A   1      31.289  28.861  24.820  1.00  0.00    -0.252 OA
BRANCH  19  21
ATOM     21  O   UNL A   1      32.881  30.086  25.933  1.00  0.00    -0.469 OA
ATOM     22  C   UNL A   1      31.900  30.907  26.563  1.00  0.00     0.282 C 
ENDBRANCH  19  21
ENDBRANCH  15  19
ENDBRANCH  11  14
ENDBRANCH   6  11
ENDBRANCH   3   5
ENDBRANCH   2   3
ENDBRANCH   1   2
BRANCH   1  23
ATOM     23  C   UNL A   1      37.508  19.991  24.950  1.00  0.00     0.275 C 
BRANCH  23  24
ATOM     24  O   UNL A   1      38.223  21.210  25.241  1.00  0.00    -0.458 OA
BRANCH  24  25
ATOM     25  C   UNL A   1      39.299  21.053  26.047  1.00  0.00     0.338 C 
ATOM     26  O   UNL A   1      39.970  20.043  26.185  1.00  0.00    -0.246 OA
BRANCH  25  27
ATOM     27  C   UNL A   1      39.663  22.316  26.702  1.00  0.00     0.060 A 
ATOM     28  C   UNL A   1      39.056  23.490  26.260  1.00  0.00     0.016 A 
ATOM     29  C   UNL A   1      40.736  22.376  27.583  1.00  0.00     0.016 A 
ATOM     30  C   UNL A   1      39.575  24.730  26.598  1.00  0.00     0.010 A 
ATOM     31  C   UNL A   1      41.208  23.628  27.997  1.00  0.00     0.010 A 
ATOM     32  C   UNL A   1      40.659  24.814  27.473  1.00  0.00    -0.014 A 
BRANCH  32  33
ATOM     33  C   UNL A   1      41.248  26.143  27.771  1.00  0.00     0.031 A 
ATOM     34  C   UNL A   1      42.635  26.467  27.287  1.00  0.00     0.074 A 
ATOM     35  C   UNL A   1      40.523  27.070  28.424  1.00  0.00     0.049 A 
ATOM     36  N   UNL A   1      43.375  27.517  27.532  1.00  0.00    -0.248 NA
ATOM     37  C   UNL A   1      43.278  25.466  26.423  1.00  0.00     0.031 C 
ATOM     38  C   UNL A   1      39.138  26.898  28.875  1.00  0.00     0.029 A 
ATOM     39  N   UNL A   1      40.841  28.345  28.819  1.00  0.00    -0.354 N 
ATOM     40  C   UNL A   1      44.584  27.288  26.883  1.00  0.00     0.074 A 
ATOM     41  C   UNL A   1      44.488  25.980  26.267  1.00  0.00     0.031 C 
ATOM     42  C   UNL A   1      38.721  28.032  29.456  1.00  0.00     0.029 A 
ATOM     43  C   UNL A   1      39.829  28.978  29.500  1.00  0.00     0.049 A 
ATOM     44  H   UNL A   1      41.710  28.765  28.631  1.00  0.00     0.167 HD
ATOM     45  C   UNL A   1      45.669  28.099  26.805  1.00  0.00     0.034 A 
ATOM     46  C   UNL A   1      39.810  30.171  30.126  1.00  0.00     0.034 A 
ATOM     47  C   UNL A   1      45.735  29.402  27.423  1.00  0.00     0.049 A 
ATOM     48  C   UNL A   1      41.060  31.011  30.110  1.00  0.00     0.074 A 
ATOM     49  C   UNL A   1      46.781  30.308  27.419  1.00  0.00     0.029 A 
ATOM     50  N   UNL A   1      44.711  29.987  28.160  1.00  0.00    -0.354 N 
ATOM     51  N   UNL A   1      42.214  30.768  29.531  1.00  0.00    -0.248 NA
ATOM     52  C   UNL A   1      41.003  32.288  30.829  1.00  0.00     0.031 C 
ATOM     53  C   UNL A   1      46.421  31.401  28.216  1.00  0.00     0.029 A 
ATOM     54  C   UNL A   1      45.113  31.226  28.640  1.00  0.00     0.049 A 
ATOM     55  H   UNL A   1      43.829  29.580  28.319  1.00  0.00     0.167 HD
ATOM     56  C   UNL A   1      43.007  31.884  29.784  1.00  0.00     0.074 A 
ATOM     57  C   UNL A   1      42.191  32.802  30.553  1.00  0.00     0.031 C 
ATOM     58  C   UNL A   1      44.290  32.129  29.411  1.00  0.00     0.034 A 
BRANCH  45  59
ATOM     59  C   UNL A   1      46.883  27.564  26.080  1.00  0.00     0.023 A 
ATOM     60  C   UNL A   1      47.190  27.939  24.759  1.00  0.00     0.031 A 
ATOM     61  C   UNL A   1      47.720  26.618  26.701  1.00  0.00     0.131 A 
ATOM     62  C   UNL A   1      48.241  27.308  24.076  1.00  0.00     0.055 A 
ATOM     63  C   UNL A   1      48.823  26.065  26.048  1.00  0.00     0.041 A 
ATOM     64  F   UNL A   1      47.468  26.199  27.951  1.00  0.00    -0.206 F 
ATOM     65  C   UNL A   1      49.078  26.395  24.720  1.00  0.00     0.022 A 
BRANCH  62  66
ATOM     66  S   UNL A   1      48.388  27.569  22.287  1.00  0.00     0.124 S 
ATOM     67  O   UNL A   1      49.518  28.494  22.215  1.00  0.00    -0.237 OA
ATOM     68  O   UNL A   1      48.636  26.220  21.791  1.00  0.00    -0.237 OA
ATOM     69  O   UNL A   1      47.097  28.143  21.917  1.00  0.00    -0.744 OA
ENDBRANCH  62  66
ENDBRANCH  45  59
BRANCH  46  70
ATOM     70  C   UNL A   1      38.590  30.627  30.854  1.00  0.00     0.023 A 
ATOM     71  C   UNL A   1      37.539  31.258  30.172  1.00  0.00     0.031 A 
ATOM     72  C   UNL A   1      38.477  30.484  32.250  1.00  0.00     0.131 A 
ATOM     73  C   UNL A   1      36.446  31.769  30.888  1.00  0.00     0.055 A 
ATOM     74  C   UNL A   1      37.358  30.936  32.950  1.00  0.00     0.041 A 
ATOM     75  F   UNL A   1      39.454  29.891  32.954  1.00  0.00    -0.206 F 
ATOM     76  C   UNL A   1      36.341  31.597  32.271  1.00  0.00     0.022 A 
BRANCH  73  77
ATOM     77  S   UNL A   1      35.212  32.754  29.998  1.00  0.00     0.124 S 
ATOM     78  O   UNL A   1      36.016  33.870  29.514  1.00  0.00    -0.237 OA
ATOM     79  O   UNL A   1      34.747  31.812  28.985  1.00  0.00    -0.237 OA
ATOM     80  O   UNL A   1      34.234  33.088  31.030  1.00  0.00    -0.744 OA
ENDBRANCH  73  77
ENDBRANCH  46  70
BRANCH  58  81
ATOM     81  C   UNL A   1      44.859  33.480  29.781  1.00  0.00     0.023 A 
ATOM     82  C   UNL A   1      45.549  33.695  30.986  1.00  0.00     0.031 A 
ATOM     83  C   UNL A   1      44.673  34.580  28.922  1.00  0.00     0.131 A 
ATOM     84  C   UNL A   1      45.956  34.991  31.338  1.00  0.00     0.055 A 
ATOM     85  C   UNL A   1      45.151  35.851  29.242  1.00  0.00     0.041 A 
ATOM     86  F   UNL A   1      44.017  34.438  27.760  1.00  0.00    -0.206 F 
ATOM     87  C   UNL A   1      45.780  36.066  30.465  1.00  0.00     0.022 A 
BRANCH  84  88
ATOM     88  S   UNL A   1      46.597  35.276  33.010  1.00  0.00     0.124 S 
ATOM     89  O   UNL A   1      47.841  34.513  32.991  1.00  0.00    -0.237 OA
ATOM     90  O   UNL A   1      46.740  36.727  33.046  1.00  0.00    -0.237 OA
ATOM     91  O   UNL A   1      45.550  34.734  33.876  1.00  0.00    -0.744 OA
ENDBRANCH  84  88
ENDBRANCH  58  81
ENDBRANCH  32  33
ENDBRANCH  25  27
ENDBRANCH  24  25
ENDBRANCH  23  24
ENDBRANCH   1  23
TORSDOF 18
ENDMDL
