MODEL 1
REMARK VINA RESULT:     -11.4      0.000      0.000
REMARK SMILES CCc1c(C)nc(Nc2cc(Cl)ccc2C)nc1OCC(=O)OCCOC(=O)c1ccc(-c2c3nc(c(-c4cc(S(=O)(=O)[O-])ccc4F)c4ccc([nH]4)c(-c4cc(S(=O)(=O)[O-])ccc4F)c4nc(c(-c5cc(S(=O)(=O)[O-])ccc5F)c5ccc2[nH]5)C=C4)C=C3)cc1
REMARK SMILES IDX 24 1 23 2 21 3 22 4 20 5 19 6 18 7 3 8 4 9 5 10 6 11 17 12
REMARK SMILES IDX 7 13 2 14 1 15 8 16 9 18 10 19 15 20 11 21 14 22 16 23 12 24
REMARK SMILES IDX 13 25 25 26 26 27 27 28 28 29 29 30 30 31 91 32 31 33 90 34
REMARK SMILES IDX 32 35 33 36 34 37 84 38 35 39 89 40 83 41 85 42 36 43 88 44
REMARK SMILES IDX 82 45 81 46 37 48 69 49 49 50 68 51 50 52 53 53 67 54 86 55
REMARK SMILES IDX 51 56 52 57 66 59 87 60 54 61 38 62 39 63 47 64 40 65 46 66
REMARK SMILES IDX 48 67 45 68 41 69 42 70 43 71 44 72 70 73 71 74 79 75 72 76
REMARK SMILES IDX 78 77 80 78 77 79 73 80 74 81 75 82 76 83 55 84 56 85 64 86
REMARK SMILES IDX 57 87 63 88 65 89 62 90 58 91 59 92 60 93 61 94
REMARK H PARENT 8 17 85 47 53 58
REMARK Flexibility Score: inf
ROOT
ATOM      1  C   UNL A   1      35.031  20.900  24.641  1.00  0.00     0.274 C 
ENDROOT
BRANCH   1   2
ATOM      2  O   UNL A   1      34.995  22.344  24.656  1.00  0.00    -0.460 OA
BRANCH   2   3
ATOM      3  C   UNL A   1      35.222  22.937  23.455  1.00  0.00     0.344 C 
ATOM      4  O   UNL A   1      36.330  23.253  23.032  1.00  0.00    -0.248 OA
BRANCH   3   5
ATOM      5  C   UNL A   1      33.935  23.335  22.721  1.00  0.00     0.353 C 
BRANCH   5   6
ATOM      6  O   UNL A   1      32.745  23.826  23.281  1.00  0.00    -0.465 OA
BRANCH   6   7
ATOM      7  C   UNL A   1      32.599  25.120  23.661  1.00  0.00     0.222 A 
ATOM      8  C   UNL A   1      32.949  25.692  24.877  1.00  0.00     0.035 A 
ATOM      9  C   UNL A   1      32.849  27.080  24.898  1.00  0.00     0.050 A 
ATOM     10  C   UNL A   1      33.265  27.964  26.032  1.00  0.00     0.067 C 
ATOM     11  N   UNL A   1      32.272  27.770  23.903  1.00  0.00    -0.218 NA
ATOM     12  N   UNL A   1      31.940  25.801  22.698  1.00  0.00    -0.177 NA
ATOM     13  C   UNL A   1      31.746  27.106  22.880  1.00  0.00     0.230 A 
BRANCH   8  14
ATOM     14  C   UNL A   1      33.302  24.919  26.115  1.00  0.00     0.040 C 
ATOM     15  C   UNL A   1      32.163  24.078  26.674  1.00  0.00     0.009 C 
ENDBRANCH   8  14
BRANCH  13  16
ATOM     16  N   UNL A   1      30.874  27.777  22.017  1.00  0.00    -0.324 N 
ATOM     17  H   UNL A   1      31.005  27.654  21.049  1.00  0.00     0.170 HD
BRANCH  16  18
ATOM     18  C   UNL A   1      29.822  28.615  22.432  1.00  0.00     0.045 A 
ATOM     19  C   UNL A   1      29.783  29.945  21.986  1.00  0.00     0.047 A 
ATOM     20  C   UNL A   1      28.722  28.104  23.157  1.00  0.00    -0.027 A 
ATOM     21  C   UNL A   1      28.664  30.742  22.237  1.00  0.00     0.043 A 
ATOM     22  C   UNL A   1      27.597  28.913  23.382  1.00  0.00     0.007 A 
ATOM     23  C   UNL A   1      28.700  26.682  23.653  1.00  0.00     0.046 C 
ATOM     24  Cl  UNL A   1      28.629  32.371  21.681  1.00  0.00    -0.084 Cl
ATOM     25  C   UNL A   1      27.568  30.228  22.921  1.00  0.00     0.021 A 
ENDBRANCH  16  18
ENDBRANCH  13  16
ENDBRANCH   6   7
ENDBRANCH   5   6
ENDBRANCH   3   5
ENDBRANCH   2   3
ENDBRANCH   1   2
BRANCH   1  26
ATOM     26  C   UNL A   1      36.436  20.358  24.895  1.00  0.00     0.275 C 
BRANCH  26  27
ATOM     27  O   UNL A   1      37.074  21.116  25.936  1.00  0.00    -0.458 OA
BRANCH  27  28
ATOM     28  C   UNL A   1      38.423  21.185  25.857  1.00  0.00     0.338 C 
ATOM     29  O   UNL A   1      39.161  20.308  25.419  1.00  0.00    -0.246 OA
BRANCH  28  30
ATOM     30  C   UNL A   1      38.930  22.490  26.346  1.00  0.00     0.060 A 
ATOM     31  C   UNL A   1      38.235  23.682  26.138  1.00  0.00     0.016 A 
ATOM     32  C   UNL A   1      40.207  22.536  26.917  1.00  0.00     0.016 A 
ATOM     33  C   UNL A   1      38.864  24.911  26.380  1.00  0.00     0.010 A 
ATOM     34  C   UNL A   1      40.796  23.765  27.240  1.00  0.00     0.010 A 
ATOM     35  C   UNL A   1      40.152  24.974  26.936  1.00  0.00    -0.014 A 
BRANCH  35  36
ATOM     36  C   UNL A   1      40.837  26.277  27.203  1.00  0.00     0.031 A 
ATOM     37  C   UNL A   1      42.237  26.539  26.692  1.00  0.00     0.074 A 
ATOM     38  C   UNL A   1      40.228  27.231  27.937  1.00  0.00     0.049 A 
ATOM     39  N   UNL A   1      43.091  27.471  27.037  1.00  0.00    -0.248 NA
ATOM     40  C   UNL A   1      42.743  25.624  25.659  1.00  0.00     0.031 C 
ATOM     41  C   UNL A   1      38.861  27.161  28.456  1.00  0.00     0.029 A 
ATOM     42  N   UNL A   1      40.690  28.444  28.389  1.00  0.00    -0.354 N 
ATOM     43  C   UNL A   1      44.250  27.226  26.302  1.00  0.00     0.074 A 
ATOM     44  C   UNL A   1      43.985  26.057  25.489  1.00  0.00     0.031 C 
ATOM     45  C   UNL A   1      38.591  28.283  29.138  1.00  0.00     0.029 A 
ATOM     46  C   UNL A   1      39.797  29.097  29.206  1.00  0.00     0.049 A 
ATOM     47  H   UNL A   1      41.573  28.810  28.152  1.00  0.00     0.167 HD
ATOM     48  C   UNL A   1      45.424  27.906  26.312  1.00  0.00     0.034 A 
ATOM     49  C   UNL A   1      39.941  30.180  29.993  1.00  0.00     0.034 A 
ATOM     50  C   UNL A   1      45.665  29.093  27.099  1.00  0.00     0.049 A 
ATOM     51  C   UNL A   1      41.274  30.871  30.060  1.00  0.00     0.074 A 
ATOM     52  C   UNL A   1      46.810  29.872  27.158  1.00  0.00     0.029 A 
ATOM     53  N   UNL A   1      44.748  29.677  27.961  1.00  0.00    -0.354 N 
ATOM     54  N   UNL A   1      42.388  30.574  29.434  1.00  0.00    -0.248 NA
ATOM     55  C   UNL A   1      41.370  32.028  30.957  1.00  0.00     0.031 C 
ATOM     56  C   UNL A   1      46.604  30.889  28.098  1.00  0.00     0.029 A 
ATOM     57  C   UNL A   1      45.309  30.786  28.576  1.00  0.00     0.049 A 
ATOM     58  H   UNL A   1      43.831  29.351  28.114  1.00  0.00     0.167 HD
ATOM     59  C   UNL A   1      43.320  31.515  29.860  1.00  0.00     0.074 A 
ATOM     60  C   UNL A   1      42.631  32.398  30.779  1.00  0.00     0.031 C 
ATOM     61  C   UNL A   1      44.628  31.638  29.520  1.00  0.00     0.034 A 
BRANCH  48  62
ATOM     62  C   UNL A   1      46.568  27.355  25.494  1.00  0.00     0.023 A 
ATOM     63  C   UNL A   1      46.936  27.898  24.253  1.00  0.00     0.031 A 
ATOM     64  C   UNL A   1      47.327  26.278  25.993  1.00  0.00     0.131 A 
ATOM     65  C   UNL A   1      48.007  27.340  23.534  1.00  0.00     0.055 A 
ATOM     66  C   UNL A   1      48.425  25.764  25.301  1.00  0.00     0.041 A 
ATOM     67  F   UNL A   1      47.010  25.708  27.166  1.00  0.00    -0.206 F 
ATOM     68  C   UNL A   1      48.766  26.290  24.059  1.00  0.00     0.022 A 
BRANCH  65  69
ATOM     69  S   UNL A   1      48.334  27.937  21.853  1.00  0.00     0.124 S 
ATOM     70  O   UNL A   1      47.228  28.867  21.649  1.00  0.00    -0.237 OA
ATOM     71  O   UNL A   1      49.658  28.535  21.986  1.00  0.00    -0.237 OA
ATOM     72  O   UNL A   1      48.278  26.722  21.042  1.00  0.00    -0.744 OA
ENDBRANCH  65  69
ENDBRANCH  48  62
BRANCH  49  73
ATOM     73  C   UNL A   1      38.815  30.608  30.866  1.00  0.00     0.023 A 
ATOM     74  C   UNL A   1      37.899  31.583  30.446  1.00  0.00     0.031 A 
ATOM     75  C   UNL A   1      38.640  30.038  32.142  1.00  0.00     0.131 A 
ATOM     76  C   UNL A   1      36.854  31.968  31.300  1.00  0.00     0.055 A 
ATOM     77  C   UNL A   1      37.573  30.388  32.966  1.00  0.00     0.041 A 
ATOM     78  F   UNL A   1      39.492  29.100  32.587  1.00  0.00    -0.206 F 
ATOM     79  C   UNL A   1      36.676  31.366  32.549  1.00  0.00     0.022 A 
BRANCH  76  80
ATOM     80  S   UNL A   1      35.754  33.309  30.775  1.00  0.00     0.124 S 
ATOM     81  O   UNL A   1      36.257  33.600  29.438  1.00  0.00    -0.237 OA
ATOM     82  O   UNL A   1      34.444  32.670  30.843  1.00  0.00    -0.237 OA
ATOM     83  O   UNL A   1      35.988  34.352  31.772  1.00  0.00    -0.744 OA
ENDBRANCH  76  80
ENDBRANCH  49  73
BRANCH  61  84
ATOM     84  C   UNL A   1      45.378  32.790  30.134  1.00  0.00     0.023 A 
ATOM     85  C   UNL A   1      45.424  34.050  29.513  1.00  0.00     0.031 A 
ATOM     86  C   UNL A   1      46.098  32.610  31.328  1.00  0.00     0.131 A 
ATOM     87  C   UNL A   1      46.223  35.067  30.056  1.00  0.00     0.055 A 
ATOM     88  C   UNL A   1      46.849  33.642  31.892  1.00  0.00     0.041 A 
ATOM     89  F   UNL A   1      46.091  31.426  31.958  1.00  0.00    -0.206 F 
ATOM     90  C   UNL A   1      46.926  34.874  31.248  1.00  0.00     0.022 A 
BRANCH  87  91
ATOM     91  S   UNL A   1      46.412  36.615  29.130  1.00  0.00     0.124 S 
ATOM     92  O   UNL A   1      46.545  36.135  27.759  1.00  0.00    -0.237 OA
ATOM     93  O   UNL A   1      45.171  37.318  29.441  1.00  0.00    -0.237 OA
ATOM     94  O   UNL A   1      47.620  37.210  29.699  1.00  0.00    -0.744 OA
ENDBRANCH  87  91
ENDBRANCH  61  84
ENDBRANCH  35  36
ENDBRANCH  28  30
ENDBRANCH  27  28
ENDBRANCH  26  27
ENDBRANCH   1  26
TORSDOF 19
ENDMDL
MODEL 2
REMARK VINA RESULT:     -11.1      1.186      7.520
REMARK SMILES CCc1c(C)nc(Nc2cc(Cl)ccc2C)nc1OCC(=O)OCCOC(=O)c1ccc(-c2c3nc(c(-c4cc(S(=O)(=O)[O-])ccc4F)c4ccc([nH]4)c(-c4cc(S(=O)(=O)[O-])ccc4F)c4nc(c(-c5cc(S(=O)(=O)[O-])ccc5F)c5ccc2[nH]5)C=C4)C=C3)cc1
REMARK SMILES IDX 24 1 23 2 21 3 22 4 20 5 19 6 18 7 3 8 4 9 5 10 6 11 17 12
REMARK SMILES IDX 7 13 2 14 1 15 8 16 9 18 10 19 15 20 11 21 14 22 16 23 12 24
REMARK SMILES IDX 13 25 25 26 26 27 27 28 28 29 29 30 30 31 91 32 31 33 90 34
REMARK SMILES IDX 32 35 33 36 34 37 84 38 35 39 89 40 83 41 85 42 36 43 88 44
REMARK SMILES IDX 82 45 81 46 37 48 69 49 49 50 68 51 50 52 53 53 67 54 86 55
REMARK SMILES IDX 51 56 52 57 66 59 87 60 54 61 38 62 39 63 47 64 40 65 46 66
REMARK SMILES IDX 48 67 45 68 41 69 42 70 43 71 44 72 70 73 71 74 79 75 72 76
REMARK SMILES IDX 78 77 80 78 77 79 73 80 74 81 75 82 76 83 55 84 56 85 64 86
REMARK SMILES IDX 57 87 63 88 65 89 62 90 58 91 59 92 60 93 61 94
REMARK H PARENT 8 17 85 47 53 58
REMARK Flexibility Score: inf
ROOT
ATOM      1  C   UNL A   1      35.065  21.059  24.631  1.00  0.00     0.274 C 
ENDROOT
BRANCH   1   2
ATOM      2  O   UNL A   1      34.745  22.456  24.439  1.00  0.00    -0.460 OA
BRANCH   2   3
ATOM      3  C   UNL A   1      35.064  22.955  23.217  1.00  0.00     0.344 C 
ATOM      4  O   UNL A   1      36.186  22.918  22.720  1.00  0.00    -0.248 OA
BRANCH   3   5
ATOM      5  C   UNL A   1      33.916  23.732  22.560  1.00  0.00     0.353 C 
BRANCH   5   6
ATOM      6  O   UNL A   1      32.688  24.096  23.135  1.00  0.00    -0.465 OA
BRANCH   6   7
ATOM      7  C   UNL A   1      32.435  25.354  23.577  1.00  0.00     0.222 A 
ATOM      8  C   UNL A   1      32.688  25.876  24.838  1.00  0.00     0.035 A 
ATOM      9  C   UNL A   1      32.491  27.251  24.930  1.00  0.00     0.050 A 
ATOM     10  C   UNL A   1      32.793  28.093  26.130  1.00  0.00     0.067 C 
ATOM     11  N   UNL A   1      31.915  27.958  23.947  1.00  0.00    -0.218 NA
ATOM     12  N   UNL A   1      31.776  26.044  22.620  1.00  0.00    -0.177 NA
ATOM     13  C   UNL A   1      31.485  27.321  22.863  1.00  0.00     0.230 A 
BRANCH   8  14
ATOM     14  C   UNL A   1      33.036  25.058  26.049  1.00  0.00     0.040 C 
ATOM     15  C   UNL A   1      34.522  24.761  26.198  1.00  0.00     0.009 C 
ENDBRANCH   8  14
BRANCH  13  16
ATOM     16  N   UNL A   1      30.610  27.982  21.996  1.00  0.00    -0.324 N 
ATOM     17  H   UNL A   1      30.722  27.828  21.030  1.00  0.00     0.170 HD
BRANCH  16  18
ATOM     18  C   UNL A   1      29.579  28.849  22.403  1.00  0.00     0.045 A 
ATOM     19  C   UNL A   1      29.576  30.177  21.949  1.00  0.00     0.047 A 
ATOM     20  C   UNL A   1      28.465  28.372  23.129  1.00  0.00    -0.027 A 
ATOM     21  C   UNL A   1      28.477  31.005  22.192  1.00  0.00     0.043 A 
ATOM     22  C   UNL A   1      27.361  29.212  23.346  1.00  0.00     0.007 A 
ATOM     23  C   UNL A   1      28.405  26.954  23.634  1.00  0.00     0.046 C 
ATOM     24  Cl  UNL A   1      28.487  32.631  21.627  1.00  0.00    -0.084 Cl
ATOM     25  C   UNL A   1      27.367  30.524  22.877  1.00  0.00     0.021 A 
ENDBRANCH  16  18
ENDBRANCH  13  16
ENDBRANCH   6   7
ENDBRANCH   5   6
ENDBRANCH   3   5
ENDBRANCH   2   3
ENDBRANCH   1   2
BRANCH   1  26
ATOM     26  C   UNL A   1      36.571  20.817  24.683  1.00  0.00     0.275 C 
BRANCH  26  27
ATOM     27  O   UNL A   1      37.157  21.591  25.742  1.00  0.00    -0.458 OA
BRANCH  27  28
ATOM     28  C   UNL A   1      38.494  21.448  25.892  1.00  0.00     0.338 C 
ATOM     29  O   UNL A   1      39.151  20.467  25.559  1.00  0.00    -0.246 OA
BRANCH  28  30
ATOM     30  C   UNL A   1      39.107  22.656  26.495  1.00  0.00     0.060 A 
ATOM     31  C   UNL A   1      38.643  23.943  26.214  1.00  0.00     0.016 A 
ATOM     32  C   UNL A   1      40.265  22.502  27.264  1.00  0.00     0.016 A 
ATOM     33  C   UNL A   1      39.403  25.058  26.590  1.00  0.00     0.010 A 
ATOM     34  C   UNL A   1      40.973  23.623  27.715  1.00  0.00     0.010 A 
ATOM     35  C   UNL A   1      40.577  24.919  27.348  1.00  0.00    -0.014 A 
BRANCH  35  36
ATOM     36  C   UNL A   1      41.399  26.100  27.761  1.00  0.00     0.031 A 
ATOM     37  C   UNL A   1      40.800  27.211  28.594  1.00  0.00     0.074 A 
ATOM     38  C   UNL A   1      42.684  26.209  27.364  1.00  0.00     0.049 A 
ATOM     39  N   UNL A   1      41.252  28.420  28.822  1.00  0.00    -0.248 NA
ATOM     40  C   UNL A   1      39.520  26.923  29.255  1.00  0.00     0.031 C 
ATOM     41  C   UNL A   1      43.429  25.202  26.606  1.00  0.00     0.029 A 
ATOM     42  N   UNL A   1      43.588  27.230  27.531  1.00  0.00    -0.354 N 
ATOM     43  C   UNL A   1      40.289  29.051  29.608  1.00  0.00     0.074 A 
ATOM     44  C   UNL A   1      39.230  28.087  29.821  1.00  0.00     0.031 C 
ATOM     45  C   UNL A   1      44.674  25.646  26.389  1.00  0.00     0.029 A 
ATOM     46  C   UNL A   1      44.782  27.012  26.886  1.00  0.00     0.049 A 
ATOM     47  H   UNL A   1      43.400  28.039  28.061  1.00  0.00     0.167 HD
ATOM     48  C   UNL A   1      40.286  30.317  30.098  1.00  0.00     0.034 A 
ATOM     49  C   UNL A   1      45.822  27.831  26.639  1.00  0.00     0.034 A 
ATOM     50  C   UNL A   1      41.365  31.259  29.911  1.00  0.00     0.049 A 
ATOM     51  C   UNL A   1      45.766  29.256  27.113  1.00  0.00     0.074 A 
ATOM     52  C   UNL A   1      41.472  32.555  30.391  1.00  0.00     0.029 A 
ATOM     53  N   UNL A   1      42.526  31.009  29.194  1.00  0.00    -0.354 N 
ATOM     54  N   UNL A   1      44.811  29.868  27.772  1.00  0.00    -0.248 NA
ATOM     55  C   UNL A   1      46.920  30.103  26.788  1.00  0.00     0.031 C 
ATOM     56  C   UNL A   1      42.667  33.106  29.913  1.00  0.00     0.029 A 
ATOM     57  C   UNL A   1      43.338  32.133  29.192  1.00  0.00     0.049 A 
ATOM     58  H   UNL A   1      42.741  30.158  28.748  1.00  0.00     0.167 HD
ATOM     59  C   UNL A   1      45.253  31.176  27.945  1.00  0.00     0.074 A 
ATOM     60  C   UNL A   1      46.567  31.256  27.339  1.00  0.00     0.031 C 
ATOM     61  C   UNL A   1      44.629  32.216  28.552  1.00  0.00     0.034 A 
BRANCH  48  62
ATOM     62  C   UNL A   1      39.055  30.789  30.834  1.00  0.00     0.023 A 
ATOM     63  C   UNL A   1      37.934  31.311  30.168  1.00  0.00     0.031 A 
ATOM     64  C   UNL A   1      38.997  30.682  32.237  1.00  0.00     0.131 A 
ATOM     65  C   UNL A   1      36.818  31.740  30.906  1.00  0.00     0.055 A 
ATOM     66  C   UNL A   1      37.863  31.056  32.961  1.00  0.00     0.041 A 
ATOM     67  F   UNL A   1      40.046  30.207  32.928  1.00  0.00    -0.206 F 
ATOM     68  C   UNL A   1      36.768  31.597  32.296  1.00  0.00     0.022 A 
BRANCH  65  69
ATOM     69  S   UNL A   1      35.469  32.584  30.037  1.00  0.00     0.124 S 
ATOM     70  O   UNL A   1      35.266  31.709  28.886  1.00  0.00    -0.237 OA
ATOM     71  O   UNL A   1      34.406  32.585  31.036  1.00  0.00    -0.237 OA
ATOM     72  O   UNL A   1      36.031  33.896  29.723  1.00  0.00    -0.744 OA
ENDBRANCH  65  69
ENDBRANCH  48  62
BRANCH  49  73
ATOM     73  C   UNL A   1      46.958  27.347  25.808  1.00  0.00     0.023 A 
ATOM     74  C   UNL A   1      47.105  27.750  24.473  1.00  0.00     0.031 A 
ATOM     75  C   UNL A   1      47.918  26.471  26.348  1.00  0.00     0.131 A 
ATOM     76  C   UNL A   1      48.184  27.265  23.717  1.00  0.00     0.055 A 
ATOM     77  C   UNL A   1      49.014  26.032  25.609  1.00  0.00     0.041 A 
ATOM     78  F   UNL A   1      47.818  26.059  27.623  1.00  0.00    -0.206 F 
ATOM     79  C   UNL A   1      49.148  26.424  24.281  1.00  0.00     0.022 A 
BRANCH  76  80
ATOM     80  S   UNL A   1      48.286  27.713  21.964  1.00  0.00     0.124 S 
ATOM     81  O   UNL A   1      49.478  28.552  21.940  1.00  0.00    -0.237 OA
ATOM     82  O   UNL A   1      48.406  26.408  21.324  1.00  0.00    -0.237 OA
ATOM     83  O   UNL A   1      47.025  28.411  21.718  1.00  0.00    -0.744 OA
ENDBRANCH  76  80
ENDBRANCH  49  73
BRANCH  61  84
ATOM     84  C   UNL A   1      45.385  33.518  28.606  1.00  0.00     0.023 A 
ATOM     85  C   UNL A   1      46.341  33.769  29.606  1.00  0.00     0.031 A 
ATOM     86  C   UNL A   1      45.109  34.536  27.677  1.00  0.00     0.131 A 
ATOM     87  C   UNL A   1      46.944  35.033  29.691  1.00  0.00     0.055 A 
ATOM     88  C   UNL A   1      45.752  35.773  27.735  1.00  0.00     0.041 A 
ATOM     89  F   UNL A   1      44.202  34.347  26.707  1.00  0.00    -0.206 F 
ATOM     90  C   UNL A   1      46.664  36.032  28.754  1.00  0.00     0.022 A 
BRANCH  87  91
ATOM     91  S   UNL A   1      48.027  35.389  31.102  1.00  0.00     0.124 S 
ATOM     92  O   UNL A   1      47.101  36.000  32.049  1.00  0.00    -0.237 OA
ATOM     93  O   UNL A   1      48.520  34.062  31.459  1.00  0.00    -0.237 OA
ATOM     94  O   UNL A   1      49.031  36.293  30.545  1.00  0.00    -0.744 OA
ENDBRANCH  87  91
ENDBRANCH  61  84
ENDBRANCH  35  36
ENDBRANCH  28  30
ENDBRANCH  27  28
ENDBRANCH  26  27
ENDBRANCH   1  26
TORSDOF 19
ENDMDL
MODEL 3
REMARK VINA RESULT:     -10.9      2.876      8.139
REMARK SMILES CCc1c(C)nc(Nc2cc(Cl)ccc2C)nc1OCC(=O)OCCOC(=O)c1ccc(-c2c3nc(c(-c4cc(S(=O)(=O)[O-])ccc4F)c4ccc([nH]4)c(-c4cc(S(=O)(=O)[O-])ccc4F)c4nc(c(-c5cc(S(=O)(=O)[O-])ccc5F)c5ccc2[nH]5)C=C4)C=C3)cc1
REMARK SMILES IDX 24 1 23 2 21 3 22 4 20 5 19 6 18 7 3 8 4 9 5 10 6 11 17 12
REMARK SMILES IDX 7 13 2 14 1 15 8 16 9 18 10 19 15 20 11 21 14 22 16 23 12 24
REMARK SMILES IDX 13 25 25 26 26 27 27 28 28 29 29 30 30 31 91 32 31 33 90 34
REMARK SMILES IDX 32 35 33 36 34 37 84 38 35 39 89 40 83 41 85 42 36 43 88 44
REMARK SMILES IDX 82 45 81 46 37 48 69 49 49 50 68 51 50 52 53 53 67 54 86 55
REMARK SMILES IDX 51 56 52 57 66 59 87 60 54 61 38 62 39 63 47 64 40 65 46 66
REMARK SMILES IDX 48 67 45 68 41 69 42 70 43 71 44 72 70 73 71 74 79 75 72 76
REMARK SMILES IDX 78 77 80 78 77 79 73 80 74 81 75 82 76 83 55 84 56 85 64 86
REMARK SMILES IDX 57 87 63 88 65 89 62 90 58 91 59 92 60 93 61 94
REMARK H PARENT 8 17 85 47 53 58
REMARK Flexibility Score: inf
ROOT
ATOM      1  C   UNL A   1      38.728  21.505  25.703  1.00  0.00     0.274 C 
ENDROOT
BRANCH   1   2
ATOM      2  O   UNL A   1      37.396  21.628  25.156  1.00  0.00    -0.460 OA
BRANCH   2   3
ATOM      3  C   UNL A   1      36.971  22.903  24.958  1.00  0.00     0.344 C 
ATOM      4  O   UNL A   1      36.713  23.699  25.856  1.00  0.00    -0.248 OA
BRANCH   3   5
ATOM      5  C   UNL A   1      36.680  23.226  23.487  1.00  0.00     0.353 C 
BRANCH   5   6
ATOM      6  O   UNL A   1      35.522  22.921  22.755  1.00  0.00    -0.465 OA
BRANCH   6   7
ATOM      7  C   UNL A   1      34.292  23.364  23.120  1.00  0.00     0.222 A 
ATOM      8  C   UNL A   1      33.319  22.674  23.831  1.00  0.00     0.035 A 
ATOM      9  C   UNL A   1      32.236  23.461  24.214  1.00  0.00     0.050 A 
ATOM     10  C   UNL A   1      31.100  23.012  25.079  1.00  0.00     0.067 C 
ATOM     11  N   UNL A   1      32.063  24.710  23.757  1.00  0.00    -0.218 NA
ATOM     12  N   UNL A   1      34.078  24.588  22.589  1.00  0.00    -0.177 NA
ATOM     13  C   UNL A   1      32.933  25.201  22.882  1.00  0.00     0.230 A 
BRANCH   8  14
ATOM     14  C   UNL A   1      33.336  21.195  24.090  1.00  0.00     0.040 C 
ATOM     15  C   UNL A   1      33.960  20.801  25.422  1.00  0.00     0.009 C 
ENDBRANCH   8  14
BRANCH  13  16
ATOM     16  N   UNL A   1      32.592  26.353  22.167  1.00  0.00    -0.324 N 
ATOM     17  H   UNL A   1      32.840  26.390  21.215  1.00  0.00     0.170 HD
BRANCH  16  18
ATOM     18  C   UNL A   1      31.917  27.463  22.708  1.00  0.00     0.045 A 
ATOM     19  C   UNL A   1      30.540  27.610  22.484  1.00  0.00     0.047 A 
ATOM     20  C   UNL A   1      32.563  28.348  23.601  1.00  0.00    -0.027 A 
ATOM     21  C   UNL A   1      29.816  28.600  23.153  1.00  0.00     0.043 A 
ATOM     22  C   UNL A   1      31.816  29.324  24.280  1.00  0.00     0.007 A 
ATOM     23  C   UNL A   1      34.037  28.235  23.890  1.00  0.00     0.046 C 
ATOM     24  Cl  UNL A   1      28.126  28.765  22.870  1.00  0.00    -0.084 Cl
ATOM     25  C   UNL A   1      30.446  29.448  24.057  1.00  0.00     0.021 A 
ENDBRANCH  16  18
ENDBRANCH  13  16
ENDBRANCH   6   7
ENDBRANCH   5   6
ENDBRANCH   3   5
ENDBRANCH   2   3
ENDBRANCH   1   2
BRANCH   1  26
ATOM     26  C   UNL A   1      39.303  20.106  25.503  1.00  0.00     0.275 C 
BRANCH  26  27
ATOM     27  O   UNL A   1      40.343  19.859  26.464  1.00  0.00    -0.458 OA
BRANCH  27  28
ATOM     28  C   UNL A   1      41.602  19.877  25.970  1.00  0.00     0.338 C 
ATOM     29  O   UNL A   1      42.096  19.026  25.237  1.00  0.00    -0.246 OA
BRANCH  28  30
ATOM     30  C   UNL A   1      42.338  21.090  26.401  1.00  0.00     0.060 A 
ATOM     31  C   UNL A   1      42.672  21.322  27.737  1.00  0.00     0.016 A 
ATOM     32  C   UNL A   1      42.586  22.089  25.454  1.00  0.00     0.016 A 
ATOM     33  C   UNL A   1      43.127  22.585  28.136  1.00  0.00     0.010 A 
ATOM     34  C   UNL A   1      43.127  23.321  25.845  1.00  0.00     0.010 A 
ATOM     35  C   UNL A   1      43.365  23.604  27.199  1.00  0.00    -0.014 A 
BRANCH  35  36
ATOM     36  C   UNL A   1      43.855  24.958  27.607  1.00  0.00     0.031 A 
ATOM     37  C   UNL A   1      42.897  26.005  28.134  1.00  0.00     0.074 A 
ATOM     38  C   UNL A   1      45.158  25.280  27.478  1.00  0.00     0.049 A 
ATOM     39  N   UNL A   1      43.070  27.295  28.281  1.00  0.00    -0.248 NA
ATOM     40  C   UNL A   1      41.567  25.534  28.544  1.00  0.00     0.031 C 
ATOM     41  C   UNL A   1      46.220  24.372  27.040  1.00  0.00     0.029 A 
ATOM     42  N   UNL A   1      45.810  26.472  27.688  1.00  0.00    -0.354 N 
ATOM     43  C   UNL A   1      41.858  27.797  28.752  1.00  0.00     0.074 A 
ATOM     44  C   UNL A   1      40.959  26.667  28.869  1.00  0.00     0.031 C 
ATOM     45  C   UNL A   1      47.386  25.030  27.030  1.00  0.00     0.029 A 
ATOM     46  C   UNL A   1      47.141  26.432  27.345  1.00  0.00     0.049 A 
ATOM     47  H   UNL A   1      45.369  27.275  28.049  1.00  0.00     0.167 HD
ATOM     48  C   UNL A   1      41.525  29.078  29.050  1.00  0.00     0.034 A 
ATOM     49  C   UNL A   1      48.054  27.413  27.211  1.00  0.00     0.034 A 
ATOM     50  C   UNL A   1      42.440  30.193  28.965  1.00  0.00     0.049 A 
ATOM     51  C   UNL A   1      47.646  28.838  27.460  1.00  0.00     0.074 A 
ATOM     52  C   UNL A   1      42.209  31.524  29.272  1.00  0.00     0.029 A 
ATOM     53  N   UNL A   1      43.761  30.108  28.549  1.00  0.00    -0.354 N 
ATOM     54  N   UNL A   1      46.474  29.310  27.812  1.00  0.00    -0.248 NA
ATOM     55  C   UNL A   1      48.682  29.860  27.271  1.00  0.00     0.031 C 
ATOM     56  C   UNL A   1      43.370  32.252  28.984  1.00  0.00     0.029 A 
ATOM     57  C   UNL A   1      44.347  31.366  28.562  1.00  0.00     0.049 A 
ATOM     58  H   UNL A   1      44.216  29.278  28.282  1.00  0.00     0.167 HD
ATOM     59  C   UNL A   1      46.634  30.690  27.891  1.00  0.00     0.074 A 
ATOM     60  C   UNL A   1      48.019  30.969  27.569  1.00  0.00     0.031 C 
ATOM     61  C   UNL A   1      45.717  31.640  28.203  1.00  0.00     0.034 A 
BRANCH  48  62
ATOM     62  C   UNL A   1      40.094  29.367  29.438  1.00  0.00     0.023 A 
ATOM     63  C   UNL A   1      39.679  29.449  30.776  1.00  0.00     0.031 A 
ATOM     64  C   UNL A   1      39.132  29.595  28.434  1.00  0.00     0.131 A 
ATOM     65  C   UNL A   1      38.332  29.714  31.077  1.00  0.00     0.055 A 
ATOM     66  C   UNL A   1      37.807  29.915  28.739  1.00  0.00     0.041 A 
ATOM     67  F   UNL A   1      39.468  29.512  27.137  1.00  0.00    -0.206 F 
ATOM     68  C   UNL A   1      37.398  29.968  30.067  1.00  0.00     0.022 A 
BRANCH  65  69
ATOM     69  S   UNL A   1      37.789  29.625  32.805  1.00  0.00     0.124 S 
ATOM     70  O   UNL A   1      37.577  28.191  32.974  1.00  0.00    -0.237 OA
ATOM     71  O   UNL A   1      38.927  30.192  33.520  1.00  0.00    -0.237 OA
ATOM     72  O   UNL A   1      36.574  30.436  32.824  1.00  0.00    -0.744 OA
ENDBRANCH  65  69
ENDBRANCH  48  62
BRANCH  49  73
ATOM     73  C   UNL A   1      49.417  27.085  26.712  1.00  0.00     0.023 A 
ATOM     74  C   UNL A   1      50.506  26.982  27.589  1.00  0.00     0.031 A 
ATOM     75  C   UNL A   1      49.645  26.866  25.340  1.00  0.00     0.131 A 
ATOM     76  C   UNL A   1      51.779  26.680  27.081  1.00  0.00     0.055 A 
ATOM     77  C   UNL A   1      50.900  26.517  24.848  1.00  0.00     0.041 A 
ATOM     78  F   UNL A   1      48.631  26.953  24.463  1.00  0.00    -0.206 F 
ATOM     79  C   UNL A   1      51.980  26.430  25.721  1.00  0.00     0.022 A 
BRANCH  76  80
ATOM     80  S   UNL A   1      53.187  26.664  28.223  1.00  0.00     0.124 S 
ATOM     81  O   UNL A   1      54.009  25.596  27.667  1.00  0.00    -0.237 OA
ATOM     82  O   UNL A   1      53.710  28.018  28.078  1.00  0.00    -0.237 OA
ATOM     83  O   UNL A   1      52.573  26.371  29.517  1.00  0.00    -0.744 OA
ENDBRANCH  76  80
ENDBRANCH  49  73
BRANCH  61  84
ATOM     84  C   UNL A   1      46.206  33.064  28.234  1.00  0.00     0.023 A 
ATOM     85  C   UNL A   1      46.757  33.626  29.399  1.00  0.00     0.031 A 
ATOM     86  C   UNL A   1      46.073  33.883  27.099  1.00  0.00     0.131 A 
ATOM     87  C   UNL A   1      47.098  34.986  29.423  1.00  0.00     0.055 A 
ATOM     88  C   UNL A   1      46.464  35.223  27.113  1.00  0.00     0.041 A 
ATOM     89  F   UNL A   1      45.549  33.397  25.964  1.00  0.00    -0.206 F 
ATOM     90  C   UNL A   1      46.967  35.785  28.283  1.00  0.00     0.022 A 
BRANCH  87  91
ATOM     91  S   UNL A   1      47.626  35.724  30.993  1.00  0.00     0.124 S 
ATOM     92  O   UNL A   1      48.800  36.491  30.589  1.00  0.00    -0.237 OA
ATOM     93  O   UNL A   1      46.456  36.507  31.379  1.00  0.00    -0.237 OA
ATOM     94  O   UNL A   1      47.903  34.566  31.842  1.00  0.00    -0.744 OA
ENDBRANCH  87  91
ENDBRANCH  61  84
ENDBRANCH  35  36
ENDBRANCH  28  30
ENDBRANCH  27  28
ENDBRANCH  26  27
ENDBRANCH   1  26
TORSDOF 19
ENDMDL
