MODEL 1
REMARK VINA RESULT:     -10.9      0.000      0.000
REMARK SMILES CC1C[NH+]([C@H]2COC[C@@H]2C(=O)OCCOC(=O)c2ccc(-c3c4nc(c(-c5cc(S(=O)(=O)[O-])ccc5F)c5ccc([nH]5)c(-c5cc(S(=O)(=O)[O-])ccc5F)c5nc(c(-c6cc(S(=O)(=O)[O-])ccc6F)c6ccc3[nH]6)C=C5)C=C4)cc2)C1
REMARK SMILES IDX 14 1 13 2 12 3 10 4 11 5 9 6 5 7 6 8 7 9 8 10 4 11 1 12 2 13
REMARK SMILES IDX 3 14 81 15 15 17 16 18 17 19 18 20 19 21 80 22 20 23 79 24
REMARK SMILES IDX 21 25 22 26 23 27 73 28 24 29 78 30 72 31 74 32 25 33 77 34
REMARK SMILES IDX 71 35 70 36 26 38 58 39 38 40 57 41 39 42 42 43 56 44 75 45
REMARK SMILES IDX 40 46 41 47 55 49 76 50 43 51 27 52 28 53 36 54 29 55 35 56
REMARK SMILES IDX 37 57 34 58 30 59 31 60 32 61 33 62 59 63 60 64 68 65 61 66
REMARK SMILES IDX 67 67 69 68 66 69 62 70 63 71 64 72 65 73 44 74 45 75 53 76
REMARK SMILES IDX 46 77 52 78 54 79 51 80 47 81 48 82 49 83 50 84
REMARK H PARENT 4 16 74 37 42 48
REMARK Flexibility Score: inf
ROOT
ATOM      1  C   UNL A   1      33.007  33.528  27.748  1.00  0.00     0.275 C 
ENDROOT
BRANCH   1   2
ATOM      2  C   UNL A   1      33.647  34.742  28.412  1.00  0.00     0.274 C 
BRANCH   2   3
ATOM      3  O   UNL A   1      32.660  35.503  29.143  1.00  0.00    -0.462 OA
BRANCH   3   4
ATOM      4  C   UNL A   1      33.119  36.635  29.744  1.00  0.00     0.317 C 
ATOM      5  O   UNL A   1      33.140  37.733  29.199  1.00  0.00    -0.252 OA
BRANCH   4   6
ATOM      6  C   UNL A   1      33.725  36.376  31.113  1.00  0.00     0.185 C 
ATOM      7  C   UNL A   1      33.015  35.330  31.972  1.00  0.00     0.227 C 
ATOM      8  C   UNL A   1      31.918  36.168  32.638  1.00  0.00     0.226 C 
ATOM      9  O   UNL A   1      32.404  37.514  32.739  1.00  0.00    -0.374 OA
ATOM     10  C   UNL A   1      33.598  37.639  31.951  1.00  0.00     0.182 C 
BRANCH   7  11
ATOM     11  N   UNL A   1      33.995  34.634  32.843  1.00  0.00    -0.329 N 
ATOM     12  C   UNL A   1      35.486  31.612  32.171  1.00  0.00     0.020 C 
ATOM     13  C   UNL A   1      35.183  32.896  32.915  1.00  0.00     0.096 C 
ATOM     14  C   UNL A   1      35.198  34.205  32.089  1.00  0.00     0.271 C 
ATOM     15  C   UNL A   1      33.688  33.213  33.139  1.00  0.00     0.271 C 
ATOM     16  H   UNL A   1      34.045  35.302  33.613  1.00  0.00     0.348 HD
ENDBRANCH   7  11
ENDBRANCH   4   6
ENDBRANCH   3   4
ENDBRANCH   2   3
ENDBRANCH   1   2
BRANCH   1  17
ATOM     17  O   UNL A   1      33.485  32.331  28.382  1.00  0.00    -0.458 OA
BRANCH  17  18
ATOM     18  C   UNL A   1      33.905  31.360  27.538  1.00  0.00     0.338 C 
ATOM     19  O   UNL A   1      33.277  30.895  26.602  1.00  0.00    -0.246 OA
BRANCH  18  20
ATOM     20  C   UNL A   1      35.277  30.926  27.886  1.00  0.00     0.060 A 
ATOM     21  C   UNL A   1      35.572  29.586  28.143  1.00  0.00     0.016 A 
ATOM     22  C   UNL A   1      36.256  31.899  28.094  1.00  0.00     0.016 A 
ATOM     23  C   UNL A   1      36.792  29.235  28.726  1.00  0.00     0.010 A 
ATOM     24  C   UNL A   1      37.514  31.530  28.580  1.00  0.00     0.010 A 
ATOM     25  C   UNL A   1      37.781  30.202  28.955  1.00  0.00    -0.014 A 
BRANCH  25  26
ATOM     26  C   UNL A   1      39.053  29.864  29.661  1.00  0.00     0.031 A 
ATOM     27  C   UNL A   1      40.019  28.891  29.030  1.00  0.00     0.074 A 
ATOM     28  C   UNL A   1      39.356  30.406  30.858  1.00  0.00     0.049 A 
ATOM     29  N   UNL A   1      41.033  28.257  29.562  1.00  0.00    -0.248 NA
ATOM     30  C   UNL A   1      39.792  28.572  27.612  1.00  0.00     0.031 C 
ATOM     31  C   UNL A   1      38.558  31.408  31.565  1.00  0.00     0.029 A 
ATOM     32  N   UNL A   1      40.425  30.186  31.694  1.00  0.00    -0.354 N 
ATOM     33  C   UNL A   1      41.519  27.411  28.568  1.00  0.00     0.074 A 
ATOM     34  C   UNL A   1      40.683  27.614  27.403  1.00  0.00     0.031 C 
ATOM     35  C   UNL A   1      39.176  31.735  32.711  1.00  0.00     0.029 A 
ATOM     36  C   UNL A   1      40.363  30.902  32.866  1.00  0.00     0.049 A 
ATOM     37  H   UNL A   1      41.163  29.573  31.475  1.00  0.00     0.167 HD
ATOM     38  C   UNL A   1      42.561  26.542  28.626  1.00  0.00     0.034 A 
ATOM     39  C   UNL A   1      41.144  30.861  33.965  1.00  0.00     0.034 A 
ATOM     40  C   UNL A   1      43.425  26.398  29.774  1.00  0.00     0.049 A 
ATOM     41  C   UNL A   1      42.291  29.887  34.015  1.00  0.00     0.074 A 
ATOM     42  C   UNL A   1      44.503  25.546  29.945  1.00  0.00     0.029 A 
ATOM     43  N   UNL A   1      43.323  27.143  30.942  1.00  0.00    -0.354 N 
ATOM     44  N   UNL A   1      42.673  29.014  33.112  1.00  0.00    -0.248 NA
ATOM     45  C   UNL A   1      43.104  29.884  35.238  1.00  0.00     0.031 C 
ATOM     46  C   UNL A   1      45.027  25.747  31.228  1.00  0.00     0.029 A 
ATOM     47  C   UNL A   1      44.314  26.767  31.836  1.00  0.00     0.049 A 
ATOM     48  H   UNL A   1      42.645  27.837  31.110  1.00  0.00     0.167 HD
ATOM     49  C   UNL A   1      43.778  28.367  33.656  1.00  0.00     0.074 A 
ATOM     50  C   UNL A   1      44.014  28.964  34.955  1.00  0.00     0.031 C 
ATOM     51  C   UNL A   1      44.530  27.365  33.131  1.00  0.00     0.034 A 
BRANCH  38  52
ATOM     52  C   UNL A   1      42.776  25.637  27.436  1.00  0.00     0.023 A 
ATOM     53  C   UNL A   1      42.203  24.357  27.352  1.00  0.00     0.031 A 
ATOM     54  C   UNL A   1      43.606  26.057  26.379  1.00  0.00     0.131 A 
ATOM     55  C   UNL A   1      42.525  23.515  26.275  1.00  0.00     0.055 A 
ATOM     56  C   UNL A   1      43.861  25.245  25.273  1.00  0.00     0.041 A 
ATOM     57  F   UNL A   1      44.199  27.261  26.413  1.00  0.00    -0.206 F 
ATOM     58  C   UNL A   1      43.331  23.959  25.223  1.00  0.00     0.022 A 
BRANCH  55  59
ATOM     59  S   UNL A   1      41.992  21.783  26.337  1.00  0.00     0.124 S 
ATOM     60  O   UNL A   1      42.820  21.180  25.294  1.00  0.00    -0.237 OA
ATOM     61  O   UNL A   1      42.311  21.401  27.707  1.00  0.00    -0.237 OA
ATOM     62  O   UNL A   1      40.565  21.851  26.025  1.00  0.00    -0.744 OA
ENDBRANCH  55  59
ENDBRANCH  38  52
BRANCH  39  63
ATOM     63  C   UNL A   1      40.827  31.719  35.142  1.00  0.00     0.023 A 
ATOM     64  C   UNL A   1      39.722  31.447  35.963  1.00  0.00     0.031 A 
ATOM     65  C   UNL A   1      41.611  32.849  35.442  1.00  0.00     0.131 A 
ATOM     66  C   UNL A   1      39.410  32.311  37.023  1.00  0.00     0.055 A 
ATOM     67  C   UNL A   1      41.327  33.676  36.530  1.00  0.00     0.041 A 
ATOM     68  F   UNL A   1      42.679  33.154  34.687  1.00  0.00    -0.206 F 
ATOM     69  C   UNL A   1      40.214  33.415  37.320  1.00  0.00     0.022 A 
BRANCH  66  70
ATOM     70  S   UNL A   1      37.891  32.015  37.970  1.00  0.00     0.124 S 
ATOM     71  O   UNL A   1      37.540  30.661  37.554  1.00  0.00    -0.237 OA
ATOM     72  O   UNL A   1      38.357  32.162  39.345  1.00  0.00    -0.237 OA
ATOM     73  O   UNL A   1      36.989  33.065  37.504  1.00  0.00    -0.744 OA
ENDBRANCH  66  70
ENDBRANCH  39  63
BRANCH  51  74
ATOM     74  C   UNL A   1      45.704  26.898  33.951  1.00  0.00     0.023 A 
ATOM     75  C   UNL A   1      45.591  25.837  34.867  1.00  0.00     0.031 A 
ATOM     76  C   UNL A   1      46.947  27.543  33.832  1.00  0.00     0.131 A 
ATOM     77  C   UNL A   1      46.688  25.486  35.667  1.00  0.00     0.055 A 
ATOM     78  C   UNL A   1      48.049  27.160  34.597  1.00  0.00     0.041 A 
ATOM     79  F   UNL A   1      47.107  28.563  32.974  1.00  0.00    -0.206 F 
ATOM     80  C   UNL A   1      47.920  26.133  35.530  1.00  0.00     0.022 A 
BRANCH  77  81
ATOM     81  S   UNL A   1      46.465  24.226  36.952  1.00  0.00     0.124 S 
ATOM     82  O   UNL A   1      47.639  24.436  37.793  1.00  0.00    -0.237 OA
ATOM     83  O   UNL A   1      45.185  24.603  37.540  1.00  0.00    -0.237 OA
ATOM     84  O   UNL A   1      46.455  22.970  36.205  1.00  0.00    -0.744 OA
ENDBRANCH  77  81
ENDBRANCH  51  74
ENDBRANCH  25  26
ENDBRANCH  18  20
ENDBRANCH  17  18
ENDBRANCH   1  17
TORSDOF 15
ENDMDL
MODEL 2
REMARK VINA RESULT:     -10.8      6.070     11.610
REMARK SMILES CC1C[NH+]([C@H]2COC[C@@H]2C(=O)OCCOC(=O)c2ccc(-c3c4nc(c(-c5cc(S(=O)(=O)[O-])ccc5F)c5ccc([nH]5)c(-c5cc(S(=O)(=O)[O-])ccc5F)c5nc(c(-c6cc(S(=O)(=O)[O-])ccc6F)c6ccc3[nH]6)C=C5)C=C4)cc2)C1
REMARK SMILES IDX 14 1 13 2 12 3 10 4 11 5 9 6 5 7 6 8 7 9 8 10 4 11 1 12 2 13
REMARK SMILES IDX 3 14 81 15 15 17 16 18 17 19 18 20 19 21 80 22 20 23 79 24
REMARK SMILES IDX 21 25 22 26 23 27 73 28 24 29 78 30 72 31 74 32 25 33 77 34
REMARK SMILES IDX 71 35 70 36 26 38 58 39 38 40 57 41 39 42 42 43 56 44 75 45
REMARK SMILES IDX 40 46 41 47 55 49 76 50 43 51 27 52 28 53 36 54 29 55 35 56
REMARK SMILES IDX 37 57 34 58 30 59 31 60 32 61 33 62 59 63 60 64 68 65 61 66
REMARK SMILES IDX 67 67 69 68 66 69 62 70 63 71 64 72 65 73 44 74 45 75 53 76
REMARK SMILES IDX 46 77 52 78 54 79 51 80 47 81 48 82 49 83 50 84
REMARK H PARENT 4 16 74 37 42 48
REMARK Flexibility Score: inf
ROOT
ATOM      1  C   UNL A   1      36.232  20.655  25.002  1.00  0.00     0.275 C 
ENDROOT
BRANCH   1   2
ATOM      2  C   UNL A   1      35.022  21.357  25.609  1.00  0.00     0.274 C 
BRANCH   2   3
ATOM      3  O   UNL A   1      33.988  21.539  24.617  1.00  0.00    -0.462 OA
BRANCH   3   4
ATOM      4  C   UNL A   1      32.717  21.297  25.043  1.00  0.00     0.317 C 
ATOM      5  O   UNL A   1      32.312  20.188  25.375  1.00  0.00    -0.252 OA
BRANCH   4   6
ATOM      6  C   UNL A   1      31.814  22.514  24.938  1.00  0.00     0.185 C 
ATOM      7  C   UNL A   1      32.481  23.866  25.189  1.00  0.00     0.227 C 
ATOM      8  C   UNL A   1      32.410  23.968  26.717  1.00  0.00     0.226 C 
ATOM      9  O   UNL A   1      31.262  23.222  27.146  1.00  0.00    -0.374 OA
ATOM     10  C   UNL A   1      30.771  22.445  26.043  1.00  0.00     0.182 C 
BRANCH   7  11
ATOM     11  N   UNL A   1      31.818  24.921  24.382  1.00  0.00    -0.329 N 
ATOM     12  C   UNL A   1      32.521  25.676  21.105  1.00  0.00     0.020 C 
ATOM     13  C   UNL A   1      31.818  25.747  22.445  1.00  0.00     0.096 C 
ATOM     14  C   UNL A   1      31.363  24.406  23.068  1.00  0.00     0.271 C 
ATOM     15  C   UNL A   1      32.732  25.858  23.685  1.00  0.00     0.271 C 
ATOM     16  H   UNL A   1      31.168  25.286  25.079  1.00  0.00     0.348 HD
ENDBRANCH   7  11
ENDBRANCH   4   6
ENDBRANCH   3   4
ENDBRANCH   2   3
ENDBRANCH   1   2
BRANCH   1  17
ATOM     17  O   UNL A   1      37.321  21.586  24.899  1.00  0.00    -0.458 OA
BRANCH  17  18
ATOM     18  C   UNL A   1      38.440  21.242  25.579  1.00  0.00     0.338 C 
ATOM     19  O   UNL A   1      38.954  20.136  25.611  1.00  0.00    -0.246 OA
BRANCH  18  20
ATOM     20  C   UNL A   1      38.998  22.414  26.290  1.00  0.00     0.060 A 
ATOM     21  C   UNL A   1      38.487  23.697  26.086  1.00  0.00     0.016 A 
ATOM     22  C   UNL A   1      40.143  22.244  27.071  1.00  0.00     0.016 A 
ATOM     23  C   UNL A   1      39.189  24.814  26.549  1.00  0.00     0.010 A 
ATOM     24  C   UNL A   1      40.784  23.358  27.621  1.00  0.00     0.010 A 
ATOM     25  C   UNL A   1      40.348  24.661  27.322  1.00  0.00    -0.014 A 
BRANCH  25  26
ATOM     26  C   UNL A   1      41.163  25.839  27.748  1.00  0.00     0.031 A 
ATOM     27  C   UNL A   1      40.535  26.904  28.614  1.00  0.00     0.074 A 
ATOM     28  C   UNL A   1      42.449  25.975  27.369  1.00  0.00     0.049 A 
ATOM     29  N   UNL A   1      40.951  28.116  28.880  1.00  0.00    -0.248 NA
ATOM     30  C   UNL A   1      39.250  26.562  29.242  1.00  0.00     0.031 C 
ATOM     31  C   UNL A   1      43.215  25.003  26.588  1.00  0.00     0.029 A 
ATOM     32  N   UNL A   1      43.343  26.996  27.592  1.00  0.00    -0.354 N 
ATOM     33  C   UNL A   1      39.947  28.705  29.645  1.00  0.00     0.074 A 
ATOM     34  C   UNL A   1      38.901  27.715  29.793  1.00  0.00     0.031 C 
ATOM     35  C   UNL A   1      44.466  25.459  26.421  1.00  0.00     0.029 A 
ATOM     36  C   UNL A   1      44.568  26.794  27.001  1.00  0.00     0.049 A 
ATOM     37  H   UNL A   1      43.126  27.795  28.123  1.00  0.00     0.167 HD
ATOM     38  C   UNL A   1      39.901  29.958  30.166  1.00  0.00     0.034 A 
ATOM     39  C   UNL A   1      45.638  27.607  26.892  1.00  0.00     0.034 A 
ATOM     40  C   UNL A   1      40.979  30.912  30.063  1.00  0.00     0.049 A 
ATOM     41  C   UNL A   1      45.567  28.995  27.471  1.00  0.00     0.074 A 
ATOM     42  C   UNL A   1      41.038  32.209  30.546  1.00  0.00     0.029 A 
ATOM     43  N   UNL A   1      42.202  30.665  29.452  1.00  0.00    -0.354 N 
ATOM     44  N   UNL A   1      44.571  29.580  28.095  1.00  0.00    -0.248 NA
ATOM     45  C   UNL A   1      46.760  29.837  27.319  1.00  0.00     0.031 C 
ATOM     46  C   UNL A   1      42.277  32.757  30.193  1.00  0.00     0.029 A 
ATOM     47  C   UNL A   1      43.017  31.784  29.542  1.00  0.00     0.049 A 
ATOM     48  H   UNL A   1      42.453  29.818  29.018  1.00  0.00     0.167 HD
ATOM     49  C   UNL A   1      45.024  30.855  28.418  1.00  0.00     0.074 A 
ATOM     50  C   UNL A   1      46.389  30.946  27.940  1.00  0.00     0.031 C 
ATOM     51  C   UNL A   1      44.371  31.862  29.052  1.00  0.00     0.034 A 
BRANCH  38  52
ATOM     52  C   UNL A   1      38.616  30.383  30.836  1.00  0.00     0.023 A 
ATOM     53  C   UNL A   1      37.576  31.018  30.134  1.00  0.00     0.031 A 
ATOM     54  C   UNL A   1      38.446  30.179  32.219  1.00  0.00     0.131 A 
ATOM     55  C   UNL A   1      36.450  31.491  30.827  1.00  0.00     0.055 A 
ATOM     56  C   UNL A   1      37.290  30.582  32.888  1.00  0.00     0.041 A 
ATOM     57  F   UNL A   1      39.412  29.596  32.946  1.00  0.00    -0.206 F 
ATOM     58  C   UNL A   1      36.289  31.256  32.195  1.00  0.00     0.022 A 
BRANCH  55  59
ATOM     59  S   UNL A   1      35.265  32.541  29.944  1.00  0.00     0.124 S 
ATOM     60  O   UNL A   1      34.295  32.843  30.995  1.00  0.00    -0.237 OA
ATOM     61  O   UNL A   1      36.095  33.655  29.502  1.00  0.00    -0.237 OA
ATOM     62  O   UNL A   1      34.766  31.675  28.878  1.00  0.00    -0.744 OA
ENDBRANCH  55  59
ENDBRANCH  38  52
BRANCH  39  63
ATOM     63  C   UNL A   1      46.847  27.159  26.143  1.00  0.00     0.023 A 
ATOM     64  C   UNL A   1      47.096  27.601  24.835  1.00  0.00     0.031 A 
ATOM     65  C   UNL A   1      47.756  26.252  26.718  1.00  0.00     0.131 A 
ATOM     66  C   UNL A   1      48.206  27.110  24.131  1.00  0.00     0.055 A 
ATOM     67  C   UNL A   1      48.887  25.807  26.033  1.00  0.00     0.041 A 
ATOM     68  F   UNL A   1      47.563  25.798  27.967  1.00  0.00    -0.206 F 
ATOM     69  C   UNL A   1      49.110  26.228  24.727  1.00  0.00     0.022 A 
BRANCH  66  70
ATOM     70  S   UNL A   1      48.414  27.585  22.393  1.00  0.00     0.124 S 
ATOM     71  O   UNL A   1      48.511  26.285  21.738  1.00  0.00    -0.237 OA
ATOM     72  O   UNL A   1      47.193  28.342  22.136  1.00  0.00    -0.237 OA
ATOM     73  O   UNL A   1      49.643  28.374  22.399  1.00  0.00    -0.744 OA
ENDBRANCH  66  70
ENDBRANCH  39  63
BRANCH  51  74
ATOM     74  C   UNL A   1      45.152  33.126  29.301  1.00  0.00     0.023 A 
ATOM     75  C   UNL A   1      45.149  34.191  28.383  1.00  0.00     0.031 A 
ATOM     76  C   UNL A   1      45.933  33.253  30.463  1.00  0.00     0.131 A 
ATOM     77  C   UNL A   1      45.953  35.316  28.617  1.00  0.00     0.055 A 
ATOM     78  C   UNL A   1      46.695  34.394  30.714  1.00  0.00     0.041 A 
ATOM     79  F   UNL A   1      45.972  32.264  31.370  1.00  0.00    -0.206 F 
ATOM     80  C   UNL A   1      46.717  35.429  29.783  1.00  0.00     0.022 A 
BRANCH  77  81
ATOM     81  S   UNL A   1      46.055  36.598  27.339  1.00  0.00     0.124 S 
ATOM     82  O   UNL A   1      44.797  37.316  27.525  1.00  0.00    -0.237 OA
ATOM     83  O   UNL A   1      47.263  37.322  27.718  1.00  0.00    -0.237 OA
ATOM     84  O   UNL A   1      46.155  35.838  26.095  1.00  0.00    -0.744 OA
ENDBRANCH  77  81
ENDBRANCH  51  74
ENDBRANCH  25  26
ENDBRANCH  18  20
ENDBRANCH  17  18
ENDBRANCH   1  17
TORSDOF 15
ENDMDL
MODEL 3
REMARK VINA RESULT:     -10.6      6.416     11.976
REMARK SMILES CC1C[NH+]([C@H]2COC[C@@H]2C(=O)OCCOC(=O)c2ccc(-c3c4nc(c(-c5cc(S(=O)(=O)[O-])ccc5F)c5ccc([nH]5)c(-c5cc(S(=O)(=O)[O-])ccc5F)c5nc(c(-c6cc(S(=O)(=O)[O-])ccc6F)c6ccc3[nH]6)C=C5)C=C4)cc2)C1
REMARK SMILES IDX 14 1 13 2 12 3 10 4 11 5 9 6 5 7 6 8 7 9 8 10 4 11 1 12 2 13
REMARK SMILES IDX 3 14 81 15 15 17 16 18 17 19 18 20 19 21 80 22 20 23 79 24
REMARK SMILES IDX 21 25 22 26 23 27 73 28 24 29 78 30 72 31 74 32 25 33 77 34
REMARK SMILES IDX 71 35 70 36 26 38 58 39 38 40 57 41 39 42 42 43 56 44 75 45
REMARK SMILES IDX 40 46 41 47 55 49 76 50 43 51 27 52 28 53 36 54 29 55 35 56
REMARK SMILES IDX 37 57 34 58 30 59 31 60 32 61 33 62 59 63 60 64 68 65 61 66
REMARK SMILES IDX 67 67 69 68 66 69 62 70 63 71 64 72 65 73 44 74 45 75 53 76
REMARK SMILES IDX 46 77 52 78 54 79 51 80 47 81 48 82 49 83 50 84
REMARK H PARENT 4 16 74 37 42 48
REMARK Flexibility Score: inf
ROOT
ATOM      1  C   UNL A   1      37.084  21.423  24.390  1.00  0.00     0.275 C 
ENDROOT
BRANCH   1   2
ATOM      2  C   UNL A   1      36.485  22.746  23.926  1.00  0.00     0.274 C 
BRANCH   2   3
ATOM      3  O   UNL A   1      35.060  22.619  23.726  1.00  0.00    -0.462 OA
BRANCH   3   4
ATOM      4  C   UNL A   1      34.286  22.921  24.805  1.00  0.00     0.317 C 
ATOM      5  O   UNL A   1      34.592  23.758  25.647  1.00  0.00    -0.252 OA
BRANCH   4   6
ATOM      6  C   UNL A   1      33.069  22.021  24.932  1.00  0.00     0.185 C 
ATOM      7  C   UNL A   1      32.819  21.064  23.767  1.00  0.00     0.227 C 
ATOM      8  C   UNL A   1      32.036  21.955  22.796  1.00  0.00     0.226 C 
ATOM      9  O   UNL A   1      31.329  22.928  23.578  1.00  0.00    -0.374 OA
ATOM     10  C   UNL A   1      31.818  22.887  24.927  1.00  0.00     0.182 C 
BRANCH   7  11
ATOM     11  N   UNL A   1      32.174  19.820  24.257  1.00  0.00    -0.329 N 
ATOM     12  C   UNL A   1      33.773  16.845  24.887  1.00  0.00     0.020 C 
ATOM     13  C   UNL A   1      32.636  17.842  24.816  1.00  0.00     0.096 C 
ATOM     14  C   UNL A   1      32.895  19.245  25.418  1.00  0.00     0.271 C 
ATOM     15  C   UNL A   1      32.477  18.595  23.477  1.00  0.00     0.271 C 
ATOM     16  H   UNL A   1      31.207  20.142  24.321  1.00  0.00     0.348 HD
ENDBRANCH   7  11
ENDBRANCH   4   6
ENDBRANCH   3   4
ENDBRANCH   2   3
ENDBRANCH   1   2
BRANCH   1  17
ATOM     17  O   UNL A   1      37.473  21.534  25.768  1.00  0.00    -0.458 OA
BRANCH  17  18
ATOM     18  C   UNL A   1      38.803  21.434  26.002  1.00  0.00     0.338 C 
ATOM     19  O   UNL A   1      39.520  20.495  25.701  1.00  0.00    -0.246 OA
BRANCH  18  20
ATOM     20  C   UNL A   1      39.306  22.654  26.674  1.00  0.00     0.060 A 
ATOM     21  C   UNL A   1      38.770  23.911  26.391  1.00  0.00     0.016 A 
ATOM     22  C   UNL A   1      40.427  22.551  27.499  1.00  0.00     0.016 A 
ATOM     23  C   UNL A   1      39.427  25.067  26.823  1.00  0.00     0.010 A 
ATOM     24  C   UNL A   1      41.021  23.707  28.015  1.00  0.00     0.010 A 
ATOM     25  C   UNL A   1      40.563  24.982  27.640  1.00  0.00    -0.014 A 
BRANCH  25  26
ATOM     26  C   UNL A   1      41.332  26.200  28.035  1.00  0.00     0.031 A 
ATOM     27  C   UNL A   1      40.653  27.280  28.841  1.00  0.00     0.074 A 
ATOM     28  C   UNL A   1      42.623  26.360  27.680  1.00  0.00     0.049 A 
ATOM     29  N   UNL A   1      41.027  28.514  29.067  1.00  0.00    -0.248 NA
ATOM     30  C   UNL A   1      39.363  26.926  29.453  1.00  0.00     0.031 C 
ATOM     31  C   UNL A   1      43.435  25.380  26.958  1.00  0.00     0.029 A 
ATOM     32  N   UNL A   1      43.481  27.415  27.881  1.00  0.00    -0.354 N 
ATOM     33  C   UNL A   1      39.988  29.104  29.783  1.00  0.00     0.074 A 
ATOM     34  C   UNL A   1      38.968  28.089  29.949  1.00  0.00     0.031 C 
ATOM     35  C   UNL A   1      44.676  25.866  26.801  1.00  0.00     0.029 A 
ATOM     36  C   UNL A   1      44.725  27.226  27.327  1.00  0.00     0.049 A 
ATOM     37  H   UNL A   1      43.228  28.228  28.374  1.00  0.00     0.167 HD
ATOM     38  C   UNL A   1      39.893  30.375  30.251  1.00  0.00     0.034 A 
ATOM     39  C   UNL A   1      45.774  28.066  27.209  1.00  0.00     0.034 A 
ATOM     40  C   UNL A   1      40.945  31.356  30.133  1.00  0.00     0.049 A 
ATOM     41  C   UNL A   1      45.648  29.474  27.728  1.00  0.00     0.074 A 
ATOM     42  C   UNL A   1      40.954  32.673  30.563  1.00  0.00     0.029 A 
ATOM     43  N   UNL A   1      42.189  31.121  29.561  1.00  0.00    -0.354 N 
ATOM     44  N   UNL A   1      44.620  30.053  28.304  1.00  0.00    -0.248 NA
ATOM     45  C   UNL A   1      46.819  30.344  27.568  1.00  0.00     0.031 C 
ATOM     46  C   UNL A   1      42.185  33.243  30.216  1.00  0.00     0.029 A 
ATOM     47  C   UNL A   1      42.968  32.267  29.623  1.00  0.00     0.049 A 
ATOM     48  H   UNL A   1      42.475  30.265  29.168  1.00  0.00     0.167 HD
ATOM     49  C   UNL A   1      45.029  31.353  28.585  1.00  0.00     0.074 A 
ATOM     50  C   UNL A   1      46.401  31.467  28.135  1.00  0.00     0.031 C 
ATOM     51  C   UNL A   1      44.331  32.366  29.161  1.00  0.00     0.034 A 
BRANCH  38  52
ATOM     52  C   UNL A   1      38.580  30.788  30.873  1.00  0.00     0.023 A 
ATOM     53  C   UNL A   1      37.533  31.344  30.118  1.00  0.00     0.031 A 
ATOM     54  C   UNL A   1      38.390  30.654  32.261  1.00  0.00     0.131 A 
ATOM     55  C   UNL A   1      36.377  31.813  30.763  1.00  0.00     0.055 A 
ATOM     56  C   UNL A   1      37.208  31.050  32.887  1.00  0.00     0.041 A 
ATOM     57  F   UNL A   1      39.363  30.149  33.038  1.00  0.00    -0.206 F 
ATOM     58  C   UNL A   1      36.197  31.647  32.139  1.00  0.00     0.022 A 
BRANCH  55  59
ATOM     59  S   UNL A   1      35.172  32.768  29.802  1.00  0.00     0.124 S 
ATOM     60  O   UNL A   1      34.702  31.772  28.841  1.00  0.00    -0.237 OA
ATOM     61  O   UNL A   1      34.211  33.179  30.818  1.00  0.00    -0.237 OA
ATOM     62  O   UNL A   1      35.970  33.848  29.226  1.00  0.00    -0.744 OA
ENDBRANCH  55  59
ENDBRANCH  38  52
BRANCH  39  63
ATOM     63  C   UNL A   1      47.013  27.625  26.507  1.00  0.00     0.023 A 
ATOM     64  C   UNL A   1      47.198  27.870  25.138  1.00  0.00     0.031 A 
ATOM     65  C   UNL A   1      48.017  26.917  27.194  1.00  0.00     0.131 A 
ATOM     66  C   UNL A   1      48.344  27.384  24.491  1.00  0.00     0.055 A 
ATOM     67  C   UNL A   1      49.179  26.482  26.557  1.00  0.00     0.041 A 
ATOM     68  F   UNL A   1      47.887  26.656  28.505  1.00  0.00    -0.206 F 
ATOM     69  C   UNL A   1      49.342  26.705  25.194  1.00  0.00     0.022 A 
BRANCH  66  70
ATOM     70  S   UNL A   1      48.481  27.588  22.693  1.00  0.00     0.124 S 
ATOM     71  O   UNL A   1      47.242  28.291  22.378  1.00  0.00    -0.237 OA
ATOM     72  O   UNL A   1      49.710  28.366  22.569  1.00  0.00    -0.237 OA
ATOM     73  O   UNL A   1      48.562  26.215  22.199  1.00  0.00    -0.744 OA
ENDBRANCH  66  70
ENDBRANCH  39  63
BRANCH  51  74
ATOM     74  C   UNL A   1      45.069  33.662  29.376  1.00  0.00     0.023 A 
ATOM     75  C   UNL A   1      45.087  34.673  28.399  1.00  0.00     0.031 A 
ATOM     76  C   UNL A   1      45.788  33.873  30.565  1.00  0.00     0.131 A 
ATOM     77  C   UNL A   1      45.851  35.830  28.608  1.00  0.00     0.055 A 
ATOM     78  C   UNL A   1      46.509  35.046  30.787  1.00  0.00     0.041 A 
ATOM     79  F   UNL A   1      45.805  32.938  31.528  1.00  0.00    -0.206 F 
ATOM     80  C   UNL A   1      46.554  36.028  29.800  1.00  0.00     0.022 A 
BRANCH  77  81
ATOM     81  S   UNL A   1      45.986  37.042  27.265  1.00  0.00     0.124 S 
ATOM     82  O   UNL A   1      46.421  36.211  26.146  1.00  0.00    -0.237 OA
ATOM     83  O   UNL A   1      44.627  37.566  27.179  1.00  0.00    -0.237 OA
ATOM     84  O   UNL A   1      46.984  37.990  27.756  1.00  0.00    -0.744 OA
ENDBRANCH  77  81
ENDBRANCH  51  74
ENDBRANCH  25  26
ENDBRANCH  18  20
ENDBRANCH  17  18
ENDBRANCH   1  17
TORSDOF 15
ENDMDL
