MODEL 1
REMARK VINA RESULT:     -13.2      0.000      0.000
REMARK SMILES CC1=Nc2c(c(C)nn2-c2ccc(F)cc2)[C@H](c2ccc(C(=O)OCCOC(=O)c3ccc(-c4c5nc(c(-c6cc(S(=O)(=O)[O-])ccc6F)c6ccc([nH]6)c(-c6cc(S(=O)(=O)[O-])ccc6F)c6nc(c(-c7cc(S(=O)(=O)[O-])ccc7F)c7ccc4[nH]7)C=C6)C=C5)cc3)cc2)S1
REMARK SMILES IDX 26 1 25 2 24 3 22 4 23 5 21 6 18 7 19 8 94 9 20 10 93 11
REMARK SMILES IDX 17 12 1 13 2 14 3 15 95 16 4 17 5 18 9 19 6 20 8 21 7 22
REMARK SMILES IDX 10 23 11 24 16 25 12 26 15 27 13 28 14 29 27 30 28 31 29 32
REMARK SMILES IDX 30 33 31 34 92 35 32 36 91 37 33 38 34 39 35 40 85 41 36 42
REMARK SMILES IDX 90 43 84 44 86 45 37 46 89 47 83 48 82 49 38 51 70 52 50 53
REMARK SMILES IDX 69 54 51 55 54 56 68 57 87 58 52 59 53 60 67 62 88 63 55 64
REMARK SMILES IDX 39 65 40 66 48 67 41 68 47 69 49 70 46 71 42 72 43 73 44 74
REMARK SMILES IDX 45 75 71 76 72 77 80 78 73 79 79 80 81 81 78 82 74 83 75 84
REMARK SMILES IDX 76 85 77 86 56 87 57 88 65 89 58 90 64 91 66 92 63 93 59 94
REMARK SMILES IDX 60 95 61 96 62 97
REMARK H PARENT 86 50 54 61
REMARK Flexibility Score: inf
ROOT
ATOM      1  C   UNL A   1      40.323  21.830  27.116  1.00  0.00     0.275 C 
ENDROOT
BRANCH   1   2
ATOM      2  C   UNL A   1      39.652  21.505  25.788  1.00  0.00     0.275 C 
BRANCH   2   3
ATOM      3  O   UNL A   1      38.220  21.606  25.887  1.00  0.00    -0.458 OA
BRANCH   3   4
ATOM      4  C   UNL A   1      37.525  20.736  25.115  1.00  0.00     0.338 C 
ATOM      5  O   UNL A   1      37.912  19.630  24.757  1.00  0.00    -0.246 OA
BRANCH   4   6
ATOM      6  C   UNL A   1      36.171  21.256  24.778  1.00  0.00     0.060 A 
ATOM      7  C   UNL A   1      33.647  22.424  24.221  1.00  0.00    -0.030 A 
ATOM      8  C   UNL A   1      34.847  23.109  23.953  1.00  0.00     0.006 A 
ATOM      9  C   UNL A   1      33.749  21.105  24.701  1.00  0.00     0.006 A 
ATOM     10  C   UNL A   1      36.089  22.531  24.214  1.00  0.00     0.016 A 
ATOM     11  C   UNL A   1      34.996  20.530  24.991  1.00  0.00     0.016 A 
BRANCH   7  12
ATOM     12  C   UNL A   1      32.329  23.168  24.044  1.00  0.00     0.119 C 
ATOM     13  C   UNL A   1      32.960  26.035  21.132  1.00  0.00     0.075 C 
ATOM     14  C   UNL A   1      32.546  25.424  22.444  1.00  0.00     0.074 C 
ATOM     15  N   UNL A   1      32.583  26.168  23.501  1.00  0.00    -0.227 NA
ATOM     16  S   UNL A   1      32.020  23.749  22.338  1.00  0.00    -0.098 SA
ATOM     17  C   UNL A   1      32.306  25.596  24.697  1.00  0.00     0.161 A 
ATOM     18  C   UNL A   1      32.243  24.262  25.037  1.00  0.00     0.038 A 
ATOM     19  N   UNL A   1      32.111  26.312  25.869  1.00  0.00    -0.215 N 
ATOM     20  C   UNL A   1      32.007  24.260  26.439  1.00  0.00     0.067 A 
ATOM     21  N   UNL A   1      32.010  25.499  26.945  1.00  0.00    -0.171 NA
ATOM     22  C   UNL A   1      31.766  23.112  27.349  1.00  0.00     0.069 C 
BRANCH  19  23
ATOM     23  C   UNL A   1      31.940  27.711  26.001  1.00  0.00     0.067 A 
ATOM     24  C   UNL A   1      31.388  28.452  24.944  1.00  0.00     0.031 A 
ATOM     25  C   UNL A   1      32.335  28.346  27.185  1.00  0.00     0.031 A 
ATOM     26  C   UNL A   1      31.246  29.833  25.070  1.00  0.00     0.041 A 
ATOM     27  C   UNL A   1      32.239  29.735  27.280  1.00  0.00     0.041 A 
ATOM     28  C   UNL A   1      31.691  30.464  26.227  1.00  0.00     0.123 A 
ATOM     29  F   UNL A   1      31.593  31.797  26.322  1.00  0.00    -0.207 F 
ENDBRANCH  19  23
ENDBRANCH   7  12
ENDBRANCH   4   6
ENDBRANCH   3   4
ENDBRANCH   2   3
ENDBRANCH   1   2
BRANCH   1  30
ATOM     30  O   UNL A   1      41.712  22.119  26.955  1.00  0.00    -0.458 OA
BRANCH  30  31
ATOM     31  C   UNL A   1      41.971  23.305  26.356  1.00  0.00     0.338 C 
ATOM     32  O   UNL A   1      42.638  23.487  25.352  1.00  0.00    -0.246 OA
BRANCH  31  33
ATOM     33  C   UNL A   1      41.526  24.397  27.229  1.00  0.00     0.060 A 
ATOM     34  C   UNL A   1      40.562  25.271  26.717  1.00  0.00     0.016 A 
ATOM     35  C   UNL A   1      42.256  24.699  28.388  1.00  0.00     0.016 A 
ATOM     36  C   UNL A   1      40.439  26.523  27.283  1.00  0.00     0.010 A 
ATOM     37  C   UNL A   1      42.143  25.955  28.940  1.00  0.00     0.010 A 
ATOM     38  C   UNL A   1      41.283  26.873  28.341  1.00  0.00    -0.014 A 
BRANCH  38  39
ATOM     39  C   UNL A   1      41.178  28.210  28.885  1.00  0.00     0.031 A 
ATOM     40  C   UNL A   1      42.235  29.129  28.409  1.00  0.00     0.074 A 
ATOM     41  C   UNL A   1      40.136  28.618  29.631  1.00  0.00     0.049 A 
ATOM     42  N   UNL A   1      43.162  29.698  29.103  1.00  0.00    -0.248 NA
ATOM     43  C   UNL A   1      42.363  29.323  26.957  1.00  0.00     0.031 C 
ATOM     44  C   UNL A   1      38.897  27.898  29.929  1.00  0.00     0.029 A 
ATOM     45  N   UNL A   1      39.928  29.840  30.191  1.00  0.00    -0.354 N 
ATOM     46  C   UNL A   1      43.864  30.495  28.208  1.00  0.00     0.074 A 
ATOM     47  C   UNL A   1      43.457  30.083  26.892  1.00  0.00     0.031 C 
ATOM     48  C   UNL A   1      37.986  28.771  30.417  1.00  0.00     0.029 A 
ATOM     49  C   UNL A   1      38.616  30.073  30.580  1.00  0.00     0.049 A 
ATOM     50  H   UNL A   1      40.647  30.502  30.309  1.00  0.00     0.167 HD
ATOM     51  C   UNL A   1      44.548  31.593  28.624  1.00  0.00     0.034 A 
ATOM     52  C   UNL A   1      38.083  31.273  30.930  1.00  0.00     0.034 A 
ATOM     53  C   UNL A   1      44.821  31.540  30.041  1.00  0.00     0.049 A 
ATOM     54  C   UNL A   1      39.221  32.127  31.367  1.00  0.00     0.074 A 
ATOM     55  C   UNL A   1      45.482  30.644  30.860  1.00  0.00     0.029 A 
ATOM     56  N   UNL A   1      44.047  32.304  30.884  1.00  0.00    -0.354 N 
ATOM     57  N   UNL A   1      39.964  31.860  32.408  1.00  0.00    -0.248 NA
ATOM     58  C   UNL A   1      39.827  33.016  30.388  1.00  0.00     0.031 C 
ATOM     59  C   UNL A   1      44.693  30.578  32.045  1.00  0.00     0.029 A 
ATOM     60  C   UNL A   1      43.639  31.483  31.908  1.00  0.00     0.049 A 
ATOM     61  H   UNL A   1      43.827  33.257  30.775  1.00  0.00     0.167 HD
ATOM     62  C   UNL A   1      41.256  32.189  32.023  1.00  0.00     0.074 A 
ATOM     63  C   UNL A   1      41.096  32.986  30.808  1.00  0.00     0.031 C 
ATOM     64  C   UNL A   1      42.344  31.561  32.558  1.00  0.00     0.034 A 
BRANCH  51  65
ATOM     65  C   UNL A   1      44.671  32.860  27.814  1.00  0.00     0.023 A 
ATOM     66  C   UNL A   1      43.878  33.959  28.191  1.00  0.00     0.031 A 
ATOM     67  C   UNL A   1      45.304  32.958  26.551  1.00  0.00     0.131 A 
ATOM     68  C   UNL A   1      43.690  35.043  27.315  1.00  0.00     0.055 A 
ATOM     69  C   UNL A   1      45.170  34.069  25.717  1.00  0.00     0.041 A 
ATOM     70  F   UNL A   1      46.001  31.952  26.011  1.00  0.00    -0.206 F 
ATOM     71  C   UNL A   1      44.337  35.109  26.084  1.00  0.00     0.022 A 
BRANCH  68  72
ATOM     72  S   UNL A   1      42.454  36.293  27.746  1.00  0.00     0.124 S 
ATOM     73  O   UNL A   1      43.078  36.943  28.893  1.00  0.00    -0.237 OA
ATOM     74  O   UNL A   1      42.381  37.079  26.520  1.00  0.00    -0.237 OA
ATOM     75  O   UNL A   1      41.263  35.501  28.049  1.00  0.00    -0.744 OA
ENDBRANCH  68  72
ENDBRANCH  51  65
BRANCH  52  76
ATOM     76  C   UNL A   1      36.734  31.803  30.579  1.00  0.00     0.023 A 
ATOM     77  C   UNL A   1      35.974  32.577  31.482  1.00  0.00     0.031 A 
ATOM     78  C   UNL A   1      36.265  31.760  29.245  1.00  0.00     0.131 A 
ATOM     79  C   UNL A   1      34.817  33.262  31.043  1.00  0.00     0.055 A 
ATOM     80  C   UNL A   1      35.116  32.429  28.818  1.00  0.00     0.041 A 
ATOM     81  F   UNL A   1      36.957  31.139  28.277  1.00  0.00    -0.206 F 
ATOM     82  C   UNL A   1      34.391  33.195  29.715  1.00  0.00     0.022 A 
BRANCH  79  83
ATOM     83  S   UNL A   1      33.910  34.368  32.171  1.00  0.00     0.124 S 
ATOM     84  O   UNL A   1      32.935  34.982  31.277  1.00  0.00    -0.237 OA
ATOM     85  O   UNL A   1      33.383  33.445  33.169  1.00  0.00    -0.237 OA
ATOM     86  O   UNL A   1      34.949  35.272  32.664  1.00  0.00    -0.744 OA
ENDBRANCH  79  83
ENDBRANCH  52  76
BRANCH  64  87
ATOM     87  C   UNL A   1      42.159  30.698  33.788  1.00  0.00     0.023 A 
ATOM     88  C   UNL A   1      42.151  29.285  33.787  1.00  0.00     0.031 A 
ATOM     89  C   UNL A   1      42.167  31.353  35.032  1.00  0.00     0.131 A 
ATOM     90  C   UNL A   1      42.155  28.581  35.010  1.00  0.00     0.055 A 
ATOM     91  C   UNL A   1      42.190  30.654  36.238  1.00  0.00     0.041 A 
ATOM     92  F   UNL A   1      42.208  32.695  35.093  1.00  0.00    -0.206 F 
ATOM     93  C   UNL A   1      42.184  29.264  36.232  1.00  0.00     0.022 A 
BRANCH  90  94
ATOM     94  S   UNL A   1      42.167  26.758  35.034  1.00  0.00     0.124 S 
ATOM     95  O   UNL A   1      43.035  26.416  33.912  1.00  0.00    -0.237 OA
ATOM     96  O   UNL A   1      42.687  26.455  36.365  1.00  0.00    -0.237 OA
ATOM     97  O   UNL A   1      40.760  26.402  34.842  1.00  0.00    -0.744 OA
ENDBRANCH  90  94
ENDBRANCH  64  87
ENDBRANCH  38  39
ENDBRANCH  31  33
ENDBRANCH  30  31
ENDBRANCH   1  30
TORSDOF 16
ENDMDL
MODEL 2
REMARK VINA RESULT:     -13.2      3.784      9.683
REMARK SMILES CC1=Nc2c(c(C)nn2-c2ccc(F)cc2)[C@H](c2ccc(C(=O)OCCOC(=O)c3ccc(-c4c5nc(c(-c6cc(S(=O)(=O)[O-])ccc6F)c6ccc([nH]6)c(-c6cc(S(=O)(=O)[O-])ccc6F)c6nc(c(-c7cc(S(=O)(=O)[O-])ccc7F)c7ccc4[nH]7)C=C6)C=C5)cc3)cc2)S1
REMARK SMILES IDX 26 1 25 2 24 3 22 4 23 5 21 6 18 7 19 8 94 9 20 10 93 11
REMARK SMILES IDX 17 12 1 13 2 14 3 15 95 16 4 17 5 18 9 19 6 20 8 21 7 22
REMARK SMILES IDX 10 23 11 24 16 25 12 26 15 27 13 28 14 29 27 30 28 31 29 32
REMARK SMILES IDX 30 33 31 34 92 35 32 36 91 37 33 38 34 39 35 40 85 41 36 42
REMARK SMILES IDX 90 43 84 44 86 45 37 46 89 47 83 48 82 49 38 51 70 52 50 53
REMARK SMILES IDX 69 54 51 55 54 56 68 57 87 58 52 59 53 60 67 62 88 63 55 64
REMARK SMILES IDX 39 65 40 66 48 67 41 68 47 69 49 70 46 71 42 72 43 73 44 74
REMARK SMILES IDX 45 75 71 76 72 77 80 78 73 79 79 80 81 81 78 82 74 83 75 84
REMARK SMILES IDX 76 85 77 86 56 87 57 88 65 89 58 90 64 91 66 92 63 93 59 94
REMARK SMILES IDX 60 95 61 96 62 97
REMARK H PARENT 86 50 54 61
REMARK Flexibility Score: inf
ROOT
ATOM      1  C   UNL A   1      33.502  31.359  27.621  1.00  0.00     0.275 C 
ENDROOT
BRANCH   1   2
ATOM      2  C   UNL A   1      32.441  30.332  27.251  1.00  0.00     0.275 C 
BRANCH   2   3
ATOM      3  O   UNL A   1      33.037  29.121  26.751  1.00  0.00    -0.458 OA
BRANCH   3   4
ATOM      4  C   UNL A   1      32.369  27.982  27.053  1.00  0.00     0.338 C 
ATOM      5  O   UNL A   1      31.411  27.893  27.812  1.00  0.00    -0.246 OA
BRANCH   4   6
ATOM      6  C   UNL A   1      32.902  26.813  26.301  1.00  0.00     0.060 A 
ATOM      7  C   UNL A   1      33.905  24.700  24.697  1.00  0.00    -0.030 A 
ATOM      8  C   UNL A   1      34.392  26.013  24.566  1.00  0.00     0.006 A 
ATOM      9  C   UNL A   1      32.958  24.458  25.710  1.00  0.00     0.006 A 
ATOM     10  C   UNL A   1      33.909  27.052  25.363  1.00  0.00     0.016 A 
ATOM     11  C   UNL A   1      32.449  25.505  26.495  1.00  0.00     0.016 A 
BRANCH   7  12
ATOM     12  C   UNL A   1      34.374  23.647  23.700  1.00  0.00     0.119 C 
ATOM     13  C   UNL A   1      30.974  21.944  22.076  1.00  0.00     0.075 C 
ATOM     14  C   UNL A   1      32.320  22.047  22.743  1.00  0.00     0.074 C 
ATOM     15  N   UNL A   1      32.662  21.115  23.571  1.00  0.00    -0.227 NA
ATOM     16  S   UNL A   1      33.275  23.441  22.254  1.00  0.00    -0.098 SA
ATOM     17  C   UNL A   1      33.828  21.254  24.246  1.00  0.00     0.161 A 
ATOM     18  C   UNL A   1      34.618  22.371  24.411  1.00  0.00     0.038 A 
ATOM     19  N   UNL A   1      34.408  20.245  25.001  1.00  0.00    -0.215 N 
ATOM     20  C   UNL A   1      35.658  21.950  25.283  1.00  0.00     0.067 A 
ATOM     21  N   UNL A   1      35.478  20.691  25.699  1.00  0.00    -0.171 NA
ATOM     22  C   UNL A   1      36.850  22.698  25.753  1.00  0.00     0.069 C 
BRANCH  19  23
ATOM     23  C   UNL A   1      34.044  18.877  25.030  1.00  0.00     0.067 A 
ATOM     24  C   UNL A   1      34.792  17.938  24.302  1.00  0.00     0.031 A 
ATOM     25  C   UNL A   1      32.931  18.475  25.778  1.00  0.00     0.031 A 
ATOM     26  C   UNL A   1      34.415  16.597  24.313  1.00  0.00     0.041 A 
ATOM     27  C   UNL A   1      32.529  17.138  25.739  1.00  0.00     0.041 A 
ATOM     28  C   UNL A   1      33.275  16.213  25.014  1.00  0.00     0.123 A 
ATOM     29  F   UNL A   1      32.893  14.929  24.983  1.00  0.00    -0.207 F 
ENDBRANCH  19  23
ENDBRANCH   7  12
ENDBRANCH   4   6
ENDBRANCH   3   4
ENDBRANCH   2   3
ENDBRANCH   1   2
BRANCH   1  30
ATOM     30  O   UNL A   1      34.817  30.802  27.596  1.00  0.00    -0.458 OA
BRANCH  30  31
ATOM     31  C   UNL A   1      35.792  31.650  28.000  1.00  0.00     0.338 C 
ATOM     32  O   UNL A   1      35.940  32.811  27.658  1.00  0.00    -0.246 OA
BRANCH  31  33
ATOM     33  C   UNL A   1      36.810  30.899  28.743  1.00  0.00     0.060 A 
ATOM     34  C   UNL A   1      38.016  31.554  29.011  1.00  0.00     0.016 A 
ATOM     35  C   UNL A   1      36.671  29.512  28.901  1.00  0.00     0.016 A 
ATOM     36  C   UNL A   1      39.132  30.792  29.292  1.00  0.00     0.010 A 
ATOM     37  C   UNL A   1      37.789  28.755  29.165  1.00  0.00     0.010 A 
ATOM     38  C   UNL A   1      39.017  29.399  29.293  1.00  0.00    -0.014 A 
BRANCH  38  39
ATOM     39  C   UNL A   1      40.211  28.616  29.533  1.00  0.00     0.031 A 
ATOM     40  C   UNL A   1      40.575  28.512  30.964  1.00  0.00     0.074 A 
ATOM     41  C   UNL A   1      40.842  27.926  28.567  1.00  0.00     0.049 A 
ATOM     42  N   UNL A   1      41.630  28.971  31.548  1.00  0.00    -0.248 NA
ATOM     43  C   UNL A   1      39.570  27.956  31.882  1.00  0.00     0.031 C 
ATOM     44  C   UNL A   1      40.420  27.714  27.181  1.00  0.00     0.029 A 
ATOM     45  N   UNL A   1      41.960  27.160  28.671  1.00  0.00    -0.354 N 
ATOM     46  C   UNL A   1      41.525  28.572  32.875  1.00  0.00     0.074 A 
ATOM     47  C   UNL A   1      40.170  28.128  33.059  1.00  0.00     0.031 C 
ATOM     48  C   UNL A   1      41.145  26.704  26.649  1.00  0.00     0.029 A 
ATOM     49  C   UNL A   1      42.157  26.288  27.609  1.00  0.00     0.049 A 
ATOM     50  H   UNL A   1      42.577  27.219  29.436  1.00  0.00     0.167 HD
ATOM     51  C   UNL A   1      42.627  28.419  33.656  1.00  0.00     0.034 A 
ATOM     52  C   UNL A   1      43.037  25.253  27.571  1.00  0.00     0.034 A 
ATOM     53  C   UNL A   1      43.762  29.127  33.114  1.00  0.00     0.049 A 
ATOM     54  C   UNL A   1      44.096  25.565  28.568  1.00  0.00     0.074 A 
ATOM     55  C   UNL A   1      44.005  30.448  32.788  1.00  0.00     0.029 A 
ATOM     56  N   UNL A   1      44.729  28.404  32.454  1.00  0.00    -0.354 N 
ATOM     57  N   UNL A   1      44.899  26.591  28.469  1.00  0.00    -0.248 NA
ATOM     58  C   UNL A   1      43.961  25.014  29.908  1.00  0.00     0.031 C 
ATOM     59  C   UNL A   1      44.751  30.396  31.574  1.00  0.00     0.029 A 
ATOM     60  C   UNL A   1      44.976  29.052  31.268  1.00  0.00     0.049 A 
ATOM     61  H   UNL A   1      45.161  27.578  32.770  1.00  0.00     0.167 HD
ATOM     62  C   UNL A   1      45.032  27.071  29.764  1.00  0.00     0.074 A 
ATOM     63  C   UNL A   1      44.514  26.003  30.617  1.00  0.00     0.031 C 
ATOM     64  C   UNL A   1      45.289  28.388  30.016  1.00  0.00     0.034 A 
BRANCH  51  65
ATOM     65  C   UNL A   1      42.756  27.358  34.720  1.00  0.00     0.023 A 
ATOM     66  C   UNL A   1      43.488  26.199  34.406  1.00  0.00     0.031 A 
ATOM     67  C   UNL A   1      41.984  27.299  35.906  1.00  0.00     0.131 A 
ATOM     68  C   UNL A   1      43.384  25.045  35.204  1.00  0.00     0.055 A 
ATOM     69  C   UNL A   1      41.941  26.174  36.732  1.00  0.00     0.041 A 
ATOM     70  F   UNL A   1      41.155  28.280  36.279  1.00  0.00    -0.206 F 
ATOM     71  C   UNL A   1      42.622  25.028  36.368  1.00  0.00     0.022 A 
BRANCH  68  72
ATOM     72  S   UNL A   1      44.137  23.512  34.602  1.00  0.00     0.124 S 
ATOM     73  O   UNL A   1      43.030  22.905  33.872  1.00  0.00    -0.237 OA
ATOM     74  O   UNL A   1      45.241  24.018  33.794  1.00  0.00    -0.237 OA
ATOM     75  O   UNL A   1      44.529  22.823  35.829  1.00  0.00    -0.744 OA
ENDBRANCH  68  72
ENDBRANCH  51  65
BRANCH  52  76
ATOM     76  C   UNL A   1      42.817  23.897  26.989  1.00  0.00     0.023 A 
ATOM     77  C   UNL A   1      43.704  23.334  26.046  1.00  0.00     0.031 A 
ATOM     78  C   UNL A   1      41.850  23.023  27.538  1.00  0.00     0.131 A 
ATOM     79  C   UNL A   1      43.605  21.967  25.695  1.00  0.00     0.055 A 
ATOM     80  C   UNL A   1      41.749  21.676  27.181  1.00  0.00     0.041 A 
ATOM     81  F   UNL A   1      41.020  23.418  28.515  1.00  0.00    -0.206 F 
ATOM     82  C   UNL A   1      42.637  21.137  26.264  1.00  0.00     0.022 A 
BRANCH  79  83
ATOM     83  S   UNL A   1      44.828  21.206  24.581  1.00  0.00     0.124 S 
ATOM     84  O   UNL A   1      44.191  19.935  24.253  1.00  0.00    -0.237 OA
ATOM     85  O   UNL A   1      44.927  22.179  23.501  1.00  0.00    -0.237 OA
ATOM     86  O   UNL A   1      46.024  21.097  25.417  1.00  0.00    -0.744 OA
ENDBRANCH  79  83
ENDBRANCH  52  76
BRANCH  64  87
ATOM     87  C   UNL A   1      45.716  29.282  28.872  1.00  0.00     0.023 A 
ATOM     88  C   UNL A   1      44.882  30.230  28.235  1.00  0.00     0.031 A 
ATOM     89  C   UNL A   1      47.082  29.285  28.541  1.00  0.00     0.131 A 
ATOM     90  C   UNL A   1      45.432  31.136  27.305  1.00  0.00     0.055 A 
ATOM     91  C   UNL A   1      47.625  30.195  27.635  1.00  0.00     0.041 A 
ATOM     92  F   UNL A   1      47.928  28.429  29.140  1.00  0.00    -0.206 F 
ATOM     93  C   UNL A   1      46.801  31.126  27.013  1.00  0.00     0.022 A 
BRANCH  90  94
ATOM     94  S   UNL A   1      44.381  32.381  26.487  1.00  0.00     0.124 S 
ATOM     95  O   UNL A   1      43.823  33.133  27.606  1.00  0.00    -0.237 OA
ATOM     96  O   UNL A   1      45.328  33.099  25.639  1.00  0.00    -0.237 OA
ATOM     97  O   UNL A   1      43.403  31.576  25.751  1.00  0.00    -0.744 OA
ENDBRANCH  90  94
ENDBRANCH  64  87
ENDBRANCH  38  39
ENDBRANCH  31  33
ENDBRANCH  30  31
ENDBRANCH   1  30
TORSDOF 16
ENDMDL
MODEL 3
REMARK VINA RESULT:     -13.2      3.450      9.428
REMARK SMILES CC1=Nc2c(c(C)nn2-c2ccc(F)cc2)[C@H](c2ccc(C(=O)OCCOC(=O)c3ccc(-c4c5nc(c(-c6cc(S(=O)(=O)[O-])ccc6F)c6ccc([nH]6)c(-c6cc(S(=O)(=O)[O-])ccc6F)c6nc(c(-c7cc(S(=O)(=O)[O-])ccc7F)c7ccc4[nH]7)C=C6)C=C5)cc3)cc2)S1
REMARK SMILES IDX 26 1 25 2 24 3 22 4 23 5 21 6 18 7 19 8 94 9 20 10 93 11
REMARK SMILES IDX 17 12 1 13 2 14 3 15 95 16 4 17 5 18 9 19 6 20 8 21 7 22
REMARK SMILES IDX 10 23 11 24 16 25 12 26 15 27 13 28 14 29 27 30 28 31 29 32
REMARK SMILES IDX 30 33 31 34 92 35 32 36 91 37 33 38 34 39 35 40 85 41 36 42
REMARK SMILES IDX 90 43 84 44 86 45 37 46 89 47 83 48 82 49 38 51 70 52 50 53
REMARK SMILES IDX 69 54 51 55 54 56 68 57 87 58 52 59 53 60 67 62 88 63 55 64
REMARK SMILES IDX 39 65 40 66 48 67 41 68 47 69 49 70 46 71 42 72 43 73 44 74
REMARK SMILES IDX 45 75 71 76 72 77 80 78 73 79 79 80 81 81 78 82 74 83 75 84
REMARK SMILES IDX 76 85 77 86 56 87 57 88 65 89 58 90 64 91 66 92 63 93 59 94
REMARK SMILES IDX 60 95 61 96 62 97
REMARK H PARENT 86 50 54 61
REMARK Flexibility Score: inf
ROOT
ATOM      1  C   UNL A   1      33.428  30.018  27.112  1.00  0.00     0.275 C 
ENDROOT
BRANCH   1   2
ATOM      2  C   UNL A   1      32.450  30.567  26.082  1.00  0.00     0.275 C 
BRANCH   2   3
ATOM      3  O   UNL A   1      32.454  29.773  24.881  1.00  0.00    -0.458 OA
BRANCH   3   4
ATOM      4  C   UNL A   1      31.246  29.282  24.511  1.00  0.00     0.338 C 
ATOM      5  O   UNL A   1      30.261  29.949  24.218  1.00  0.00    -0.246 OA
BRANCH   4   6
ATOM      6  C   UNL A   1      31.253  27.795  24.439  1.00  0.00     0.060 A 
ATOM      7  C   UNL A   1      31.456  24.967  24.383  1.00  0.00    -0.030 A 
ATOM      8  C   UNL A   1      31.841  25.706  25.516  1.00  0.00     0.006 A 
ATOM      9  C   UNL A   1      30.890  25.678  23.307  1.00  0.00     0.006 A 
ATOM     10  C   UNL A   1      31.730  27.096  25.550  1.00  0.00     0.016 A 
ATOM     11  C   UNL A   1      30.802  27.079  23.327  1.00  0.00     0.016 A 
BRANCH   7  12
ATOM     12  C   UNL A   1      31.735  23.469  24.361  1.00  0.00     0.119 C 
ATOM     13  C   UNL A   1      32.584  22.358  28.252  1.00  0.00     0.075 C 
ATOM     14  C   UNL A   1      32.734  22.502  26.761  1.00  0.00     0.074 C 
ATOM     15  N   UNL A   1      33.930  22.521  26.269  1.00  0.00    -0.227 NA
ATOM     16  S   UNL A   1      31.217  22.587  25.876  1.00  0.00    -0.098 SA
ATOM     17  C   UNL A   1      34.073  22.748  24.941  1.00  0.00     0.161 A 
ATOM     18  C   UNL A   1      33.161  23.239  24.033  1.00  0.00     0.038 A 
ATOM     19  N   UNL A   1      35.269  22.593  24.256  1.00  0.00    -0.215 N 
ATOM     20  C   UNL A   1      33.889  23.351  22.818  1.00  0.00     0.067 A 
ATOM     21  N   UNL A   1      35.180  23.037  22.981  1.00  0.00    -0.171 NA
ATOM     22  C   UNL A   1      33.411  23.747  21.470  1.00  0.00     0.069 C 
BRANCH  19  23
ATOM     23  C   UNL A   1      36.454  21.978  24.727  1.00  0.00     0.067 A 
ATOM     24  C   UNL A   1      37.454  22.756  25.332  1.00  0.00     0.031 A 
ATOM     25  C   UNL A   1      36.622  20.597  24.574  1.00  0.00     0.031 A 
ATOM     26  C   UNL A   1      38.629  22.149  25.770  1.00  0.00     0.041 A 
ATOM     27  C   UNL A   1      37.825  20.007  24.967  1.00  0.00     0.041 A 
ATOM     28  C   UNL A   1      38.813  20.785  25.565  1.00  0.00     0.123 A 
ATOM     29  F   UNL A   1      39.964  20.218  25.949  1.00  0.00    -0.207 F 
ENDBRANCH  19  23
ENDBRANCH   7  12
ENDBRANCH   4   6
ENDBRANCH   3   4
ENDBRANCH   2   3
ENDBRANCH   1   2
BRANCH   1  30
ATOM     30  O   UNL A   1      34.635  30.780  27.161  1.00  0.00    -0.458 OA
BRANCH  30  31
ATOM     31  C   UNL A   1      34.809  31.476  28.309  1.00  0.00     0.338 C 
ATOM     32  O   UNL A   1      34.212  32.482  28.653  1.00  0.00    -0.246 OA
BRANCH  31  33
ATOM     33  C   UNL A   1      36.007  30.984  28.998  1.00  0.00     0.060 A 
ATOM     34  C   UNL A   1      37.174  31.744  28.873  1.00  0.00     0.016 A 
ATOM     35  C   UNL A   1      36.030  29.672  29.496  1.00  0.00     0.016 A 
ATOM     36  C   UNL A   1      38.388  31.133  29.104  1.00  0.00     0.010 A 
ATOM     37  C   UNL A   1      37.244  29.060  29.710  1.00  0.00     0.010 A 
ATOM     38  C   UNL A   1      38.409  29.778  29.449  1.00  0.00    -0.014 A 
BRANCH  38  39
ATOM     39  C   UNL A   1      39.695  29.140  29.633  1.00  0.00     0.031 A 
ATOM     40  C   UNL A   1      40.097  29.010  31.051  1.00  0.00     0.074 A 
ATOM     41  C   UNL A   1      40.388  28.584  28.623  1.00  0.00     0.049 A 
ATOM     42  N   UNL A   1      41.097  29.567  31.645  1.00  0.00    -0.248 NA
ATOM     43  C   UNL A   1      39.187  28.286  31.952  1.00  0.00     0.031 C 
ATOM     44  C   UNL A   1      39.969  28.391  27.234  1.00  0.00     0.029 A 
ATOM     45  N   UNL A   1      41.595  27.960  28.673  1.00  0.00    -0.354 N 
ATOM     46  C   UNL A   1      41.069  29.092  32.950  1.00  0.00     0.074 A 
ATOM     47  C   UNL A   1      39.784  28.473  33.129  1.00  0.00     0.031 C 
ATOM     48  C   UNL A   1      40.804  27.508  26.640  1.00  0.00     0.029 A 
ATOM     49  C   UNL A   1      41.878  27.174  27.563  1.00  0.00     0.049 A 
ATOM     50  H   UNL A   1      42.215  28.057  29.432  1.00  0.00     0.167 HD
ATOM     51  C   UNL A   1      42.197  29.039  33.708  1.00  0.00     0.034 A 
ATOM     52  C   UNL A   1      42.879  26.261  27.460  1.00  0.00     0.034 A 
ATOM     53  C   UNL A   1      43.224  29.909  33.190  1.00  0.00     0.049 A 
ATOM     54  C   UNL A   1      43.911  26.653  28.458  1.00  0.00     0.074 A 
ATOM     55  C   UNL A   1      43.294  31.266  32.930  1.00  0.00     0.029 A 
ATOM     56  N   UNL A   1      44.260  29.348  32.480  1.00  0.00    -0.354 N 
ATOM     57  N   UNL A   1      44.577  27.775  28.403  1.00  0.00    -0.248 NA
ATOM     58  C   UNL A   1      43.872  26.022  29.769  1.00  0.00     0.031 C 
ATOM     59  C   UNL A   1      44.017  31.369  31.706  1.00  0.00     0.029 A 
ATOM     60  C   UNL A   1      44.401  30.081  31.327  1.00  0.00     0.049 A 
ATOM     61  H   UNL A   1      44.798  28.568  32.747  1.00  0.00     0.167 HD
ATOM     62  C   UNL A   1      44.675  28.202  29.720  1.00  0.00     0.074 A 
ATOM     63  C   UNL A   1      44.310  27.036  30.522  1.00  0.00     0.031 C 
ATOM     64  C   UNL A   1      44.771  29.526  30.038  1.00  0.00     0.034 A 
BRANCH  51  65
ATOM     65  C   UNL A   1      42.477  27.949  34.713  1.00  0.00     0.023 A 
ATOM     66  C   UNL A   1      43.208  26.828  34.280  1.00  0.00     0.031 A 
ATOM     67  C   UNL A   1      41.844  27.825  35.974  1.00  0.00     0.131 A 
ATOM     68  C   UNL A   1      43.230  25.647  35.042  1.00  0.00     0.055 A 
ATOM     69  C   UNL A   1      41.930  26.674  36.758  1.00  0.00     0.041 A 
ATOM     70  F   UNL A   1      41.029  28.763  36.470  1.00  0.00    -0.206 F 
ATOM     71  C   UNL A   1      42.603  25.565  36.282  1.00  0.00     0.022 A 
BRANCH  68  72
ATOM     72  S   UNL A   1      43.962  24.163  34.307  1.00  0.00     0.124 S 
ATOM     73  O   UNL A   1      44.114  24.566  32.913  1.00  0.00    -0.237 OA
ATOM     74  O   UNL A   1      45.193  24.023  35.076  1.00  0.00    -0.237 OA
ATOM     75  O   UNL A   1      42.955  23.133  34.552  1.00  0.00    -0.744 OA
ENDBRANCH  68  72
ENDBRANCH  51  65
BRANCH  52  76
ATOM     76  C   UNL A   1      42.818  24.920  26.810  1.00  0.00     0.023 A 
ATOM     77  C   UNL A   1      43.735  24.530  25.810  1.00  0.00     0.031 A 
ATOM     78  C   UNL A   1      41.998  23.897  27.339  1.00  0.00     0.131 A 
ATOM     79  C   UNL A   1      43.805  23.181  25.387  1.00  0.00     0.055 A 
ATOM     80  C   UNL A   1      42.062  22.569  26.911  1.00  0.00     0.041 A 
ATOM     81  F   UNL A   1      41.160  24.127  28.362  1.00  0.00    -0.206 F 
ATOM     82  C   UNL A   1      42.977  22.201  25.939  1.00  0.00     0.022 A 
BRANCH  79  83
ATOM     83  S   UNL A   1      45.076  22.649  24.195  1.00  0.00     0.124 S 
ATOM     84  O   UNL A   1      45.675  21.508  24.880  1.00  0.00    -0.237 OA
ATOM     85  O   UNL A   1      44.291  22.351  23.003  1.00  0.00    -0.237 OA
ATOM     86  O   UNL A   1      45.942  23.822  24.079  1.00  0.00    -0.744 OA
ENDBRANCH  79  83
ENDBRANCH  52  76
BRANCH  64  87
ATOM     87  C   UNL A   1      45.061  30.524  28.937  1.00  0.00     0.023 A 
ATOM     88  C   UNL A   1      46.351  30.981  28.584  1.00  0.00     0.031 A 
ATOM     89  C   UNL A   1      43.988  30.883  28.104  1.00  0.00     0.131 A 
ATOM     90  C   UNL A   1      46.525  31.768  27.426  1.00  0.00     0.055 A 
ATOM     91  C   UNL A   1      44.167  31.646  26.950  1.00  0.00     0.041 A 
ATOM     92  F   UNL A   1      42.744  30.449  28.372  1.00  0.00    -0.206 F 
ATOM     93  C   UNL A   1      45.437  32.091  26.606  1.00  0.00     0.022 A 
BRANCH  90  94
ATOM     94  S   UNL A   1      48.182  32.351  26.938  1.00  0.00     0.124 S 
ATOM     95  O   UNL A   1      47.904  33.251  25.824  1.00  0.00    -0.237 OA
ATOM     96  O   UNL A   1      48.679  32.976  28.161  1.00  0.00    -0.237 OA
ATOM     97  O   UNL A   1      48.884  31.122  26.563  1.00  0.00    -0.744 OA
ENDBRANCH  90  94
ENDBRANCH  64  87
ENDBRANCH  38  39
ENDBRANCH  31  33
ENDBRANCH  30  31
ENDBRANCH   1  30
TORSDOF 16
ENDMDL
