MODEL 1
REMARK VINA RESULT:     -11.6      0.000      0.000
REMARK SMILES CC1=Nc2nc(NC(=O)CCC(=O)OCCOC(=O)c3ccc(-c4c5nc(c(-c6cc(S(=O)(=O)[O-])ccc6F)c6ccc([nH]6)c(-c6cc(S(=O)(=O)[O-])ccc6F)c6nc(c(-c7cc(S(=O)(=O)[O-])ccc7F)c7ccc4[nH]7)C=C6)C=C5)cc3)nn2[C@@H](c2ccc(Cl)cc2)C1
REMARK SMILES IDX 15 1 14 2 12 3 13 4 11 5 10 6 8 7 7 8 9 10 6 11 1 12 2 13
REMARK SMILES IDX 3 14 93 15 4 16 85 17 5 18 84 19 83 20 86 21 87 22 92 23
REMARK SMILES IDX 88 24 91 25 89 26 90 27 16 28 17 29 18 30 19 31 20 32 21 33
REMARK SMILES IDX 82 34 22 35 81 36 23 37 24 38 25 39 75 40 26 41 80 42 74 43
REMARK SMILES IDX 76 44 27 45 79 46 73 47 72 48 28 50 60 51 40 52 59 53 41 54
REMARK SMILES IDX 44 55 58 56 77 57 42 58 43 59 57 61 78 62 45 63 29 64 30 65
REMARK SMILES IDX 38 66 31 67 37 68 39 69 36 70 32 71 33 72 34 73 35 74 61 75
REMARK SMILES IDX 62 76 70 77 63 78 69 79 71 80 68 81 64 82 65 83 66 84 67 85
REMARK SMILES IDX 46 86 47 87 55 88 48 89 54 90 56 91 53 92 49 93 50 94 51 95
REMARK SMILES IDX 52 96
REMARK H PARENT 7 9 76 49 44 60
REMARK Flexibility Score: inf
ROOT
ATOM      1  C   UNL A   1      34.303  34.647  29.244  1.00  0.00     0.274 C 
ENDROOT
BRANCH   1   2
ATOM      2  O   UNL A   1      34.339  35.930  28.606  1.00  0.00    -0.462 OA
BRANCH   2   3
ATOM      3  C   UNL A   1      33.507  36.785  29.263  1.00  0.00     0.306 C 
ATOM      4  O   UNL A   1      33.006  37.737  28.735  1.00  0.00    -0.252 OA
BRANCH   3   5
ATOM      5  C   UNL A   1      33.334  36.368  30.719  1.00  0.00     0.132 C 
BRANCH   5   6
ATOM      6  C   UNL A   1      34.050  37.184  31.835  1.00  0.00     0.112 C 
BRANCH   6   7
ATOM      7  C   UNL A   1      33.804  36.728  33.278  1.00  0.00     0.227 C 
ATOM      8  N   UNL A   1      34.206  35.557  33.869  1.00  0.00    -0.293 N 
ATOM      9  H   UNL A   1      33.647  35.352  34.653  1.00  0.00     0.173 HD
ATOM     10  O   UNL A   1      33.093  37.466  33.979  1.00  0.00    -0.275 OA
BRANCH   8  11
ATOM     11  C   UNL A   1      35.167  34.580  33.683  1.00  0.00     0.250 A 
ATOM     12  C   UNL A   1      39.040  30.528  35.114  1.00  0.00     0.062 C 
ATOM     13  C   UNL A   1      38.208  31.502  34.331  1.00  0.00     0.021 C 
ATOM     14  N   UNL A   1      37.229  32.084  34.950  1.00  0.00    -0.221 NA
ATOM     15  C   UNL A   1      38.591  31.685  32.883  1.00  0.00     0.083 C 
ATOM     16  C   UNL A   1      36.508  33.015  34.294  1.00  0.00     0.250 A 
ATOM     17  C   UNL A   1      37.784  32.733  32.136  1.00  0.00     0.147 C 
ATOM     18  N   UNL A   1      35.452  33.708  34.699  1.00  0.00    -0.174 NA
ATOM     19  N   UNL A   1      36.853  33.448  33.041  1.00  0.00    -0.220 N 
ATOM     20  N   UNL A   1      36.001  34.416  32.669  1.00  0.00    -0.130 NA
BRANCH  17  21
ATOM     21  C   UNL A   1      38.755  33.517  31.219  1.00  0.00    -0.023 A 
ATOM     22  C   UNL A   1      38.351  34.264  30.099  1.00  0.00     0.007 A 
ATOM     23  C   UNL A   1      40.123  33.606  31.573  1.00  0.00     0.007 A 
ATOM     24  C   UNL A   1      39.290  34.893  29.258  1.00  0.00     0.021 A 
ATOM     25  C   UNL A   1      41.052  34.308  30.782  1.00  0.00     0.021 A 
ATOM     26  C   UNL A   1      40.636  34.911  29.603  1.00  0.00     0.041 A 
ATOM     27  Cl  UNL A   1      41.777  35.703  28.585  1.00  0.00    -0.084 Cl
ENDBRANCH  17  21
ENDBRANCH   8  11
ENDBRANCH   6   7
ENDBRANCH   5   6
ENDBRANCH   3   5
ENDBRANCH   2   3
ENDBRANCH   1   2
BRANCH   1  28
ATOM     28  C   UNL A   1      33.740  33.662  28.223  1.00  0.00     0.275 C 
BRANCH  28  29
ATOM     29  O   UNL A   1      34.464  32.719  27.389  1.00  0.00    -0.458 OA
BRANCH  29  30
ATOM     30  C   UNL A   1      34.557  31.382  27.718  1.00  0.00     0.338 C 
ATOM     31  O   UNL A   1      33.629  30.626  27.454  1.00  0.00    -0.246 OA
BRANCH  30  32
ATOM     32  C   UNL A   1      35.892  30.763  28.176  1.00  0.00     0.060 A 
ATOM     33  C   UNL A   1      35.981  29.402  28.452  1.00  0.00     0.016 A 
ATOM     34  C   UNL A   1      37.045  31.454  28.534  1.00  0.00     0.016 A 
ATOM     35  C   UNL A   1      37.204  28.812  28.879  1.00  0.00     0.010 A 
ATOM     36  C   UNL A   1      38.303  30.902  28.826  1.00  0.00     0.010 A 
ATOM     37  C   UNL A   1      38.405  29.549  28.995  1.00  0.00    -0.014 A 
BRANCH  37  38
ATOM     38  C   UNL A   1      39.718  28.878  29.107  1.00  0.00     0.031 A 
ATOM     39  C   UNL A   1      40.112  28.677  30.523  1.00  0.00     0.074 A 
ATOM     40  C   UNL A   1      40.509  28.228  28.215  1.00  0.00     0.049 A 
ATOM     41  N   UNL A   1      40.955  29.375  31.201  1.00  0.00    -0.248 NA
ATOM     42  C   UNL A   1      39.358  27.696  31.313  1.00  0.00     0.031 C 
ATOM     43  C   UNL A   1      40.252  27.874  26.820  1.00  0.00     0.029 A 
ATOM     44  N   UNL A   1      41.753  27.675  28.437  1.00  0.00    -0.354 N 
ATOM     45  C   UNL A   1      40.997  28.802  32.463  1.00  0.00     0.074 A 
ATOM     46  C   UNL A   1      39.866  27.913  32.528  1.00  0.00     0.031 C 
ATOM     47  C   UNL A   1      41.212  27.022  26.382  1.00  0.00     0.029 A 
ATOM     48  C   UNL A   1      42.237  26.873  27.405  1.00  0.00     0.049 A 
ATOM     49  H   UNL A   1      42.263  27.835  29.265  1.00  0.00     0.167 HD
ATOM     50  C   UNL A   1      42.076  28.974  33.277  1.00  0.00     0.034 A 
ATOM     51  C   UNL A   1      43.385  26.136  27.385  1.00  0.00     0.034 A 
ATOM     52  C   UNL A   1      42.961  29.998  32.757  1.00  0.00     0.049 A 
ATOM     53  C   UNL A   1      44.307  26.712  28.393  1.00  0.00     0.074 A 
ATOM     54  C   UNL A   1      42.807  31.326  32.399  1.00  0.00     0.029 A 
ATOM     55  N   UNL A   1      44.150  29.603  32.184  1.00  0.00    -0.354 N 
ATOM     56  N   UNL A   1      44.874  27.879  28.276  1.00  0.00    -0.248 NA
ATOM     57  C   UNL A   1      44.327  26.151  29.735  1.00  0.00     0.031 C 
ATOM     58  C   UNL A   1      43.624  31.494  31.241  1.00  0.00     0.029 A 
ATOM     59  C   UNL A   1      44.277  30.285  30.999  1.00  0.00     0.049 A 
ATOM     60  H   UNL A   1      44.790  28.954  32.556  1.00  0.00     0.167 HD
ATOM     61  C   UNL A   1      44.929  28.383  29.563  1.00  0.00     0.074 A 
ATOM     62  C   UNL A   1      44.699  27.231  30.427  1.00  0.00     0.031 C 
ATOM     63  C   UNL A   1      44.868  29.728  29.796  1.00  0.00     0.034 A 
BRANCH  50  64
ATOM     64  C   UNL A   1      42.515  28.024  34.369  1.00  0.00     0.023 A 
ATOM     65  C   UNL A   1      43.201  26.865  33.960  1.00  0.00     0.031 A 
ATOM     66  C   UNL A   1      42.091  28.042  35.715  1.00  0.00     0.131 A 
ATOM     67  C   UNL A   1      43.338  25.762  34.818  1.00  0.00     0.055 A 
ATOM     68  C   UNL A   1      42.308  26.974  36.593  1.00  0.00     0.041 A 
ATOM     69  F   UNL A   1      41.366  29.036  36.236  1.00  0.00    -0.206 F 
ATOM     70  C   UNL A   1      42.902  25.811  36.137  1.00  0.00     0.022 A 
BRANCH  67  71
ATOM     71  S   UNL A   1      43.906  24.200  34.104  1.00  0.00     0.124 S 
ATOM     72  O   UNL A   1      42.801  23.309  34.439  1.00  0.00    -0.237 OA
ATOM     73  O   UNL A   1      44.051  24.549  32.694  1.00  0.00    -0.237 OA
ATOM     74  O   UNL A   1      45.156  23.940  34.815  1.00  0.00    -0.744 OA
ENDBRANCH  67  71
ENDBRANCH  50  64
BRANCH  51  75
ATOM     75  C   UNL A   1      43.705  24.875  26.654  1.00  0.00     0.023 A 
ATOM     76  C   UNL A   1      43.037  23.652  26.904  1.00  0.00     0.031 A 
ATOM     77  C   UNL A   1      44.515  24.922  25.499  1.00  0.00     0.131 A 
ATOM     78  C   UNL A   1      43.190  22.556  26.021  1.00  0.00     0.055 A 
ATOM     79  C   UNL A   1      44.672  23.832  24.638  1.00  0.00     0.041 A 
ATOM     80  F   UNL A   1      45.108  26.064  25.116  1.00  0.00    -0.206 F 
ATOM     81  C   UNL A   1      44.003  22.647  24.890  1.00  0.00     0.022 A 
BRANCH  78  82
ATOM     82  S   UNL A   1      42.222  21.025  26.252  1.00  0.00     0.124 S 
ATOM     83  O   UNL A   1      42.884  20.097  25.343  1.00  0.00    -0.237 OA
ATOM     84  O   UNL A   1      42.375  20.763  27.678  1.00  0.00    -0.237 OA
ATOM     85  O   UNL A   1      40.869  21.418  25.850  1.00  0.00    -0.744 OA
ENDBRANCH  78  82
ENDBRANCH  51  75
BRANCH  63  86
ATOM     86  C   UNL A   1      45.175  30.685  28.660  1.00  0.00     0.023 A 
ATOM     87  C   UNL A   1      46.450  31.214  28.366  1.00  0.00     0.031 A 
ATOM     88  C   UNL A   1      44.124  31.006  27.780  1.00  0.00     0.131 A 
ATOM     89  C   UNL A   1      46.632  32.046  27.245  1.00  0.00     0.055 A 
ATOM     90  C   UNL A   1      44.312  31.809  26.654  1.00  0.00     0.041 A 
ATOM     91  F   UNL A   1      42.888  30.523  27.986  1.00  0.00    -0.206 F 
ATOM     92  C   UNL A   1      45.567  32.341  26.388  1.00  0.00     0.022 A 
BRANCH  89  93
ATOM     93  S   UNL A   1      48.258  32.789  26.901  1.00  0.00     0.124 S 
ATOM     94  O   UNL A   1      49.100  31.643  26.579  1.00  0.00    -0.237 OA
ATOM     95  O   UNL A   1      47.960  33.692  25.793  1.00  0.00    -0.237 OA
ATOM     96  O   UNL A   1      48.595  33.459  28.158  1.00  0.00    -0.744 OA
ENDBRANCH  89  93
ENDBRANCH  63  86
ENDBRANCH  37  38
ENDBRANCH  30  32
ENDBRANCH  29  30
ENDBRANCH  28  29
ENDBRANCH   1  28
TORSDOF 18
ENDMDL
MODEL 2
REMARK VINA RESULT:     -11.3      1.358      1.749
REMARK SMILES CC1=Nc2nc(NC(=O)CCC(=O)OCCOC(=O)c3ccc(-c4c5nc(c(-c6cc(S(=O)(=O)[O-])ccc6F)c6ccc([nH]6)c(-c6cc(S(=O)(=O)[O-])ccc6F)c6nc(c(-c7cc(S(=O)(=O)[O-])ccc7F)c7ccc4[nH]7)C=C6)C=C5)cc3)nn2[C@@H](c2ccc(Cl)cc2)C1
REMARK SMILES IDX 15 1 14 2 12 3 13 4 11 5 10 6 8 7 7 8 9 10 6 11 1 12 2 13
REMARK SMILES IDX 3 14 93 15 4 16 85 17 5 18 84 19 83 20 86 21 87 22 92 23
REMARK SMILES IDX 88 24 91 25 89 26 90 27 16 28 17 29 18 30 19 31 20 32 21 33
REMARK SMILES IDX 82 34 22 35 81 36 23 37 24 38 25 39 75 40 26 41 80 42 74 43
REMARK SMILES IDX 76 44 27 45 79 46 73 47 72 48 28 50 60 51 40 52 59 53 41 54
REMARK SMILES IDX 44 55 58 56 77 57 42 58 43 59 57 61 78 62 45 63 29 64 30 65
REMARK SMILES IDX 38 66 31 67 37 68 39 69 36 70 32 71 33 72 34 73 35 74 61 75
REMARK SMILES IDX 62 76 70 77 63 78 69 79 71 80 68 81 64 82 65 83 66 84 67 85
REMARK SMILES IDX 46 86 47 87 55 88 48 89 54 90 56 91 53 92 49 93 50 94 51 95
REMARK SMILES IDX 52 96
REMARK H PARENT 7 9 76 49 44 60
REMARK Flexibility Score: inf
ROOT
ATOM      1  C   UNL A   1      32.925  35.001  28.769  1.00  0.00     0.274 C 
ENDROOT
BRANCH   1   2
ATOM      2  O   UNL A   1      33.750  36.154  28.554  1.00  0.00    -0.462 OA
BRANCH   2   3
ATOM      3  C   UNL A   1      33.412  37.124  29.447  1.00  0.00     0.306 C 
ATOM      4  O   UNL A   1      33.268  38.273  29.133  1.00  0.00    -0.252 OA
BRANCH   3   5
ATOM      5  C   UNL A   1      33.267  36.549  30.851  1.00  0.00     0.132 C 
BRANCH   5   6
ATOM      6  C   UNL A   1      34.228  37.036  31.976  1.00  0.00     0.112 C 
BRANCH   6   7
ATOM      7  C   UNL A   1      33.927  36.536  33.393  1.00  0.00     0.227 C 
ATOM      8  N   UNL A   1      34.307  35.348  33.964  1.00  0.00    -0.293 N 
ATOM      9  H   UNL A   1      33.718  35.119  34.719  1.00  0.00     0.173 HD
ATOM     10  O   UNL A   1      33.187  37.252  34.088  1.00  0.00    -0.275 OA
BRANCH   8  11
ATOM     11  C   UNL A   1      35.276  34.378  33.787  1.00  0.00     0.250 A 
ATOM     12  C   UNL A   1      39.245  30.432  35.254  1.00  0.00     0.062 C 
ATOM     13  C   UNL A   1      38.377  31.365  34.460  1.00  0.00     0.021 C 
ATOM     14  N   UNL A   1      37.408  31.958  35.085  1.00  0.00    -0.221 NA
ATOM     15  C   UNL A   1      38.717  31.500  32.996  1.00  0.00     0.083 C 
ATOM     16  C   UNL A   1      36.655  32.854  34.416  1.00  0.00     0.250 A 
ATOM     17  C   UNL A   1      37.874  32.509  32.234  1.00  0.00     0.147 C 
ATOM     18  N   UNL A   1      35.602  33.548  34.826  1.00  0.00    -0.174 NA
ATOM     19  N   UNL A   1      36.959  33.244  33.139  1.00  0.00    -0.220 N 
ATOM     20  N   UNL A   1      36.084  34.187  32.756  1.00  0.00    -0.130 NA
BRANCH  17  21
ATOM     21  C   UNL A   1      38.808  33.271  31.261  1.00  0.00    -0.023 A 
ATOM     22  C   UNL A   1      38.392  34.331  30.437  1.00  0.00     0.007 A 
ATOM     23  C   UNL A   1      40.196  32.988  31.269  1.00  0.00     0.007 A 
ATOM     24  C   UNL A   1      39.271  34.934  29.517  1.00  0.00     0.021 A 
ATOM     25  C   UNL A   1      41.094  33.651  30.412  1.00  0.00     0.021 A 
ATOM     26  C   UNL A   1      40.618  34.591  29.508  1.00  0.00     0.041 A 
ATOM     27  Cl  UNL A   1      41.694  35.350  28.398  1.00  0.00    -0.084 Cl
ENDBRANCH  17  21
ENDBRANCH   8  11
ENDBRANCH   6   7
ENDBRANCH   5   6
ENDBRANCH   3   5
ENDBRANCH   2   3
ENDBRANCH   1   2
BRANCH   1  28
ATOM     28  C   UNL A   1      33.701  33.799  28.236  1.00  0.00     0.275 C 
BRANCH  28  29
ATOM     29  O   UNL A   1      34.703  33.000  28.921  1.00  0.00    -0.458 OA
BRANCH  29  30
ATOM     30  C   UNL A   1      34.858  31.653  28.662  1.00  0.00     0.338 C 
ATOM     31  O   UNL A   1      34.021  31.065  27.987  1.00  0.00    -0.246 OA
BRANCH  30  32
ATOM     32  C   UNL A   1      36.180  30.927  28.978  1.00  0.00     0.060 A 
ATOM     33  C   UNL A   1      36.209  29.884  29.899  1.00  0.00     0.016 A 
ATOM     34  C   UNL A   1      37.453  31.309  28.570  1.00  0.00     0.016 A 
ATOM     35  C   UNL A   1      37.419  29.203  30.209  1.00  0.00     0.010 A 
ATOM     36  C   UNL A   1      38.646  30.588  28.740  1.00  0.00     0.010 A 
ATOM     37  C   UNL A   1      38.645  29.500  29.568  1.00  0.00    -0.014 A 
BRANCH  37  38
ATOM     38  C   UNL A   1      39.801  28.581  29.644  1.00  0.00     0.031 A 
ATOM     39  C   UNL A   1      40.201  28.318  31.048  1.00  0.00     0.074 A 
ATOM     40  C   UNL A   1      40.411  27.777  28.735  1.00  0.00     0.049 A 
ATOM     41  N   UNL A   1      41.192  28.840  31.682  1.00  0.00    -0.248 NA
ATOM     42  C   UNL A   1      39.298  27.515  31.881  1.00  0.00     0.031 C 
ATOM     43  C   UNL A   1      40.034  27.468  27.357  1.00  0.00     0.029 A 
ATOM     44  N   UNL A   1      41.527  26.989  28.921  1.00  0.00    -0.354 N 
ATOM     45  C   UNL A   1      41.169  28.282  32.952  1.00  0.00     0.074 A 
ATOM     46  C   UNL A   1      39.886  27.638  33.073  1.00  0.00     0.031 C 
ATOM     47  C   UNL A   1      40.788  26.438  26.898  1.00  0.00     0.029 A 
ATOM     48  C   UNL A   1      41.801  26.096  27.886  1.00  0.00     0.049 A 
ATOM     49  H   UNL A   1      42.090  27.051  29.728  1.00  0.00     0.167 HD
ATOM     50  C   UNL A   1      42.290  28.243  33.723  1.00  0.00     0.034 A 
ATOM     51  C   UNL A   1      42.777  25.145  27.837  1.00  0.00     0.034 A 
ATOM     52  C   UNL A   1      43.341  29.064  33.155  1.00  0.00     0.049 A 
ATOM     53  C   UNL A   1      43.834  25.534  28.801  1.00  0.00     0.074 A 
ATOM     54  C   UNL A   1      43.441  30.393  32.779  1.00  0.00     0.029 A 
ATOM     55  N   UNL A   1      44.405  28.434  32.546  1.00  0.00    -0.354 N 
ATOM     56  N   UNL A   1      44.618  26.562  28.644  1.00  0.00    -0.248 NA
ATOM     57  C   UNL A   1      43.794  24.993  30.151  1.00  0.00     0.031 C 
ATOM     58  C   UNL A   1      44.230  30.383  31.589  1.00  0.00     0.029 A 
ATOM     59  C   UNL A   1      44.619  29.066  31.346  1.00  0.00     0.049 A 
ATOM     60  H   UNL A   1      44.916  27.673  32.905  1.00  0.00     0.167 HD
ATOM     61  C   UNL A   1      44.822  27.058  29.919  1.00  0.00     0.074 A 
ATOM     62  C   UNL A   1      44.400  25.984  30.810  1.00  0.00     0.031 C 
ATOM     63  C   UNL A   1      45.039  28.390  30.131  1.00  0.00     0.034 A 
BRANCH  50  64
ATOM     64  C   UNL A   1      42.573  27.235  34.814  1.00  0.00     0.023 A 
ATOM     65  C   UNL A   1      43.361  26.123  34.460  1.00  0.00     0.031 A 
ATOM     66  C   UNL A   1      41.928  27.152  36.067  1.00  0.00     0.131 A 
ATOM     67  C   UNL A   1      43.391  24.970  35.259  1.00  0.00     0.055 A 
ATOM     68  C   UNL A   1      42.032  26.035  36.902  1.00  0.00     0.041 A 
ATOM     69  F   UNL A   1      41.089  28.091  36.516  1.00  0.00    -0.206 F 
ATOM     70  C   UNL A   1      42.737  24.920  36.485  1.00  0.00     0.022 A 
BRANCH  67  71
ATOM     71  S   UNL A   1      44.130  23.473  34.560  1.00  0.00     0.124 S 
ATOM     72  O   UNL A   1      45.215  24.032  33.760  1.00  0.00    -0.237 OA
ATOM     73  O   UNL A   1      44.520  22.743  35.761  1.00  0.00    -0.237 OA
ATOM     74  O   UNL A   1      43.032  22.882  33.797  1.00  0.00    -0.744 OA
ENDBRANCH  67  71
ENDBRANCH  50  64
BRANCH  51  75
ATOM     75  C   UNL A   1      42.810  23.838  27.116  1.00  0.00     0.023 A 
ATOM     76  C   UNL A   1      43.746  23.549  26.094  1.00  0.00     0.031 A 
ATOM     77  C   UNL A   1      42.068  22.746  27.614  1.00  0.00     0.131 A 
ATOM     78  C   UNL A   1      43.907  22.225  25.620  1.00  0.00     0.055 A 
ATOM     79  C   UNL A   1      42.223  21.442  27.134  1.00  0.00     0.041 A 
ATOM     80  F   UNL A   1      41.231  22.894  28.653  1.00  0.00    -0.206 F 
ATOM     81  C   UNL A   1      43.151  21.174  26.141  1.00  0.00     0.022 A 
BRANCH  78  82
ATOM     82  S   UNL A   1      45.210  21.815  24.407  1.00  0.00     0.124 S 
ATOM     83  O   UNL A   1      44.723  20.566  23.837  1.00  0.00    -0.237 OA
ATOM     84  O   UNL A   1      45.205  22.980  23.530  1.00  0.00    -0.237 OA
ATOM     85  O   UNL A   1      46.411  21.685  25.235  1.00  0.00    -0.744 OA
ENDBRANCH  78  82
ENDBRANCH  51  75
BRANCH  63  86
ATOM     86  C   UNL A   1      45.487  29.255  28.969  1.00  0.00     0.023 A 
ATOM     87  C   UNL A   1      46.829  29.542  28.638  1.00  0.00     0.031 A 
ATOM     88  C   UNL A   1      44.490  29.745  28.102  1.00  0.00     0.131 A 
ATOM     89  C   UNL A   1      47.131  30.307  27.496  1.00  0.00     0.055 A 
ATOM     90  C   UNL A   1      44.793  30.480  26.956  1.00  0.00     0.041 A 
ATOM     91  F   UNL A   1      43.192  29.495  28.343  1.00  0.00    -0.206 F 
ATOM     92  C   UNL A   1      46.117  30.773  26.654  1.00  0.00     0.022 A 
BRANCH  89  93
ATOM     93  S   UNL A   1      48.856  30.739  27.104  1.00  0.00     0.124 S 
ATOM     94  O   UNL A   1      49.517  30.732  28.403  1.00  0.00    -0.237 OA
ATOM     95  O   UNL A   1      49.242  29.671  26.186  1.00  0.00    -0.237 OA
ATOM     96  O   UNL A   1      48.740  32.060  26.485  1.00  0.00    -0.744 OA
ENDBRANCH  89  93
ENDBRANCH  63  86
ENDBRANCH  37  38
ENDBRANCH  30  32
ENDBRANCH  29  30
ENDBRANCH  28  29
ENDBRANCH   1  28
TORSDOF 18
ENDMDL
MODEL 3
REMARK VINA RESULT:     -10.8      3.476     12.079
REMARK SMILES CC1=Nc2nc(NC(=O)CCC(=O)OCCOC(=O)c3ccc(-c4c5nc(c(-c6cc(S(=O)(=O)[O-])ccc6F)c6ccc([nH]6)c(-c6cc(S(=O)(=O)[O-])ccc6F)c6nc(c(-c7cc(S(=O)(=O)[O-])ccc7F)c7ccc4[nH]7)C=C6)C=C5)cc3)nn2[C@@H](c2ccc(Cl)cc2)C1
REMARK SMILES IDX 15 1 14 2 12 3 13 4 11 5 10 6 8 7 7 8 9 10 6 11 1 12 2 13
REMARK SMILES IDX 3 14 93 15 4 16 85 17 5 18 84 19 83 20 86 21 87 22 92 23
REMARK SMILES IDX 88 24 91 25 89 26 90 27 16 28 17 29 18 30 19 31 20 32 21 33
REMARK SMILES IDX 82 34 22 35 81 36 23 37 24 38 25 39 75 40 26 41 80 42 74 43
REMARK SMILES IDX 76 44 27 45 79 46 73 47 72 48 28 50 60 51 40 52 59 53 41 54
REMARK SMILES IDX 44 55 58 56 77 57 42 58 43 59 57 61 78 62 45 63 29 64 30 65
REMARK SMILES IDX 38 66 31 67 37 68 39 69 36 70 32 71 33 72 34 73 35 74 61 75
REMARK SMILES IDX 62 76 70 77 63 78 69 79 71 80 68 81 64 82 65 83 66 84 67 85
REMARK SMILES IDX 46 86 47 87 55 88 48 89 54 90 56 91 53 92 49 93 50 94 51 95
REMARK SMILES IDX 52 96
REMARK H PARENT 7 9 76 49 44 60
REMARK Flexibility Score: inf
ROOT
ATOM      1  C   UNL A   1      42.225  20.119  27.644  1.00  0.00     0.274 C 
ENDROOT
BRANCH   1   2
ATOM      2  O   UNL A   1      42.248  18.692  27.785  1.00  0.00    -0.462 OA
BRANCH   2   3
ATOM      3  C   UNL A   1      43.019  18.154  26.800  1.00  0.00     0.306 C 
ATOM      4  O   UNL A   1      43.520  17.068  26.889  1.00  0.00    -0.252 OA
BRANCH   3   5
ATOM      5  C   UNL A   1      43.154  19.114  25.624  1.00  0.00     0.132 C 
BRANCH   5   6
ATOM      6  C   UNL A   1      44.267  18.866  24.562  1.00  0.00     0.112 C 
BRANCH   6   7
ATOM      7  C   UNL A   1      45.705  19.165  25.000  1.00  0.00     0.227 C 
ATOM      8  N   UNL A   1      46.291  20.393  25.174  1.00  0.00    -0.293 N 
ATOM      9  H   UNL A   1      47.271  20.323  25.113  1.00  0.00     0.173 HD
ATOM     10  O   UNL A   1      46.457  18.187  25.142  1.00  0.00    -0.275 OA
BRANCH   8  11
ATOM     11  C   UNL A   1      45.907  21.700  25.410  1.00  0.00     0.250 A 
ATOM     12  C   UNL A   1      45.972  27.470  24.987  1.00  0.00     0.062 C 
ATOM     13  C   UNL A   1      45.647  26.068  25.416  1.00  0.00     0.021 C 
ATOM     14  N   UNL A   1      46.144  25.098  24.714  1.00  0.00    -0.221 NA
ATOM     15  C   UNL A   1      44.749  25.936  26.621  1.00  0.00     0.083 C 
ATOM     16  C   UNL A   1      45.928  23.829  25.114  1.00  0.00     0.250 A 
ATOM     17  C   UNL A   1      44.502  24.509  27.080  1.00  0.00     0.147 C 
ATOM     18  N   UNL A   1      46.297  22.688  24.547  1.00  0.00    -0.174 NA
ATOM     19  N   UNL A   1      45.307  23.540  26.300  1.00  0.00    -0.220 N 
ATOM     20  N   UNL A   1      45.291  22.208  26.465  1.00  0.00    -0.130 NA
BRANCH  17  21
ATOM     21  C   UNL A   1      44.528  24.496  28.629  1.00  0.00    -0.023 A 
ATOM     22  C   UNL A   1      44.960  25.576  29.418  1.00  0.00     0.007 A 
ATOM     23  C   UNL A   1      43.975  23.392  29.322  1.00  0.00     0.007 A 
ATOM     24  C   UNL A   1      45.033  25.477  30.821  1.00  0.00     0.021 A 
ATOM     25  C   UNL A   1      43.966  23.327  30.728  1.00  0.00     0.021 A 
ATOM     26  C   UNL A   1      44.536  24.351  31.470  1.00  0.00     0.041 A 
ATOM     27  Cl  UNL A   1      44.604  24.246  33.188  1.00  0.00    -0.084 Cl
ENDBRANCH  17  21
ENDBRANCH   8  11
ENDBRANCH   6   7
ENDBRANCH   5   6
ENDBRANCH   3   5
ENDBRANCH   2   3
ENDBRANCH   1   2
BRANCH   1  28
ATOM     28  C   UNL A   1      40.857  20.482  27.070  1.00  0.00     0.275 C 
BRANCH  28  29
ATOM     29  O   UNL A   1      40.507  21.613  26.228  1.00  0.00    -0.458 OA
BRANCH  29  30
ATOM     30  C   UNL A   1      41.397  22.640  25.984  1.00  0.00     0.338 C 
ATOM     31  O   UNL A   1      42.279  22.492  25.146  1.00  0.00    -0.246 OA
BRANCH  30  32
ATOM     32  C   UNL A   1      41.159  24.053  26.550  1.00  0.00     0.060 A 
ATOM     33  C   UNL A   1      40.989  24.247  27.918  1.00  0.00     0.016 A 
ATOM     34  C   UNL A   1      40.907  25.207  25.815  1.00  0.00     0.016 A 
ATOM     35  C   UNL A   1      40.764  25.543  28.458  1.00  0.00     0.010 A 
ATOM     36  C   UNL A   1      40.818  26.518  26.308  1.00  0.00     0.010 A 
ATOM     37  C   UNL A   1      40.755  26.711  27.660  1.00  0.00    -0.014 A 
BRANCH  37  38
ATOM     38  C   UNL A   1      40.859  28.059  28.259  1.00  0.00     0.031 A 
ATOM     39  C   UNL A   1      41.962  28.844  27.651  1.00  0.00     0.074 A 
ATOM     40  C   UNL A   1      40.042  28.785  29.064  1.00  0.00     0.049 A 
ATOM     41  N   UNL A   1      43.128  29.060  28.154  1.00  0.00    -0.248 NA
ATOM     42  C   UNL A   1      41.804  29.292  26.262  1.00  0.00     0.031 C 
ATOM     43  C   UNL A   1      38.686  28.494  29.528  1.00  0.00     0.029 A 
ATOM     44  N   UNL A   1      40.277  30.035  29.598  1.00  0.00    -0.354 N 
ATOM     45  C   UNL A   1      43.800  29.849  27.232  1.00  0.00     0.074 A 
ATOM     46  C   UNL A   1      43.018  29.791  26.023  1.00  0.00     0.031 C 
ATOM     47  C   UNL A   1      38.159  29.598  30.113  1.00  0.00     0.029 A 
ATOM     48  C   UNL A   1      39.174  30.638  30.201  1.00  0.00     0.049 A 
ATOM     49  H   UNL A   1      41.159  30.470  29.556  1.00  0.00     0.167 HD
ATOM     50  C   UNL A   1      44.848  30.632  27.608  1.00  0.00     0.034 A 
ATOM     51  C   UNL A   1      39.091  31.892  30.730  1.00  0.00     0.034 A 
ATOM     52  C   UNL A   1      45.279  30.311  28.955  1.00  0.00     0.049 A 
ATOM     53  C   UNL A   1      40.468  32.339  31.050  1.00  0.00     0.074 A 
ATOM     54  C   UNL A   1      45.695  29.155  29.593  1.00  0.00     0.029 A 
ATOM     55  N   UNL A   1      44.970  31.193  29.967  1.00  0.00    -0.354 N 
ATOM     56  N   UNL A   1      41.196  31.823  31.999  1.00  0.00    -0.248 NA
ATOM     57  C   UNL A   1      41.202  33.126  30.071  1.00  0.00     0.031 C 
ATOM     58  C   UNL A   1      45.135  29.233  30.904  1.00  0.00     0.029 A 
ATOM     59  C   UNL A   1      44.469  30.455  31.011  1.00  0.00     0.049 A 
ATOM     60  H   UNL A   1      45.087  32.170  29.946  1.00  0.00     0.167 HD
ATOM     61  C   UNL A   1      42.490  31.847  31.513  1.00  0.00     0.074 A 
ATOM     62  C   UNL A   1      42.450  32.771  30.386  1.00  0.00     0.031 C 
ATOM     63  C   UNL A   1      43.402  30.901  31.889  1.00  0.00     0.034 A 
BRANCH  50  64
ATOM     64  C   UNL A   1      45.297  31.897  26.912  1.00  0.00     0.023 A 
ATOM     65  C   UNL A   1      46.680  32.046  26.698  1.00  0.00     0.031 A 
ATOM     66  C   UNL A   1      44.516  33.052  26.687  1.00  0.00     0.131 A 
ATOM     67  C   UNL A   1      47.238  33.298  26.399  1.00  0.00     0.055 A 
ATOM     68  C   UNL A   1      45.068  34.278  26.302  1.00  0.00     0.041 A 
ATOM     69  F   UNL A   1      43.200  33.095  26.914  1.00  0.00    -0.206 F 
ATOM     70  C   UNL A   1      46.440  34.417  26.191  1.00  0.00     0.022 A 
BRANCH  67  71
ATOM     71  S   UNL A   1      49.037  33.469  26.497  1.00  0.00     0.124 S 
ATOM     72  O   UNL A   1      49.455  32.074  26.597  1.00  0.00    -0.237 OA
ATOM     73  O   UNL A   1      49.342  34.147  25.242  1.00  0.00    -0.237 OA
ATOM     74  O   UNL A   1      49.234  34.268  27.704  1.00  0.00    -0.744 OA
ENDBRANCH  67  71
ENDBRANCH  50  64
BRANCH  51  75
ATOM     75  C   UNL A   1      37.917  32.805  30.857  1.00  0.00     0.023 A 
ATOM     76  C   UNL A   1      36.947  32.956  29.836  1.00  0.00     0.031 A 
ATOM     77  C   UNL A   1      37.595  33.359  32.114  1.00  0.00     0.131 A 
ATOM     78  C   UNL A   1      35.728  33.628  30.096  1.00  0.00     0.055 A 
ATOM     79  C   UNL A   1      36.394  34.032  32.362  1.00  0.00     0.041 A 
ATOM     80  F   UNL A   1      38.398  33.182  33.175  1.00  0.00    -0.206 F 
ATOM     81  C   UNL A   1      35.451  34.161  31.356  1.00  0.00     0.022 A 
BRANCH  78  82
ATOM     82  S   UNL A   1      34.411  33.701  28.833  1.00  0.00     0.124 S 
ATOM     83  O   UNL A   1      33.493  34.682  29.398  1.00  0.00    -0.237 OA
ATOM     84  O   UNL A   1      35.141  34.103  27.636  1.00  0.00    -0.237 OA
ATOM     85  O   UNL A   1      33.900  32.329  28.799  1.00  0.00    -0.744 OA
ENDBRANCH  78  82
ENDBRANCH  51  75
BRANCH  63  86
ATOM     86  C   UNL A   1      43.146  30.092  33.145  1.00  0.00     0.023 A 
ATOM     87  C   UNL A   1      43.562  30.455  34.445  1.00  0.00     0.031 A 
ATOM     88  C   UNL A   1      42.360  28.930  33.021  1.00  0.00     0.131 A 
ATOM     89  C   UNL A   1      43.213  29.658  35.551  1.00  0.00     0.055 A 
ATOM     90  C   UNL A   1      41.992  28.156  34.121  1.00  0.00     0.041 A 
ATOM     91  F   UNL A   1      41.912  28.534  31.818  1.00  0.00    -0.206 F 
ATOM     92  C   UNL A   1      42.427  28.512  35.392  1.00  0.00     0.022 A 
BRANCH  89  93
ATOM     93  S   UNL A   1      43.806  30.082  37.218  1.00  0.00     0.124 S 
ATOM     94  O   UNL A   1      44.131  28.790  37.809  1.00  0.00    -0.237 OA
ATOM     95  O   UNL A   1      44.940  30.956  36.932  1.00  0.00    -0.237 OA
ATOM     96  O   UNL A   1      42.656  30.758  37.823  1.00  0.00    -0.744 OA
ENDBRANCH  89  93
ENDBRANCH  63  86
ENDBRANCH  37  38
ENDBRANCH  30  32
ENDBRANCH  29  30
ENDBRANCH  28  29
ENDBRANCH   1  28
TORSDOF 18
ENDMDL
