MODEL 1
REMARK VINA RESULT:     -12.3      0.000      0.000
REMARK SMILES NC(=O)[C@H]1CN(C(=O)CSc2ccccc2C(=O)OCCOC(=O)c2ccc(-c3c4nc(c(-c5cc(S(=O)(=O)[O-])ccc5F)c5ccc([nH]5)c(-c5cc(S(=O)(=O)[O-])ccc5F)c5nc(c(-c6cc(S(=O)(=O)[O-])ccc6F)c6ccc3[nH]6)C=C5)C=C4)cc2)c2ccccc2O1
REMARK SMILES IDX 20 1 19 2 17 3 18 4 16 5 11 6 12 7 13 8 15 9 14 10 10 11
REMARK SMILES IDX 9 12 7 13 8 14 6 15 4 16 5 17 94 18 93 19 88 20 92 21 89 22
REMARK SMILES IDX 91 23 90 24 2 25 1 26 3 29 21 30 22 31 23 32 24 33 25 34
REMARK SMILES IDX 26 35 87 36 27 37 86 38 28 39 29 40 30 41 80 42 31 43 85 44
REMARK SMILES IDX 79 45 81 46 32 47 84 48 78 49 77 50 33 52 65 53 45 54 64 55
REMARK SMILES IDX 46 56 49 57 63 58 82 59 47 60 48 61 62 63 83 64 50 65 34 66
REMARK SMILES IDX 35 67 43 68 36 69 42 70 44 71 41 72 37 73 38 74 39 75 40 76
REMARK SMILES IDX 66 77 67 78 75 79 68 80 74 81 76 82 73 83 69 84 70 85 71 86
REMARK SMILES IDX 72 87 51 88 52 89 60 90 53 91 59 92 61 93 58 94 54 95 55 96
REMARK SMILES IDX 56 97 57 98
REMARK H PARENT 1 27 1 28 81 51 49 62
REMARK Flexibility Score: inf
ROOT
ATOM      1  C   UNL A   1      32.149  29.686  25.079  1.00  0.00     0.275 C 
ENDROOT
BRANCH   1   2
ATOM      2  O   UNL A   1      31.720  28.357  25.429  1.00  0.00    -0.458 OA
BRANCH   2   3
ATOM      3  C   UNL A   1      32.687  27.412  25.562  1.00  0.00     0.339 C 
ATOM      4  O   UNL A   1      33.456  27.303  26.497  1.00  0.00    -0.246 OA
BRANCH   3   5
ATOM      5  C   UNL A   1      32.679  26.471  24.415  1.00  0.00     0.073 A 
ATOM      6  C   UNL A   1      31.837  25.348  24.346  1.00  0.00     0.022 A 
ATOM      7  C   UNL A   1      31.911  24.519  23.214  1.00  0.00     0.016 A 
ATOM      8  C   UNL A   1      32.787  24.812  22.164  1.00  0.00     0.001 A 
ATOM      9  C   UNL A   1      33.511  26.789  23.327  1.00  0.00     0.017 A 
ATOM     10  C   UNL A   1      33.581  25.951  22.216  1.00  0.00     0.001 A 
BRANCH   6  11
ATOM     11  S   UNL A   1      30.671  24.912  25.635  1.00  0.00    -0.115 SA
BRANCH  11  12
ATOM     12  C   UNL A   1      30.878  23.108  25.755  1.00  0.00     0.175 C 
BRANCH  12  13
ATOM     13  C   UNL A   1      31.998  22.643  26.677  1.00  0.00     0.237 C 
ATOM     14  O   UNL A   1      31.907  22.922  27.876  1.00  0.00    -0.274 OA
BRANCH  13  15
ATOM     15  N   UNL A   1      33.030  21.873  26.131  1.00  0.00    -0.304 N 
ATOM     16  C   UNL A   1      33.509  19.982  24.641  1.00  0.00     0.281 C 
ATOM     17  C   UNL A   1      32.970  20.407  26.001  1.00  0.00     0.181 C 
ATOM     18  O   UNL A   1      34.886  20.329  24.505  1.00  0.00    -0.477 OA
ATOM     19  C   UNL A   1      35.111  21.649  24.816  1.00  0.00     0.144 A 
ATOM     20  C   UNL A   1      34.239  22.445  25.593  1.00  0.00     0.086 A 
ATOM     21  C   UNL A   1      36.308  22.163  24.308  1.00  0.00     0.049 A 
ATOM     22  C   UNL A   1      34.636  23.763  25.858  1.00  0.00     0.030 A 
ATOM     23  C   UNL A   1      36.668  23.481  24.569  1.00  0.00     0.004 A 
ATOM     24  C   UNL A   1      35.837  24.275  25.350  1.00  0.00     0.002 A 
BRANCH  16  25
ATOM     25  C   UNL A   1      33.395  18.471  24.456  1.00  0.00     0.260 C 
ATOM     26  N   UNL A   1      33.856  17.722  25.505  1.00  0.00    -0.366 N 
ATOM     27  H   UNL A   1      33.817  16.740  25.463  1.00  0.00     0.159 HD
ATOM     28  H   UNL A   1      34.227  18.166  26.302  1.00  0.00     0.159 HD
ATOM     29  O   UNL A   1      32.975  17.926  23.440  1.00  0.00    -0.271 OA
ENDBRANCH  16  25
ENDBRANCH  13  15
ENDBRANCH  12  13
ENDBRANCH  11  12
ENDBRANCH   6  11
ENDBRANCH   3   5
ENDBRANCH   2   3
ENDBRANCH   1   2
BRANCH   1  30
ATOM     30  C   UNL A   1      31.676  30.740  26.076  1.00  0.00     0.275 C 
BRANCH  30  31
ATOM     31  O   UNL A   1      32.509  30.702  27.246  1.00  0.00    -0.458 OA
BRANCH  31  32
ATOM     32  C   UNL A   1      33.221  31.833  27.436  1.00  0.00     0.338 C 
ATOM     33  O   UNL A   1      32.796  32.974  27.511  1.00  0.00    -0.246 OA
BRANCH  32  34
ATOM     34  C   UNL A   1      34.617  31.492  27.717  1.00  0.00     0.060 A 
ATOM     35  C   UNL A   1      34.893  30.156  27.994  1.00  0.00     0.016 A 
ATOM     36  C   UNL A   1      35.584  32.476  27.897  1.00  0.00     0.016 A 
ATOM     37  C   UNL A   1      36.104  29.798  28.568  1.00  0.00     0.010 A 
ATOM     38  C   UNL A   1      36.825  32.108  28.425  1.00  0.00     0.010 A 
ATOM     39  C   UNL A   1      37.071  30.777  28.820  1.00  0.00    -0.014 A 
BRANCH  39  40
ATOM     40  C   UNL A   1      38.267  30.445  29.638  1.00  0.00     0.031 A 
ATOM     41  C   UNL A   1      39.325  29.549  29.047  1.00  0.00     0.074 A 
ATOM     42  C   UNL A   1      38.432  30.968  30.867  1.00  0.00     0.049 A 
ATOM     43  N   UNL A   1      40.333  28.954  29.629  1.00  0.00    -0.248 NA
ATOM     44  C   UNL A   1      39.215  29.275  27.606  1.00  0.00     0.031 C 
ATOM     45  C   UNL A   1      37.527  31.922  31.511  1.00  0.00     0.029 A 
ATOM     46  N   UNL A   1      39.423  30.771  31.795  1.00  0.00    -0.354 N 
ATOM     47  C   UNL A   1      40.938  28.182  28.641  1.00  0.00     0.074 A 
ATOM     48  C   UNL A   1      40.176  28.382  27.426  1.00  0.00     0.031 C 
ATOM     49  C   UNL A   1      38.012  32.237  32.721  1.00  0.00     0.029 A 
ATOM     50  C   UNL A   1      39.209  31.442  32.976  1.00  0.00     0.049 A 
ATOM     51  H   UNL A   1      40.212  30.204  31.631  1.00  0.00     0.167 HD
ATOM     52  C   UNL A   1      42.025  27.378  28.747  1.00  0.00     0.034 A 
ATOM     53  C   UNL A   1      39.871  31.381  34.148  1.00  0.00     0.034 A 
ATOM     54  C   UNL A   1      42.793  27.240  29.962  1.00  0.00     0.049 A 
ATOM     55  C   UNL A   1      41.049  30.448  34.261  1.00  0.00     0.074 A 
ATOM     56  C   UNL A   1      43.912  26.462  30.195  1.00  0.00     0.029 A 
ATOM     57  N   UNL A   1      42.522  27.911  31.150  1.00  0.00    -0.354 N 
ATOM     58  N   UNL A   1      41.560  29.649  33.351  1.00  0.00    -0.248 NA
ATOM     59  C   UNL A   1      41.729  30.397  35.561  1.00  0.00     0.031 C 
ATOM     60  C   UNL A   1      44.285  26.619  31.537  1.00  0.00     0.029 A 
ATOM     61  C   UNL A   1      43.441  27.549  32.123  1.00  0.00     0.049 A 
ATOM     62  H   UNL A   1      41.786  28.551  31.280  1.00  0.00     0.167 HD
ATOM     63  C   UNL A   1      42.632  29.010  33.967  1.00  0.00     0.074 A 
ATOM     64  C   UNL A   1      42.704  29.533  35.317  1.00  0.00     0.031 C 
ATOM     65  C   UNL A   1      43.479  28.074  33.468  1.00  0.00     0.034 A 
BRANCH  52  66
ATOM     66  C   UNL A   1      42.391  26.539  27.545  1.00  0.00     0.023 A 
ATOM     67  C   UNL A   1      41.997  25.195  27.415  1.00  0.00     0.031 A 
ATOM     68  C   UNL A   1      43.196  27.087  26.528  1.00  0.00     0.131 A 
ATOM     69  C   UNL A   1      42.471  24.427  26.339  1.00  0.00     0.055 A 
ATOM     70  C   UNL A   1      43.596  26.339  25.418  1.00  0.00     0.041 A 
ATOM     71  F   UNL A   1      43.626  28.356  26.605  1.00  0.00    -0.206 F 
ATOM     72  C   UNL A   1      43.248  24.996  25.327  1.00  0.00     0.022 A 
BRANCH  69  73
ATOM     73  S   UNL A   1      42.183  22.636  26.356  1.00  0.00     0.124 S 
ATOM     74  O   UNL A   1      40.756  22.569  26.664  1.00  0.00    -0.237 OA
ATOM     75  O   UNL A   1      42.564  22.242  25.004  1.00  0.00    -0.237 OA
ATOM     76  O   UNL A   1      43.065  22.156  27.418  1.00  0.00    -0.744 OA
ENDBRANCH  69  73
ENDBRANCH  52  66
BRANCH  53  77
ATOM     77  C   UNL A   1      39.390  32.162  35.323  1.00  0.00     0.023 A 
ATOM     78  C   UNL A   1      39.816  33.480  35.546  1.00  0.00     0.031 A 
ATOM     79  C   UNL A   1      38.506  31.587  36.256  1.00  0.00     0.131 A 
ATOM     80  C   UNL A   1      39.378  34.172  36.688  1.00  0.00     0.055 A 
ATOM     81  C   UNL A   1      38.034  32.296  37.361  1.00  0.00     0.041 A 
ATOM     82  F   UNL A   1      38.070  30.328  36.093  1.00  0.00    -0.206 F 
ATOM     83  C   UNL A   1      38.478  33.595  37.587  1.00  0.00     0.022 A 
BRANCH  80  84
ATOM     84  S   UNL A   1      40.057  35.821  37.019  1.00  0.00     0.124 S 
ATOM     85  O   UNL A   1      41.477  35.530  37.189  1.00  0.00    -0.237 OA
ATOM     86  O   UNL A   1      39.692  36.548  35.808  1.00  0.00    -0.237 OA
ATOM     87  O   UNL A   1      39.356  36.240  38.230  1.00  0.00    -0.744 OA
ENDBRANCH  80  84
ENDBRANCH  53  77
BRANCH  65  88
ATOM     88  C   UNL A   1      44.574  27.596  34.387  1.00  0.00     0.023 A 
ATOM     89  C   UNL A   1      44.398  26.480  35.223  1.00  0.00     0.031 A 
ATOM     90  C   UNL A   1      45.799  28.283  34.443  1.00  0.00     0.131 A 
ATOM     91  C   UNL A   1      45.411  26.117  36.122  1.00  0.00     0.055 A 
ATOM     92  C   UNL A   1      46.825  27.884  35.299  1.00  0.00     0.041 A 
ATOM     93  F   UNL A   1      46.016  29.356  33.666  1.00  0.00    -0.206 F 
ATOM     94  C   UNL A   1      46.629  26.803  36.156  1.00  0.00     0.022 A 
BRANCH  91  95
ATOM     95  S   UNL A   1      45.082  24.792  37.316  1.00  0.00     0.124 S 
ATOM     96  O   UNL A   1      44.904  23.635  36.444  1.00  0.00    -0.237 OA
ATOM     97  O   UNL A   1      46.292  24.797  38.130  1.00  0.00    -0.237 OA
ATOM     98  O   UNL A   1      43.872  25.242  38.002  1.00  0.00    -0.744 OA
ENDBRANCH  91  95
ENDBRANCH  65  88
ENDBRANCH  39  40
ENDBRANCH  32  34
ENDBRANCH  31  32
ENDBRANCH  30  31
ENDBRANCH   1  30
TORSDOF 19
ENDMDL
MODEL 2
REMARK VINA RESULT:     -12.2      4.635     10.073
REMARK SMILES NC(=O)[C@H]1CN(C(=O)CSc2ccccc2C(=O)OCCOC(=O)c2ccc(-c3c4nc(c(-c5cc(S(=O)(=O)[O-])ccc5F)c5ccc([nH]5)c(-c5cc(S(=O)(=O)[O-])ccc5F)c5nc(c(-c6cc(S(=O)(=O)[O-])ccc6F)c6ccc3[nH]6)C=C5)C=C4)cc2)c2ccccc2O1
REMARK SMILES IDX 20 1 19 2 17 3 18 4 16 5 11 6 12 7 13 8 15 9 14 10 10 11
REMARK SMILES IDX 9 12 7 13 8 14 6 15 4 16 5 17 94 18 93 19 88 20 92 21 89 22
REMARK SMILES IDX 91 23 90 24 2 25 1 26 3 29 21 30 22 31 23 32 24 33 25 34
REMARK SMILES IDX 26 35 87 36 27 37 86 38 28 39 29 40 30 41 80 42 31 43 85 44
REMARK SMILES IDX 79 45 81 46 32 47 84 48 78 49 77 50 33 52 65 53 45 54 64 55
REMARK SMILES IDX 46 56 49 57 63 58 82 59 47 60 48 61 62 63 83 64 50 65 34 66
REMARK SMILES IDX 35 67 43 68 36 69 42 70 44 71 41 72 37 73 38 74 39 75 40 76
REMARK SMILES IDX 66 77 67 78 75 79 68 80 74 81 76 82 73 83 69 84 70 85 71 86
REMARK SMILES IDX 72 87 51 88 52 89 60 90 53 91 59 92 61 93 58 94 54 95 55 96
REMARK SMILES IDX 56 97 57 98
REMARK H PARENT 1 27 1 28 81 51 49 62
REMARK Flexibility Score: inf
ROOT
ATOM      1  C   UNL A   1      35.658  22.033  25.951  1.00  0.00     0.275 C 
ENDROOT
BRANCH   1   2
ATOM      2  O   UNL A   1      34.615  21.422  26.734  1.00  0.00    -0.458 OA
BRANCH   2   3
ATOM      3  C   UNL A   1      33.345  21.852  26.511  1.00  0.00     0.339 C 
ATOM      4  O   UNL A   1      32.658  22.485  27.289  1.00  0.00    -0.246 OA
BRANCH   3   5
ATOM      5  C   UNL A   1      32.885  21.482  25.151  1.00  0.00     0.073 A 
ATOM      6  C   UNL A   1      32.569  22.428  24.160  1.00  0.00     0.022 A 
ATOM      7  C   UNL A   1      32.139  21.969  22.903  1.00  0.00     0.016 A 
ATOM      8  C   UNL A   1      32.047  20.600  22.630  1.00  0.00     0.001 A 
ATOM      9  C   UNL A   1      32.847  20.110  24.845  1.00  0.00     0.017 A 
ATOM     10  C   UNL A   1      32.408  19.671  23.597  1.00  0.00     0.001 A 
BRANCH   6  11
ATOM     11  S   UNL A   1      32.679  24.197  24.419  1.00  0.00    -0.115 SA
BRANCH  11  12
ATOM     12  C   UNL A   1      32.155  24.861  22.808  1.00  0.00     0.175 C 
BRANCH  12  13
ATOM     13  C   UNL A   1      32.741  26.220  22.444  1.00  0.00     0.237 C 
ATOM     14  O   UNL A   1      33.747  26.238  21.730  1.00  0.00    -0.274 OA
BRANCH  13  15
ATOM     15  N   UNL A   1      32.074  27.369  22.883  1.00  0.00    -0.304 N 
ATOM     16  C   UNL A   1      29.852  28.354  23.226  1.00  0.00     0.281 C 
ATOM     17  C   UNL A   1      30.899  27.938  22.201  1.00  0.00     0.181 C 
ATOM     18  O   UNL A   1      30.349  29.387  24.074  1.00  0.00    -0.477 OA
ATOM     19  C   UNL A   1      31.570  29.060  24.614  1.00  0.00     0.144 A 
ATOM     20  C   UNL A   1      32.441  28.083  24.081  1.00  0.00     0.086 A 
ATOM     21  C   UNL A   1      31.911  29.796  25.753  1.00  0.00     0.049 A 
ATOM     22  C   UNL A   1      33.673  27.900  24.724  1.00  0.00     0.030 A 
ATOM     23  C   UNL A   1      33.131  29.579  26.384  1.00  0.00     0.004 A 
ATOM     24  C   UNL A   1      34.013  28.639  25.865  1.00  0.00     0.002 A 
BRANCH  16  25
ATOM     25  C   UNL A   1      28.597  28.886  22.539  1.00  0.00     0.260 C 
ATOM     26  N   UNL A   1      27.420  28.350  22.987  1.00  0.00    -0.366 N 
ATOM     27  H   UNL A   1      26.566  28.641  22.595  1.00  0.00     0.159 HD
ATOM     28  H   UNL A   1      27.428  27.674  23.703  1.00  0.00     0.159 HD
ATOM     29  O   UNL A   1      28.601  29.694  21.615  1.00  0.00    -0.271 OA
ENDBRANCH  16  25
ENDBRANCH  13  15
ENDBRANCH  12  13
ENDBRANCH  11  12
ENDBRANCH   6  11
ENDBRANCH   3   5
ENDBRANCH   2   3
ENDBRANCH   1   2
BRANCH   1  30
ATOM     30  C   UNL A   1      36.588  21.010  25.308  1.00  0.00     0.275 C 
BRANCH  30  31
ATOM     31  O   UNL A   1      37.828  21.644  24.955  1.00  0.00    -0.458 OA
BRANCH  31  32
ATOM     32  C   UNL A   1      38.867  21.261  25.726  1.00  0.00     0.338 C 
ATOM     33  O   UNL A   1      39.461  20.195  25.696  1.00  0.00    -0.246 OA
BRANCH  32  34
ATOM     34  C   UNL A   1      39.324  22.394  26.533  1.00  0.00     0.060 A 
ATOM     35  C   UNL A   1      38.835  23.650  26.184  1.00  0.00     0.016 A 
ATOM     36  C   UNL A   1      40.344  22.257  27.468  1.00  0.00     0.016 A 
ATOM     37  C   UNL A   1      39.440  24.797  26.677  1.00  0.00     0.010 A 
ATOM     38  C   UNL A   1      40.919  23.412  28.008  1.00  0.00     0.010 A 
ATOM     39  C   UNL A   1      40.511  24.689  27.570  1.00  0.00    -0.014 A 
BRANCH  39  40
ATOM     40  C   UNL A   1      41.308  25.893  27.922  1.00  0.00     0.031 A 
ATOM     41  C   UNL A   1      40.659  26.980  28.738  1.00  0.00     0.074 A 
ATOM     42  C   UNL A   1      42.601  25.997  27.562  1.00  0.00     0.049 A 
ATOM     43  N   UNL A   1      41.070  28.197  28.983  1.00  0.00    -0.248 NA
ATOM     44  C   UNL A   1      39.358  26.652  29.343  1.00  0.00     0.031 C 
ATOM     45  C   UNL A   1      43.368  24.972  26.853  1.00  0.00     0.029 A 
ATOM     46  N   UNL A   1      43.498  27.019  27.744  1.00  0.00    -0.354 N 
ATOM     47  C   UNL A   1      40.050  28.801  29.714  1.00  0.00     0.074 A 
ATOM     48  C   UNL A   1      39.000  27.816  29.863  1.00  0.00     0.031 C 
ATOM     49  C   UNL A   1      44.624  25.411  26.674  1.00  0.00     0.029 A 
ATOM     50  C   UNL A   1      44.726  26.778  27.172  1.00  0.00     0.049 A 
ATOM     51  H   UNL A   1      43.285  27.844  28.237  1.00  0.00     0.167 HD
ATOM     52  C   UNL A   1      40.000  30.064  30.205  1.00  0.00     0.034 A 
ATOM     53  C   UNL A   1      45.791  27.588  27.017  1.00  0.00     0.034 A 
ATOM     54  C   UNL A   1      41.086  31.006  30.081  1.00  0.00     0.049 A 
ATOM     55  C   UNL A   1      45.700  29.002  27.529  1.00  0.00     0.074 A 
ATOM     56  C   UNL A   1      41.158  32.310  30.537  1.00  0.00     0.029 A 
ATOM     57  N   UNL A   1      42.303  30.736  29.462  1.00  0.00    -0.354 N 
ATOM     58  N   UNL A   1      44.698  29.598  28.136  1.00  0.00    -0.248 NA
ATOM     59  C   UNL A   1      46.876  29.856  27.323  1.00  0.00     0.031 C 
ATOM     60  C   UNL A   1      42.393  32.845  30.146  1.00  0.00     0.029 A 
ATOM     61  C   UNL A   1      43.121  31.854  29.507  1.00  0.00     0.049 A 
ATOM     62  H   UNL A   1      42.546  29.875  29.052  1.00  0.00     0.167 HD
ATOM     63  C   UNL A   1      45.130  30.895  28.396  1.00  0.00     0.074 A 
ATOM     64  C   UNL A   1      46.489  30.986  27.898  1.00  0.00     0.031 C 
ATOM     65  C   UNL A   1      44.466  31.921  28.987  1.00  0.00     0.034 A 
BRANCH  52  66
ATOM     66  C   UNL A   1      38.707  30.511  30.846  1.00  0.00     0.023 A 
ATOM     67  C   UNL A   1      37.668  31.112  30.111  1.00  0.00     0.031 A 
ATOM     68  C   UNL A   1      38.531  30.376  32.236  1.00  0.00     0.131 A 
ATOM     69  C   UNL A   1      36.542  31.622  30.777  1.00  0.00     0.055 A 
ATOM     70  C   UNL A   1      37.372  30.812  32.882  1.00  0.00     0.041 A 
ATOM     71  F   UNL A   1      39.495  29.833  32.997  1.00  0.00    -0.206 F 
ATOM     72  C   UNL A   1      36.376  31.455  32.154  1.00  0.00     0.022 A 
BRANCH  69  73
ATOM     73  S   UNL A   1      35.366  32.640  29.843  1.00  0.00     0.124 S 
ATOM     74  O   UNL A   1      36.127  33.873  29.657  1.00  0.00    -0.237 OA
ATOM     75  O   UNL A   1      35.140  31.841  28.645  1.00  0.00    -0.237 OA
ATOM     76  O   UNL A   1      34.220  32.754  30.743  1.00  0.00    -0.744 OA
ENDBRANCH  69  73
ENDBRANCH  52  66
BRANCH  53  77
ATOM     77  C   UNL A   1      46.997  27.110  26.283  1.00  0.00     0.023 A 
ATOM     78  C   UNL A   1      48.048  26.463  26.951  1.00  0.00     0.031 A 
ATOM     79  C   UNL A   1      47.122  27.313  24.896  1.00  0.00     0.131 A 
ATOM     80  C   UNL A   1      49.190  26.065  26.236  1.00  0.00     0.055 A 
ATOM     81  C   UNL A   1      48.236  26.869  24.182  1.00  0.00     0.041 A 
ATOM     82  F   UNL A   1      46.148  27.929  24.209  1.00  0.00    -0.206 F 
ATOM     83  C   UNL A   1      49.284  26.249  24.854  1.00  0.00     0.022 A 
BRANCH  80  84
ATOM     84  S   UNL A   1      50.587  25.359  27.151  1.00  0.00     0.124 S 
ATOM     85  O   UNL A   1      51.027  26.499  27.950  1.00  0.00    -0.237 OA
ATOM     86  O   UNL A   1      49.951  24.270  27.884  1.00  0.00    -0.237 OA
ATOM     87  O   UNL A   1      51.510  24.943  26.097  1.00  0.00    -0.744 OA
ENDBRANCH  80  84
ENDBRANCH  53  77
BRANCH  65  88
ATOM     88  C   UNL A   1      45.230  33.210  29.156  1.00  0.00     0.023 A 
ATOM     89  C   UNL A   1      45.083  34.276  28.252  1.00  0.00     0.031 A 
ATOM     90  C   UNL A   1      46.133  33.362  30.222  1.00  0.00     0.131 A 
ATOM     91  C   UNL A   1      45.871  35.427  28.398  1.00  0.00     0.055 A 
ATOM     92  C   UNL A   1      46.875  34.530  30.394  1.00  0.00     0.041 A 
ATOM     93  F   UNL A   1      46.311  32.373  31.112  1.00  0.00    -0.206 F 
ATOM     94  C   UNL A   1      46.756  35.567  29.471  1.00  0.00     0.022 A 
BRANCH  91  95
ATOM     95  S   UNL A   1      45.795  36.703  27.112  1.00  0.00     0.124 S 
ATOM     96  O   UNL A   1      44.356  36.852  26.916  1.00  0.00    -0.237 OA
ATOM     97  O   UNL A   1      46.471  37.828  27.747  1.00  0.00    -0.237 OA
ATOM     98  O   UNL A   1      46.514  36.102  25.989  1.00  0.00    -0.744 OA
ENDBRANCH  91  95
ENDBRANCH  65  88
ENDBRANCH  39  40
ENDBRANCH  32  34
ENDBRANCH  31  32
ENDBRANCH  30  31
ENDBRANCH   1  30
TORSDOF 19
ENDMDL
MODEL 3
REMARK VINA RESULT:     -12.1      1.844      2.127
REMARK SMILES NC(=O)[C@H]1CN(C(=O)CSc2ccccc2C(=O)OCCOC(=O)c2ccc(-c3c4nc(c(-c5cc(S(=O)(=O)[O-])ccc5F)c5ccc([nH]5)c(-c5cc(S(=O)(=O)[O-])ccc5F)c5nc(c(-c6cc(S(=O)(=O)[O-])ccc6F)c6ccc3[nH]6)C=C5)C=C4)cc2)c2ccccc2O1
REMARK SMILES IDX 20 1 19 2 17 3 18 4 16 5 11 6 12 7 13 8 15 9 14 10 10 11
REMARK SMILES IDX 9 12 7 13 8 14 6 15 4 16 5 17 94 18 93 19 88 20 92 21 89 22
REMARK SMILES IDX 91 23 90 24 2 25 1 26 3 29 21 30 22 31 23 32 24 33 25 34
REMARK SMILES IDX 26 35 87 36 27 37 86 38 28 39 29 40 30 41 80 42 31 43 85 44
REMARK SMILES IDX 79 45 81 46 32 47 84 48 78 49 77 50 33 52 65 53 45 54 64 55
REMARK SMILES IDX 46 56 49 57 63 58 82 59 47 60 48 61 62 63 83 64 50 65 34 66
REMARK SMILES IDX 35 67 43 68 36 69 42 70 44 71 41 72 37 73 38 74 39 75 40 76
REMARK SMILES IDX 66 77 67 78 75 79 68 80 74 81 76 82 73 83 69 84 70 85 71 86
REMARK SMILES IDX 72 87 51 88 52 89 60 90 53 91 59 92 61 93 58 94 54 95 55 96
REMARK SMILES IDX 56 97 57 98
REMARK H PARENT 1 27 1 28 81 51 49 62
REMARK Flexibility Score: inf
ROOT
ATOM      1  C   UNL A   1      31.804  29.918  25.279  1.00  0.00     0.275 C 
ENDROOT
BRANCH   1   2
ATOM      2  O   UNL A   1      31.454  28.552  25.570  1.00  0.00    -0.458 OA
BRANCH   2   3
ATOM      3  C   UNL A   1      32.473  27.655  25.635  1.00  0.00     0.339 C 
ATOM      4  O   UNL A   1      33.236  27.507  26.570  1.00  0.00    -0.246 OA
BRANCH   3   5
ATOM      5  C   UNL A   1      32.532  26.821  24.410  1.00  0.00     0.073 A 
ATOM      6  C   UNL A   1      31.685  25.722  24.184  1.00  0.00     0.022 A 
ATOM      7  C   UNL A   1      31.827  24.996  22.989  1.00  0.00     0.016 A 
ATOM      8  C   UNL A   1      32.773  25.369  22.029  1.00  0.00     0.001 A 
ATOM      9  C   UNL A   1      33.437  27.222  23.412  1.00  0.00     0.017 A 
ATOM     10  C   UNL A   1      33.574  26.486  22.236  1.00  0.00     0.001 A 
BRANCH   6  11
ATOM     11  S   UNL A   1      30.432  25.190  25.350  1.00  0.00    -0.115 SA
BRANCH  11  12
ATOM     12  C   UNL A   1      30.738  23.400  25.462  1.00  0.00     0.175 C 
BRANCH  12  13
ATOM     13  C   UNL A   1      31.776  22.983  26.496  1.00  0.00     0.237 C 
ATOM     14  O   UNL A   1      31.637  23.401  27.650  1.00  0.00    -0.274 OA
BRANCH  13  15
ATOM     15  N   UNL A   1      32.789  22.102  26.101  1.00  0.00    -0.304 N 
ATOM     16  C   UNL A   1      33.219  19.954  24.995  1.00  0.00     0.281 C 
ATOM     17  C   UNL A   1      32.699  20.640  26.252  1.00  0.00     0.181 C 
ATOM     18  O   UNL A   1      34.601  20.241  24.790  1.00  0.00    -0.477 OA
ATOM     19  C   UNL A   1      34.854  21.591  24.844  1.00  0.00     0.144 A 
ATOM     20  C   UNL A   1      34.005  22.538  25.460  1.00  0.00     0.086 A 
ATOM     21  C   UNL A   1      36.057  21.974  24.243  1.00  0.00     0.049 A 
ATOM     22  C   UNL A   1      34.429  23.873  25.469  1.00  0.00     0.030 A 
ATOM     23  C   UNL A   1      36.445  23.310  24.248  1.00  0.00     0.004 A 
ATOM     24  C   UNL A   1      35.636  24.255  24.868  1.00  0.00     0.002 A 
BRANCH  16  25
ATOM     25  C   UNL A   1      33.074  18.439  25.100  1.00  0.00     0.260 C 
ATOM     26  N   UNL A   1      32.826  17.966  26.360  1.00  0.00    -0.366 N 
ATOM     27  H   UNL A   1      32.720  16.999  26.511  1.00  0.00     0.159 HD
ATOM     28  H   UNL A   1      32.755  18.593  27.116  1.00  0.00     0.159 HD
ATOM     29  O   UNL A   1      33.211  17.661  24.160  1.00  0.00    -0.271 OA
ENDBRANCH  16  25
ENDBRANCH  13  15
ENDBRANCH  12  13
ENDBRANCH  11  12
ENDBRANCH   6  11
ENDBRANCH   3   5
ENDBRANCH   2   3
ENDBRANCH   1   2
BRANCH   1  30
ATOM     30  C   UNL A   1      31.742  30.817  26.509  1.00  0.00     0.275 C 
BRANCH  30  31
ATOM     31  O   UNL A   1      32.897  30.586  27.332  1.00  0.00    -0.458 OA
BRANCH  31  32
ATOM     32  C   UNL A   1      33.605  31.705  27.592  1.00  0.00     0.338 C 
ATOM     33  O   UNL A   1      33.175  32.835  27.758  1.00  0.00    -0.246 OA
BRANCH  32  34
ATOM     34  C   UNL A   1      35.009  31.356  27.822  1.00  0.00     0.060 A 
ATOM     35  C   UNL A   1      35.293  30.008  28.028  1.00  0.00     0.016 A 
ATOM     36  C   UNL A   1      35.978  32.333  28.024  1.00  0.00     0.016 A 
ATOM     37  C   UNL A   1      36.519  29.627  28.554  1.00  0.00     0.010 A 
ATOM     38  C   UNL A   1      37.233  31.943  28.502  1.00  0.00     0.010 A 
ATOM     39  C   UNL A   1      37.490  30.595  28.828  1.00  0.00    -0.014 A 
BRANCH  39  40
ATOM     40  C   UNL A   1      38.707  30.228  29.599  1.00  0.00     0.031 A 
ATOM     41  C   UNL A   1      39.688  29.260  28.990  1.00  0.00     0.074 A 
ATOM     42  C   UNL A   1      38.959  30.782  30.799  1.00  0.00     0.049 A 
ATOM     43  N   UNL A   1      40.692  28.633  29.544  1.00  0.00    -0.248 NA
ATOM     44  C   UNL A   1      39.493  28.945  27.566  1.00  0.00     0.031 C 
ATOM     45  C   UNL A   1      38.136  31.801  31.452  1.00  0.00     0.029 A 
ATOM     46  N   UNL A   1      39.983  30.564  31.686  1.00  0.00    -0.354 N 
ATOM     47  C   UNL A   1      41.208  27.798  28.555  1.00  0.00     0.074 A 
ATOM     48  C   UNL A   1      40.398  27.998  27.372  1.00  0.00     0.031 C 
ATOM     49  C   UNL A   1      38.695  32.130  32.627  1.00  0.00     0.029 A 
ATOM     50  C   UNL A   1      39.862  31.283  32.851  1.00  0.00     0.049 A 
ATOM     51  H   UNL A   1      40.733  29.952  31.505  1.00  0.00     0.167 HD
ATOM     52  C   UNL A   1      42.257  26.943  28.637  1.00  0.00     0.034 A 
ATOM     53  C   UNL A   1      40.576  31.225  33.992  1.00  0.00     0.034 A 
ATOM     54  C   UNL A   1      43.076  26.804  29.819  1.00  0.00     0.049 A 
ATOM     55  C   UNL A   1      41.710  30.237  34.081  1.00  0.00     0.074 A 
ATOM     56  C   UNL A   1      44.165  25.977  30.026  1.00  0.00     0.029 A 
ATOM     57  N   UNL A   1      42.898  27.527  30.995  1.00  0.00    -0.354 N 
ATOM     58  N   UNL A   1      42.135  29.384  33.177  1.00  0.00    -0.248 NA
ATOM     59  C   UNL A   1      42.450  30.193  35.348  1.00  0.00     0.031 C 
ATOM     60  C   UNL A   1      44.611  26.158  31.342  1.00  0.00     0.029 A 
ATOM     61  C   UNL A   1      43.844  27.149  31.934  1.00  0.00     0.049 A 
ATOM     62  H   UNL A   1      42.202  28.208  31.137  1.00  0.00     0.167 HD
ATOM     63  C   UNL A   1      43.202  28.710  33.763  1.00  0.00     0.074 A 
ATOM     64  C   UNL A   1      43.367  29.272  35.089  1.00  0.00     0.031 C 
ATOM     65  C   UNL A   1      43.975  27.715  33.257  1.00  0.00     0.034 A 
BRANCH  52  66
ATOM     66  C   UNL A   1      42.521  26.047  27.450  1.00  0.00     0.023 A 
ATOM     67  C   UNL A   1      42.003  24.743  27.358  1.00  0.00     0.031 A 
ATOM     68  C   UNL A   1      43.353  26.496  26.406  1.00  0.00     0.131 A 
ATOM     69  C   UNL A   1      42.382  23.911  26.293  1.00  0.00     0.055 A 
ATOM     70  C   UNL A   1      43.661  25.691  25.307  1.00  0.00     0.041 A 
ATOM     71  F   UNL A   1      43.899  27.722  26.446  1.00  0.00    -0.206 F 
ATOM     72  C   UNL A   1      43.189  24.383  25.254  1.00  0.00     0.022 A 
BRANCH  69  73
ATOM     73  S   UNL A   1      41.931  22.155  26.357  1.00  0.00     0.124 S 
ATOM     74  O   UNL A   1      42.743  21.602  25.276  1.00  0.00    -0.237 OA
ATOM     75  O   UNL A   1      42.324  21.778  27.710  1.00  0.00    -0.237 OA
ATOM     76  O   UNL A   1      40.491  22.160  26.106  1.00  0.00    -0.744 OA
ENDBRANCH  69  73
ENDBRANCH  52  66
BRANCH  53  77
ATOM     77  C   UNL A   1      40.194  32.068  35.161  1.00  0.00     0.023 A 
ATOM     78  C   UNL A   1      39.253  31.625  36.102  1.00  0.00     0.031 A 
ATOM     79  C   UNL A   1      40.757  33.346  35.341  1.00  0.00     0.131 A 
ATOM     80  C   UNL A   1      38.883  32.462  37.167  1.00  0.00     0.055 A 
ATOM     81  C   UNL A   1      40.425  34.153  36.430  1.00  0.00     0.041 A 
ATOM     82  F   UNL A   1      41.660  33.820  34.469  1.00  0.00    -0.206 F 
ATOM     83  C   UNL A   1      39.474  33.716  37.347  1.00  0.00     0.022 A 
BRANCH  80  84
ATOM     84  S   UNL A   1      37.563  31.917  38.285  1.00  0.00     0.124 S 
ATOM     85  O   UNL A   1      38.203  32.051  39.590  1.00  0.00    -0.237 OA
ATOM     86  O   UNL A   1      36.501  32.872  37.990  1.00  0.00    -0.237 OA
ATOM     87  O   UNL A   1      37.300  30.545  37.857  1.00  0.00    -0.744 OA
ENDBRANCH  80  84
ENDBRANCH  53  77
BRANCH  65  88
ATOM     88  C   UNL A   1      45.089  27.211  34.139  1.00  0.00     0.023 A 
ATOM     89  C   UNL A   1      46.372  27.784  34.104  1.00  0.00     0.031 A 
ATOM     90  C   UNL A   1      44.867  26.128  35.008  1.00  0.00     0.131 A 
ATOM     91  C   UNL A   1      47.402  27.234  34.880  1.00  0.00     0.055 A 
ATOM     92  C   UNL A   1      45.881  25.620  35.820  1.00  0.00     0.041 A 
ATOM     93  F   UNL A   1      43.660  25.545  35.078  1.00  0.00    -0.206 F 
ATOM     94  C   UNL A   1      47.161  26.165  35.749  1.00  0.00     0.022 A 
BRANCH  91  95
ATOM     95  S   UNL A   1      49.086  27.873  34.672  1.00  0.00     0.124 S 
ATOM     96  O   UNL A   1      49.475  27.293  33.391  1.00  0.00    -0.237 OA
ATOM     97  O   UNL A   1      48.875  29.317  34.680  1.00  0.00    -0.237 OA
ATOM     98  O   UNL A   1      49.799  27.345  35.834  1.00  0.00    -0.744 OA
ENDBRANCH  91  95
ENDBRANCH  65  88
ENDBRANCH  39  40
ENDBRANCH  32  34
ENDBRANCH  31  32
ENDBRANCH  30  31
ENDBRANCH   1  30
TORSDOF 19
ENDMDL
