MODEL 1
REMARK VINA RESULT:     -11.6      0.000      0.000
REMARK SMILES O=C(Cc1ccc(NC(=O)C2CCCC2)cc1)OCCOC(=O)c1ccc(-c2c3nc(c(-c4cc(S(=O)(=O)[O-])ccc4F)c4ccc([nH]4)c(-c4cc(S(=O)(=O)[O-])ccc4F)c4nc(c(-c5cc(S(=O)(=O)[O-])ccc5F)c5ccc2[nH]5)C=C4)C=C3)cc1
REMARK SMILES IDX 19 1 18 2 2 3 1 4 3 5 4 6 5 7 17 8 6 9 16 10 7 11 8 12 9 13
REMARK SMILES IDX 10 15 11 16 12 17 15 18 13 19 14 20 20 21 21 22 22 23 23 24
REMARK SMILES IDX 24 25 25 26 86 27 26 28 85 29 27 30 28 31 29 32 79 33 30 34
REMARK SMILES IDX 84 35 78 36 80 37 31 38 83 39 77 40 76 41 32 43 64 44 44 45
REMARK SMILES IDX 63 46 45 47 48 48 62 49 81 50 46 51 47 52 61 54 82 55 49 56
REMARK SMILES IDX 33 57 34 58 42 59 35 60 41 61 43 62 40 63 36 64 37 65 38 66
REMARK SMILES IDX 39 67 65 68 66 69 74 70 67 71 73 72 75 73 72 74 68 75 69 76
REMARK SMILES IDX 70 77 71 78 50 79 51 80 59 81 52 82 58 83 60 84 57 85 53 86
REMARK SMILES IDX 54 87 55 88 56 89
REMARK H PARENT 8 14 80 42 48 53
REMARK Flexibility Score: inf
ROOT
ATOM      1  C   UNL A   1      36.123  20.616  25.023  1.00  0.00     0.274 C 
ENDROOT
BRANCH   1   2
ATOM      2  O   UNL A   1      35.467  21.892  24.863  1.00  0.00    -0.462 OA
BRANCH   2   3
ATOM      3  C   UNL A   1      34.134  22.121  24.921  1.00  0.00     0.310 C 
ATOM      4  O   UNL A   1      33.624  22.460  25.989  1.00  0.00    -0.252 OA
BRANCH   3   5
ATOM      5  C   UNL A   1      33.293  21.990  23.666  1.00  0.00     0.158 C 
BRANCH   5   6
ATOM      6  C   UNL A   1      32.584  23.253  23.266  1.00  0.00    -0.037 A 
ATOM      7  C   UNL A   1      31.228  23.416  23.554  1.00  0.00     0.006 A 
ATOM      8  C   UNL A   1      33.268  24.274  22.593  1.00  0.00     0.006 A 
ATOM      9  C   UNL A   1      30.614  24.642  23.325  1.00  0.00     0.026 A 
ATOM     10  C   UNL A   1      32.650  25.504  22.370  1.00  0.00     0.026 A 
ATOM     11  C   UNL A   1      31.356  25.719  22.842  1.00  0.00     0.041 A 
BRANCH  11  12
ATOM     12  N   UNL A   1      30.891  27.041  22.882  1.00  0.00    -0.326 N 
ATOM     13  C   UNL A   1      31.073  27.988  23.861  1.00  0.00     0.227 C 
ATOM     14  H   UNL A   1      30.363  27.330  22.102  1.00  0.00     0.169 HD
ATOM     15  O   UNL A   1      30.569  29.102  23.693  1.00  0.00    -0.274 OA
BRANCH  13  16
ATOM     16  C   UNL A   1      31.944  27.681  25.078  1.00  0.00     0.079 C 
ATOM     17  C   UNL A   1      33.413  28.077  24.913  1.00  0.00     0.013 C 
ATOM     18  C   UNL A   1      31.572  28.474  26.333  1.00  0.00     0.013 C 
ATOM     19  C   UNL A   1      33.962  27.965  26.327  1.00  0.00     0.001 C 
ATOM     20  C   UNL A   1      32.796  28.342  27.240  1.00  0.00     0.001 C 
ENDBRANCH  13  16
ENDBRANCH  11  12
ENDBRANCH   5   6
ENDBRANCH   3   5
ENDBRANCH   2   3
ENDBRANCH   1   2
BRANCH   1  21
ATOM     21  C   UNL A   1      37.640  20.748  24.877  1.00  0.00     0.275 C 
BRANCH  21  22
ATOM     22  O   UNL A   1      38.124  21.768  25.766  1.00  0.00    -0.458 OA
BRANCH  22  23
ATOM     23  C   UNL A   1      39.382  21.582  26.246  1.00  0.00     0.338 C 
ATOM     24  O   UNL A   1      40.083  20.602  26.068  1.00  0.00    -0.246 OA
BRANCH  23  25
ATOM     25  C   UNL A   1      39.867  22.863  26.816  1.00  0.00     0.060 A 
ATOM     26  C   UNL A   1      39.171  24.031  26.477  1.00  0.00     0.016 A 
ATOM     27  C   UNL A   1      40.917  22.919  27.743  1.00  0.00     0.016 A 
ATOM     28  C   UNL A   1      39.536  25.252  27.044  1.00  0.00     0.010 A 
ATOM     29  C   UNL A   1      41.280  24.145  28.311  1.00  0.00     0.010 A 
ATOM     30  C   UNL A   1      40.607  25.322  27.945  1.00  0.00    -0.014 A 
BRANCH  30  31
ATOM     31  C   UNL A   1      41.120  26.653  28.356  1.00  0.00     0.031 A 
ATOM     32  C   UNL A   1      42.560  26.981  28.070  1.00  0.00     0.074 A 
ATOM     33  C   UNL A   1      40.317  27.571  28.925  1.00  0.00     0.049 A 
ATOM     34  N   UNL A   1      43.205  28.106  28.238  1.00  0.00    -0.248 NA
ATOM     35  C   UNL A   1      43.379  25.889  27.520  1.00  0.00     0.031 C 
ATOM     36  C   UNL A   1      38.908  27.375  29.262  1.00  0.00     0.029 A 
ATOM     37  N   UNL A   1      40.580  28.860  29.318  1.00  0.00    -0.354 N 
ATOM     38  C   UNL A   1      44.495  27.870  27.776  1.00  0.00     0.074 A 
ATOM     39  C   UNL A   1      44.558  26.475  27.395  1.00  0.00     0.031 C 
ATOM     40  C   UNL A   1      38.431  28.505  29.816  1.00  0.00     0.029 A 
ATOM     41  C   UNL A   1      39.500  29.501  29.877  1.00  0.00     0.049 A 
ATOM     42  H   UNL A   1      41.460  29.287  29.208  1.00  0.00     0.167 HD
ATOM     43  C   UNL A   1      45.527  28.741  27.651  1.00  0.00     0.034 A 
ATOM     44  C   UNL A   1      39.389  30.749  30.379  1.00  0.00     0.034 A 
ATOM     45  C   UNL A   1      45.474  30.117  28.077  1.00  0.00     0.049 A 
ATOM     46  C   UNL A   1      40.575  31.683  30.301  1.00  0.00     0.074 A 
ATOM     47  C   UNL A   1      46.466  31.080  28.010  1.00  0.00     0.029 A 
ATOM     48  N   UNL A   1      44.373  30.723  28.667  1.00  0.00    -0.354 N 
ATOM     49  N   UNL A   1      41.774  31.463  29.812  1.00  0.00    -0.248 NA
ATOM     50  C   UNL A   1      40.381  33.043  30.821  1.00  0.00     0.031 C 
ATOM     51  C   UNL A   1      45.985  32.248  28.615  1.00  0.00     0.029 A 
ATOM     52  C   UNL A   1      44.669  32.038  28.994  1.00  0.00     0.049 A 
ATOM     53  H   UNL A   1      43.507  30.284  28.829  1.00  0.00     0.167 HD
ATOM     54  C   UNL A   1      42.463  32.668  29.938  1.00  0.00     0.074 A 
ATOM     55  C   UNL A   1      41.539  33.614  30.527  1.00  0.00     0.031 C 
ATOM     56  C   UNL A   1      43.744  32.968  29.597  1.00  0.00     0.034 A 
BRANCH  43  57
ATOM     57  C   UNL A   1      46.801  28.203  27.053  1.00  0.00     0.023 A 
ATOM     58  C   UNL A   1      47.013  28.211  25.661  1.00  0.00     0.031 A 
ATOM     59  C   UNL A   1      47.795  27.637  27.869  1.00  0.00     0.131 A 
ATOM     60  C   UNL A   1      48.154  27.598  25.124  1.00  0.00     0.055 A 
ATOM     61  C   UNL A   1      48.966  27.098  27.331  1.00  0.00     0.041 A 
ATOM     62  F   UNL A   1      47.635  27.579  29.200  1.00  0.00    -0.206 F 
ATOM     63  C   UNL A   1      49.144  27.064  25.951  1.00  0.00     0.022 A 
BRANCH  60  64
ATOM     64  S   UNL A   1      48.259  27.386  23.325  1.00  0.00     0.124 S 
ATOM     65  O   UNL A   1      48.089  25.941  23.190  1.00  0.00    -0.237 OA
ATOM     66  O   UNL A   1      47.153  28.208  22.846  1.00  0.00    -0.237 OA
ATOM     67  O   UNL A   1      49.593  27.883  23.000  1.00  0.00    -0.744 OA
ENDBRANCH  60  64
ENDBRANCH  43  57
BRANCH  44  68
ATOM     68  C   UNL A   1      38.121  31.199  31.025  1.00  0.00     0.023 A 
ATOM     69  C   UNL A   1      37.096  31.809  30.282  1.00  0.00     0.031 A 
ATOM     70  C   UNL A   1      37.956  31.103  32.418  1.00  0.00     0.131 A 
ATOM     71  C   UNL A   1      35.983  32.354  30.943  1.00  0.00     0.055 A 
ATOM     72  C   UNL A   1      36.823  31.600  33.064  1.00  0.00     0.041 A 
ATOM     73  F   UNL A   1      38.906  30.529  33.175  1.00  0.00    -0.206 F 
ATOM     74  C   UNL A   1      35.835  32.244  32.327  1.00  0.00     0.022 A 
BRANCH  71  75
ATOM     75  S   UNL A   1      34.776  33.303  29.975  1.00  0.00     0.124 S 
ATOM     76  O   UNL A   1      35.637  34.245  29.268  1.00  0.00    -0.237 OA
ATOM     77  O   UNL A   1      34.158  32.262  29.160  1.00  0.00    -0.237 OA
ATOM     78  O   UNL A   1      33.909  33.891  30.994  1.00  0.00    -0.744 OA
ENDBRANCH  71  75
ENDBRANCH  44  68
BRANCH  56  79
ATOM     79  C   UNL A   1      44.199  34.392  29.823  1.00  0.00     0.023 A 
ATOM     80  C   UNL A   1      44.099  35.370  28.818  1.00  0.00     0.031 A 
ATOM     81  C   UNL A   1      44.764  34.769  31.055  1.00  0.00     0.131 A 
ATOM     82  C   UNL A   1      44.618  36.655  29.037  1.00  0.00     0.055 A 
ATOM     83  C   UNL A   1      45.221  36.066  31.289  1.00  0.00     0.041 A 
ATOM     84  F   UNL A   1      44.885  33.878  32.053  1.00  0.00    -0.206 F 
ATOM     85  C   UNL A   1      45.166  37.014  30.271  1.00  0.00     0.022 A 
BRANCH  82  86
ATOM     86  S   UNL A   1      44.670  37.822  27.648  1.00  0.00     0.124 S 
ATOM     87  O   UNL A   1      45.744  37.272  26.827  1.00  0.00    -0.237 OA
ATOM     88  O   UNL A   1      43.324  37.708  27.097  1.00  0.00    -0.237 OA
ATOM     89  O   UNL A   1      44.971  39.102  28.286  1.00  0.00    -0.744 OA
ENDBRANCH  82  86
ENDBRANCH  56  79
ENDBRANCH  30  31
ENDBRANCH  23  25
ENDBRANCH  22  23
ENDBRANCH  21  22
ENDBRANCH   1  21
TORSDOF 17
ENDMDL
MODEL 2
REMARK VINA RESULT:     -11.5      1.812      2.230
REMARK SMILES O=C(Cc1ccc(NC(=O)C2CCCC2)cc1)OCCOC(=O)c1ccc(-c2c3nc(c(-c4cc(S(=O)(=O)[O-])ccc4F)c4ccc([nH]4)c(-c4cc(S(=O)(=O)[O-])ccc4F)c4nc(c(-c5cc(S(=O)(=O)[O-])ccc5F)c5ccc2[nH]5)C=C4)C=C3)cc1
REMARK SMILES IDX 19 1 18 2 2 3 1 4 3 5 4 6 5 7 17 8 6 9 16 10 7 11 8 12 9 13
REMARK SMILES IDX 10 15 11 16 12 17 15 18 13 19 14 20 20 21 21 22 22 23 23 24
REMARK SMILES IDX 24 25 25 26 86 27 26 28 85 29 27 30 28 31 29 32 79 33 30 34
REMARK SMILES IDX 84 35 78 36 80 37 31 38 83 39 77 40 76 41 32 43 64 44 44 45
REMARK SMILES IDX 63 46 45 47 48 48 62 49 81 50 46 51 47 52 61 54 82 55 49 56
REMARK SMILES IDX 33 57 34 58 42 59 35 60 41 61 43 62 40 63 36 64 37 65 38 66
REMARK SMILES IDX 39 67 65 68 66 69 74 70 67 71 73 72 75 73 72 74 68 75 69 76
REMARK SMILES IDX 70 77 71 78 50 79 51 80 59 81 52 82 58 83 60 84 57 85 53 86
REMARK SMILES IDX 54 87 55 88 56 89
REMARK H PARENT 8 14 80 42 48 53
REMARK Flexibility Score: inf
ROOT
ATOM      1  C   UNL A   1      35.775  20.724  24.966  1.00  0.00     0.274 C 
ENDROOT
BRANCH   1   2
ATOM      2  O   UNL A   1      34.679  19.785  24.955  1.00  0.00    -0.462 OA
BRANCH   2   3
ATOM      3  C   UNL A   1      33.452  19.979  25.493  1.00  0.00     0.310 C 
ATOM      4  O   UNL A   1      32.520  19.250  25.154  1.00  0.00    -0.252 OA
BRANCH   3   5
ATOM      5  C   UNL A   1      33.249  21.069  26.527  1.00  0.00     0.158 C 
BRANCH   5   6
ATOM      6  C   UNL A   1      32.506  22.271  26.016  1.00  0.00    -0.037 A 
ATOM      7  C   UNL A   1      32.708  22.716  24.709  1.00  0.00     0.006 A 
ATOM      8  C   UNL A   1      31.613  22.963  26.844  1.00  0.00     0.006 A 
ATOM      9  C   UNL A   1      31.907  23.728  24.191  1.00  0.00     0.026 A 
ATOM     10  C   UNL A   1      30.808  23.974  26.319  1.00  0.00     0.026 A 
ATOM     11  C   UNL A   1      30.881  24.274  24.959  1.00  0.00     0.041 A 
BRANCH  11  12
ATOM     12  N   UNL A   1      29.856  25.057  24.412  1.00  0.00    -0.326 N 
ATOM     13  C   UNL A   1      29.785  26.425  24.298  1.00  0.00     0.227 C 
ATOM     14  H   UNL A   1      29.082  24.559  24.060  1.00  0.00     0.169 HD
ATOM     15  O   UNL A   1      28.777  26.913  23.779  1.00  0.00    -0.274 OA
BRANCH  13  16
ATOM     16  C   UNL A   1      30.961  27.296  24.734  1.00  0.00     0.079 C 
ATOM     17  C   UNL A   1      30.909  28.731  24.200  1.00  0.00     0.013 C 
ATOM     18  C   UNL A   1      31.028  27.553  26.240  1.00  0.00     0.013 C 
ATOM     19  C   UNL A   1      31.980  29.441  25.014  1.00  0.00     0.001 C 
ATOM     20  C   UNL A   1      31.969  28.752  26.378  1.00  0.00     0.001 C 
ENDBRANCH  13  16
ENDBRANCH  11  12
ENDBRANCH   5   6
ENDBRANCH   3   5
ENDBRANCH   2   3
ENDBRANCH   1   2
BRANCH   1  21
ATOM     21  C   UNL A   1      37.124  20.003  25.001  1.00  0.00     0.275 C 
BRANCH  21  22
ATOM     22  O   UNL A   1      38.187  20.968  25.066  1.00  0.00    -0.458 OA
BRANCH  22  23
ATOM     23  C   UNL A   1      39.214  20.659  25.900  1.00  0.00     0.338 C 
ATOM     24  O   UNL A   1      39.735  19.565  26.025  1.00  0.00    -0.246 OA
BRANCH  23  25
ATOM     25  C   UNL A   1      39.769  21.917  26.457  1.00  0.00     0.060 A 
ATOM     26  C   UNL A   1      39.178  23.122  26.058  1.00  0.00     0.016 A 
ATOM     27  C   UNL A   1      40.781  21.922  27.428  1.00  0.00     0.016 A 
ATOM     28  C   UNL A   1      39.608  24.329  26.608  1.00  0.00     0.010 A 
ATOM     29  C   UNL A   1      41.211  23.135  27.979  1.00  0.00     0.010 A 
ATOM     30  C   UNL A   1      40.643  24.347  27.553  1.00  0.00    -0.014 A 
BRANCH  30  31
ATOM     31  C   UNL A   1      41.237  25.647  27.952  1.00  0.00     0.031 A 
ATOM     32  C   UNL A   1      42.660  25.933  27.556  1.00  0.00     0.074 A 
ATOM     33  C   UNL A   1      40.518  26.577  28.607  1.00  0.00     0.049 A 
ATOM     34  N   UNL A   1      43.358  27.029  27.696  1.00  0.00    -0.248 NA
ATOM     35  C   UNL A   1      43.390  24.828  26.913  1.00  0.00     0.031 C 
ATOM     36  C   UNL A   1      39.135  26.421  29.054  1.00  0.00     0.029 A 
ATOM     37  N   UNL A   1      40.859  27.846  29.007  1.00  0.00    -0.354 N 
ATOM     38  C   UNL A   1      44.596  26.762  27.124  1.00  0.00     0.074 A 
ATOM     39  C   UNL A   1      44.576  25.376  26.705  1.00  0.00     0.031 C 
ATOM     40  C   UNL A   1      38.746  27.551  29.673  1.00  0.00     0.029 A 
ATOM     41  C   UNL A   1      39.852  28.508  29.669  1.00  0.00     0.049 A 
ATOM     42  H   UNL A   1      41.742  28.245  28.835  1.00  0.00     0.167 HD
ATOM     43  C   UNL A   1      45.645  27.600  26.934  1.00  0.00     0.034 A 
ATOM     44  C   UNL A   1      39.828  29.746  30.208  1.00  0.00     0.034 A 
ATOM     45  C   UNL A   1      45.677  28.965  27.395  1.00  0.00     0.049 A 
ATOM     46  C   UNL A   1      41.038  30.640  30.054  1.00  0.00     0.074 A 
ATOM     47  C   UNL A   1      46.695  29.895  27.269  1.00  0.00     0.029 A 
ATOM     48  N   UNL A   1      44.651  29.593  28.088  1.00  0.00    -0.354 N 
ATOM     49  N   UNL A   1      42.184  30.391  29.462  1.00  0.00    -0.248 NA
ATOM     50  C   UNL A   1      40.937  31.992  30.620  1.00  0.00     0.031 C 
ATOM     51  C   UNL A   1      46.309  31.062  27.940  1.00  0.00     0.029 A 
ATOM     52  C   UNL A   1      45.021  30.887  28.421  1.00  0.00     0.049 A 
ATOM     53  H   UNL A   1      43.786  29.179  28.312  1.00  0.00     0.167 HD
ATOM     54  C   UNL A   1      42.925  31.568  29.560  1.00  0.00     0.074 A 
ATOM     55  C   UNL A   1      42.088  32.529  30.244  1.00  0.00     0.031 C 
ATOM     56  C   UNL A   1      44.183  31.833  29.120  1.00  0.00     0.034 A 
BRANCH  43  57
ATOM     57  C   UNL A   1      46.845  27.034  26.219  1.00  0.00     0.023 A 
ATOM     58  C   UNL A   1      47.863  26.364  26.923  1.00  0.00     0.031 A 
ATOM     59  C   UNL A   1      47.001  27.201  24.833  1.00  0.00     0.131 A 
ATOM     60  C   UNL A   1      49.023  25.951  26.251  1.00  0.00     0.055 A 
ATOM     61  C   UNL A   1      48.124  26.719  24.158  1.00  0.00     0.041 A 
ATOM     62  F   UNL A   1      46.074  27.856  24.116  1.00  0.00    -0.206 F 
ATOM     63  C   UNL A   1      49.149  26.102  24.869  1.00  0.00     0.022 A 
BRANCH  60  64
ATOM     64  S   UNL A   1      50.422  25.341  27.231  1.00  0.00     0.124 S 
ATOM     65  O   UNL A   1      51.372  24.969  26.186  1.00  0.00    -0.237 OA
ATOM     66  O   UNL A   1      50.778  26.506  28.033  1.00  0.00    -0.237 OA
ATOM     67  O   UNL A   1      49.855  24.219  27.976  1.00  0.00    -0.744 OA
ENDBRANCH  60  64
ENDBRANCH  43  57
BRANCH  44  68
ATOM     68  C   UNL A   1      38.635  30.222  30.967  1.00  0.00     0.023 A 
ATOM     69  C   UNL A   1      37.594  30.921  30.333  1.00  0.00     0.031 A 
ATOM     70  C   UNL A   1      38.565  30.058  32.361  1.00  0.00     0.131 A 
ATOM     71  C   UNL A   1      36.562  31.483  31.100  1.00  0.00     0.055 A 
ATOM     72  C   UNL A   1      37.508  30.575  33.113  1.00  0.00     0.041 A 
ATOM     73  F   UNL A   1      39.533  29.397  33.017  1.00  0.00    -0.206 F 
ATOM     74  C   UNL A   1      36.506  31.306  32.484  1.00  0.00     0.022 A 
BRANCH  71  75
ATOM     75  S   UNL A   1      35.341  32.542  30.273  1.00  0.00     0.124 S 
ATOM     76  O   UNL A   1      34.443  32.876  31.374  1.00  0.00    -0.237 OA
ATOM     77  O   UNL A   1      36.176  33.631  29.775  1.00  0.00    -0.237 OA
ATOM     78  O   UNL A   1      34.775  31.673  29.245  1.00  0.00    -0.744 OA
ENDBRANCH  71  75
ENDBRANCH  44  68
BRANCH  56  79
ATOM     79  C   UNL A   1      44.707  33.233  29.342  1.00  0.00     0.023 A 
ATOM     80  C   UNL A   1      44.565  34.240  28.370  1.00  0.00     0.031 A 
ATOM     81  C   UNL A   1      45.381  33.558  30.533  1.00  0.00     0.131 A 
ATOM     82  C   UNL A   1      45.147  35.500  28.576  1.00  0.00     0.055 A 
ATOM     83  C   UNL A   1      45.903  34.833  30.759  1.00  0.00     0.041 A 
ATOM     84  F   UNL A   1      45.547  32.639  31.498  1.00  0.00    -0.206 F 
ATOM     85  C   UNL A   1      45.803  35.807  29.770  1.00  0.00     0.022 A 
BRANCH  82  86
ATOM     86  S   UNL A   1      45.132  36.699  27.214  1.00  0.00     0.124 S 
ATOM     87  O   UNL A   1      45.940  36.023  26.203  1.00  0.00    -0.237 OA
ATOM     88  O   UNL A   1      43.708  36.816  26.919  1.00  0.00    -0.237 OA
ATOM     89  O   UNL A   1      45.742  37.891  27.800  1.00  0.00    -0.744 OA
ENDBRANCH  82  86
ENDBRANCH  56  79
ENDBRANCH  30  31
ENDBRANCH  23  25
ENDBRANCH  22  23
ENDBRANCH  21  22
ENDBRANCH   1  21
TORSDOF 17
ENDMDL
MODEL 3
REMARK VINA RESULT:     -11.4      4.802     10.172
REMARK SMILES O=C(Cc1ccc(NC(=O)C2CCCC2)cc1)OCCOC(=O)c1ccc(-c2c3nc(c(-c4cc(S(=O)(=O)[O-])ccc4F)c4ccc([nH]4)c(-c4cc(S(=O)(=O)[O-])ccc4F)c4nc(c(-c5cc(S(=O)(=O)[O-])ccc5F)c5ccc2[nH]5)C=C4)C=C3)cc1
REMARK SMILES IDX 19 1 18 2 2 3 1 4 3 5 4 6 5 7 17 8 6 9 16 10 7 11 8 12 9 13
REMARK SMILES IDX 10 15 11 16 12 17 15 18 13 19 14 20 20 21 21 22 22 23 23 24
REMARK SMILES IDX 24 25 25 26 86 27 26 28 85 29 27 30 28 31 29 32 79 33 30 34
REMARK SMILES IDX 84 35 78 36 80 37 31 38 83 39 77 40 76 41 32 43 64 44 44 45
REMARK SMILES IDX 63 46 45 47 48 48 62 49 81 50 46 51 47 52 61 54 82 55 49 56
REMARK SMILES IDX 33 57 34 58 42 59 35 60 41 61 43 62 40 63 36 64 37 65 38 66
REMARK SMILES IDX 39 67 65 68 66 69 74 70 67 71 73 72 75 73 72 74 68 75 69 76
REMARK SMILES IDX 70 77 71 78 50 79 51 80 59 81 52 82 58 83 60 84 57 85 53 86
REMARK SMILES IDX 54 87 55 88 56 89
REMARK H PARENT 8 14 80 42 48 53
REMARK Flexibility Score: inf
ROOT
ATOM      1  C   UNL A   1      31.689  30.405  25.378  1.00  0.00     0.274 C 
ENDROOT
BRANCH   1   2
ATOM      2  O   UNL A   1      30.965  29.170  25.194  1.00  0.00    -0.462 OA
BRANCH   2   3
ATOM      3  C   UNL A   1      31.355  28.117  24.439  1.00  0.00     0.310 C 
ATOM      4  O   UNL A   1      32.549  27.968  24.177  1.00  0.00    -0.252 OA
BRANCH   3   5
ATOM      5  C   UNL A   1      30.323  27.118  23.952  1.00  0.00     0.158 C 
BRANCH   5   6
ATOM      6  C   UNL A   1      30.510  25.728  24.492  1.00  0.00    -0.037 A 
ATOM      7  C   UNL A   1      30.641  24.647  23.618  1.00  0.00     0.006 A 
ATOM      8  C   UNL A   1      30.545  25.498  25.874  1.00  0.00     0.006 A 
ATOM      9  C   UNL A   1      30.969  23.391  24.115  1.00  0.00     0.026 A 
ATOM     10  C   UNL A   1      30.880  24.238  26.367  1.00  0.00     0.026 A 
ATOM     11  C   UNL A   1      31.203  23.214  25.478  1.00  0.00     0.041 A 
BRANCH  11  12
ATOM     12  N   UNL A   1      31.830  22.074  25.999  1.00  0.00    -0.326 N 
ATOM     13  C   UNL A   1      33.166  21.756  26.009  1.00  0.00     0.227 C 
ATOM     14  H   UNL A   1      31.231  21.412  26.416  1.00  0.00     0.169 HD
ATOM     15  O   UNL A   1      33.506  20.687  26.524  1.00  0.00    -0.274 OA
BRANCH  13  16
ATOM     16  C   UNL A   1      34.198  22.743  25.465  1.00  0.00     0.079 C 
ATOM     17  C   UNL A   1      35.543  22.710  26.196  1.00  0.00     0.013 C 
ATOM     18  C   UNL A   1      34.645  22.458  24.030  1.00  0.00     0.013 C 
ATOM     19  C   UNL A   1      36.451  23.522  25.286  1.00  0.00     0.001 C 
ATOM     20  C   UNL A   1      35.939  23.258  23.871  1.00  0.00     0.001 C 
ENDBRANCH  13  16
ENDBRANCH  11  12
ENDBRANCH   5   6
ENDBRANCH   3   5
ENDBRANCH   2   3
ENDBRANCH   1   2
BRANCH   1  21
ATOM     21  C   UNL A   1      32.025  30.638  26.853  1.00  0.00     0.275 C 
BRANCH  21  22
ATOM     22  O   UNL A   1      33.428  30.414  27.070  1.00  0.00    -0.458 OA
BRANCH  22  23
ATOM     23  C   UNL A   1      34.107  31.443  27.643  1.00  0.00     0.338 C 
ATOM     24  O   UNL A   1      33.648  32.531  27.940  1.00  0.00    -0.246 OA
BRANCH  23  25
ATOM     25  C   UNL A   1      35.436  30.949  28.080  1.00  0.00     0.060 A 
ATOM     26  C   UNL A   1      35.581  29.573  28.295  1.00  0.00     0.016 A 
ATOM     27  C   UNL A   1      36.550  31.795  28.182  1.00  0.00     0.016 A 
ATOM     28  C   UNL A   1      36.827  29.045  28.632  1.00  0.00     0.010 A 
ATOM     29  C   UNL A   1      37.800  31.262  28.519  1.00  0.00     0.010 A 
ATOM     30  C   UNL A   1      37.939  29.887  28.770  1.00  0.00    -0.014 A 
BRANCH  30  31
ATOM     31  C   UNL A   1      39.193  29.341  29.347  1.00  0.00     0.031 A 
ATOM     32  C   UNL A   1      39.656  29.873  30.676  1.00  0.00     0.074 A 
ATOM     33  C   UNL A   1      39.881  28.360  28.735  1.00  0.00     0.049 A 
ATOM     34  N   UNL A   1      40.654  29.483  31.426  1.00  0.00    -0.248 NA
ATOM     35  C   UNL A   1      38.886  30.997  31.231  1.00  0.00     0.031 C 
ATOM     36  C   UNL A   1      39.542  27.765  27.443  1.00  0.00     0.029 A 
ATOM     37  N   UNL A   1      41.012  27.689  29.127  1.00  0.00    -0.354 N 
ATOM     38  C   UNL A   1      40.608  30.285  32.560  1.00  0.00     0.074 A 
ATOM     39  C   UNL A   1      39.531  31.233  32.362  1.00  0.00     0.031 C 
ATOM     40  C   UNL A   1      40.452  26.819  27.147  1.00  0.00     0.029 A 
ATOM     41  C   UNL A   1      41.438  26.743  28.225  1.00  0.00     0.049 A 
ATOM     42  H   UNL A   1      41.475  27.867  29.977  1.00  0.00     0.167 HD
ATOM     43  C   UNL A   1      41.370  30.222  33.679  1.00  0.00     0.034 A 
ATOM     44  C   UNL A   1      42.501  25.912  28.266  1.00  0.00     0.034 A 
ATOM     45  C   UNL A   1      42.471  29.308  33.852  1.00  0.00     0.049 A 
ATOM     46  C   UNL A   1      43.387  25.910  29.492  1.00  0.00     0.074 A 
ATOM     47  C   UNL A   1      43.317  29.171  34.939  1.00  0.00     0.029 A 
ATOM     48  N   UNL A   1      42.891  28.384  32.904  1.00  0.00    -0.354 N 
ATOM     49  N   UNL A   1      43.299  26.639  30.581  1.00  0.00    -0.248 NA
ATOM     50  C   UNL A   1      44.500  24.952  29.500  1.00  0.00     0.031 C 
ATOM     51  C   UNL A   1      44.285  28.210  34.623  1.00  0.00     0.029 A 
ATOM     52  C   UNL A   1      44.001  27.694  33.369  1.00  0.00     0.049 A 
ATOM     53  H   UNL A   1      42.464  28.241  32.029  1.00  0.00     0.167 HD
ATOM     54  C   UNL A   1      44.327  26.202  31.414  1.00  0.00     0.074 A 
ATOM     55  C   UNL A   1      45.005  25.134  30.711  1.00  0.00     0.031 C 
ATOM     56  C   UNL A   1      44.680  26.641  32.651  1.00  0.00     0.034 A 
BRANCH  43  57
ATOM     57  C   UNL A   1      41.040  31.196  34.781  1.00  0.00     0.023 A 
ATOM     58  C   UNL A   1      39.917  31.008  35.608  1.00  0.00     0.031 A 
ATOM     59  C   UNL A   1      41.824  32.345  34.983  1.00  0.00     0.131 A 
ATOM     60  C   UNL A   1      39.568  31.989  36.547  1.00  0.00     0.055 A 
ATOM     61  C   UNL A   1      41.513  33.280  35.973  1.00  0.00     0.041 A 
ATOM     62  F   UNL A   1      42.891  32.589  34.206  1.00  0.00    -0.206 F 
ATOM     63  C   UNL A   1      40.372  33.112  36.752  1.00  0.00     0.022 A 
BRANCH  60  64
ATOM     64  S   UNL A   1      37.973  31.845  37.399  1.00  0.00     0.124 S 
ATOM     65  O   UNL A   1      38.324  32.268  38.753  1.00  0.00    -0.237 OA
ATOM     66  O   UNL A   1      37.127  32.762  36.642  1.00  0.00    -0.237 OA
ATOM     67  O   UNL A   1      37.639  30.430  37.263  1.00  0.00    -0.744 OA
ENDBRANCH  60  64
ENDBRANCH  43  57
BRANCH  44  68
ATOM     68  C   UNL A   1      42.816  25.022  27.111  1.00  0.00     0.023 A 
ATOM     69  C   UNL A   1      42.341  23.701  27.053  1.00  0.00     0.031 A 
ATOM     70  C   UNL A   1      43.675  25.459  26.087  1.00  0.00     0.131 A 
ATOM     71  C   UNL A   1      42.777  22.846  26.029  1.00  0.00     0.055 A 
ATOM     72  C   UNL A   1      44.065  24.619  25.042  1.00  0.00     0.041 A 
ATOM     73  F   UNL A   1      44.158  26.712  26.095  1.00  0.00    -0.206 F 
ATOM     74  C   UNL A   1      43.628  23.299  25.017  1.00  0.00     0.022 A 
BRANCH  71  75
ATOM     75  S   UNL A   1      42.300  21.096  26.093  1.00  0.00     0.124 S 
ATOM     76  O   UNL A   1      40.912  21.150  25.647  1.00  0.00    -0.237 OA
ATOM     77  O   UNL A   1      43.249  20.491  25.164  1.00  0.00    -0.237 OA
ATOM     78  O   UNL A   1      42.492  20.741  27.497  1.00  0.00    -0.744 OA
ENDBRANCH  71  75
ENDBRANCH  44  68
BRANCH  56  79
ATOM     79  C   UNL A   1      45.831  25.935  33.328  1.00  0.00     0.023 A 
ATOM     80  C   UNL A   1      45.631  24.813  34.152  1.00  0.00     0.031 A 
ATOM     81  C   UNL A   1      47.147  26.407  33.167  1.00  0.00     0.131 A 
ATOM     82  C   UNL A   1      46.715  24.242  34.835  1.00  0.00     0.055 A 
ATOM     83  C   UNL A   1      48.231  25.797  33.800  1.00  0.00     0.041 A 
ATOM     84  F   UNL A   1      47.400  27.474  32.392  1.00  0.00    -0.206 F 
ATOM     85  C   UNL A   1      48.016  24.719  34.655  1.00  0.00     0.022 A 
BRANCH  82  86
ATOM     86  S   UNL A   1      46.388  22.939  36.054  1.00  0.00     0.124 S 
ATOM     87  O   UNL A   1      46.845  21.743  35.353  1.00  0.00    -0.237 OA
ATOM     88  O   UNL A   1      47.201  23.363  37.188  1.00  0.00    -0.237 OA
ATOM     89  O   UNL A   1      44.943  23.020  36.264  1.00  0.00    -0.744 OA
ENDBRANCH  82  86
ENDBRANCH  56  79
ENDBRANCH  30  31
ENDBRANCH  23  25
ENDBRANCH  22  23
ENDBRANCH  21  22
ENDBRANCH   1  21
TORSDOF 17
ENDMDL
