MODEL 1
REMARK VINA RESULT:     -10.2      0.000      0.000
REMARK SMILES C[C@@H](C(=O)OCCOC(=O)c1ccc(-c2c3nc(c(-c4cc(S(=O)(=O)[O-])ccc4F)c4ccc([nH]4)c(-c4cc(S(=O)(=O)[O-])ccc4F)c4nc(c(-c5cc(S(=O)(=O)[O-])ccc5F)c5ccc2[nH]5)C=C4)C=C3)cc1)N1C(=O)/C(=C2/SC(=S)N(c3ccccc3Cl)C2=O)c2ccccc21
REMARK SMILES IDX 7 1 6 2 5 3 3 4 4 5 2 6 1 7 74 8 75 9 97 10 76 11 77 12
REMARK SMILES IDX 92 13 96 14 78 15 93 16 95 17 79 18 90 19 94 20 80 21 82 22
REMARK SMILES IDX 91 23 81 24 83 25 84 26 88 27 85 28 87 29 89 30 86 31 8 32
REMARK SMILES IDX 9 33 10 34 11 35 12 36 73 37 13 38 72 39 14 40 15 41 16 42
REMARK SMILES IDX 66 43 17 44 71 45 65 46 67 47 18 48 70 49 64 50 63 51 19 53
REMARK SMILES IDX 51 54 31 55 50 56 32 57 35 58 49 59 68 60 33 61 34 62 48 64
REMARK SMILES IDX 69 65 36 66 20 67 21 68 29 69 22 70 28 71 30 72 27 73 23 74
REMARK SMILES IDX 24 75 25 76 26 77 52 78 53 79 61 80 54 81 60 82 62 83 59 84
REMARK SMILES IDX 55 85 56 86 57 87 58 88 37 89 38 90 46 91 39 92 45 93 47 94
REMARK SMILES IDX 44 95 40 96 41 97 42 98 43 99
REMARK H PARENT 67 52 35 63
REMARK Flexibility Score: inf
ROOT
ATOM      1  C   UNL A   1      42.671  21.119  26.275  1.00  0.00     0.275 C 
ENDROOT
BRANCH   1   2
ATOM      2  C   UNL A   1      43.962  21.157  25.455  1.00  0.00     0.274 C 
BRANCH   2   3
ATOM      3  O   UNL A   1      44.897  22.141  25.936  1.00  0.00    -0.461 OA
BRANCH   3   4
ATOM      4  C   UNL A   1      44.926  23.269  25.174  1.00  0.00     0.329 C 
ATOM      5  O   UNL A   1      45.335  23.272  24.016  1.00  0.00    -0.250 OA
BRANCH   4   6
ATOM      6  C   UNL A   1      44.376  24.517  25.895  1.00  0.00     0.197 C 
ATOM      7  C   UNL A   1      43.611  25.503  25.031  1.00  0.00     0.044 C 
BRANCH   6   8
ATOM      8  N   UNL A   1      45.407  25.071  26.740  1.00  0.00    -0.294 N 
ATOM      9  C   UNL A   1      45.317  24.874  28.109  1.00  0.00     0.261 C 
ATOM     10  C   UNL A   1      46.690  25.531  26.390  1.00  0.00     0.053 A 
ATOM     11  O   UNL A   1      44.439  24.234  28.693  1.00  0.00    -0.269 OA
ATOM     12  C   UNL A   1      46.565  25.423  28.709  1.00  0.00     0.069 C 
ATOM     13  C   UNL A   1      47.474  25.604  27.542  1.00  0.00     0.012 A 
ATOM     14  C   UNL A   1      47.220  25.770  25.120  1.00  0.00     0.027 A 
ATOM     15  C   UNL A   1      46.541  25.660  30.039  1.00  0.00     0.094 C 
ATOM     16  C   UNL A   1      48.837  25.608  27.324  1.00  0.00     0.011 A 
ATOM     17  C   UNL A   1      48.588  25.991  24.971  1.00  0.00     0.002 A 
ATOM     18  S   UNL A   1      47.761  26.233  31.107  1.00  0.00    -0.053 SA
ATOM     19  C   UNL A   1      45.323  25.497  30.908  1.00  0.00     0.271 C 
ATOM     20  C   UNL A   1      49.409  25.856  26.072  1.00  0.00     0.001 A 
ATOM     21  C   UNL A   1      46.938  25.645  32.566  1.00  0.00     0.153 C 
ATOM     22  N   UNL A   1      45.693  25.182  32.204  1.00  0.00    -0.259 N 
ATOM     23  O   UNL A   1      44.204  25.880  30.580  1.00  0.00    -0.268 OA
ATOM     24  S   UNL A   1      47.671  25.649  34.062  1.00  0.00    -0.051 S 
BRANCH  22  25
ATOM     25  C   UNL A   1      44.700  24.646  33.074  1.00  0.00     0.069 A 
ATOM     26  C   UNL A   1      44.483  23.264  33.159  1.00  0.00     0.028 A 
ATOM     27  C   UNL A   1      43.966  25.497  33.925  1.00  0.00     0.065 A 
ATOM     28  C   UNL A   1      43.572  22.745  34.085  1.00  0.00     0.002 A 
ATOM     29  C   UNL A   1      43.057  24.972  34.850  1.00  0.00     0.023 A 
ATOM     30  Cl  UNL A   1      44.051  27.223  33.792  1.00  0.00    -0.082 Cl
ATOM     31  C   UNL A   1      42.865  23.596  34.933  1.00  0.00     0.002 A 
ENDBRANCH  22  25
ENDBRANCH   6   8
ENDBRANCH   4   6
ENDBRANCH   3   4
ENDBRANCH   2   3
ENDBRANCH   1   2
BRANCH   1  32
ATOM     32  O   UNL A   1      41.698  22.090  25.832  1.00  0.00    -0.458 OA
BRANCH  32  33
ATOM     33  C   UNL A   1      40.706  22.371  26.718  1.00  0.00     0.338 C 
ATOM     34  O   UNL A   1      39.897  21.560  27.148  1.00  0.00    -0.246 OA
BRANCH  33  35
ATOM     35  C   UNL A   1      40.664  23.807  27.120  1.00  0.00     0.060 A 
ATOM     36  C   UNL A   1      40.191  24.821  26.290  1.00  0.00     0.016 A 
ATOM     37  C   UNL A   1      41.234  24.161  28.355  1.00  0.00     0.016 A 
ATOM     38  C   UNL A   1      40.384  26.170  26.658  1.00  0.00     0.010 A 
ATOM     39  C   UNL A   1      41.395  25.509  28.729  1.00  0.00     0.010 A 
ATOM     40  C   UNL A   1      41.016  26.546  27.867  1.00  0.00    -0.014 A 
BRANCH  40  41
ATOM     41  C   UNL A   1      41.293  27.977  28.245  1.00  0.00     0.031 A 
ATOM     42  C   UNL A   1      42.678  28.599  28.150  1.00  0.00     0.074 A 
ATOM     43  C   UNL A   1      40.306  28.785  28.662  1.00  0.00     0.049 A 
ATOM     44  N   UNL A   1      43.340  29.390  28.954  1.00  0.00    -0.248 NA
ATOM     45  C   UNL A   1      43.454  28.277  26.968  1.00  0.00     0.031 C 
ATOM     46  C   UNL A   1      38.884  28.451  28.733  1.00  0.00     0.029 A 
ATOM     47  N   UNL A   1      40.370  30.083  29.093  1.00  0.00    -0.354 N 
ATOM     48  C   UNL A   1      44.648  29.448  28.442  1.00  0.00     0.074 A 
ATOM     49  C   UNL A   1      44.692  28.604  27.282  1.00  0.00     0.031 C 
ATOM     50  C   UNL A   1      38.204  29.533  29.139  1.00  0.00     0.029 A 
ATOM     51  C   UNL A   1      39.154  30.586  29.474  1.00  0.00     0.049 A 
ATOM     52  H   UNL A   1      41.206  30.601  29.125  1.00  0.00     0.167 HD
ATOM     53  C   UNL A   1      45.683  30.248  28.797  1.00  0.00     0.034 A 
ATOM     54  C   UNL A   1      38.858  31.744  30.090  1.00  0.00     0.034 A 
ATOM     55  C   UNL A   1      45.467  31.430  29.587  1.00  0.00     0.049 A 
ATOM     56  C   UNL A   1      39.988  32.674  30.439  1.00  0.00     0.074 A 
ATOM     57  C   UNL A   1      46.382  32.368  30.025  1.00  0.00     0.029 A 
ATOM     58  N   UNL A   1      44.206  31.903  29.926  1.00  0.00    -0.354 N 
ATOM     59  N   UNL A   1      41.283  32.500  30.285  1.00  0.00    -0.248 NA
ATOM     60  C   UNL A   1      39.616  33.950  31.055  1.00  0.00     0.031 C 
ATOM     61  C   UNL A   1      45.670  33.416  30.621  1.00  0.00     0.029 A 
ATOM     62  C   UNL A   1      44.313  33.144  30.520  1.00  0.00     0.049 A 
ATOM     63  H   UNL A   1      43.361  31.425  29.765  1.00  0.00     0.167 HD
ATOM     64  C   UNL A   1      41.881  33.649  30.791  1.00  0.00     0.074 A 
ATOM     65  C   UNL A   1      40.801  34.519  31.219  1.00  0.00     0.031 C 
ATOM     66  C   UNL A   1      43.198  33.963  30.919  1.00  0.00     0.034 A 
BRANCH  53  67
ATOM     67  C   UNL A   1      47.094  29.879  28.367  1.00  0.00     0.023 A 
ATOM     68  C   UNL A   1      48.060  29.268  29.188  1.00  0.00     0.031 A 
ATOM     69  C   UNL A   1      47.482  30.196  27.049  1.00  0.00     0.131 A 
ATOM     70  C   UNL A   1      49.375  29.084  28.717  1.00  0.00     0.055 A 
ATOM     71  C   UNL A   1      48.759  29.919  26.556  1.00  0.00     0.041 A 
ATOM     72  F   UNL A   1      46.619  30.793  26.210  1.00  0.00    -0.206 F 
ATOM     73  C   UNL A   1      49.722  29.377  27.397  1.00  0.00     0.022 A 
BRANCH  70  74
ATOM     74  S   UNL A   1      50.673  28.588  29.889  1.00  0.00     0.124 S 
ATOM     75  O   UNL A   1      51.783  29.446  29.481  1.00  0.00    -0.237 OA
ATOM     76  O   UNL A   1      50.070  28.898  31.181  1.00  0.00    -0.237 OA
ATOM     77  O   UNL A   1      50.862  27.165  29.615  1.00  0.00    -0.744 OA
ENDBRANCH  70  74
ENDBRANCH  53  67
BRANCH  54  78
ATOM     78  C   UNL A   1      37.447  32.025  30.463  1.00  0.00     0.023 A 
ATOM     79  C   UNL A   1      36.588  32.712  29.595  1.00  0.00     0.031 A 
ATOM     80  C   UNL A   1      36.921  31.549  31.680  1.00  0.00     0.131 A 
ATOM     81  C   UNL A   1      35.247  32.911  29.958  1.00  0.00     0.055 A 
ATOM     82  C   UNL A   1      35.576  31.704  32.012  1.00  0.00     0.041 A 
ATOM     83  F   UNL A   1      37.701  30.875  32.541  1.00  0.00    -0.206 F 
ATOM     84  C   UNL A   1      34.732  32.395  31.151  1.00  0.00     0.022 A 
BRANCH  81  85
ATOM     85  S   UNL A   1      34.188  33.900  28.869  1.00  0.00     0.124 S 
ATOM     86  O   UNL A   1      35.145  34.835  28.287  1.00  0.00    -0.237 OA
ATOM     87  O   UNL A   1      33.649  32.889  27.967  1.00  0.00    -0.237 OA
ATOM     88  O   UNL A   1      33.218  34.494  29.786  1.00  0.00    -0.744 OA
ENDBRANCH  81  85
ENDBRANCH  54  78
BRANCH  66  89
ATOM     89  C   UNL A   1      43.505  35.303  31.518  1.00  0.00     0.023 A 
ATOM     90  C   UNL A   1      43.457  35.489  32.908  1.00  0.00     0.031 A 
ATOM     91  C   UNL A   1      43.832  36.396  30.699  1.00  0.00     0.131 A 
ATOM     92  C   UNL A   1      43.668  36.765  33.440  1.00  0.00     0.055 A 
ATOM     93  C   UNL A   1      44.093  37.653  31.240  1.00  0.00     0.041 A 
ATOM     94  F   UNL A   1      43.897  36.256  29.365  1.00  0.00    -0.206 F 
ATOM     95  C   UNL A   1      43.996  37.846  32.616  1.00  0.00     0.022 A 
BRANCH  92  96
ATOM     96  S   UNL A   1      43.411  37.007  35.216  1.00  0.00     0.124 S 
ATOM     97  O   UNL A   1      41.971  36.799  35.344  1.00  0.00    -0.237 OA
ATOM     98  O   UNL A   1      44.258  35.971  35.797  1.00  0.00    -0.237 OA
ATOM     99  O   UNL A   1      43.862  38.378  35.443  1.00  0.00    -0.744 OA
ENDBRANCH  92  96
ENDBRANCH  66  89
ENDBRANCH  40  41
ENDBRANCH  33  35
ENDBRANCH  32  33
ENDBRANCH   1  32
TORSDOF 16
ENDMDL
MODEL 2
REMARK VINA RESULT:     -10.1      6.475     11.713
REMARK SMILES C[C@@H](C(=O)OCCOC(=O)c1ccc(-c2c3nc(c(-c4cc(S(=O)(=O)[O-])ccc4F)c4ccc([nH]4)c(-c4cc(S(=O)(=O)[O-])ccc4F)c4nc(c(-c5cc(S(=O)(=O)[O-])ccc5F)c5ccc2[nH]5)C=C4)C=C3)cc1)N1C(=O)/C(=C2/SC(=S)N(c3ccccc3Cl)C2=O)c2ccccc21
REMARK SMILES IDX 7 1 6 2 5 3 3 4 4 5 2 6 1 7 74 8 75 9 97 10 76 11 77 12
REMARK SMILES IDX 92 13 96 14 78 15 93 16 95 17 79 18 90 19 94 20 80 21 82 22
REMARK SMILES IDX 91 23 81 24 83 25 84 26 88 27 85 28 87 29 89 30 86 31 8 32
REMARK SMILES IDX 9 33 10 34 11 35 12 36 73 37 13 38 72 39 14 40 15 41 16 42
REMARK SMILES IDX 66 43 17 44 71 45 65 46 67 47 18 48 70 49 64 50 63 51 19 53
REMARK SMILES IDX 51 54 31 55 50 56 32 57 35 58 49 59 68 60 33 61 34 62 48 64
REMARK SMILES IDX 69 65 36 66 20 67 21 68 29 69 22 70 28 71 30 72 27 73 23 74
REMARK SMILES IDX 24 75 25 76 26 77 52 78 53 79 61 80 54 81 60 82 62 83 59 84
REMARK SMILES IDX 55 85 56 86 57 87 58 88 37 89 38 90 46 91 39 92 45 93 47 94
REMARK SMILES IDX 44 95 40 96 41 97 42 98 43 99
REMARK H PARENT 67 52 35 63
REMARK Flexibility Score: inf
ROOT
ATOM      1  C   UNL A   1      45.705  24.096  39.248  1.00  0.00     0.275 C 
ENDROOT
BRANCH   1   2
ATOM      2  C   UNL A   1      46.084  22.651  39.581  1.00  0.00     0.274 C 
BRANCH   2   3
ATOM      3  O   UNL A   1      47.448  22.521  40.022  1.00  0.00    -0.461 OA
BRANCH   3   4
ATOM      4  C   UNL A   1      48.297  22.132  39.031  1.00  0.00     0.329 C 
ATOM      5  O   UNL A   1      48.617  22.876  38.108  1.00  0.00    -0.250 OA
BRANCH   4   6
ATOM      6  C   UNL A   1      48.827  20.693  39.199  1.00  0.00     0.197 C 
ATOM      7  C   UNL A   1      50.259  20.455  38.757  1.00  0.00     0.044 C 
BRANCH   6   8
ATOM      8  N   UNL A   1      47.839  19.762  38.704  1.00  0.00    -0.294 N 
ATOM      9  C   UNL A   1      47.036  19.101  39.620  1.00  0.00     0.261 C 
ATOM     10  C   UNL A   1      47.323  19.625  37.403  1.00  0.00     0.053 A 
ATOM     11  O   UNL A   1      47.058  19.251  40.844  1.00  0.00    -0.269 OA
ATOM     12  C   UNL A   1      46.035  18.325  38.837  1.00  0.00     0.069 C 
ATOM     13  C   UNL A   1      46.136  18.892  37.463  1.00  0.00     0.012 A 
ATOM     14  C   UNL A   1      47.775  20.200  36.214  1.00  0.00     0.027 A 
ATOM     15  C   UNL A   1      45.385  17.341  39.497  1.00  0.00     0.094 C 
ATOM     16  C   UNL A   1      45.299  19.042  36.376  1.00  0.00     0.011 A 
ATOM     17  C   UNL A   1      46.985  20.136  35.068  1.00  0.00     0.002 A 
ATOM     18  S   UNL A   1      44.145  16.265  38.986  1.00  0.00    -0.053 SA
ATOM     19  C   UNL A   1      45.681  16.932  40.915  1.00  0.00     0.271 C 
ATOM     20  C   UNL A   1      45.715  19.601  35.163  1.00  0.00     0.001 A 
ATOM     21  C   UNL A   1      43.647  15.852  40.639  1.00  0.00     0.153 C 
ATOM     22  N   UNL A   1      44.544  16.418  41.516  1.00  0.00    -0.259 N 
ATOM     23  O   UNL A   1      46.818  16.800  41.356  1.00  0.00    -0.268 OA
ATOM     24  S   UNL A   1      42.271  14.968  40.958  1.00  0.00    -0.051 S 
BRANCH  22  25
ATOM     25  C   UNL A   1      44.527  16.311  42.936  1.00  0.00     0.069 A 
ATOM     26  C   UNL A   1      44.757  15.083  43.571  1.00  0.00     0.028 A 
ATOM     27  C   UNL A   1      44.350  17.460  43.735  1.00  0.00     0.065 A 
ATOM     28  C   UNL A   1      44.830  15.009  44.967  1.00  0.00     0.002 A 
ATOM     29  C   UNL A   1      44.426  17.379  45.129  1.00  0.00     0.023 A 
ATOM     30  Cl  UNL A   1      43.912  18.991  43.053  1.00  0.00    -0.082 Cl
ATOM     31  C   UNL A   1      44.672  16.155  45.744  1.00  0.00     0.002 A 
ENDBRANCH  22  25
ENDBRANCH   6   8
ENDBRANCH   4   6
ENDBRANCH   3   4
ENDBRANCH   2   3
ENDBRANCH   1   2
BRANCH   1  32
ATOM     32  O   UNL A   1      45.762  24.378  37.833  1.00  0.00    -0.458 OA
BRANCH  32  33
ATOM     33  C   UNL A   1      46.150  25.638  37.502  1.00  0.00     0.338 C 
ATOM     34  O   UNL A   1      47.017  26.281  38.079  1.00  0.00    -0.246 OA
BRANCH  33  35
ATOM     35  C   UNL A   1      45.388  26.207  36.353  1.00  0.00     0.060 A 
ATOM     36  C   UNL A   1      45.821  27.309  35.618  1.00  0.00     0.016 A 
ATOM     37  C   UNL A   1      44.120  25.670  36.073  1.00  0.00     0.016 A 
ATOM     38  C   UNL A   1      44.946  27.916  34.692  1.00  0.00     0.010 A 
ATOM     39  C   UNL A   1      43.265  26.262  35.123  1.00  0.00     0.010 A 
ATOM     40  C   UNL A   1      43.641  27.428  34.445  1.00  0.00    -0.014 A 
BRANCH  40  41
ATOM     41  C   UNL A   1      42.669  28.102  33.512  1.00  0.00     0.031 A 
ATOM     42  C   UNL A   1      41.694  29.173  33.975  1.00  0.00     0.074 A 
ATOM     43  C   UNL A   1      42.643  27.799  32.205  1.00  0.00     0.049 A 
ATOM     44  N   UNL A   1      40.432  29.384  33.706  1.00  0.00    -0.248 NA
ATOM     45  C   UNL A   1      42.212  30.167  34.896  1.00  0.00     0.031 C 
ATOM     46  C   UNL A   1      43.548  26.886  31.508  1.00  0.00     0.029 A 
ATOM     47  N   UNL A   1      41.807  28.260  31.224  1.00  0.00    -0.354 N 
ATOM     48  C   UNL A   1      40.012  30.388  34.597  1.00  0.00     0.074 A 
ATOM     49  C   UNL A   1      41.138  30.726  35.421  1.00  0.00     0.031 C 
ATOM     50  C   UNL A   1      43.247  26.889  30.202  1.00  0.00     0.029 A 
ATOM     51  C   UNL A   1      42.055  27.702  29.997  1.00  0.00     0.049 A 
ATOM     52  H   UNL A   1      41.101  28.926  31.384  1.00  0.00     0.167 HD
ATOM     53  C   UNL A   1      38.852  31.087  34.632  1.00  0.00     0.034 A 
ATOM     54  C   UNL A   1      41.350  27.788  28.855  1.00  0.00     0.034 A 
ATOM     55  C   UNL A   1      37.965  31.106  33.500  1.00  0.00     0.049 A 
ATOM     56  C   UNL A   1      40.089  28.609  28.858  1.00  0.00     0.074 A 
ATOM     57  C   UNL A   1      36.763  31.768  33.341  1.00  0.00     0.029 A 
ATOM     58  N   UNL A   1      38.281  30.538  32.272  1.00  0.00    -0.354 N 
ATOM     59  N   UNL A   1      39.508  29.234  29.859  1.00  0.00    -0.248 NA
ATOM     60  C   UNL A   1      39.384  28.724  27.579  1.00  0.00     0.031 C 
ATOM     61  C   UNL A   1      36.357  31.607  32.011  1.00  0.00     0.029 A 
ATOM     62  C   UNL A   1      37.326  30.877  31.337  1.00  0.00     0.049 A 
ATOM     63  H   UNL A   1      39.071  29.978  32.094  1.00  0.00     0.167 HD
ATOM     64  C   UNL A   1      38.363  29.815  29.327  1.00  0.00     0.074 A 
ATOM     65  C   UNL A   1      38.359  29.495  27.911  1.00  0.00     0.031 C 
ATOM     66  C   UNL A   1      37.383  30.532  29.940  1.00  0.00     0.034 A 
BRANCH  53  67
ATOM     67  C   UNL A   1      38.475  31.846  35.894  1.00  0.00     0.023 A 
ATOM     68  C   UNL A   1      37.883  31.278  37.038  1.00  0.00     0.031 A 
ATOM     69  C   UNL A   1      38.709  33.236  35.918  1.00  0.00     0.131 A 
ATOM     70  C   UNL A   1      37.466  32.101  38.102  1.00  0.00     0.055 A 
ATOM     71  C   UNL A   1      38.384  34.033  37.019  1.00  0.00     0.041 A 
ATOM     72  F   UNL A   1      39.259  33.852  34.858  1.00  0.00    -0.206 F 
ATOM     73  C   UNL A   1      37.740  33.470  38.113  1.00  0.00     0.022 A 
BRANCH  70  74
ATOM     74  S   UNL A   1      36.429  31.391  39.416  1.00  0.00     0.124 S 
ATOM     75  O   UNL A   1      36.094  30.085  38.854  1.00  0.00    -0.237 OA
ATOM     76  O   UNL A   1      37.333  31.379  40.561  1.00  0.00    -0.237 OA
ATOM     77  O   UNL A   1      35.309  32.324  39.516  1.00  0.00    -0.744 OA
ENDBRANCH  70  74
ENDBRANCH  53  67
BRANCH  54  78
ATOM     78  C   UNL A   1      41.801  27.018  27.666  1.00  0.00     0.023 A 
ATOM     79  C   UNL A   1      41.635  25.629  27.595  1.00  0.00     0.031 A 
ATOM     80  C   UNL A   1      42.353  27.681  26.552  1.00  0.00     0.131 A 
ATOM     81  C   UNL A   1      42.024  24.943  26.433  1.00  0.00     0.055 A 
ATOM     82  C   UNL A   1      42.687  27.002  25.382  1.00  0.00     0.041 A 
ATOM     83  F   UNL A   1      42.522  29.013  26.569  1.00  0.00    -0.206 F 
ATOM     84  C   UNL A   1      42.529  25.622  25.321  1.00  0.00     0.022 A 
BRANCH  81  85
ATOM     85  S   UNL A   1      41.903  23.134  26.410  1.00  0.00     0.124 S 
ATOM     86  O   UNL A   1      40.460  22.930  26.339  1.00  0.00    -0.237 OA
ATOM     87  O   UNL A   1      42.659  22.793  25.210  1.00  0.00    -0.237 OA
ATOM     88  O   UNL A   1      42.526  22.735  27.670  1.00  0.00    -0.744 OA
ENDBRANCH  81  85
ENDBRANCH  54  78
BRANCH  66  89
ATOM     89  C   UNL A   1      36.268  31.018  29.062  1.00  0.00     0.023 A 
ATOM     90  C   UNL A   1      35.359  30.111  28.498  1.00  0.00     0.031 A 
ATOM     91  C   UNL A   1      36.126  32.385  28.778  1.00  0.00     0.131 A 
ATOM     92  C   UNL A   1      34.376  30.578  27.619  1.00  0.00     0.055 A 
ATOM     93  C   UNL A   1      35.112  32.850  27.943  1.00  0.00     0.041 A 
ATOM     94  F   UNL A   1      36.971  33.286  29.306  1.00  0.00    -0.206 F 
ATOM     95  C   UNL A   1      34.240  31.942  27.346  1.00  0.00     0.022 A 
BRANCH  92  96
ATOM     96  S   UNL A   1      33.343  29.360  26.764  1.00  0.00     0.124 S 
ATOM     97  O   UNL A   1      34.131  28.140  26.909  1.00  0.00    -0.237 OA
ATOM     98  O   UNL A   1      32.102  29.412  27.530  1.00  0.00    -0.237 OA
ATOM     99  O   UNL A   1      33.254  29.884  25.403  1.00  0.00    -0.744 OA
ENDBRANCH  92  96
ENDBRANCH  66  89
ENDBRANCH  40  41
ENDBRANCH  33  35
ENDBRANCH  32  33
ENDBRANCH   1  32
TORSDOF 16
ENDMDL
MODEL 3
REMARK VINA RESULT:     -10.1      5.056      8.952
REMARK SMILES C[C@@H](C(=O)OCCOC(=O)c1ccc(-c2c3nc(c(-c4cc(S(=O)(=O)[O-])ccc4F)c4ccc([nH]4)c(-c4cc(S(=O)(=O)[O-])ccc4F)c4nc(c(-c5cc(S(=O)(=O)[O-])ccc5F)c5ccc2[nH]5)C=C4)C=C3)cc1)N1C(=O)/C(=C2/SC(=S)N(c3ccccc3Cl)C2=O)c2ccccc21
REMARK SMILES IDX 7 1 6 2 5 3 3 4 4 5 2 6 1 7 74 8 75 9 97 10 76 11 77 12
REMARK SMILES IDX 92 13 96 14 78 15 93 16 95 17 79 18 90 19 94 20 80 21 82 22
REMARK SMILES IDX 91 23 81 24 83 25 84 26 88 27 85 28 87 29 89 30 86 31 8 32
REMARK SMILES IDX 9 33 10 34 11 35 12 36 73 37 13 38 72 39 14 40 15 41 16 42
REMARK SMILES IDX 66 43 17 44 71 45 65 46 67 47 18 48 70 49 64 50 63 51 19 53
REMARK SMILES IDX 51 54 31 55 50 56 32 57 35 58 49 59 68 60 33 61 34 62 48 64
REMARK SMILES IDX 69 65 36 66 20 67 21 68 29 69 22 70 28 71 30 72 27 73 23 74
REMARK SMILES IDX 24 75 25 76 26 77 52 78 53 79 61 80 54 81 60 82 62 83 59 84
REMARK SMILES IDX 55 85 56 86 57 87 58 88 37 89 38 90 46 91 39 92 45 93 47 94
REMARK SMILES IDX 44 95 40 96 41 97 42 98 43 99
REMARK H PARENT 67 52 35 63
REMARK Flexibility Score: inf
ROOT
ATOM      1  C   UNL A   1      37.607  19.992  25.060  1.00  0.00     0.275 C 
ENDROOT
BRANCH   1   2
ATOM      2  C   UNL A   1      36.244  20.686  25.002  1.00  0.00     0.274 C 
BRANCH   2   3
ATOM      3  O   UNL A   1      35.910  21.359  26.229  1.00  0.00    -0.461 OA
BRANCH   3   4
ATOM      4  C   UNL A   1      35.451  22.627  26.036  1.00  0.00     0.329 C 
ATOM      5  O   UNL A   1      36.047  23.445  25.341  1.00  0.00    -0.250 OA
BRANCH   4   6
ATOM      6  C   UNL A   1      34.113  22.916  26.747  1.00  0.00     0.197 C 
ATOM      7  C   UNL A   1      33.632  21.855  27.719  1.00  0.00     0.044 C 
BRANCH   6   8
ATOM      8  N   UNL A   1      33.150  23.381  25.777  1.00  0.00    -0.294 N 
ATOM      9  C   UNL A   1      32.954  24.747  25.641  1.00  0.00     0.261 C 
ATOM     10  C   UNL A   1      32.574  22.689  24.696  1.00  0.00     0.053 A 
ATOM     11  O   UNL A   1      33.554  25.630  26.259  1.00  0.00    -0.269 OA
ATOM     12  C   UNL A   1      32.026  24.939  24.493  1.00  0.00     0.069 C 
ATOM     13  C   UNL A   1      32.020  23.615  23.810  1.00  0.00     0.012 A 
ATOM     14  C   UNL A   1      32.617  21.324  24.405  1.00  0.00     0.027 A 
ATOM     15  C   UNL A   1      31.422  26.145  24.401  1.00  0.00     0.094 C 
ATOM     16  C   UNL A   1      31.817  23.149  22.527  1.00  0.00     0.011 A 
ATOM     17  C   UNL A   1      32.190  20.867  23.160  1.00  0.00     0.002 A 
ATOM     18  S   UNL A   1      30.340  26.781  23.225  1.00  0.00    -0.053 SA
ATOM     19  C   UNL A   1      31.557  27.241  25.424  1.00  0.00     0.271 C 
ATOM     20  C   UNL A   1      31.838  21.790  22.195  1.00  0.00     0.001 A 
ATOM     21  C   UNL A   1      30.626  28.470  23.690  1.00  0.00     0.153 C 
ATOM     22  N   UNL A   1      31.405  28.480  24.826  1.00  0.00    -0.259 N 
ATOM     23  O   UNL A   1      31.507  27.044  26.634  1.00  0.00    -0.268 OA
ATOM     24  S   UNL A   1      30.046  29.749  22.794  1.00  0.00    -0.051 S 
BRANCH  22  25
ATOM     25  C   UNL A   1      31.845  29.629  25.543  1.00  0.00     0.069 A 
ATOM     26  C   UNL A   1      30.958  30.668  25.857  1.00  0.00     0.028 A 
ATOM     27  C   UNL A   1      33.170  29.708  26.018  1.00  0.00     0.065 A 
ATOM     28  C   UNL A   1      31.380  31.747  26.643  1.00  0.00     0.002 A 
ATOM     29  C   UNL A   1      33.585  30.788  26.804  1.00  0.00     0.023 A 
ATOM     30  Cl  UNL A   1      34.378  28.553  25.559  1.00  0.00    -0.082 Cl
ATOM     31  C   UNL A   1      32.687  31.804  27.121  1.00  0.00     0.002 A 
ENDBRANCH  22  25
ENDBRANCH   6   8
ENDBRANCH   4   6
ENDBRANCH   3   4
ENDBRANCH   2   3
ENDBRANCH   1   2
BRANCH   1  32
ATOM     32  O   UNL A   1      38.711  20.923  25.023  1.00  0.00    -0.458 OA
BRANCH  32  33
ATOM     33  C   UNL A   1      39.513  20.923  26.120  1.00  0.00     0.338 C 
ATOM     34  O   UNL A   1      39.923  19.922  26.691  1.00  0.00    -0.246 OA
BRANCH  33  35
ATOM     35  C   UNL A   1      39.847  22.293  26.606  1.00  0.00     0.060 A 
ATOM     36  C   UNL A   1      39.002  23.389  26.446  1.00  0.00     0.016 A 
ATOM     37  C   UNL A   1      41.125  22.505  27.151  1.00  0.00     0.016 A 
ATOM     38  C   UNL A   1      39.479  24.686  26.736  1.00  0.00     0.010 A 
ATOM     39  C   UNL A   1      41.583  23.799  27.468  1.00  0.00     0.010 A 
ATOM     40  C   UNL A   1      40.787  24.924  27.223  1.00  0.00    -0.014 A 
BRANCH  40  41
ATOM     41  C   UNL A   1      41.337  26.303  27.473  1.00  0.00     0.031 A 
ATOM     42  C   UNL A   1      42.659  26.779  26.891  1.00  0.00     0.074 A 
ATOM     43  C   UNL A   1      40.657  27.196  28.210  1.00  0.00     0.049 A 
ATOM     44  N   UNL A   1      43.646  27.466  27.405  1.00  0.00    -0.248 NA
ATOM     45  C   UNL A   1      42.927  26.420  25.511  1.00  0.00     0.031 C 
ATOM     46  C   UNL A   1      39.324  27.011  28.783  1.00  0.00     0.029 A 
ATOM     47  N   UNL A   1      41.014  28.462  28.586  1.00  0.00    -0.354 N 
ATOM     48  C   UNL A   1      44.687  27.405  26.462  1.00  0.00     0.074 A 
ATOM     49  C   UNL A   1      44.225  26.603  25.365  1.00  0.00     0.031 C 
ATOM     50  C   UNL A   1      38.956  28.142  29.400  1.00  0.00     0.029 A 
ATOM     51  C   UNL A   1      40.075  29.077  29.373  1.00  0.00     0.049 A 
ATOM     52  H   UNL A   1      41.859  28.888  28.318  1.00  0.00     0.167 HD
ATOM     53  C   UNL A   1      45.863  28.077  26.424  1.00  0.00     0.034 A 
ATOM     54  C   UNL A   1      40.146  30.236  30.049  1.00  0.00     0.034 A 
ATOM     55  C   UNL A   1      46.073  29.246  27.236  1.00  0.00     0.049 A 
ATOM     56  C   UNL A   1      41.423  31.029  29.972  1.00  0.00     0.074 A 
ATOM     57  C   UNL A   1      47.182  30.066  27.317  1.00  0.00     0.029 A 
ATOM     58  N   UNL A   1      45.074  29.837  27.998  1.00  0.00    -0.354 N 
ATOM     59  N   UNL A   1      42.552  30.725  29.368  1.00  0.00    -0.248 NA
ATOM     60  C   UNL A   1      41.436  32.314  30.675  1.00  0.00     0.031 C 
ATOM     61  C   UNL A   1      46.848  31.160  28.124  1.00  0.00     0.029 A 
ATOM     62  C   UNL A   1      45.521  31.037  28.511  1.00  0.00     0.049 A 
ATOM     63  H   UNL A   1      44.179  29.457  28.150  1.00  0.00     0.167 HD
ATOM     64  C   UNL A   1      43.414  31.785  29.626  1.00  0.00     0.074 A 
ATOM     65  C   UNL A   1      42.659  32.748  30.406  1.00  0.00     0.031 C 
ATOM     66  C   UNL A   1      44.717  31.954  29.277  1.00  0.00     0.034 A 
BRANCH  53  67
ATOM     67  C   UNL A   1      46.980  27.578  25.523  1.00  0.00     0.023 A 
ATOM     68  C   UNL A   1      47.225  28.022  24.209  1.00  0.00     0.031 A 
ATOM     69  C   UNL A   1      47.828  26.569  26.025  1.00  0.00     0.131 A 
ATOM     70  C   UNL A   1      48.216  27.399  23.425  1.00  0.00     0.055 A 
ATOM     71  C   UNL A   1      48.874  26.026  25.276  1.00  0.00     0.041 A 
ATOM     72  F   UNL A   1      47.648  26.085  27.265  1.00  0.00    -0.206 F 
ATOM     73  C   UNL A   1      49.062  26.426  23.959  1.00  0.00     0.022 A 
BRANCH  70  74
ATOM     74  S   UNL A   1      48.300  27.771  21.647  1.00  0.00     0.124 S 
ATOM     75  O   UNL A   1      49.381  28.753  21.602  1.00  0.00    -0.237 OA
ATOM     76  O   UNL A   1      48.598  26.468  21.064  1.00  0.00    -0.237 OA
ATOM     77  O   UNL A   1      46.973  28.303  21.341  1.00  0.00    -0.744 OA
ENDBRANCH  70  74
ENDBRANCH  53  67
BRANCH  54  78
ATOM     78  C   UNL A   1      38.998  30.651  30.898  1.00  0.00     0.023 A 
ATOM     79  C   UNL A   1      37.964  31.446  30.385  1.00  0.00     0.031 A 
ATOM     80  C   UNL A   1      38.892  30.199  32.228  1.00  0.00     0.131 A 
ATOM     81  C   UNL A   1      36.870  31.772  31.201  1.00  0.00     0.055 A 
ATOM     82  C   UNL A   1      37.778  30.482  33.016  1.00  0.00     0.041 A 
ATOM     83  F   UNL A   1      39.852  29.425  32.762  1.00  0.00    -0.206 F 
ATOM     84  C   UNL A   1      36.761  31.279  32.504  1.00  0.00     0.022 A 
BRANCH  81  85
ATOM     85  S   UNL A   1      35.603  32.894  30.550  1.00  0.00     0.124 S 
ATOM     86  O   UNL A   1      34.390  32.368  31.168  1.00  0.00    -0.237 OA
ATOM     87  O   UNL A   1      36.062  34.189  31.038  1.00  0.00    -0.237 OA
ATOM     88  O   UNL A   1      35.695  32.707  29.103  1.00  0.00    -0.744 OA
ENDBRANCH  81  85
ENDBRANCH  54  78
BRANCH  66  89
ATOM     89  C   UNL A   1      45.364  33.231  29.724  1.00  0.00     0.023 A 
ATOM     90  C   UNL A   1      45.239  34.399  28.956  1.00  0.00     0.031 A 
ATOM     91  C   UNL A   1      46.117  33.276  30.908  1.00  0.00     0.131 A 
ATOM     92  C   UNL A   1      45.916  35.558  29.349  1.00  0.00     0.055 A 
ATOM     93  C   UNL A   1      46.746  34.449  31.322  1.00  0.00     0.041 A 
ATOM     94  F   UNL A   1      46.253  32.182  31.675  1.00  0.00    -0.206 F 
ATOM     95  C   UNL A   1      46.661  35.593  30.533  1.00  0.00     0.022 A 
BRANCH  92  96
ATOM     96  S   UNL A   1      45.887  36.987  28.237  1.00  0.00     0.124 S 
ATOM     97  O   UNL A   1      47.162  36.854  27.539  1.00  0.00    -0.237 OA
ATOM     98  O   UNL A   1      44.693  36.733  27.437  1.00  0.00    -0.237 OA
ATOM     99  O   UNL A   1      45.794  38.126  29.148  1.00  0.00    -0.744 OA
ENDBRANCH  92  96
ENDBRANCH  66  89
ENDBRANCH  40  41
ENDBRANCH  33  35
ENDBRANCH  32  33
ENDBRANCH   1  32
TORSDOF 16
ENDMDL
