MODEL 1
REMARK VINA RESULT:     -10.7      0.000      0.000
REMARK SMILES CC(C)C[N@H+](CC[NH+](C)C)[C@@H]1CCC[C@]([NH3+])(C(=O)OCCOC(=O)c2ccc(-c3c4nc(c(-c5cc(S(=O)(=O)[O-])ccc5F)c5ccc([nH]5)c(-c5cc(S(=O)(=O)[O-])ccc5F)c5nc(c(-c6cc(S(=O)(=O)[O-])ccc6F)c6ccc3[nH]6)C=C5)C=C4)cc2)C1
REMARK SMILES IDX 20 1 19 2 17 3 18 4 15 5 11 6 12 7 88 8 13 9 14 10 5 11 4 13
REMARK SMILES IDX 2 14 1 15 3 16 6 17 7 18 8 19 9 20 10 21 16 23 21 27 22 28
REMARK SMILES IDX 23 29 24 30 25 31 26 32 87 33 27 34 86 35 28 36 29 37 30 38
REMARK SMILES IDX 80 39 31 40 85 41 79 42 81 43 32 44 84 45 78 46 77 47 33 49
REMARK SMILES IDX 65 50 45 51 64 52 46 53 49 54 63 55 82 56 47 57 48 58 62 60
REMARK SMILES IDX 83 61 50 62 34 63 35 64 43 65 36 66 42 67 44 68 41 69 37 70
REMARK SMILES IDX 38 71 39 72 40 73 66 74 67 75 75 76 68 77 74 78 76 79 73 80
REMARK SMILES IDX 69 81 70 82 71 83 72 84 51 85 52 86 60 87 53 88 59 89 61 90
REMARK SMILES IDX 58 91 54 92 55 93 56 94 57 95
REMARK H PARENT 5 12 8 22 16 24 16 25 16 26 81 48 49 59
REMARK Flexibility Score: inf
ROOT
ATOM      1  C   UNL A   1      36.437  22.967  23.757  1.00  0.00     0.274 C 
ENDROOT
BRANCH   1   2
ATOM      2  O   UNL A   1      35.342  23.530  24.513  1.00  0.00    -0.457 OA
BRANCH   2   3
ATOM      3  C   UNL A   1      34.084  23.337  24.037  1.00  0.00     0.368 C 
ATOM      4  O   UNL A   1      33.600  24.002  23.132  1.00  0.00    -0.245 OA
BRANCH   3   5
ATOM      5  C   UNL A   1      33.272  22.218  24.738  1.00  0.00     0.198 C 
ATOM      6  C   UNL A   1      31.200  23.672  25.490  1.00  0.00     0.191 C 
ATOM      7  C   UNL A   1      31.724  23.495  26.950  1.00  0.00     0.065 C 
ATOM      8  C   UNL A   1      31.748  22.470  24.689  1.00  0.00     0.145 C 
ATOM      9  C   UNL A   1      33.210  23.131  27.102  1.00  0.00     0.013 C 
ATOM     10  C   UNL A   1      33.672  21.985  26.195  1.00  0.00     0.081 C 
BRANCH   6  11
ATOM     11  N   UNL A   1      31.319  25.078  24.995  1.00  0.00    -0.327 N 
ATOM     12  H   UNL A   1      32.256  25.047  24.592  1.00  0.00     0.348 HD
BRANCH  11  13
ATOM     13  C   UNL A   1      31.248  26.068  26.100  1.00  0.00     0.265 C 
BRANCH  13  14
ATOM     14  C   UNL A   1      32.217  27.305  26.230  1.00  0.00     0.038 C 
ATOM     15  C   UNL A   1      32.129  28.239  27.444  1.00  0.00     0.013 C 
ATOM     16  C   UNL A   1      33.676  26.859  26.052  1.00  0.00     0.013 C 
ENDBRANCH  13  14
ENDBRANCH  11  13
BRANCH  11  17
ATOM     17  C   UNL A   1      30.532  25.514  23.834  1.00  0.00     0.324 C 
BRANCH  17  18
ATOM     18  C   UNL A   1      30.186  26.921  23.296  1.00  0.00     0.323 C 
BRANCH  18  19
ATOM     19  N   UNL A   1      31.023  27.391  22.184  1.00  0.00    -0.335 N 
ATOM     20  C   UNL A   1      31.999  28.356  22.712  1.00  0.00     0.332 C 
ATOM     21  C   UNL A   1      31.744  26.277  21.570  1.00  0.00     0.332 C 
ATOM     22  H   UNL A   1      30.428  27.822  21.477  1.00  0.00     0.347 HD
ENDBRANCH  18  19
ENDBRANCH  17  18
ENDBRANCH  11  17
ENDBRANCH   6  11
BRANCH   5  23
ATOM     23  N   UNL A   1      33.497  20.953  23.974  1.00  0.00    -0.343 N 
ATOM     24  H   UNL A   1      32.800  20.262  24.249  1.00  0.00     0.345 HD
ATOM     25  H   UNL A   1      34.430  20.595  24.178  1.00  0.00     0.345 HD
ATOM     26  H   UNL A   1      33.415  21.141  22.976  1.00  0.00     0.345 HD
ENDBRANCH   5  23
ENDBRANCH   3   5
ENDBRANCH   2   3
ENDBRANCH   1   2
BRANCH   1  27
ATOM     27  C   UNL A   1      37.156  21.763  24.373  1.00  0.00     0.275 C 
BRANCH  27  28
ATOM     28  O   UNL A   1      37.526  21.973  25.747  1.00  0.00    -0.458 OA
BRANCH  28  29
ATOM     29  C   UNL A   1      38.836  21.799  26.010  1.00  0.00     0.338 C 
ATOM     30  O   UNL A   1      39.557  20.894  25.578  1.00  0.00    -0.246 OA
BRANCH  29  31
ATOM     31  C   UNL A   1      39.363  22.930  26.783  1.00  0.00     0.060 A 
ATOM     32  C   UNL A   1      38.822  24.195  26.531  1.00  0.00     0.016 A 
ATOM     33  C   UNL A   1      40.450  22.785  27.647  1.00  0.00     0.016 A 
ATOM     34  C   UNL A   1      39.342  25.324  27.137  1.00  0.00     0.010 A 
ATOM     35  C   UNL A   1      41.017  23.930  28.217  1.00  0.00     0.010 A 
ATOM     36  C   UNL A   1      40.477  25.200  27.936  1.00  0.00    -0.014 A 
BRANCH  36  37
ATOM     37  C   UNL A   1      41.227  26.435  28.237  1.00  0.00     0.031 A 
ATOM     38  C   UNL A   1      40.520  27.501  29.023  1.00  0.00     0.074 A 
ATOM     39  C   UNL A   1      42.530  26.536  27.931  1.00  0.00     0.049 A 
ATOM     40  N   UNL A   1      40.898  28.718  29.303  1.00  0.00    -0.248 NA
ATOM     41  C   UNL A   1      39.203  27.136  29.572  1.00  0.00     0.031 C 
ATOM     42  C   UNL A   1      43.337  25.481  27.319  1.00  0.00     0.029 A 
ATOM     43  N   UNL A   1      43.405  27.574  28.107  1.00  0.00    -0.354 N 
ATOM     44  C   UNL A   1      39.848  29.280  30.021  1.00  0.00     0.074 A 
ATOM     45  C   UNL A   1      38.821  28.269  30.138  1.00  0.00     0.031 C 
ATOM     46  C   UNL A   1      44.593  25.934  27.158  1.00  0.00     0.029 A 
ATOM     47  C   UNL A   1      44.653  27.328  27.588  1.00  0.00     0.049 A 
ATOM     48  H   UNL A   1      43.165  28.414  28.560  1.00  0.00     0.167 HD
ATOM     49  C   UNL A   1      39.754  30.537  30.516  1.00  0.00     0.034 A 
ATOM     50  C   UNL A   1      45.699  28.162  27.429  1.00  0.00     0.034 A 
ATOM     51  C   UNL A   1      40.811  31.508  30.380  1.00  0.00     0.049 A 
ATOM     52  C   UNL A   1      45.535  29.592  27.884  1.00  0.00     0.074 A 
ATOM     53  C   UNL A   1      40.838  32.826  30.794  1.00  0.00     0.029 A 
ATOM     54  N   UNL A   1      42.038  31.254  29.774  1.00  0.00    -0.354 N 
ATOM     55  N   UNL A   1      44.503  30.159  28.472  1.00  0.00    -0.248 NA
ATOM     56  C   UNL A   1      46.664  30.496  27.644  1.00  0.00     0.031 C 
ATOM     57  C   UNL A   1      42.054  33.386  30.381  1.00  0.00     0.029 A 
ATOM     58  C   UNL A   1      42.819  32.398  29.779  1.00  0.00     0.049 A 
ATOM     59  H   UNL A   1      42.312  30.387  29.398  1.00  0.00     0.167 HD
ATOM     60  C   UNL A   1      44.870  31.483  28.691  1.00  0.00     0.074 A 
ATOM     61  C   UNL A   1      46.223  31.622  28.186  1.00  0.00     0.031 C 
ATOM     62  C   UNL A   1      44.162  32.496  29.256  1.00  0.00     0.034 A 
BRANCH  49  63
ATOM     63  C   UNL A   1      38.437  30.940  31.134  1.00  0.00     0.023 A 
ATOM     64  C   UNL A   1      37.386  31.493  30.380  1.00  0.00     0.031 A 
ATOM     65  C   UNL A   1      38.262  30.837  32.526  1.00  0.00     0.131 A 
ATOM     66  C   UNL A   1      36.244  31.991  31.031  1.00  0.00     0.055 A 
ATOM     67  C   UNL A   1      37.091  31.260  33.157  1.00  0.00     0.041 A 
ATOM     68  F   UNL A   1      39.241  30.348  33.304  1.00  0.00    -0.206 F 
ATOM     69  C   UNL A   1      36.079  31.855  32.411  1.00  0.00     0.022 A 
BRANCH  66  70
ATOM     70  S   UNL A   1      35.043  32.953  30.069  1.00  0.00     0.124 S 
ATOM     71  O   UNL A   1      34.096  33.360  31.105  1.00  0.00    -0.237 OA
ATOM     72  O   UNL A   1      35.867  34.014  29.504  1.00  0.00    -0.237 OA
ATOM     73  O   UNL A   1      34.522  31.987  29.104  1.00  0.00    -0.744 OA
ENDBRANCH  66  70
ENDBRANCH  49  63
BRANCH  50  74
ATOM     74  C   UNL A   1      46.941  27.705  26.742  1.00  0.00     0.023 A 
ATOM     75  C   UNL A   1      47.118  27.884  25.362  1.00  0.00     0.031 A 
ATOM     76  C   UNL A   1      47.958  27.041  27.454  1.00  0.00     0.131 A 
ATOM     77  C   UNL A   1      48.266  27.374  24.732  1.00  0.00     0.055 A 
ATOM     78  C   UNL A   1      49.121  26.584  26.833  1.00  0.00     0.041 A 
ATOM     79  F   UNL A   1      47.839  26.836  28.776  1.00  0.00    -0.206 F 
ATOM     80  C   UNL A   1      49.275  26.740  25.461  1.00  0.00     0.022 A 
BRANCH  77  81
ATOM     81  S   UNL A   1      48.388  27.484  22.925  1.00  0.00     0.124 S 
ATOM     82  O   UNL A   1      48.382  26.077  22.541  1.00  0.00    -0.237 OA
ATOM     83  O   UNL A   1      47.191  28.247  22.588  1.00  0.00    -0.237 OA
ATOM     84  O   UNL A   1      49.652  28.184  22.711  1.00  0.00    -0.744 OA
ENDBRANCH  77  81
ENDBRANCH  50  74
BRANCH  62  85
ATOM     85  C   UNL A   1      44.871  33.819  29.393  1.00  0.00     0.023 A 
ATOM     86  C   UNL A   1      44.880  34.763  28.353  1.00  0.00     0.031 A 
ATOM     87  C   UNL A   1      45.557  34.129  30.581  1.00  0.00     0.131 A 
ATOM     88  C   UNL A   1      45.611  35.950  28.497  1.00  0.00     0.055 A 
ATOM     89  C   UNL A   1      46.230  35.340  30.742  1.00  0.00     0.041 A 
ATOM     90  F   UNL A   1      45.579  33.260  31.604  1.00  0.00    -0.206 F 
ATOM     91  C   UNL A   1      46.271  36.252  29.691  1.00  0.00     0.022 A 
BRANCH  88  92
ATOM     92  S   UNL A   1      45.766  37.054  27.068  1.00  0.00     0.124 S 
ATOM     93  O   UNL A   1      46.187  36.133  26.017  1.00  0.00    -0.237 OA
ATOM     94  O   UNL A   1      44.415  37.593  26.940  1.00  0.00    -0.237 OA
ATOM     95  O   UNL A   1      46.780  38.019  27.489  1.00  0.00    -0.744 OA
ENDBRANCH  88  92
ENDBRANCH  62  85
ENDBRANCH  36  37
ENDBRANCH  29  31
ENDBRANCH  28  29
ENDBRANCH  27  28
ENDBRANCH   1  27
TORSDOF 21
ENDMDL
MODEL 2
REMARK VINA RESULT:      -9.7      1.536      2.248
REMARK SMILES CC(C)C[N@H+](CC[NH+](C)C)[C@@H]1CCC[C@]([NH3+])(C(=O)OCCOC(=O)c2ccc(-c3c4nc(c(-c5cc(S(=O)(=O)[O-])ccc5F)c5ccc([nH]5)c(-c5cc(S(=O)(=O)[O-])ccc5F)c5nc(c(-c6cc(S(=O)(=O)[O-])ccc6F)c6ccc3[nH]6)C=C5)C=C4)cc2)C1
REMARK SMILES IDX 20 1 19 2 17 3 18 4 15 5 11 6 12 7 88 8 13 9 14 10 5 11 4 13
REMARK SMILES IDX 2 14 1 15 3 16 6 17 7 18 8 19 9 20 10 21 16 23 21 27 22 28
REMARK SMILES IDX 23 29 24 30 25 31 26 32 87 33 27 34 86 35 28 36 29 37 30 38
REMARK SMILES IDX 80 39 31 40 85 41 79 42 81 43 32 44 84 45 78 46 77 47 33 49
REMARK SMILES IDX 65 50 45 51 64 52 46 53 49 54 63 55 82 56 47 57 48 58 62 60
REMARK SMILES IDX 83 61 50 62 34 63 35 64 43 65 36 66 42 67 44 68 41 69 37 70
REMARK SMILES IDX 38 71 39 72 40 73 66 74 67 75 75 76 68 77 74 78 76 79 73 80
REMARK SMILES IDX 69 81 70 82 71 83 72 84 51 85 52 86 60 87 53 88 59 89 61 90
REMARK SMILES IDX 58 91 54 92 55 93 56 94 57 95
REMARK H PARENT 5 12 8 22 16 24 16 25 16 26 81 48 49 59
REMARK Flexibility Score: inf
ROOT
ATOM      1  C   UNL A   1      35.806  22.772  24.603  1.00  0.00     0.274 C 
ENDROOT
BRANCH   1   2
ATOM      2  O   UNL A   1      34.475  23.000  25.117  1.00  0.00    -0.457 OA
BRANCH   2   3
ATOM      3  C   UNL A   1      33.502  23.314  24.222  1.00  0.00     0.368 C 
ATOM      4  O   UNL A   1      33.614  24.207  23.394  1.00  0.00    -0.245 OA
BRANCH   3   5
ATOM      5  C   UNL A   1      32.203  22.473  24.330  1.00  0.00     0.198 C 
ATOM      6  C   UNL A   1      30.588  24.381  25.179  1.00  0.00     0.191 C 
ATOM      7  C   UNL A   1      30.575  23.632  26.548  1.00  0.00     0.065 C 
ATOM      8  C   UNL A   1      30.928  23.317  24.111  1.00  0.00     0.145 C 
ATOM      9  C   UNL A   1      31.749  22.676  26.816  1.00  0.00     0.013 C 
ATOM     10  C   UNL A   1      32.061  21.725  25.655  1.00  0.00     0.081 C 
BRANCH   6  11
ATOM     11  N   UNL A   1      31.295  25.698  25.243  1.00  0.00    -0.327 N 
ATOM     12  H   UNL A   1      30.707  26.183  25.921  1.00  0.00     0.348 HD
BRANCH  11  13
ATOM     13  C   UNL A   1      31.288  26.400  23.934  1.00  0.00     0.265 C 
BRANCH  13  14
ATOM     14  C   UNL A   1      30.358  27.631  23.606  1.00  0.00     0.038 C 
ATOM     15  C   UNL A   1      30.654  28.532  22.401  1.00  0.00     0.013 C 
ATOM     16  C   UNL A   1      28.889  27.187  23.544  1.00  0.00     0.013 C 
ENDBRANCH  13  14
ENDBRANCH  11  13
BRANCH  11  17
ATOM     17  C   UNL A   1      32.607  25.792  25.895  1.00  0.00     0.324 C 
BRANCH  17  18
ATOM     18  C   UNL A   1      33.489  27.008  26.259  1.00  0.00     0.323 C 
BRANCH  18  19
ATOM     19  N   UNL A   1      32.783  28.295  26.332  1.00  0.00    -0.335 N 
ATOM     20  C   UNL A   1      31.898  28.275  27.505  1.00  0.00     0.332 C 
ATOM     21  C   UNL A   1      33.730  29.400  26.473  1.00  0.00     0.332 C 
ATOM     22  H   UNL A   1      32.250  28.432  25.473  1.00  0.00     0.347 HD
ENDBRANCH  18  19
ENDBRANCH  17  18
ENDBRANCH  11  17
ENDBRANCH   6  11
BRANCH   5  23
ATOM     23  N   UNL A   1      32.222  21.474  23.219  1.00  0.00    -0.343 N 
ATOM     24  H   UNL A   1      31.568  21.763  22.491  1.00  0.00     0.345 HD
ATOM     25  H   UNL A   1      31.947  20.560  23.578  1.00  0.00     0.345 HD
ATOM     26  H   UNL A   1      33.162  21.418  22.829  1.00  0.00     0.345 HD
ENDBRANCH   5  23
ENDBRANCH   3   5
ENDBRANCH   2   3
ENDBRANCH   1   2
BRANCH   1  27
ATOM     27  C   UNL A   1      36.675  21.762  25.359  1.00  0.00     0.275 C 
BRANCH  27  28
ATOM     28  O   UNL A   1      38.003  21.647  24.818  1.00  0.00    -0.458 OA
BRANCH  28  29
ATOM     29  C   UNL A   1      38.948  21.300  25.714  1.00  0.00     0.338 C 
ATOM     30  O   UNL A   1      39.465  20.185  25.840  1.00  0.00    -0.246 OA
BRANCH  29  31
ATOM     31  C   UNL A   1      39.414  22.476  26.457  1.00  0.00     0.060 A 
ATOM     32  C   UNL A   1      39.030  23.735  25.983  1.00  0.00     0.016 A 
ATOM     33  C   UNL A   1      40.309  22.364  27.522  1.00  0.00     0.016 A 
ATOM     34  C   UNL A   1      39.519  24.892  26.562  1.00  0.00     0.010 A 
ATOM     35  C   UNL A   1      40.852  23.530  28.073  1.00  0.00     0.010 A 
ATOM     36  C   UNL A   1      40.476  24.791  27.571  1.00  0.00    -0.014 A 
BRANCH  36  37
ATOM     37  C   UNL A   1      41.254  26.004  27.886  1.00  0.00     0.031 A 
ATOM     38  C   UNL A   1      40.582  27.065  28.708  1.00  0.00     0.074 A 
ATOM     39  C   UNL A   1      42.553  26.088  27.558  1.00  0.00     0.049 A 
ATOM     40  N   UNL A   1      40.988  28.268  29.008  1.00  0.00    -0.248 NA
ATOM     41  C   UNL A   1      39.268  26.713  29.272  1.00  0.00     0.031 C 
ATOM     42  C   UNL A   1      43.329  25.032  26.907  1.00  0.00     0.029 A 
ATOM     43  N   UNL A   1      43.451  27.105  27.740  1.00  0.00    -0.354 N 
ATOM     44  C   UNL A   1      39.962  28.833  29.757  1.00  0.00     0.074 A 
ATOM     45  C   UNL A   1      38.918  27.840  29.871  1.00  0.00     0.031 C 
ATOM     46  C   UNL A   1      44.590  25.465  26.734  1.00  0.00     0.029 A 
ATOM     47  C   UNL A   1      44.685  26.848  27.193  1.00  0.00     0.049 A 
ATOM     48  H   UNL A   1      43.235  27.939  28.216  1.00  0.00     0.167 HD
ATOM     49  C   UNL A   1      39.901  30.081  30.282  1.00  0.00     0.034 A 
ATOM     50  C   UNL A   1      45.743  27.665  27.034  1.00  0.00     0.034 A 
ATOM     51  C   UNL A   1      40.973  31.034  30.148  1.00  0.00     0.049 A 
ATOM     52  C   UNL A   1      45.614  29.088  27.524  1.00  0.00     0.074 A 
ATOM     53  C   UNL A   1      41.033  32.342  30.591  1.00  0.00     0.029 A 
ATOM     54  N   UNL A   1      42.184  30.772  29.514  1.00  0.00    -0.354 N 
ATOM     55  N   UNL A   1      44.604  29.660  28.143  1.00  0.00    -0.248 NA
ATOM     56  C   UNL A   1      46.756  29.976  27.283  1.00  0.00     0.031 C 
ATOM     57  C   UNL A   1      42.251  32.889  30.168  1.00  0.00     0.029 A 
ATOM     58  C   UNL A   1      42.986  31.900  29.530  1.00  0.00     0.049 A 
ATOM     59  H   UNL A   1      42.435  29.909  29.114  1.00  0.00     0.167 HD
ATOM     60  C   UNL A   1      45.000  30.973  28.384  1.00  0.00     0.074 A 
ATOM     61  C   UNL A   1      46.346  31.097  27.857  1.00  0.00     0.031 C 
ATOM     62  C   UNL A   1      44.322  31.986  28.984  1.00  0.00     0.034 A 
BRANCH  49  63
ATOM     63  C   UNL A   1      38.603  30.494  30.933  1.00  0.00     0.023 A 
ATOM     64  C   UNL A   1      37.552  31.091  30.212  1.00  0.00     0.031 A 
ATOM     65  C   UNL A   1      38.448  30.355  32.324  1.00  0.00     0.131 A 
ATOM     66  C   UNL A   1      36.432  31.594  30.896  1.00  0.00     0.055 A 
ATOM     67  C   UNL A   1      37.297  30.784  32.986  1.00  0.00     0.041 A 
ATOM     68  F   UNL A   1      39.428  29.823  33.071  1.00  0.00    -0.206 F 
ATOM     69  C   UNL A   1      36.287  31.422  32.274  1.00  0.00     0.022 A 
BRANCH  66  70
ATOM     70  S   UNL A   1      35.237  32.609  29.982  1.00  0.00     0.124 S 
ATOM     71  O   UNL A   1      34.813  31.689  28.929  1.00  0.00    -0.237 OA
ATOM     72  O   UNL A   1      34.241  32.918  31.000  1.00  0.00    -0.237 OA
ATOM     73  O   UNL A   1      36.033  33.746  29.522  1.00  0.00    -0.744 OA
ENDBRANCH  66  70
ENDBRANCH  49  63
BRANCH  50  74
ATOM     74  C   UNL A   1      46.964  27.202  26.314  1.00  0.00     0.023 A 
ATOM     75  C   UNL A   1      48.014  26.566  26.995  1.00  0.00     0.031 A 
ATOM     76  C   UNL A   1      47.118  27.426  24.933  1.00  0.00     0.131 A 
ATOM     77  C   UNL A   1      49.183  26.209  26.302  1.00  0.00     0.055 A 
ATOM     78  C   UNL A   1      48.258  27.022  24.239  1.00  0.00     0.041 A 
ATOM     79  F   UNL A   1      46.149  28.036  24.232  1.00  0.00    -0.206 F 
ATOM     80  C   UNL A   1      49.305  26.420  24.926  1.00  0.00     0.022 A 
BRANCH  77  81
ATOM     81  S   UNL A   1      50.580  25.534  27.242  1.00  0.00     0.124 S 
ATOM     82  O   UNL A   1      51.643  25.545  26.243  1.00  0.00    -0.237 OA
ATOM     83  O   UNL A   1      50.709  26.501  28.327  1.00  0.00    -0.237 OA
ATOM     84  O   UNL A   1      50.112  24.209  27.642  1.00  0.00    -0.744 OA
ENDBRANCH  77  81
ENDBRANCH  50  74
BRANCH  62  85
ATOM     85  C   UNL A   1      45.058  33.291  29.138  1.00  0.00     0.023 A 
ATOM     86  C   UNL A   1      45.130  34.225  28.091  1.00  0.00     0.031 A 
ATOM     87  C   UNL A   1      45.705  33.595  30.348  1.00  0.00     0.131 A 
ATOM     88  C   UNL A   1      45.885  35.395  28.253  1.00  0.00     0.055 A 
ATOM     89  C   UNL A   1      46.402  34.790  30.525  1.00  0.00     0.041 A 
ATOM     90  F   UNL A   1      45.667  32.735  31.379  1.00  0.00    -0.206 F 
ATOM     91  C   UNL A   1      46.507  35.692  29.470  1.00  0.00     0.022 A 
BRANCH  88  92
ATOM     92  S   UNL A   1      46.122  36.482  26.822  1.00  0.00     0.124 S 
ATOM     93  O   UNL A   1      47.441  37.047  27.086  1.00  0.00    -0.237 OA
ATOM     94  O   UNL A   1      46.041  35.548  25.703  1.00  0.00    -0.237 OA
ATOM     95  O   UNL A   1      45.011  37.426  26.921  1.00  0.00    -0.744 OA
ENDBRANCH  88  92
ENDBRANCH  62  85
ENDBRANCH  36  37
ENDBRANCH  29  31
ENDBRANCH  28  29
ENDBRANCH  27  28
ENDBRANCH   1  27
TORSDOF 21
ENDMDL
MODEL 3
REMARK VINA RESULT:      -9.0      8.927     13.323
REMARK SMILES CC(C)C[N@H+](CC[NH+](C)C)[C@@H]1CCC[C@]([NH3+])(C(=O)OCCOC(=O)c2ccc(-c3c4nc(c(-c5cc(S(=O)(=O)[O-])ccc5F)c5ccc([nH]5)c(-c5cc(S(=O)(=O)[O-])ccc5F)c5nc(c(-c6cc(S(=O)(=O)[O-])ccc6F)c6ccc3[nH]6)C=C5)C=C4)cc2)C1
REMARK SMILES IDX 20 1 19 2 17 3 18 4 15 5 11 6 12 7 88 8 13 9 14 10 5 11 4 13
REMARK SMILES IDX 2 14 1 15 3 16 6 17 7 18 8 19 9 20 10 21 16 23 21 27 22 28
REMARK SMILES IDX 23 29 24 30 25 31 26 32 87 33 27 34 86 35 28 36 29 37 30 38
REMARK SMILES IDX 80 39 31 40 85 41 79 42 81 43 32 44 84 45 78 46 77 47 33 49
REMARK SMILES IDX 65 50 45 51 64 52 46 53 49 54 63 55 82 56 47 57 48 58 62 60
REMARK SMILES IDX 83 61 50 62 34 63 35 64 43 65 36 66 42 67 44 68 41 69 37 70
REMARK SMILES IDX 38 71 39 72 40 73 66 74 67 75 75 76 68 77 74 78 76 79 73 80
REMARK SMILES IDX 69 81 70 82 71 83 72 84 51 85 52 86 60 87 53 88 59 89 61 90
REMARK SMILES IDX 58 91 54 92 55 93 56 94 57 95
REMARK H PARENT 5 12 8 22 16 24 16 25 16 26 81 48 49 59
REMARK Flexibility Score: inf
ROOT
ATOM      1  C   UNL A   1      46.719  22.775  38.747  1.00  0.00     0.274 C 
ENDROOT
BRANCH   1   2
ATOM      2  O   UNL A   1      46.031  21.532  38.483  1.00  0.00    -0.457 OA
BRANCH   2   3
ATOM      3  C   UNL A   1      46.220  20.511  39.359  1.00  0.00     0.368 C 
ATOM      4  O   UNL A   1      45.921  20.577  40.542  1.00  0.00    -0.245 OA
BRANCH   3   5
ATOM      5  C   UNL A   1      46.875  19.237  38.764  1.00  0.00     0.198 C 
ATOM      6  C   UNL A   1      46.341  17.577  40.745  1.00  0.00     0.191 C 
ATOM      7  C   UNL A   1      47.873  17.597  41.051  1.00  0.00     0.065 C 
ATOM      8  C   UNL A   1      46.198  17.937  39.250  1.00  0.00     0.145 C 
ATOM      9  C   UNL A   1      48.661  18.800  40.509  1.00  0.00     0.013 C 
ATOM     10  C   UNL A   1      48.374  19.128  39.039  1.00  0.00     0.081 C 
BRANCH   6  11
ATOM     11  N   UNL A   1      45.528  18.247  41.807  1.00  0.00    -0.327 N 
ATOM     12  H   UNL A   1      45.201  19.065  41.292  1.00  0.00     0.348 HD
BRANCH  11  13
ATOM     13  C   UNL A   1      46.353  18.647  42.975  1.00  0.00     0.265 C 
BRANCH  13  14
ATOM     14  C   UNL A   1      46.087  18.147  44.447  1.00  0.00     0.038 C 
ATOM     15  C   UNL A   1      46.563  16.759  44.895  1.00  0.00     0.013 C 
ATOM     16  C   UNL A   1      46.578  19.191  45.461  1.00  0.00     0.013 C 
ENDBRANCH  13  14
ENDBRANCH  11  13
BRANCH  11  17
ATOM     17  C   UNL A   1      44.250  17.658  42.230  1.00  0.00     0.324 C 
BRANCH  17  18
ATOM     18  C   UNL A   1      43.757  16.194  42.272  1.00  0.00     0.323 C 
BRANCH  18  19
ATOM     19  N   UNL A   1      42.357  15.992  41.873  1.00  0.00    -0.335 N 
ATOM     20  C   UNL A   1      42.338  15.376  40.538  1.00  0.00     0.332 C 
ATOM     21  C   UNL A   1      41.672  15.105  42.812  1.00  0.00     0.332 C 
ATOM     22  H   UNL A   1      41.878  16.892  41.868  1.00  0.00     0.347 HD
ENDBRANCH  18  19
ENDBRANCH  17  18
ENDBRANCH  11  17
ENDBRANCH   6  11
BRANCH   5  23
ATOM     23  N   UNL A   1      46.664  19.274  37.284  1.00  0.00    -0.343 N 
ATOM     24  H   UNL A   1      46.405  18.344  36.955  1.00  0.00     0.345 HD
ATOM     25  H   UNL A   1      47.525  19.569  36.825  1.00  0.00     0.345 HD
ATOM     26  H   UNL A   1      45.918  19.932  37.065  1.00  0.00     0.345 HD
ENDBRANCH   5  23
ENDBRANCH   3   5
ENDBRANCH   2   3
ENDBRANCH   1   2
BRANCH   1  27
ATOM     27  C   UNL A   1      47.233  23.551  37.531  1.00  0.00     0.275 C 
BRANCH  27  28
ATOM     28  O   UNL A   1      46.218  24.362  36.913  1.00  0.00    -0.458 OA
BRANCH  28  29
ATOM     29  C   UNL A   1      46.643  25.093  35.863  1.00  0.00     0.338 C 
ATOM     30  O   UNL A   1      47.701  24.940  35.243  1.00  0.00    -0.246 OA
BRANCH  29  31
ATOM     31  C   UNL A   1      45.603  26.034  35.433  1.00  0.00     0.060 A 
ATOM     32  C   UNL A   1      44.293  25.553  35.336  1.00  0.00     0.016 A 
ATOM     33  C   UNL A   1      45.913  27.328  35.011  1.00  0.00     0.016 A 
ATOM     34  C   UNL A   1      43.279  26.347  34.833  1.00  0.00     0.010 A 
ATOM     35  C   UNL A   1      44.903  28.115  34.447  1.00  0.00     0.010 A 
ATOM     36  C   UNL A   1      43.593  27.610  34.334  1.00  0.00    -0.014 A 
BRANCH  36  37
ATOM     37  C   UNL A   1      42.595  28.258  33.463  1.00  0.00     0.031 A 
ATOM     38  C   UNL A   1      41.738  29.330  34.069  1.00  0.00     0.074 A 
ATOM     39  C   UNL A   1      42.553  27.986  32.149  1.00  0.00     0.049 A 
ATOM     40  N   UNL A   1      40.708  29.956  33.568  1.00  0.00    -0.248 NA
ATOM     41  C   UNL A   1      42.100  29.756  35.431  1.00  0.00     0.031 C 
ATOM     42  C   UNL A   1      43.463  27.081  31.445  1.00  0.00     0.029 A 
ATOM     43  N   UNL A   1      41.718  28.454  31.171  1.00  0.00    -0.354 N 
ATOM     44  C   UNL A   1      40.270  30.817  34.569  1.00  0.00     0.074 A 
ATOM     45  C   UNL A   1      41.150  30.637  35.703  1.00  0.00     0.031 C 
ATOM     46  C   UNL A   1      43.125  27.052  30.144  1.00  0.00     0.029 A 
ATOM     47  C   UNL A   1      41.937  27.876  29.944  1.00  0.00     0.049 A 
ATOM     48  H   UNL A   1      41.028  29.138  31.330  1.00  0.00     0.167 HD
ATOM     49  C   UNL A   1      39.214  31.664  34.539  1.00  0.00     0.034 A 
ATOM     50  C   UNL A   1      41.215  27.964  28.810  1.00  0.00     0.034 A 
ATOM     51  C   UNL A   1      38.370  31.814  33.380  1.00  0.00     0.049 A 
ATOM     52  C   UNL A   1      39.974  28.825  28.830  1.00  0.00     0.074 A 
ATOM     53  C   UNL A   1      37.245  32.601  33.220  1.00  0.00     0.029 A 
ATOM     54  N   UNL A   1      38.568  31.151  32.172  1.00  0.00    -0.354 N 
ATOM     55  N   UNL A   1      39.496  29.562  29.808  1.00  0.00    -0.248 NA
ATOM     56  C   UNL A   1      39.171  28.855  27.603  1.00  0.00     0.031 C 
ATOM     57  C   UNL A   1      36.727  32.363  31.941  1.00  0.00     0.029 A 
ATOM     58  C   UNL A   1      37.571  31.488  31.272  1.00  0.00     0.049 A 
ATOM     59  H   UNL A   1      39.310  30.531  31.984  1.00  0.00     0.167 HD
ATOM     60  C   UNL A   1      38.345  30.162  29.305  1.00  0.00     0.074 A 
ATOM     61  C   UNL A   1      38.215  29.710  27.933  1.00  0.00     0.031 C 
ATOM     62  C   UNL A   1      37.472  31.007  29.913  1.00  0.00     0.034 A 
BRANCH  49  63
ATOM     63  C   UNL A   1      38.868  32.384  35.820  1.00  0.00     0.023 A 
ATOM     64  C   UNL A   1      39.294  33.698  36.087  1.00  0.00     0.031 A 
ATOM     65  C   UNL A   1      38.159  31.707  36.828  1.00  0.00     0.131 A 
ATOM     66  C   UNL A   1      39.074  34.260  37.355  1.00  0.00     0.055 A 
ATOM     67  C   UNL A   1      37.874  32.301  38.059  1.00  0.00     0.041 A 
ATOM     68  F   UNL A   1      37.755  30.439  36.646  1.00  0.00    -0.206 F 
ATOM     69  C   UNL A   1      38.346  33.580  38.334  1.00  0.00     0.022 A 
BRANCH  66  70
ATOM     70  S   UNL A   1      39.883  35.833  37.764  1.00  0.00     0.124 S 
ATOM     71  O   UNL A   1      39.077  36.294  38.892  1.00  0.00    -0.237 OA
ATOM     72  O   UNL A   1      41.244  35.418  38.077  1.00  0.00    -0.237 OA
ATOM     73  O   UNL A   1      39.737  36.622  36.541  1.00  0.00    -0.744 OA
ENDBRANCH  66  70
ENDBRANCH  49  63
BRANCH  50  74
ATOM     74  C   UNL A   1      41.583  27.163  27.607  1.00  0.00     0.023 A 
ATOM     75  C   UNL A   1      41.400  25.771  27.575  1.00  0.00     0.031 A 
ATOM     76  C   UNL A   1      42.165  27.775  26.482  1.00  0.00     0.131 A 
ATOM     77  C   UNL A   1      41.828  25.036  26.457  1.00  0.00     0.055 A 
ATOM     78  C   UNL A   1      42.539  27.046  25.352  1.00  0.00     0.041 A 
ATOM     79  F   UNL A   1      42.370  29.102  26.460  1.00  0.00    -0.206 F 
ATOM     80  C   UNL A   1      42.382  25.666  25.340  1.00  0.00     0.022 A 
BRANCH  77  81
ATOM     81  S   UNL A   1      41.721  23.226  26.514  1.00  0.00     0.124 S 
ATOM     82  O   UNL A   1      42.484  22.845  25.331  1.00  0.00    -0.237 OA
ATOM     83  O   UNL A   1      42.341  22.927  27.801  1.00  0.00    -0.237 OA
ATOM     84  O   UNL A   1      40.285  22.967  26.441  1.00  0.00    -0.744 OA
ENDBRANCH  77  81
ENDBRANCH  50  74
BRANCH  62  85
ATOM     85  C   UNL A   1      36.337  31.526  29.069  1.00  0.00     0.023 A 
ATOM     86  C   UNL A   1      35.319  30.679  28.602  1.00  0.00     0.031 A 
ATOM     87  C   UNL A   1      36.285  32.887  28.719  1.00  0.00     0.131 A 
ATOM     88  C   UNL A   1      34.320  31.189  27.761  1.00  0.00     0.055 A 
ATOM     89  C   UNL A   1      35.255  33.401  27.933  1.00  0.00     0.041 A 
ATOM     90  F   UNL A   1      37.236  33.737  29.140  1.00  0.00    -0.206 F 
ATOM     91  C   UNL A   1      34.272  32.549  27.438  1.00  0.00     0.022 A 
BRANCH  88  92
ATOM     92  S   UNL A   1      33.137  30.036  27.016  1.00  0.00     0.124 S 
ATOM     93  O   UNL A   1      33.760  29.752  25.728  1.00  0.00    -0.237 OA
ATOM     94  O   UNL A   1      33.127  28.935  27.975  1.00  0.00    -0.237 OA
ATOM     95  O   UNL A   1      31.899  30.810  26.949  1.00  0.00    -0.744 OA
ENDBRANCH  88  92
ENDBRANCH  62  85
ENDBRANCH  36  37
ENDBRANCH  29  31
ENDBRANCH  28  29
ENDBRANCH  27  28
ENDBRANCH   1  27
TORSDOF 21
ENDMDL
