MODEL 1
REMARK VINA RESULT:     -13.2      0.000      0.000
REMARK SMILES C[C@@H](C(=O)OCCOC(=O)c1ccc(-c2c3nc(c(-c4cc(S(=O)(=O)[O-])ccc4F)c4ccc([nH]4)c(-c4cc(S(=O)(=O)[O-])ccc4F)c4nc(c(-c5cc(S(=O)(=O)[O-])ccc5F)c5ccc2[nH]5)C=C4)C=C3)cc1)c1ccc2c3cc(Cl)ccc3n(C(=O)c3cocn3)c2c1
REMARK SMILES IDX 6 1 5 2 3 3 4 4 2 5 1 6 74 7 75 8 94 9 76 10 93 11 77 12
REMARK SMILES IDX 85 13 78 14 84 15 79 16 83 17 80 18 82 19 81 20 86 21 87 22
REMARK SMILES IDX 88 23 89 24 92 25 90 26 91 27 7 28 8 29 9 30 10 31 11 32
REMARK SMILES IDX 12 33 73 34 13 35 72 36 14 37 15 38 16 39 66 40 17 41 71 42
REMARK SMILES IDX 65 43 67 44 18 45 70 46 64 47 63 48 19 50 51 51 31 52 50 53
REMARK SMILES IDX 32 54 35 55 49 56 68 57 33 58 34 59 48 61 69 62 36 63 20 64
REMARK SMILES IDX 21 65 29 66 22 67 28 68 30 69 27 70 23 71 24 72 25 73 26 74
REMARK SMILES IDX 52 75 53 76 61 77 54 78 60 79 62 80 59 81 55 82 56 83 57 84
REMARK SMILES IDX 58 85 37 86 38 87 46 88 39 89 45 90 47 91 44 92 40 93 41 94
REMARK SMILES IDX 42 95 43 96
REMARK H PARENT 67 49 35 60
REMARK Flexibility Score: inf
ROOT
ATOM      1  C   UNL A   1      34.701  20.693  25.426  1.00  0.00     0.274 C 
ENDROOT
BRANCH   1   2
ATOM      2  O   UNL A   1      33.865  20.983  24.288  1.00  0.00    -0.462 OA
BRANCH   2   3
ATOM      3  C   UNL A   1      32.554  21.256  24.546  1.00  0.00     0.313 C 
ATOM      4  O   UNL A   1      31.878  20.626  25.352  1.00  0.00    -0.252 OA
BRANCH   3   5
ATOM      5  C   UNL A   1      32.001  22.388  23.659  1.00  0.00     0.126 C 
ATOM      6  C   UNL A   1      32.529  22.307  22.219  1.00  0.00     0.025 C 
BRANCH   5   7
ATOM      7  C   UNL A   1      32.172  23.766  24.314  1.00  0.00    -0.032 A 
ATOM      8  C   UNL A   1      32.975  23.894  25.451  1.00  0.00     0.005 A 
ATOM      9  C   UNL A   1      31.567  24.926  23.795  1.00  0.00     0.032 A 
ATOM     10  C   UNL A   1      33.227  25.145  26.026  1.00  0.00     0.011 A 
ATOM     11  C   UNL A   1      31.782  26.193  24.396  1.00  0.00     0.058 A 
ATOM     12  C   UNL A   1      32.638  26.308  25.487  1.00  0.00     0.008 A 
ATOM     13  N   UNL A   1      31.283  27.481  24.078  1.00  0.00    -0.274 N 
ATOM     14  C   UNL A   1      32.759  27.687  25.796  1.00  0.00     0.009 A 
ATOM     15  C   UNL A   1      31.857  28.395  24.988  1.00  0.00     0.057 A 
ATOM     16  C   UNL A   1      33.567  28.376  26.732  1.00  0.00     0.031 A 
ATOM     17  C   UNL A   1      31.678  29.777  25.217  1.00  0.00     0.029 A 
ATOM     18  C   UNL A   1      33.451  29.755  26.865  1.00  0.00     0.041 A 
ATOM     19  C   UNL A   1      32.507  30.447  26.128  1.00  0.00     0.023 A 
ATOM     20  Cl  UNL A   1      34.443  30.590  27.995  1.00  0.00    -0.084 Cl
BRANCH  13  21
ATOM     21  C   UNL A   1      30.344  27.721  23.019  1.00  0.00     0.284 C 
ATOM     22  O   UNL A   1      30.728  27.432  21.885  1.00  0.00    -0.266 OA
BRANCH  21  23
ATOM     23  C   UNL A   1      28.996  28.256  23.146  1.00  0.00     0.167 A 
ATOM     24  C   UNL A   1      28.508  29.477  22.754  1.00  0.00     0.231 A 
ATOM     25  N   UNL A   1      27.928  27.473  23.579  1.00  0.00    -0.211 NA
ATOM     26  O   UNL A   1      27.173  29.505  22.987  1.00  0.00    -0.451 OA
ATOM     27  C   UNL A   1      26.882  28.261  23.442  1.00  0.00     0.308 A 
ENDBRANCH  21  23
ENDBRANCH  13  21
ENDBRANCH   5   7
ENDBRANCH   3   5
ENDBRANCH   2   3
ENDBRANCH   1   2
BRANCH   1  28
ATOM     28  C   UNL A   1      36.153  20.548  24.986  1.00  0.00     0.275 C 
BRANCH  28  29
ATOM     29  O   UNL A   1      36.936  21.589  25.592  1.00  0.00    -0.458 OA
BRANCH  29  30
ATOM     30  C   UNL A   1      38.257  21.336  25.727  1.00  0.00     0.338 C 
ATOM     31  O   UNL A   1      38.845  20.300  25.451  1.00  0.00    -0.246 OA
BRANCH  30  32
ATOM     32  C   UNL A   1      38.919  22.517  26.300  1.00  0.00     0.060 A 
ATOM     33  C   UNL A   1      38.383  23.781  26.081  1.00  0.00     0.016 A 
ATOM     34  C   UNL A   1      40.126  22.377  26.985  1.00  0.00     0.016 A 
ATOM     35  C   UNL A   1      39.101  24.911  26.467  1.00  0.00     0.010 A 
ATOM     36  C   UNL A   1      40.799  23.517  27.447  1.00  0.00     0.010 A 
ATOM     37  C   UNL A   1      40.322  24.805  27.148  1.00  0.00    -0.014 A 
BRANCH  37  38
ATOM     38  C   UNL A   1      41.111  26.036  27.470  1.00  0.00     0.031 A 
ATOM     39  C   UNL A   1      40.546  27.076  28.412  1.00  0.00     0.074 A 
ATOM     40  C   UNL A   1      42.352  26.209  26.968  1.00  0.00     0.049 A 
ATOM     41  N   UNL A   1      41.039  28.237  28.765  1.00  0.00    -0.248 NA
ATOM     42  C   UNL A   1      39.247  26.775  29.037  1.00  0.00     0.031 C 
ATOM     43  C   UNL A   1      43.047  25.267  26.088  1.00  0.00     0.029 A 
ATOM     44  N   UNL A   1      43.266  27.221  27.143  1.00  0.00    -0.354 N 
ATOM     45  C   UNL A   1      40.092  28.826  29.597  1.00  0.00     0.074 A 
ATOM     46  C   UNL A   1      38.987  27.898  29.691  1.00  0.00     0.031 C 
ATOM     47  C   UNL A   1      44.294  25.706  25.864  1.00  0.00     0.029 A 
ATOM     48  C   UNL A   1      44.463  27.010  26.495  1.00  0.00     0.049 A 
ATOM     49  H   UNL A   1      43.082  28.024  27.683  1.00  0.00     0.167 HD
ATOM     50  C   UNL A   1      40.134  30.029  30.223  1.00  0.00     0.034 A 
ATOM     51  C   UNL A   1      45.562  27.785  26.390  1.00  0.00     0.034 A 
ATOM     52  C   UNL A   1      41.238  30.953  30.119  1.00  0.00     0.049 A 
ATOM     53  C   UNL A   1      45.554  29.147  27.037  1.00  0.00     0.074 A 
ATOM     54  C   UNL A   1      41.365  32.208  30.689  1.00  0.00     0.029 A 
ATOM     55  N   UNL A   1      42.398  30.732  29.388  1.00  0.00    -0.354 N 
ATOM     56  N   UNL A   1      44.623  29.706  27.777  1.00  0.00    -0.248 NA
ATOM     57  C   UNL A   1      46.732  29.994  26.809  1.00  0.00     0.031 C 
ATOM     58  C   UNL A   1      42.568  32.773  30.248  1.00  0.00     0.029 A 
ATOM     59  C   UNL A   1      43.228  31.842  29.463  1.00  0.00     0.049 A 
ATOM     60  H   UNL A   1      42.602  29.909  28.888  1.00  0.00     0.167 HD
ATOM     61  C   UNL A   1      45.113  30.966  28.109  1.00  0.00     0.074 A 
ATOM     62  C   UNL A   1      46.428  31.074  27.512  1.00  0.00     0.031 C 
ATOM     63  C   UNL A   1      44.524  31.951  28.835  1.00  0.00     0.034 A 
BRANCH  50  64
ATOM     64  C   UNL A   1      38.904  30.456  30.991  1.00  0.00     0.023 A 
ATOM     65  C   UNL A   1      37.950  31.347  30.467  1.00  0.00     0.031 A 
ATOM     66  C   UNL A   1      38.702  29.967  32.296  1.00  0.00     0.131 A 
ATOM     67  C   UNL A   1      36.877  31.773  31.267  1.00  0.00     0.055 A 
ATOM     68  C   UNL A   1      37.594  30.336  33.059  1.00  0.00     0.041 A 
ATOM     69  F   UNL A   1      39.589  29.128  32.855  1.00  0.00    -0.206 F 
ATOM     70  C   UNL A   1      36.680  31.252  32.550  1.00  0.00     0.022 A 
BRANCH  67  71
ATOM     71  S   UNL A   1      35.766  33.077  30.662  1.00  0.00     0.124 S 
ATOM     72  O   UNL A   1      36.089  34.183  31.559  1.00  0.00    -0.237 OA
ATOM     73  O   UNL A   1      36.175  33.247  29.272  1.00  0.00    -0.237 OA
ATOM     74  O   UNL A   1      34.434  32.504  30.846  1.00  0.00    -0.744 OA
ENDBRANCH  67  71
ENDBRANCH  50  64
BRANCH  51  75
ATOM     75  C   UNL A   1      46.745  27.328  25.600  1.00  0.00     0.023 A 
ATOM     76  C   UNL A   1      46.963  27.791  24.291  1.00  0.00     0.031 A 
ATOM     77  C   UNL A   1      47.653  26.390  26.123  1.00  0.00     0.131 A 
ATOM     78  C   UNL A   1      48.043  27.293  23.543  1.00  0.00     0.055 A 
ATOM     79  C   UNL A   1      48.759  25.945  25.398  1.00  0.00     0.041 A 
ATOM     80  F   UNL A   1      47.489  25.902  27.363  1.00  0.00    -0.206 F 
ATOM     81  C   UNL A   1      48.952  26.387  24.094  1.00  0.00     0.022 A 
BRANCH  78  82
ATOM     82  S   UNL A   1      48.196  27.779  21.800  1.00  0.00     0.124 S 
ATOM     83  O   UNL A   1      48.403  26.491  21.148  1.00  0.00    -0.237 OA
ATOM     84  O   UNL A   1      46.914  28.429  21.553  1.00  0.00    -0.237 OA
ATOM     85  O   UNL A   1      49.354  28.671  21.798  1.00  0.00    -0.744 OA
ENDBRANCH  78  82
ENDBRANCH  51  75
BRANCH  63  86
ATOM     86  C   UNL A   1      45.310  33.225  29.023  1.00  0.00     0.023 A 
ATOM     87  C   UNL A   1      45.193  34.302  28.125  1.00  0.00     0.031 A 
ATOM     88  C   UNL A   1      46.199  33.359  30.105  1.00  0.00     0.131 A 
ATOM     89  C   UNL A   1      45.988  35.444  28.295  1.00  0.00     0.055 A 
ATOM     90  C   UNL A   1      46.947  34.520  30.300  1.00  0.00     0.041 A 
ATOM     91  F   UNL A   1      46.350  32.362  30.991  1.00  0.00    -0.206 F 
ATOM     92  C   UNL A   1      46.855  35.566  29.386  1.00  0.00     0.022 A 
BRANCH  89  93
ATOM     93  S   UNL A   1      45.937  36.742  27.028  1.00  0.00     0.124 S 
ATOM     94  O   UNL A   1      46.766  37.784  27.625  1.00  0.00    -0.237 OA
ATOM     95  O   UNL A   1      46.502  36.065  25.865  1.00  0.00    -0.237 OA
ATOM     96  O   UNL A   1      44.515  37.065  26.925  1.00  0.00    -0.744 OA
ENDBRANCH  89  93
ENDBRANCH  63  86
ENDBRANCH  37  38
ENDBRANCH  30  32
ENDBRANCH  29  30
ENDBRANCH  28  29
ENDBRANCH   1  28
TORSDOF 17
ENDMDL
MODEL 2
REMARK VINA RESULT:     -13.0      5.059     10.386
REMARK SMILES C[C@@H](C(=O)OCCOC(=O)c1ccc(-c2c3nc(c(-c4cc(S(=O)(=O)[O-])ccc4F)c4ccc([nH]4)c(-c4cc(S(=O)(=O)[O-])ccc4F)c4nc(c(-c5cc(S(=O)(=O)[O-])ccc5F)c5ccc2[nH]5)C=C4)C=C3)cc1)c1ccc2c3cc(Cl)ccc3n(C(=O)c3cocn3)c2c1
REMARK SMILES IDX 6 1 5 2 3 3 4 4 2 5 1 6 74 7 75 8 94 9 76 10 93 11 77 12
REMARK SMILES IDX 85 13 78 14 84 15 79 16 83 17 80 18 82 19 81 20 86 21 87 22
REMARK SMILES IDX 88 23 89 24 92 25 90 26 91 27 7 28 8 29 9 30 10 31 11 32
REMARK SMILES IDX 12 33 73 34 13 35 72 36 14 37 15 38 16 39 66 40 17 41 71 42
REMARK SMILES IDX 65 43 67 44 18 45 70 46 64 47 63 48 19 50 51 51 31 52 50 53
REMARK SMILES IDX 32 54 35 55 49 56 68 57 33 58 34 59 48 61 69 62 36 63 20 64
REMARK SMILES IDX 21 65 29 66 22 67 28 68 30 69 27 70 23 71 24 72 25 73 26 74
REMARK SMILES IDX 52 75 53 76 61 77 54 78 60 79 62 80 59 81 55 82 56 83 57 84
REMARK SMILES IDX 58 85 37 86 38 87 46 88 39 89 45 90 47 91 44 92 40 93 41 94
REMARK SMILES IDX 42 95 43 96
REMARK H PARENT 67 49 35 60
REMARK Flexibility Score: inf
ROOT
ATOM      1  C   UNL A   1      31.117  29.624  24.249  1.00  0.00     0.274 C 
ENDROOT
BRANCH   1   2
ATOM      2  O   UNL A   1      30.107  28.613  24.056  1.00  0.00    -0.462 OA
BRANCH   2   3
ATOM      3  C   UNL A   1      30.399  27.618  23.170  1.00  0.00     0.313 C 
ATOM      4  O   UNL A   1      30.637  27.816  21.984  1.00  0.00    -0.252 OA
BRANCH   3   5
ATOM      5  C   UNL A   1      30.322  26.218  23.809  1.00  0.00     0.126 C 
ATOM      6  C   UNL A   1      29.390  26.188  25.028  1.00  0.00     0.025 C 
BRANCH   5   7
ATOM      7  C   UNL A   1      31.716  25.628  24.070  1.00  0.00    -0.032 A 
ATOM      8  C   UNL A   1      32.749  26.465  24.504  1.00  0.00     0.005 A 
ATOM      9  C   UNL A   1      31.994  24.258  23.913  1.00  0.00     0.032 A 
ATOM     10  C   UNL A   1      34.008  25.953  24.836  1.00  0.00     0.011 A 
ATOM     11  C   UNL A   1      33.281  23.736  24.206  1.00  0.00     0.058 A 
ATOM     12  C   UNL A   1      34.274  24.574  24.701  1.00  0.00     0.008 A 
ATOM     13  N   UNL A   1      33.805  22.421  24.116  1.00  0.00    -0.274 N 
ATOM     14  C   UNL A   1      35.398  23.770  25.019  1.00  0.00     0.009 A 
ATOM     15  C   UNL A   1      35.139  22.464  24.575  1.00  0.00     0.057 A 
ATOM     16  C   UNL A   1      36.633  24.077  25.639  1.00  0.00     0.031 A 
ATOM     17  C   UNL A   1      36.174  21.505  24.639  1.00  0.00     0.029 A 
ATOM     18  C   UNL A   1      37.599  23.089  25.789  1.00  0.00     0.041 A 
ATOM     19  C   UNL A   1      37.380  21.821  25.281  1.00  0.00     0.023 A 
ATOM     20  Cl  UNL A   1      39.093  23.464  26.553  1.00  0.00    -0.084 Cl
BRANCH  13  21
ATOM     21  C   UNL A   1      33.053  21.308  23.612  1.00  0.00     0.284 C 
ATOM     22  O   UNL A   1      32.522  21.471  22.512  1.00  0.00    -0.266 OA
BRANCH  21  23
ATOM     23  C   UNL A   1      32.861  20.016  24.254  1.00  0.00     0.167 A 
ATOM     24  C   UNL A   1      32.896  19.697  25.588  1.00  0.00     0.231 A 
ATOM     25  N   UNL A   1      32.441  18.892  23.544  1.00  0.00    -0.211 NA
ATOM     26  O   UNL A   1      32.570  18.389  25.730  1.00  0.00    -0.451 OA
ATOM     27  C   UNL A   1      32.268  17.977  24.474  1.00  0.00     0.308 A 
ENDBRANCH  21  23
ENDBRANCH  13  21
ENDBRANCH   5   7
ENDBRANCH   3   5
ENDBRANCH   2   3
ENDBRANCH   1   2
BRANCH   1  28
ATOM     28  C   UNL A   1      31.409  29.795  25.735  1.00  0.00     0.275 C 
BRANCH  28  29
ATOM     29  O   UNL A   1      32.782  30.180  25.906  1.00  0.00    -0.458 OA
BRANCH  29  30
ATOM     30  C   UNL A   1      33.029  31.086  26.878  1.00  0.00     0.338 C 
ATOM     31  O   UNL A   1      32.315  32.017  27.221  1.00  0.00    -0.246 OA
BRANCH  30  32
ATOM     32  C   UNL A   1      34.340  30.803  27.480  1.00  0.00     0.060 A 
ATOM     33  C   UNL A   1      34.751  29.486  27.651  1.00  0.00     0.016 A 
ATOM     34  C   UNL A   1      35.129  31.851  27.956  1.00  0.00     0.016 A 
ATOM     35  C   UNL A   1      35.907  29.213  28.379  1.00  0.00     0.010 A 
ATOM     36  C   UNL A   1      36.336  31.568  28.612  1.00  0.00     0.010 A 
ATOM     37  C   UNL A   1      36.716  30.242  28.881  1.00  0.00    -0.014 A 
BRANCH  37  38
ATOM     38  C   UNL A   1      37.902  29.916  29.734  1.00  0.00     0.031 A 
ATOM     39  C   UNL A   1      39.046  29.106  29.167  1.00  0.00     0.074 A 
ATOM     40  C   UNL A   1      37.989  30.381  30.999  1.00  0.00     0.049 A 
ATOM     41  N   UNL A   1      40.128  28.663  29.759  1.00  0.00    -0.248 NA
ATOM     42  C   UNL A   1      38.964  28.739  27.744  1.00  0.00     0.031 C 
ATOM     43  C   UNL A   1      36.985  31.216  31.663  1.00  0.00     0.029 A 
ATOM     44  N   UNL A   1      38.974  30.244  31.947  1.00  0.00    -0.354 N 
ATOM     45  C   UNL A   1      40.817  27.919  28.806  1.00  0.00     0.074 A 
ATOM     46  C   UNL A   1      40.027  27.962  27.595  1.00  0.00     0.031 C 
ATOM     47  C   UNL A   1      37.438  31.576  32.873  1.00  0.00     0.029 A 
ATOM     48  C   UNL A   1      38.716  30.919  33.120  1.00  0.00     0.049 A 
ATOM     49  H   UNL A   1      39.790  29.713  31.802  1.00  0.00     0.167 HD
ATOM     50  C   UNL A   1      41.995  27.258  28.926  1.00  0.00     0.034 A 
ATOM     51  C   UNL A   1      39.408  30.981  34.277  1.00  0.00     0.034 A 
ATOM     52  C   UNL A   1      42.775  27.214  30.140  1.00  0.00     0.049 A 
ATOM     53  C   UNL A   1      40.679  30.179  34.406  1.00  0.00     0.074 A 
ATOM     54  C   UNL A   1      43.966  26.547  30.373  1.00  0.00     0.029 A 
ATOM     55  N   UNL A   1      42.437  27.847  31.329  1.00  0.00    -0.354 N 
ATOM     56  N   UNL A   1      41.285  29.439  33.506  1.00  0.00    -0.248 NA
ATOM     57  C   UNL A   1      41.340  30.197  35.717  1.00  0.00     0.031 C 
ATOM     58  C   UNL A   1      44.311  26.721  31.719  1.00  0.00     0.029 A 
ATOM     59  C   UNL A   1      43.377  27.557  32.308  1.00  0.00     0.049 A 
ATOM     60  H   UNL A   1      41.645  28.417  31.459  1.00  0.00     0.167 HD
ATOM     61  C   UNL A   1      42.405  28.913  34.144  1.00  0.00     0.074 A 
ATOM     62  C   UNL A   1      42.405  29.441  35.492  1.00  0.00     0.031 C 
ATOM     63  C   UNL A   1      43.347  28.063  33.660  1.00  0.00     0.034 A 
BRANCH  50  64
ATOM     64  C   UNL A   1      42.458  26.443  27.739  1.00  0.00     0.023 A 
ATOM     65  C   UNL A   1      42.322  25.044  27.677  1.00  0.00     0.031 A 
ATOM     66  C   UNL A   1      43.074  27.094  26.654  1.00  0.00     0.131 A 
ATOM     67  C   UNL A   1      42.855  24.337  26.586  1.00  0.00     0.055 A 
ATOM     68  C   UNL A   1      43.534  26.394  25.538  1.00  0.00     0.041 A 
ATOM     69  F   UNL A   1      43.247  28.425  26.666  1.00  0.00    -0.206 F 
ATOM     70  C   UNL A   1      43.436  25.007  25.506  1.00  0.00     0.022 A 
BRANCH  67  71
ATOM     71  S   UNL A   1      42.861  22.521  26.607  1.00  0.00     0.124 S 
ATOM     72  O   UNL A   1      41.883  22.208  25.569  1.00  0.00    -0.237 OA
ATOM     73  O   UNL A   1      44.246  22.186  26.295  1.00  0.00    -0.237 OA
ATOM     74  O   UNL A   1      42.440  22.193  27.968  1.00  0.00    -0.744 OA
ENDBRANCH  67  71
ENDBRANCH  50  64
BRANCH  51  75
ATOM     75  C   UNL A   1      38.897  31.782  35.429  1.00  0.00     0.023 A 
ATOM     76  C   UNL A   1      38.311  31.157  36.542  1.00  0.00     0.031 A 
ATOM     77  C   UNL A   1      38.947  33.189  35.419  1.00  0.00     0.131 A 
ATOM     78  C   UNL A   1      37.774  31.935  37.582  1.00  0.00     0.055 A 
ATOM     79  C   UNL A   1      38.467  33.955  36.482  1.00  0.00     0.041 A 
ATOM     80  F   UNL A   1      39.484  33.842  34.376  1.00  0.00    -0.206 F 
ATOM     81  C   UNL A   1      37.865  33.328  37.567  1.00  0.00     0.022 A 
BRANCH  78  82
ATOM     82  S   UNL A   1      36.872  31.104  38.920  1.00  0.00     0.124 S 
ATOM     83  O   UNL A   1      36.742  29.749  38.397  1.00  0.00    -0.237 OA
ATOM     84  O   UNL A   1      37.780  31.275  40.049  1.00  0.00    -0.237 OA
ATOM     85  O   UNL A   1      35.624  31.860  39.009  1.00  0.00    -0.744 OA
ENDBRANCH  78  82
ENDBRANCH  51  75
BRANCH  63  86
ATOM     86  C   UNL A   1      44.454  27.661  34.603  1.00  0.00     0.023 A 
ATOM     87  C   UNL A   1      44.357  26.509  35.404  1.00  0.00     0.031 A 
ATOM     88  C   UNL A   1      45.614  28.448  34.714  1.00  0.00     0.131 A 
ATOM     89  C   UNL A   1      45.377  26.203  36.317  1.00  0.00     0.055 A 
ATOM     90  C   UNL A   1      46.651  28.109  35.585  1.00  0.00     0.041 A 
ATOM     91  F   UNL A   1      45.758  29.559  33.974  1.00  0.00    -0.206 F 
ATOM     92  C   UNL A   1      46.531  26.989  36.402  1.00  0.00     0.022 A 
BRANCH  89  93
ATOM     93  S   UNL A   1      45.145  24.807  37.452  1.00  0.00     0.124 S 
ATOM     94  O   UNL A   1      44.615  23.777  36.564  1.00  0.00    -0.237 OA
ATOM     95  O   UNL A   1      46.498  24.583  37.953  1.00  0.00    -0.237 OA
ATOM     96  O   UNL A   1      44.198  25.321  38.440  1.00  0.00    -0.744 OA
ENDBRANCH  89  93
ENDBRANCH  63  86
ENDBRANCH  37  38
ENDBRANCH  30  32
ENDBRANCH  29  30
ENDBRANCH  28  29
ENDBRANCH   1  28
TORSDOF 17
ENDMDL
MODEL 3
REMARK VINA RESULT:     -12.9      1.685      7.760
REMARK SMILES C[C@@H](C(=O)OCCOC(=O)c1ccc(-c2c3nc(c(-c4cc(S(=O)(=O)[O-])ccc4F)c4ccc([nH]4)c(-c4cc(S(=O)(=O)[O-])ccc4F)c4nc(c(-c5cc(S(=O)(=O)[O-])ccc5F)c5ccc2[nH]5)C=C4)C=C3)cc1)c1ccc2c3cc(Cl)ccc3n(C(=O)c3cocn3)c2c1
REMARK SMILES IDX 6 1 5 2 3 3 4 4 2 5 1 6 74 7 75 8 94 9 76 10 93 11 77 12
REMARK SMILES IDX 85 13 78 14 84 15 79 16 83 17 80 18 82 19 81 20 86 21 87 22
REMARK SMILES IDX 88 23 89 24 92 25 90 26 91 27 7 28 8 29 9 30 10 31 11 32
REMARK SMILES IDX 12 33 73 34 13 35 72 36 14 37 15 38 16 39 66 40 17 41 71 42
REMARK SMILES IDX 65 43 67 44 18 45 70 46 64 47 63 48 19 50 51 51 31 52 50 53
REMARK SMILES IDX 32 54 35 55 49 56 68 57 33 58 34 59 48 61 69 62 36 63 20 64
REMARK SMILES IDX 21 65 29 66 22 67 28 68 30 69 27 70 23 71 24 72 25 73 26 74
REMARK SMILES IDX 52 75 53 76 61 77 54 78 60 79 62 80 59 81 55 82 56 83 57 84
REMARK SMILES IDX 58 85 37 86 38 87 46 88 39 89 45 90 47 91 44 92 40 93 41 94
REMARK SMILES IDX 42 95 43 96
REMARK H PARENT 67 49 35 60
REMARK Flexibility Score: inf
ROOT
ATOM      1  C   UNL A   1      35.875  20.146  25.001  1.00  0.00     0.274 C 
ENDROOT
BRANCH   1   2
ATOM      2  O   UNL A   1      35.585  21.302  25.813  1.00  0.00    -0.462 OA
BRANCH   2   3
ATOM      3  C   UNL A   1      34.775  22.250  25.260  1.00  0.00     0.313 C 
ATOM      4  O   UNL A   1      34.691  22.447  24.053  1.00  0.00    -0.252 OA
BRANCH   3   5
ATOM      5  C   UNL A   1      34.040  23.090  26.322  1.00  0.00     0.126 C 
ATOM      6  C   UNL A   1      33.439  22.220  27.435  1.00  0.00     0.025 C 
BRANCH   5   7
ATOM      7  C   UNL A   1      33.044  24.073  25.689  1.00  0.00    -0.032 A 
ATOM      8  C   UNL A   1      31.803  23.608  25.244  1.00  0.00     0.005 A 
ATOM      9  C   UNL A   1      33.323  25.446  25.558  1.00  0.00     0.032 A 
ATOM     10  C   UNL A   1      30.835  24.484  24.741  1.00  0.00     0.011 A 
ATOM     11  C   UNL A   1      32.364  26.337  25.009  1.00  0.00     0.058 A 
ATOM     12  C   UNL A   1      31.111  25.864  24.636  1.00  0.00     0.008 A 
ATOM     13  N   UNL A   1      32.411  27.732  24.762  1.00  0.00    -0.274 N 
ATOM     14  C   UNL A   1      30.328  26.980  24.246  1.00  0.00     0.009 A 
ATOM     15  C   UNL A   1      31.156  28.113  24.239  1.00  0.00     0.057 A 
ATOM     16  C   UNL A   1      28.966  27.094  23.876  1.00  0.00     0.031 A 
ATOM     17  C   UNL A   1      30.644  29.328  23.734  1.00  0.00     0.029 A 
ATOM     18  C   UNL A   1      28.455  28.326  23.483  1.00  0.00     0.041 A 
ATOM     19  C   UNL A   1      29.287  29.428  23.399  1.00  0.00     0.023 A 
ATOM     20  Cl  UNL A   1      26.797  28.462  23.046  1.00  0.00    -0.084 Cl
BRANCH  13  21
ATOM     21  C   UNL A   1      33.575  28.535  25.006  1.00  0.00     0.284 C 
ATOM     22  O   UNL A   1      34.402  28.576  24.094  1.00  0.00    -0.266 OA
BRANCH  21  23
ATOM     23  C   UNL A   1      33.874  29.307  26.204  1.00  0.00     0.167 A 
ATOM     24  C   UNL A   1      34.919  29.174  27.083  1.00  0.00     0.231 A 
ATOM     25  N   UNL A   1      33.158  30.454  26.542  1.00  0.00    -0.211 NA
ATOM     26  O   UNL A   1      34.844  30.169  27.999  1.00  0.00    -0.451 OA
ATOM     27  C   UNL A   1      33.793  30.925  27.594  1.00  0.00     0.308 A 
ENDBRANCH  21  23
ENDBRANCH  13  21
ENDBRANCH   5   7
ENDBRANCH   3   5
ENDBRANCH   2   3
ENDBRANCH   1   2
BRANCH   1  28
ATOM     28  C   UNL A   1      37.380  20.004  24.810  1.00  0.00     0.275 C 
BRANCH  28  29
ATOM     29  O   UNL A   1      38.032  21.187  25.299  1.00  0.00    -0.458 OA
BRANCH  29  30
ATOM     30  C   UNL A   1      39.191  20.994  25.967  1.00  0.00     0.338 C 
ATOM     31  O   UNL A   1      39.778  19.936  26.142  1.00  0.00    -0.246 OA
BRANCH  30  32
ATOM     32  C   UNL A   1      39.661  22.281  26.501  1.00  0.00     0.060 A 
ATOM     33  C   UNL A   1      39.008  23.455  26.143  1.00  0.00     0.016 A 
ATOM     34  C   UNL A   1      40.808  22.331  27.294  1.00  0.00     0.016 A 
ATOM     35  C   UNL A   1      39.556  24.686  26.501  1.00  0.00     0.010 A 
ATOM     36  C   UNL A   1      41.303  23.570  27.722  1.00  0.00     0.010 A 
ATOM     37  C   UNL A   1      40.714  24.770  27.288  1.00  0.00    -0.014 A 
BRANCH  37  38
ATOM     38  C   UNL A   1      41.326  26.105  27.580  1.00  0.00     0.031 A 
ATOM     39  C   UNL A   1      42.659  26.479  26.971  1.00  0.00     0.074 A 
ATOM     40  C   UNL A   1      40.676  27.008  28.343  1.00  0.00     0.049 A 
ATOM     41  N   UNL A   1      43.386  27.554  27.152  1.00  0.00    -0.248 NA
ATOM     42  C   UNL A   1      43.263  25.512  26.039  1.00  0.00     0.031 C 
ATOM     43  C   UNL A   1      39.360  26.806  28.955  1.00  0.00     0.029 A 
ATOM     44  N   UNL A   1      41.013  28.287  28.718  1.00  0.00    -0.354 N 
ATOM     45  C   UNL A   1      44.549  27.367  26.412  1.00  0.00     0.074 A 
ATOM     46  C   UNL A   1      44.437  26.069  25.783  1.00  0.00     0.031 C 
ATOM     47  C   UNL A   1      38.974  27.940  29.559  1.00  0.00     0.029 A 
ATOM     48  C   UNL A   1      40.049  28.920  29.472  1.00  0.00     0.049 A 
ATOM     49  H   UNL A   1      41.866  28.712  28.469  1.00  0.00     0.167 HD
ATOM     50  C   UNL A   1      45.614  28.194  26.269  1.00  0.00     0.034 A 
ATOM     51  C   UNL A   1      40.039  30.136  30.056  1.00  0.00     0.034 A 
ATOM     52  C   UNL A   1      45.721  29.486  26.904  1.00  0.00     0.049 A 
ATOM     53  C   UNL A   1      41.265  31.007  29.939  1.00  0.00     0.074 A 
ATOM     54  C   UNL A   1      46.771  30.388  26.848  1.00  0.00     0.029 A 
ATOM     55  N   UNL A   1      44.756  30.055  27.724  1.00  0.00    -0.354 N 
ATOM     56  N   UNL A   1      42.377  30.786  29.275  1.00  0.00    -0.248 NA
ATOM     57  C   UNL A   1      41.245  32.277  30.677  1.00  0.00     0.031 C 
ATOM     58  C   UNL A   1      46.469  31.468  27.686  1.00  0.00     0.029 A 
ATOM     59  C   UNL A   1      45.200  31.278  28.208  1.00  0.00     0.049 A 
ATOM     60  H   UNL A   1      43.883  29.650  27.933  1.00  0.00     0.167 HD
ATOM     61  C   UNL A   1      43.182  31.898  29.510  1.00  0.00     0.074 A 
ATOM     62  C   UNL A   1      42.420  32.796  30.352  1.00  0.00     0.031 C 
ATOM     63  C   UNL A   1      44.443  32.150  29.075  1.00  0.00     0.034 A 
BRANCH  50  64
ATOM     64  C   UNL A   1      46.793  27.680  25.473  1.00  0.00     0.023 A 
ATOM     65  C   UNL A   1      47.020  28.040  24.132  1.00  0.00     0.031 A 
ATOM     66  C   UNL A   1      47.696  26.788  26.078  1.00  0.00     0.131 A 
ATOM     67  C   UNL A   1      48.083  27.456  23.422  1.00  0.00     0.055 A 
ATOM     68  C   UNL A   1      48.794  26.270  25.391  1.00  0.00     0.041 A 
ATOM     69  F   UNL A   1      47.519  26.396  27.350  1.00  0.00    -0.206 F 
ATOM     70  C   UNL A   1      48.985  26.594  24.052  1.00  0.00     0.022 A 
BRANCH  67  71
ATOM     71  S   UNL A   1      48.250  27.762  21.639  1.00  0.00     0.124 S 
ATOM     72  O   UNL A   1      48.653  26.448  21.148  1.00  0.00    -0.237 OA
ATOM     73  O   UNL A   1      46.915  28.203  21.248  1.00  0.00    -0.237 OA
ATOM     74  O   UNL A   1      49.284  28.792  21.565  1.00  0.00    -0.744 OA
ENDBRANCH  67  71
ENDBRANCH  50  64
BRANCH  51  75
ATOM     75  C   UNL A   1      38.859  30.590  30.851  1.00  0.00     0.023 A 
ATOM     76  C   UNL A   1      37.895  31.444  30.291  1.00  0.00     0.031 A 
ATOM     77  C   UNL A   1      38.698  30.212  32.197  1.00  0.00     0.131 A 
ATOM     78  C   UNL A   1      36.832  31.915  31.081  1.00  0.00     0.055 A 
ATOM     79  C   UNL A   1      37.607  30.633  32.959  1.00  0.00     0.041 A 
ATOM     80  F   UNL A   1      39.594  29.408  32.790  1.00  0.00    -0.206 F 
ATOM     81  C   UNL A   1      36.672  31.500  32.405  1.00  0.00     0.022 A 
BRANCH  78  82
ATOM     82  S   UNL A   1      35.702  33.151  30.380  1.00  0.00     0.124 S 
ATOM     83  O   UNL A   1      34.404  32.521  30.586  1.00  0.00    -0.237 OA
ATOM     84  O   UNL A   1      35.989  34.323  31.201  1.00  0.00    -0.237 OA
ATOM     85  O   UNL A   1      36.132  33.252  28.986  1.00  0.00    -0.744 OA
ENDBRANCH  78  82
ENDBRANCH  51  75
BRANCH  63  86
ATOM     86  C   UNL A   1      45.066  33.455  29.504  1.00  0.00     0.023 A 
ATOM     87  C   UNL A   1      44.957  34.617  28.718  1.00  0.00     0.031 A 
ATOM     88  C   UNL A   1      45.792  33.536  30.707  1.00  0.00     0.131 A 
ATOM     89  C   UNL A   1      45.605  35.795  29.117  1.00  0.00     0.055 A 
ATOM     90  C   UNL A   1      46.388  34.725  31.125  1.00  0.00     0.041 A 
ATOM     91  F   UNL A   1      45.928  32.458  31.495  1.00  0.00    -0.206 F 
ATOM     92  C   UNL A   1      46.308  35.860  30.324  1.00  0.00     0.022 A 
BRANCH  89  93
ATOM     93  S   UNL A   1      45.585  37.224  28.000  1.00  0.00     0.124 S 
ATOM     94  O   UNL A   1      44.367  36.993  27.230  1.00  0.00    -0.237 OA
ATOM     95  O   UNL A   1      45.548  38.348  28.930  1.00  0.00    -0.237 OA
ATOM     96  O   UNL A   1      46.829  37.088  27.245  1.00  0.00    -0.744 OA
ENDBRANCH  89  93
ENDBRANCH  63  86
ENDBRANCH  37  38
ENDBRANCH  30  32
ENDBRANCH  29  30
ENDBRANCH  28  29
ENDBRANCH   1  28
TORSDOF 17
ENDMDL
