MODEL 1
REMARK VINA RESULT:     -10.6      0.000      0.000
REMARK SMILES [NH3+]CCOCC(=O)N[C@H](C(=O)OCCOC(=O)c1ccc(-c2c3nc(c(-c4cc(S(=O)(=O)[O-])ccc4F)c4ccc([nH]4)c(-c4cc(S(=O)(=O)[O-])ccc4F)c4nc(c(-c5cc(S(=O)(=O)[O-])ccc5F)c5ccc2[nH]5)C=C4)C=C3)cc1)C1CCCCC1
REMARK SMILES IDX 12 1 10 2 11 3 9 4 8 5 6 6 7 7 5 9 4 10 3 11 2 12 1 13 81 17
REMARK SMILES IDX 82 18 86 19 83 20 85 21 84 22 13 23 14 24 15 25 16 26 17 27
REMARK SMILES IDX 18 28 19 29 80 30 20 31 79 32 21 33 22 34 23 35 73 36 24 37
REMARK SMILES IDX 78 38 72 39 74 40 25 41 77 42 71 43 70 44 26 46 58 47 38 48
REMARK SMILES IDX 57 49 39 50 42 51 56 52 75 53 40 54 41 55 55 57 76 58 43 59
REMARK SMILES IDX 27 60 28 61 36 62 29 63 35 64 37 65 34 66 30 67 31 68 32 69
REMARK SMILES IDX 33 70 59 71 60 72 68 73 61 74 67 75 69 76 66 77 62 78 63 79
REMARK SMILES IDX 64 80 65 81 44 82 45 83 53 84 46 85 52 86 54 87 51 88 47 89
REMARK SMILES IDX 48 90 49 91 50 92
REMARK H PARENT 8 8 1 14 1 15 1 16 74 45 42 56
REMARK Flexibility Score: inf
ROOT
ATOM      1  O   UNL A   1      32.807  27.200  25.819  1.00  0.00    -0.461 OA
ENDROOT
BRANCH   1   2
ATOM      2  C   UNL A   1      32.387  25.907  25.963  1.00  0.00     0.329 C 
ATOM      3  O   UNL A   1      31.571  25.575  26.795  1.00  0.00    -0.250 OA
BRANCH   2   4
ATOM      4  C   UNL A   1      33.168  24.915  25.075  1.00  0.00     0.195 C 
BRANCH   4   5
ATOM      5  N   UNL A   1      33.664  25.686  23.911  1.00  0.00    -0.340 N 
ATOM      6  C   UNL A   1      33.112  26.048  22.718  1.00  0.00     0.246 C 
ATOM      7  O   UNL A   1      33.887  26.543  21.888  1.00  0.00    -0.272 OA
ATOM      8  H   UNL A   1      34.588  26.007  24.022  1.00  0.00     0.164 HD
BRANCH   6   9
ATOM      9  C   UNL A   1      31.613  25.895  22.372  1.00  0.00     0.260 C 
BRANCH   9  10
ATOM     10  O   UNL A   1      30.891  26.875  21.652  1.00  0.00    -0.366 OA
BRANCH  10  11
ATOM     11  C   UNL A   1      30.233  27.865  22.445  1.00  0.00     0.222 C 
BRANCH  11  12
ATOM     12  C   UNL A   1      30.984  29.200  22.497  1.00  0.00     0.287 C 
BRANCH  12  13
ATOM     13  N   UNL A   1      30.555  30.160  21.483  1.00  0.00    -0.356 N 
ATOM     14  H   UNL A   1      30.633  29.737  20.558  1.00  0.00     0.344 HD
ATOM     15  H   UNL A   1      31.148  30.989  21.528  1.00  0.00     0.344 HD
ATOM     16  H   UNL A   1      29.585  30.426  21.654  1.00  0.00     0.344 HD
ENDBRANCH  12  13
ENDBRANCH  11  12
ENDBRANCH  10  11
ENDBRANCH   9  10
ENDBRANCH   6   9
ENDBRANCH   4   5
BRANCH   4  17
ATOM     17  C   UNL A   1      34.246  24.014  25.725  1.00  0.00     0.023 C 
ATOM     18  C   UNL A   1      33.833  22.551  25.832  1.00  0.00     0.006 C 
ATOM     19  C   UNL A   1      35.600  24.076  24.985  1.00  0.00     0.006 C 
ATOM     20  C   UNL A   1      34.872  21.717  26.572  1.00  0.00     0.000 C 
ATOM     21  C   UNL A   1      36.666  23.214  25.676  1.00  0.00     0.000 C 
ATOM     22  C   UNL A   1      36.214  21.772  25.866  1.00  0.00     0.000 C 
ENDBRANCH   4  17
ENDBRANCH   2   4
ENDBRANCH   1   2
BRANCH   1  23
ATOM     23  C   UNL A   1      31.774  28.165  26.133  1.00  0.00     0.274 C 
BRANCH  23  24
ATOM     24  C   UNL A   1      32.254  29.610  25.971  1.00  0.00     0.275 C 
BRANCH  24  25
ATOM     25  O   UNL A   1      32.263  30.301  27.234  1.00  0.00    -0.458 OA
BRANCH  25  26
ATOM     26  C   UNL A   1      33.054  31.401  27.312  1.00  0.00     0.338 C 
ATOM     27  O   UNL A   1      32.676  32.557  27.184  1.00  0.00    -0.246 OA
BRANCH  26  28
ATOM     28  C   UNL A   1      34.461  31.048  27.656  1.00  0.00     0.060 A 
ATOM     29  C   UNL A   1      34.821  29.756  28.013  1.00  0.00     0.016 A 
ATOM     30  C   UNL A   1      35.415  32.064  27.792  1.00  0.00     0.016 A 
ATOM     31  C   UNL A   1      36.036  29.529  28.673  1.00  0.00     0.010 A 
ATOM     32  C   UNL A   1      36.691  31.793  28.325  1.00  0.00     0.010 A 
ATOM     33  C   UNL A   1      37.013  30.527  28.843  1.00  0.00    -0.014 A 
BRANCH  33  34
ATOM     34  C   UNL A   1      38.297  30.276  29.608  1.00  0.00     0.031 A 
ATOM     35  C   UNL A   1      39.405  29.395  29.038  1.00  0.00     0.074 A 
ATOM     36  C   UNL A   1      38.542  30.862  30.803  1.00  0.00     0.049 A 
ATOM     37  N   UNL A   1      40.414  28.821  29.653  1.00  0.00    -0.248 NA
ATOM     38  C   UNL A   1      39.380  29.128  27.591  1.00  0.00     0.031 C 
ATOM     39  C   UNL A   1      37.674  31.828  31.479  1.00  0.00     0.029 A 
ATOM     40  N   UNL A   1      39.611  30.741  31.670  1.00  0.00    -0.354 N 
ATOM     41  C   UNL A   1      41.092  28.072  28.689  1.00  0.00     0.074 A 
ATOM     42  C   UNL A   1      40.390  28.280  27.441  1.00  0.00     0.031 C 
ATOM     43  C   UNL A   1      38.273  32.274  32.588  1.00  0.00     0.029 A 
ATOM     44  C   UNL A   1      39.455  31.464  32.833  1.00  0.00     0.049 A 
ATOM     45  H   UNL A   1      40.405  30.191  31.477  1.00  0.00     0.167 HD
ATOM     46  C   UNL A   1      42.186  27.276  28.836  1.00  0.00     0.034 A 
ATOM     47  C   UNL A   1      40.084  31.410  34.026  1.00  0.00     0.034 A 
ATOM     48  C   UNL A   1      42.917  27.124  30.076  1.00  0.00     0.049 A 
ATOM     49  C   UNL A   1      41.180  30.406  34.229  1.00  0.00     0.074 A 
ATOM     50  C   UNL A   1      44.036  26.345  30.331  1.00  0.00     0.029 A 
ATOM     51  N   UNL A   1      42.612  27.767  31.268  1.00  0.00    -0.354 N 
ATOM     52  N   UNL A   1      41.710  29.579  33.359  1.00  0.00    -0.248 NA
ATOM     53  C   UNL A   1      41.730  30.296  35.584  1.00  0.00     0.031 C 
ATOM     54  C   UNL A   1      44.353  26.453  31.690  1.00  0.00     0.029 A 
ATOM     55  C   UNL A   1      43.487  27.363  32.269  1.00  0.00     0.049 A 
ATOM     56  H   UNL A   1      41.881  28.415  31.387  1.00  0.00     0.167 HD
ATOM     57  C   UNL A   1      42.653  28.843  34.068  1.00  0.00     0.074 A 
ATOM     58  C   UNL A   1      42.643  29.349  35.425  1.00  0.00     0.031 C 
ATOM     59  C   UNL A   1      43.450  27.834  33.632  1.00  0.00     0.034 A 
BRANCH  46  60
ATOM     60  C   UNL A   1      42.619  26.422  27.659  1.00  0.00     0.023 A 
ATOM     61  C   UNL A   1      42.176  25.102  27.460  1.00  0.00     0.031 A 
ATOM     62  C   UNL A   1      43.478  26.976  26.688  1.00  0.00     0.131 A 
ATOM     63  C   UNL A   1      42.626  24.374  26.343  1.00  0.00     0.055 A 
ATOM     64  C   UNL A   1      43.865  26.271  25.547  1.00  0.00     0.041 A 
ATOM     65  F   UNL A   1      43.950  28.225  26.828  1.00  0.00    -0.206 F 
ATOM     66  C   UNL A   1      43.446  24.957  25.373  1.00  0.00     0.022 A 
BRANCH  63  67
ATOM     67  S   UNL A   1      42.218  22.608  26.223  1.00  0.00     0.124 S 
ATOM     68  O   UNL A   1      40.763  22.629  26.343  1.00  0.00    -0.237 OA
ATOM     69  O   UNL A   1      42.746  22.251  24.912  1.00  0.00    -0.237 OA
ATOM     70  O   UNL A   1      42.918  22.015  27.361  1.00  0.00    -0.744 OA
ENDBRANCH  63  67
ENDBRANCH  46  60
BRANCH  47  71
ATOM     71  C   UNL A   1      39.556  32.209  35.175  1.00  0.00     0.023 A 
ATOM     72  C   UNL A   1      40.004  33.512  35.435  1.00  0.00     0.031 A 
ATOM     73  C   UNL A   1      38.585  31.661  36.039  1.00  0.00     0.131 A 
ATOM     74  C   UNL A   1      39.478  34.221  36.528  1.00  0.00     0.055 A 
ATOM     75  C   UNL A   1      38.012  32.398  37.074  1.00  0.00     0.041 A 
ATOM     76  F   UNL A   1      38.141  30.406  35.856  1.00  0.00    -0.206 F 
ATOM     77  C   UNL A   1      38.465  33.686  37.328  1.00  0.00     0.022 A 
BRANCH  74  78
ATOM     78  S   UNL A   1      40.192  35.835  36.944  1.00  0.00     0.124 S 
ATOM     79  O   UNL A   1      39.797  36.641  35.794  1.00  0.00    -0.237 OA
ATOM     80  O   UNL A   1      39.528  36.147  38.205  1.00  0.00    -0.237 OA
ATOM     81  O   UNL A   1      41.624  35.557  37.047  1.00  0.00    -0.744 OA
ENDBRANCH  74  78
ENDBRANCH  47  71
BRANCH  59  82
ATOM     82  C   UNL A   1      44.386  27.230  34.647  1.00  0.00     0.023 A 
ATOM     83  C   UNL A   1      45.660  27.777  34.881  1.00  0.00     0.031 A 
ATOM     84  C   UNL A   1      44.030  26.062  35.343  1.00  0.00     0.131 A 
ATOM     85  C   UNL A   1      46.558  27.118  35.734  1.00  0.00     0.055 A 
ATOM     86  C   UNL A   1      44.904  25.445  36.239  1.00  0.00     0.041 A 
ATOM     87  F   UNL A   1      42.829  25.491  35.151  1.00  0.00    -0.206 F 
ATOM     88  C   UNL A   1      46.182  25.964  36.427  1.00  0.00     0.022 A 
BRANCH  85  89
ATOM     89  S   UNL A   1      48.263  27.726  35.840  1.00  0.00     0.124 S 
ATOM     90  O   UNL A   1      49.029  26.484  35.796  1.00  0.00    -0.237 OA
ATOM     91  O   UNL A   1      48.365  28.581  34.661  1.00  0.00    -0.237 OA
ATOM     92  O   UNL A   1      48.298  28.432  37.120  1.00  0.00    -0.744 OA
ENDBRANCH  85  89
ENDBRANCH  59  82
ENDBRANCH  33  34
ENDBRANCH  26  28
ENDBRANCH  25  26
ENDBRANCH  24  25
ENDBRANCH  23  24
ENDBRANCH   1  23
TORSDOF 21
ENDMDL
MODEL 2
REMARK VINA RESULT:     -10.5      4.509      9.843
REMARK SMILES [NH3+]CCOCC(=O)N[C@H](C(=O)OCCOC(=O)c1ccc(-c2c3nc(c(-c4cc(S(=O)(=O)[O-])ccc4F)c4ccc([nH]4)c(-c4cc(S(=O)(=O)[O-])ccc4F)c4nc(c(-c5cc(S(=O)(=O)[O-])ccc5F)c5ccc2[nH]5)C=C4)C=C3)cc1)C1CCCCC1
REMARK SMILES IDX 12 1 10 2 11 3 9 4 8 5 6 6 7 7 5 9 4 10 3 11 2 12 1 13 81 17
REMARK SMILES IDX 82 18 86 19 83 20 85 21 84 22 13 23 14 24 15 25 16 26 17 27
REMARK SMILES IDX 18 28 19 29 80 30 20 31 79 32 21 33 22 34 23 35 73 36 24 37
REMARK SMILES IDX 78 38 72 39 74 40 25 41 77 42 71 43 70 44 26 46 58 47 38 48
REMARK SMILES IDX 57 49 39 50 42 51 56 52 75 53 40 54 41 55 55 57 76 58 43 59
REMARK SMILES IDX 27 60 28 61 36 62 29 63 35 64 37 65 34 66 30 67 31 68 32 69
REMARK SMILES IDX 33 70 59 71 60 72 68 73 61 74 67 75 69 76 66 77 62 78 63 79
REMARK SMILES IDX 64 80 65 81 44 82 45 83 53 84 46 85 52 86 54 87 51 88 47 89
REMARK SMILES IDX 48 90 49 91 50 92
REMARK H PARENT 8 8 1 14 1 15 1 16 74 45 42 56
REMARK Flexibility Score: inf
ROOT
ATOM      1  O   UNL A   1      34.971  23.024  24.164  1.00  0.00    -0.461 OA
ENDROOT
BRANCH   1   2
ATOM      2  C   UNL A   1      34.647  23.764  25.267  1.00  0.00     0.329 C 
ATOM      3  O   UNL A   1      35.124  23.549  26.360  1.00  0.00    -0.250 OA
BRANCH   2   4
ATOM      4  C   UNL A   1      33.513  24.778  25.004  1.00  0.00     0.195 C 
BRANCH   4   5
ATOM      5  N   UNL A   1      32.484  24.544  26.045  1.00  0.00    -0.340 N 
ATOM      6  C   UNL A   1      31.441  23.674  26.157  1.00  0.00     0.246 C 
ATOM      7  O   UNL A   1      30.659  23.881  27.096  1.00  0.00    -0.272 OA
ATOM      8  H   UNL A   1      32.573  25.143  26.821  1.00  0.00     0.164 HD
BRANCH   6   9
ATOM      9  C   UNL A   1      31.207  22.470  25.215  1.00  0.00     0.260 C 
BRANCH   9  10
ATOM     10  O   UNL A   1      31.382  21.129  25.630  1.00  0.00    -0.366 OA
BRANCH  10  11
ATOM     11  C   UNL A   1      32.679  20.574  25.398  1.00  0.00     0.222 C 
BRANCH  11  12
ATOM     12  C   UNL A   1      32.661  19.060  25.168  1.00  0.00     0.287 C 
BRANCH  12  13
ATOM     13  N   UNL A   1      32.886  18.274  26.379  1.00  0.00    -0.356 N 
ATOM     14  H   UNL A   1      33.883  18.257  26.593  1.00  0.00     0.344 HD
ATOM     15  H   UNL A   1      32.553  17.321  26.232  1.00  0.00     0.344 HD
ATOM     16  H   UNL A   1      32.379  18.695  27.157  1.00  0.00     0.344 HD
ENDBRANCH  12  13
ENDBRANCH  11  12
ENDBRANCH  10  11
ENDBRANCH   9  10
ENDBRANCH   6   9
ENDBRANCH   4   5
BRANCH   4  17
ATOM     17  C   UNL A   1      33.871  26.271  24.812  1.00  0.00     0.023 C 
ATOM     18  C   UNL A   1      33.220  26.901  23.587  1.00  0.00     0.006 C 
ATOM     19  C   UNL A   1      33.510  27.133  26.042  1.00  0.00     0.006 C 
ATOM     20  C   UNL A   1      33.679  28.337  23.371  1.00  0.00     0.000 C 
ATOM     21  C   UNL A   1      33.919  28.600  25.848  1.00  0.00     0.000 C 
ATOM     22  C   UNL A   1      33.342  29.201  24.573  1.00  0.00     0.000 C 
ENDBRANCH   4  17
ENDBRANCH   2   4
ENDBRANCH   1   2
BRANCH   1  23
ATOM     23  C   UNL A   1      36.396  22.991  23.907  1.00  0.00     0.274 C 
BRANCH  23  24
ATOM     24  C   UNL A   1      37.002  21.606  24.149  1.00  0.00     0.275 C 
BRANCH  24  25
ATOM     25  O   UNL A   1      37.348  21.423  25.535  1.00  0.00    -0.458 OA
BRANCH  25  26
ATOM     26  C   UNL A   1      38.670  21.302  25.814  1.00  0.00     0.338 C 
ATOM     27  O   UNL A   1      39.393  20.389  25.441  1.00  0.00    -0.246 OA
BRANCH  26  28
ATOM     28  C   UNL A   1      39.184  22.471  26.584  1.00  0.00     0.060 A 
ATOM     29  C   UNL A   1      38.669  23.746  26.398  1.00  0.00     0.016 A 
ATOM     30  C   UNL A   1      40.322  22.325  27.386  1.00  0.00     0.016 A 
ATOM     31  C   UNL A   1      39.394  24.861  26.843  1.00  0.00     0.010 A 
ATOM     32  C   UNL A   1      40.959  23.448  27.951  1.00  0.00     0.010 A 
ATOM     33  C   UNL A   1      40.550  24.754  27.638  1.00  0.00    -0.014 A 
BRANCH  33  34
ATOM     34  C   UNL A   1      41.349  25.970  28.063  1.00  0.00     0.031 A 
ATOM     35  C   UNL A   1      40.726  27.081  28.903  1.00  0.00     0.074 A 
ATOM     36  C   UNL A   1      42.664  26.099  27.764  1.00  0.00     0.049 A 
ATOM     37  N   UNL A   1      41.140  28.312  29.097  1.00  0.00    -0.248 NA
ATOM     38  C   UNL A   1      39.480  26.768  29.620  1.00  0.00     0.031 C 
ATOM     39  C   UNL A   1      43.488  25.107  27.071  1.00  0.00     0.029 A 
ATOM     40  N   UNL A   1      43.554  27.125  28.017  1.00  0.00    -0.354 N 
ATOM     41  C   UNL A   1      40.175  28.935  29.890  1.00  0.00     0.074 A 
ATOM     42  C   UNL A   1      39.160  27.938  30.158  1.00  0.00     0.031 C 
ATOM     43  C   UNL A   1      44.758  25.522  27.035  1.00  0.00     0.029 A 
ATOM     44  C   UNL A   1      44.806  26.903  27.487  1.00  0.00     0.049 A 
ATOM     45  H   UNL A   1      43.316  27.935  28.523  1.00  0.00     0.167 HD
ATOM     46  C   UNL A   1      40.132  30.219  30.338  1.00  0.00     0.034 A 
ATOM     47  C   UNL A   1      45.850  27.726  27.250  1.00  0.00     0.034 A 
ATOM     48  C   UNL A   1      41.183  31.190  30.116  1.00  0.00     0.049 A 
ATOM     49  C   UNL A   1      45.726  29.180  27.595  1.00  0.00     0.074 A 
ATOM     50  C   UNL A   1      41.239  32.514  30.526  1.00  0.00     0.029 A 
ATOM     51  N   UNL A   1      42.366  30.946  29.431  1.00  0.00    -0.354 N 
ATOM     52  N   UNL A   1      44.740  29.802  28.197  1.00  0.00    -0.248 NA
ATOM     53  C   UNL A   1      46.834  30.051  27.187  1.00  0.00     0.031 C 
ATOM     54  C   UNL A   1      42.411  33.088  30.020  1.00  0.00     0.029 A 
ATOM     55  C   UNL A   1      43.130  32.104  29.364  1.00  0.00     0.049 A 
ATOM     56  H   UNL A   1      42.625  30.078  29.048  1.00  0.00     0.167 HD
ATOM     57  C   UNL A   1      45.109  31.143  28.232  1.00  0.00     0.074 A 
ATOM     58  C   UNL A   1      46.421  31.231  27.624  1.00  0.00     0.031 C 
ATOM     59  C   UNL A   1      44.417  32.204  28.720  1.00  0.00     0.034 A 
BRANCH  46  60
ATOM     60  C   UNL A   1      38.873  30.698  31.035  1.00  0.00     0.023 A 
ATOM     61  C   UNL A   1      37.768  31.234  30.349  1.00  0.00     0.031 A 
ATOM     62  C   UNL A   1      38.773  30.574  32.436  1.00  0.00     0.131 A 
ATOM     63  C   UNL A   1      36.636  31.658  31.068  1.00  0.00     0.055 A 
ATOM     64  C   UNL A   1      37.620  30.933  33.135  1.00  0.00     0.041 A 
ATOM     65  F   UNL A   1      39.800  30.087  33.151  1.00  0.00    -0.206 F 
ATOM     66  C   UNL A   1      36.544  31.489  32.453  1.00  0.00     0.022 A 
BRANCH  63  67
ATOM     67  S   UNL A   1      35.316  32.544  30.188  1.00  0.00     0.124 S 
ATOM     68  O   UNL A   1      35.990  33.782  29.806  1.00  0.00    -0.237 OA
ATOM     69  O   UNL A   1      34.993  31.629  29.101  1.00  0.00    -0.237 OA
ATOM     70  O   UNL A   1      34.274  32.702  31.201  1.00  0.00    -0.744 OA
ENDBRANCH  63  67
ENDBRANCH  46  60
BRANCH  47  71
ATOM     71  C   UNL A   1      47.028  27.219  26.480  1.00  0.00     0.023 A 
ATOM     72  C   UNL A   1      48.080  26.536  27.106  1.00  0.00     0.031 A 
ATOM     73  C   UNL A   1      47.111  27.425  25.087  1.00  0.00     0.131 A 
ATOM     74  C   UNL A   1      49.166  26.081  26.338  1.00  0.00     0.055 A 
ATOM     75  C   UNL A   1      48.153  26.905  24.321  1.00  0.00     0.041 A 
ATOM     76  F   UNL A   1      46.147  28.099  24.439  1.00  0.00    -0.206 F 
ATOM     77  C   UNL A   1      49.194  26.233  24.949  1.00  0.00     0.022 A 
BRANCH  74  78
ATOM     78  S   UNL A   1      50.591  25.352  27.190  1.00  0.00     0.124 S 
ATOM     79  O   UNL A   1      51.053  26.470  28.005  1.00  0.00    -0.237 OA
ATOM     80  O   UNL A   1      49.981  24.242  27.911  1.00  0.00    -0.237 OA
ATOM     81  O   UNL A   1      51.482  24.969  26.096  1.00  0.00    -0.744 OA
ENDBRANCH  74  78
ENDBRANCH  47  71
BRANCH  59  82
ATOM     82  C   UNL A   1      45.090  33.549  28.620  1.00  0.00     0.023 A 
ATOM     83  C   UNL A   1      45.973  33.998  29.617  1.00  0.00     0.031 A 
ATOM     84  C   UNL A   1      44.801  34.416  27.553  1.00  0.00     0.131 A 
ATOM     85  C   UNL A   1      46.482  35.304  29.564  1.00  0.00     0.055 A 
ATOM     86  C   UNL A   1      45.360  35.693  27.471  1.00  0.00     0.041 A 
ATOM     87  F   UNL A   1      43.957  34.042  26.577  1.00  0.00    -0.206 F 
ATOM     88  C   UNL A   1      46.194  36.149  28.489  1.00  0.00     0.022 A 
BRANCH  85  89
ATOM     89  S   UNL A   1      47.435  35.925  30.977  1.00  0.00     0.124 S 
ATOM     90  O   UNL A   1      47.621  37.329  30.621  1.00  0.00    -0.237 OA
ATOM     91  O   UNL A   1      46.540  35.664  32.099  1.00  0.00    -0.237 OA
ATOM     92  O   UNL A   1      48.651  35.114  30.954  1.00  0.00    -0.744 OA
ENDBRANCH  85  89
ENDBRANCH  59  82
ENDBRANCH  33  34
ENDBRANCH  26  28
ENDBRANCH  25  26
ENDBRANCH  24  25
ENDBRANCH  23  24
ENDBRANCH   1  23
TORSDOF 21
ENDMDL
MODEL 3
REMARK VINA RESULT:     -10.4      1.867      2.179
REMARK SMILES [NH3+]CCOCC(=O)N[C@H](C(=O)OCCOC(=O)c1ccc(-c2c3nc(c(-c4cc(S(=O)(=O)[O-])ccc4F)c4ccc([nH]4)c(-c4cc(S(=O)(=O)[O-])ccc4F)c4nc(c(-c5cc(S(=O)(=O)[O-])ccc5F)c5ccc2[nH]5)C=C4)C=C3)cc1)C1CCCCC1
REMARK SMILES IDX 12 1 10 2 11 3 9 4 8 5 6 6 7 7 5 9 4 10 3 11 2 12 1 13 81 17
REMARK SMILES IDX 82 18 86 19 83 20 85 21 84 22 13 23 14 24 15 25 16 26 17 27
REMARK SMILES IDX 18 28 19 29 80 30 20 31 79 32 21 33 22 34 23 35 73 36 24 37
REMARK SMILES IDX 78 38 72 39 74 40 25 41 77 42 71 43 70 44 26 46 58 47 38 48
REMARK SMILES IDX 57 49 39 50 42 51 56 52 75 53 40 54 41 55 55 57 76 58 43 59
REMARK SMILES IDX 27 60 28 61 36 62 29 63 35 64 37 65 34 66 30 67 31 68 32 69
REMARK SMILES IDX 33 70 59 71 60 72 68 73 61 74 67 75 69 76 66 77 62 78 63 79
REMARK SMILES IDX 64 80 65 81 44 82 45 83 53 84 46 85 52 86 54 87 51 88 47 89
REMARK SMILES IDX 48 90 49 91 50 92
REMARK H PARENT 8 8 1 14 1 15 1 16 74 45 42 56
REMARK Flexibility Score: inf
ROOT
ATOM      1  O   UNL A   1      33.286  27.422  26.186  1.00  0.00    -0.461 OA
ENDROOT
BRANCH   1   2
ATOM      2  C   UNL A   1      33.705  27.300  24.891  1.00  0.00     0.329 C 
ATOM      3  O   UNL A   1      34.013  28.256  24.213  1.00  0.00    -0.250 OA
BRANCH   2   4
ATOM      4  C   UNL A   1      33.595  25.859  24.351  1.00  0.00     0.195 C 
BRANCH   4   5
ATOM      5  N   UNL A   1      33.731  25.945  22.877  1.00  0.00    -0.340 N 
ATOM      6  C   UNL A   1      32.836  25.975  21.850  1.00  0.00     0.246 C 
ATOM      7  O   UNL A   1      33.311  25.863  20.711  1.00  0.00    -0.272 OA
ATOM      8  H   UNL A   1      34.667  25.992  22.576  1.00  0.00     0.164 HD
BRANCH   6   9
ATOM      9  C   UNL A   1      31.310  26.157  22.031  1.00  0.00     0.260 C 
BRANCH   9  10
ATOM     10  O   UNL A   1      30.680  27.422  21.974  1.00  0.00    -0.366 OA
BRANCH  10  11
ATOM     11  C   UNL A   1      29.810  27.729  23.066  1.00  0.00     0.222 C 
BRANCH  11  12
ATOM     12  C   UNL A   1      29.592  29.232  23.267  1.00  0.00     0.287 C 
BRANCH  12  13
ATOM     13  N   UNL A   1      30.820  29.978  23.530  1.00  0.00    -0.356 N 
ATOM     14  H   UNL A   1      31.598  29.327  23.637  1.00  0.00     0.344 HD
ATOM     15  H   UNL A   1      30.711  30.520  24.388  1.00  0.00     0.344 HD
ATOM     16  H   UNL A   1      31.009  30.609  22.752  1.00  0.00     0.344 HD
ENDBRANCH  12  13
ENDBRANCH  11  12
ENDBRANCH  10  11
ENDBRANCH   9  10
ENDBRANCH   6   9
ENDBRANCH   4   5
BRANCH   4  17
ATOM     17  C   UNL A   1      34.465  24.750  24.988  1.00  0.00     0.023 C 
ATOM     18  C   UNL A   1      33.737  23.943  26.057  1.00  0.00     0.006 C 
ATOM     19  C   UNL A   1      35.029  23.760  23.945  1.00  0.00     0.006 C 
ATOM     20  C   UNL A   1      34.655  22.935  26.736  1.00  0.00     0.000 C 
ATOM     21  C   UNL A   1      35.929  22.699  24.595  1.00  0.00     0.000 C 
ATOM     22  C   UNL A   1      35.228  21.958  25.726  1.00  0.00     0.000 C 
ENDBRANCH   4  17
ENDBRANCH   2   4
ENDBRANCH   1   2
BRANCH   1  23
ATOM     23  C   UNL A   1      31.872  27.714  26.295  1.00  0.00     0.274 C 
BRANCH  23  24
ATOM     24  C   UNL A   1      31.604  29.142  26.776  1.00  0.00     0.275 C 
BRANCH  24  25
ATOM     25  O   UNL A   1      32.599  30.056  26.277  1.00  0.00    -0.458 OA
BRANCH  25  26
ATOM     26  C   UNL A   1      33.054  30.986  27.153  1.00  0.00     0.338 C 
ATOM     27  O   UNL A   1      32.373  31.850  27.687  1.00  0.00    -0.246 OA
BRANCH  26  28
ATOM     28  C   UNL A   1      34.499  30.794  27.466  1.00  0.00     0.060 A 
ATOM     29  C   UNL A   1      35.031  29.533  27.700  1.00  0.00     0.016 A 
ATOM     30  C   UNL A   1      35.310  31.911  27.700  1.00  0.00     0.016 A 
ATOM     31  C   UNL A   1      36.272  29.410  28.339  1.00  0.00     0.010 A 
ATOM     32  C   UNL A   1      36.617  31.763  28.208  1.00  0.00     0.010 A 
ATOM     33  C   UNL A   1      37.109  30.509  28.605  1.00  0.00    -0.014 A 
BRANCH  33  34
ATOM     34  C   UNL A   1      38.423  30.360  29.346  1.00  0.00     0.031 A 
ATOM     35  C   UNL A   1      39.564  29.517  28.785  1.00  0.00     0.074 A 
ATOM     36  C   UNL A   1      38.663  31.011  30.509  1.00  0.00     0.049 A 
ATOM     37  N   UNL A   1      40.617  29.025  29.397  1.00  0.00    -0.248 NA
ATOM     38  C   UNL A   1      39.519  29.186  27.352  1.00  0.00     0.031 C 
ATOM     39  C   UNL A   1      37.760  31.957  31.166  1.00  0.00     0.029 A 
ATOM     40  N   UNL A   1      39.758  30.985  31.352  1.00  0.00    -0.354 N 
ATOM     41  C   UNL A   1      41.312  28.273  28.448  1.00  0.00     0.074 A 
ATOM     42  C   UNL A   1      40.570  28.388  27.211  1.00  0.00     0.031 C 
ATOM     43  C   UNL A   1      38.360  32.482  32.239  1.00  0.00     0.029 A 
ATOM     44  C   UNL A   1      39.590  31.748  32.487  1.00  0.00     0.049 A 
ATOM     45  H   UNL A   1      40.576  30.471  31.161  1.00  0.00     0.167 HD
ATOM     46  C   UNL A   1      42.451  27.544  28.599  1.00  0.00     0.034 A 
ATOM     47  C   UNL A   1      40.250  31.779  33.665  1.00  0.00     0.034 A 
ATOM     48  C   UNL A   1      43.219  27.486  29.825  1.00  0.00     0.049 A 
ATOM     49  C   UNL A   1      41.403  30.846  33.880  1.00  0.00     0.074 A 
ATOM     50  C   UNL A   1      44.384  26.780  30.084  1.00  0.00     0.029 A 
ATOM     51  N   UNL A   1      42.908  28.162  30.997  1.00  0.00    -0.354 N 
ATOM     52  N   UNL A   1      41.957  30.012  33.033  1.00  0.00    -0.248 NA
ATOM     53  C   UNL A   1      41.991  30.825  35.224  1.00  0.00     0.031 C 
ATOM     54  C   UNL A   1      44.728  26.964  31.428  1.00  0.00     0.029 A 
ATOM     55  C   UNL A   1      43.827  27.850  31.991  1.00  0.00     0.049 A 
ATOM     56  H   UNL A   1      42.145  28.774  31.107  1.00  0.00     0.167 HD
ATOM     57  C   UNL A   1      42.956  29.360  33.747  1.00  0.00     0.074 A 
ATOM     58  C   UNL A   1      42.950  29.923  35.082  1.00  0.00     0.031 C 
ATOM     59  C   UNL A   1      43.796  28.377  33.333  1.00  0.00     0.034 A 
BRANCH  46  60
ATOM     60  C   UNL A   1      42.902  26.665  27.448  1.00  0.00     0.023 A 
ATOM     61  C   UNL A   1      42.465  25.340  27.273  1.00  0.00     0.031 A 
ATOM     62  C   UNL A   1      43.774  27.198  26.477  1.00  0.00     0.131 A 
ATOM     63  C   UNL A   1      42.932  24.587  26.180  1.00  0.00     0.055 A 
ATOM     64  C   UNL A   1      44.179  26.468  25.358  1.00  0.00     0.041 A 
ATOM     65  F   UNL A   1      44.242  28.451  26.596  1.00  0.00    -0.206 F 
ATOM     66  C   UNL A   1      43.765  25.149  25.209  1.00  0.00     0.022 A 
BRANCH  63  67
ATOM     67  S   UNL A   1      42.529  22.818  26.094  1.00  0.00     0.124 S 
ATOM     68  O   UNL A   1      41.078  22.834  26.260  1.00  0.00    -0.237 OA
ATOM     69  O   UNL A   1      43.017  22.447  24.771  1.00  0.00    -0.237 OA
ATOM     70  O   UNL A   1      43.268  22.242  27.216  1.00  0.00    -0.744 OA
ENDBRANCH  63  67
ENDBRANCH  46  60
BRANCH  47  71
ATOM     71  C   UNL A   1      39.706  32.599  34.792  1.00  0.00     0.023 A 
ATOM     72  C   UNL A   1      39.032  32.012  35.872  1.00  0.00     0.031 A 
ATOM     73  C   UNL A   1      39.856  34.001  34.792  1.00  0.00     0.131 A 
ATOM     74  C   UNL A   1      38.538  32.825  36.907  1.00  0.00     0.055 A 
ATOM     75  C   UNL A   1      39.431  34.793  35.857  1.00  0.00     0.041 A 
ATOM     76  F   UNL A   1      40.466  34.621  33.768  1.00  0.00    -0.206 F 
ATOM     77  C   UNL A   1      38.760  34.205  36.921  1.00  0.00     0.022 A 
BRANCH  74  78
ATOM     78  S   UNL A   1      37.525  32.065  38.204  1.00  0.00     0.124 S 
ATOM     79  O   UNL A   1      37.408  30.693  37.725  1.00  0.00    -0.237 OA
ATOM     80  O   UNL A   1      38.349  32.263  39.391  1.00  0.00    -0.237 OA
ATOM     81  O   UNL A   1      36.287  32.844  38.170  1.00  0.00    -0.744 OA
ENDBRANCH  74  78
ENDBRANCH  47  71
BRANCH  59  82
ATOM     82  C   UNL A   1      44.788  27.869  34.348  1.00  0.00     0.023 A 
ATOM     83  C   UNL A   1      44.408  26.951  35.344  1.00  0.00     0.031 A 
ATOM     84  C   UNL A   1      46.108  28.351  34.363  1.00  0.00     0.131 A 
ATOM     85  C   UNL A   1      45.316  26.597  36.352  1.00  0.00     0.055 A 
ATOM     86  C   UNL A   1      47.027  27.947  35.332  1.00  0.00     0.041 A 
ATOM     87  F   UNL A   1      46.522  29.236  33.441  1.00  0.00    -0.206 F 
ATOM     88  C   UNL A   1      46.629  27.077  36.344  1.00  0.00     0.022 A 
BRANCH  85  89
ATOM     89  S   UNL A   1      44.726  25.591  37.741  1.00  0.00     0.124 S 
ATOM     90  O   UNL A   1      43.655  26.422  38.282  1.00  0.00    -0.237 OA
ATOM     91  O   UNL A   1      44.307  24.359  37.080  1.00  0.00    -0.237 OA
ATOM     92  O   UNL A   1      45.904  25.462  38.597  1.00  0.00    -0.744 OA
ENDBRANCH  85  89
ENDBRANCH  59  82
ENDBRANCH  33  34
ENDBRANCH  26  28
ENDBRANCH  25  26
ENDBRANCH  24  25
ENDBRANCH  23  24
ENDBRANCH   1  23
TORSDOF 21
ENDMDL
