MODEL 1
REMARK VINA RESULT:      -9.3      0.000      0.000
REMARK SMILES C[C@@H](C(=O)OCCOC(=O)c1ccc(-c2c3nc(c(-c4cc(S(=O)(=O)[O-])ccc4F)c4ccc([nH]4)c(-c4cc(S(=O)(=O)[O-])ccc4F)c4nc(c(-c5cc(S(=O)(=O)[O-])ccc5F)c5ccc2[nH]5)C=C4)C=C3)cc1)c1ccc(Cc2cccs2)cc1F
REMARK SMILES IDX 6 1 5 2 3 3 4 4 2 5 1 6 74 7 75 8 85 9 76 10 84 11 86 12
REMARK SMILES IDX 77 13 78 14 79 15 80 16 83 17 81 18 82 19 7 20 8 21 9 22
REMARK SMILES IDX 10 23 11 24 12 25 73 26 13 27 72 28 14 29 15 30 16 31 66 32
REMARK SMILES IDX 17 33 71 34 65 35 67 36 18 37 70 38 64 39 63 40 19 42 51 43
REMARK SMILES IDX 31 44 50 45 32 46 35 47 49 48 68 49 33 50 34 51 48 53 69 54
REMARK SMILES IDX 36 55 20 56 21 57 29 58 22 59 28 60 30 61 27 62 23 63 24 64
REMARK SMILES IDX 25 65 26 66 52 67 53 68 61 69 54 70 60 71 62 72 59 73 55 74
REMARK SMILES IDX 56 75 57 76 58 77 37 78 38 79 46 80 39 81 45 82 47 83 44 84
REMARK SMILES IDX 40 85 41 86 42 87 43 88
REMARK H PARENT 67 41 35 52
REMARK Flexibility Score: inf
ROOT
ATOM      1  C   UNL A   1      34.156  34.838  29.496  1.00  0.00     0.274 C 
ENDROOT
BRANCH   1   2
ATOM      2  O   UNL A   1      33.669  34.598  30.833  1.00  0.00    -0.462 OA
BRANCH   2   3
ATOM      3  C   UNL A   1      34.391  33.737  31.605  1.00  0.00     0.313 C 
ATOM      4  O   UNL A   1      34.381  32.519  31.457  1.00  0.00    -0.252 OA
BRANCH   3   5
ATOM      5  C   UNL A   1      35.158  34.447  32.731  1.00  0.00     0.129 C 
ATOM      6  C   UNL A   1      34.610  35.845  33.042  1.00  0.00     0.025 C 
BRANCH   5   7
ATOM      7  C   UNL A   1      36.668  34.384  32.512  1.00  0.00     0.002 A 
ATOM      8  C   UNL A   1      37.164  34.281  31.199  1.00  0.00     0.008 A 
ATOM      9  C   UNL A   1      37.607  34.474  33.546  1.00  0.00     0.127 A 
ATOM     10  C   UNL A   1      38.540  34.301  30.939  1.00  0.00     0.004 A 
ATOM     11  C   UNL A   1      38.982  34.469  33.298  1.00  0.00     0.043 A 
ATOM     12  F   UNL A   1      37.207  34.621  34.816  1.00  0.00    -0.207 F 
ATOM     13  C   UNL A   1      39.464  34.416  31.984  1.00  0.00    -0.040 A 
BRANCH  13  14
ATOM     14  C   UNL A   1      40.944  34.568  31.698  1.00  0.00     0.082 C 
BRANCH  14  15
ATOM     15  C   UNL A   1      41.606  33.321  31.196  1.00  0.00     0.009 A 
ATOM     16  C   UNL A   1      41.282  32.554  30.092  1.00  0.00     0.016 A 
ATOM     17  S   UNL A   1      43.012  32.729  31.978  1.00  0.00    -0.149 S 
ATOM     18  C   UNL A   1      42.208  31.492  29.879  1.00  0.00     0.012 A 
ATOM     19  C   UNL A   1      43.208  31.484  30.825  1.00  0.00     0.065 A 
ENDBRANCH  14  15
ENDBRANCH  13  14
ENDBRANCH   5   7
ENDBRANCH   3   5
ENDBRANCH   2   3
ENDBRANCH   1   2
BRANCH   1  20
ATOM     20  C   UNL A   1      33.261  34.129  28.484  1.00  0.00     0.275 C 
BRANCH  20  21
ATOM     21  O   UNL A   1      34.090  33.358  27.603  1.00  0.00    -0.458 OA
BRANCH  21  22
ATOM     22  C   UNL A   1      33.922  32.014  27.645  1.00  0.00     0.338 C 
ATOM     23  O   UNL A   1      32.913  31.395  27.361  1.00  0.00    -0.246 OA
BRANCH  22  24
ATOM     24  C   UNL A   1      35.171  31.383  28.127  1.00  0.00     0.060 A 
ATOM     25  C   UNL A   1      35.187  30.048  28.526  1.00  0.00     0.016 A 
ATOM     26  C   UNL A   1      36.328  32.154  28.251  1.00  0.00     0.016 A 
ATOM     27  C   UNL A   1      36.329  29.514  29.122  1.00  0.00     0.010 A 
ATOM     28  C   UNL A   1      37.497  31.585  28.775  1.00  0.00     0.010 A 
ATOM     29  C   UNL A   1      37.505  30.267  29.266  1.00  0.00    -0.014 A 
BRANCH  29  30
ATOM     30  C   UNL A   1      38.694  29.714  29.990  1.00  0.00     0.031 A 
ATOM     31  C   UNL A   1      38.966  30.118  31.423  1.00  0.00     0.074 A 
ATOM     32  C   UNL A   1      39.521  28.816  29.411  1.00  0.00     0.049 A 
ATOM     33  N   UNL A   1      40.046  29.950  32.144  1.00  0.00    -0.248 NA
ATOM     34  C   UNL A   1      37.881  30.816  32.128  1.00  0.00     0.031 C 
ATOM     35  C   UNL A   1      39.369  28.262  28.064  1.00  0.00     0.029 A 
ATOM     36  N   UNL A   1      40.650  28.194  29.892  1.00  0.00    -0.354 N 
ATOM     37  C   UNL A   1      39.804  30.597  33.354  1.00  0.00     0.074 A 
ATOM     38  C   UNL A   1      38.469  31.150  33.268  1.00  0.00     0.031 C 
ATOM     39  C   UNL A   1      40.323  27.345  27.852  1.00  0.00     0.029 A 
ATOM     40  C   UNL A   1      41.233  27.330  28.992  1.00  0.00     0.049 A 
ATOM     41  H   UNL A   1      41.008  28.351  30.795  1.00  0.00     0.167 HD
ATOM     42  C   UNL A   1      40.623  30.727  34.430  1.00  0.00     0.034 A 
ATOM     43  C   UNL A   1      42.396  26.649  29.038  1.00  0.00     0.034 A 
ATOM     44  C   UNL A   1      41.922  30.105  34.536  1.00  0.00     0.049 A 
ATOM     45  C   UNL A   1      43.301  26.820  30.228  1.00  0.00     0.074 A 
ATOM     46  C   UNL A   1      42.830  30.173  35.582  1.00  0.00     0.029 A 
ATOM     47  N   UNL A   1      42.492  29.278  33.578  1.00  0.00    -0.354 N 
ATOM     48  N   UNL A   1      43.121  27.549  31.304  1.00  0.00    -0.248 NA
ATOM     49  C   UNL A   1      44.580  26.097  30.197  1.00  0.00     0.031 C 
ATOM     50  C   UNL A   1      43.964  29.431  35.234  1.00  0.00     0.029 A 
ATOM     51  C   UNL A   1      43.740  28.845  33.999  1.00  0.00     0.049 A 
ATOM     52  H   UNL A   1      42.070  29.035  32.722  1.00  0.00     0.167 HD
ATOM     53  C   UNL A   1      44.267  27.377  32.073  1.00  0.00     0.074 A 
ATOM     54  C   UNL A   1      45.117  26.449  31.356  1.00  0.00     0.031 C 
ATOM     55  C   UNL A   1      44.593  27.943  33.263  1.00  0.00     0.034 A 
BRANCH  42  56
ATOM     56  C   UNL A   1      40.169  31.636  35.548  1.00  0.00     0.023 A 
ATOM     57  C   UNL A   1      39.199  31.252  36.490  1.00  0.00     0.031 A 
ATOM     58  C   UNL A   1      40.715  32.930  35.658  1.00  0.00     0.131 A 
ATOM     59  C   UNL A   1      38.761  32.174  37.456  1.00  0.00     0.055 A 
ATOM     60  C   UNL A   1      40.331  33.813  36.667  1.00  0.00     0.041 A 
ATOM     61  F   UNL A   1      41.632  33.360  34.775  1.00  0.00    -0.206 F 
ATOM     62  C   UNL A   1      39.337  33.441  37.566  1.00  0.00     0.022 A 
BRANCH  59  63
ATOM     63  S   UNL A   1      37.331  31.740  38.485  1.00  0.00     0.124 S 
ATOM     64  O   UNL A   1      36.370  32.775  38.108  1.00  0.00    -0.237 OA
ATOM     65  O   UNL A   1      37.022  30.386  38.042  1.00  0.00    -0.237 OA
ATOM     66  O   UNL A   1      37.844  31.848  39.850  1.00  0.00    -0.744 OA
ENDBRANCH  59  63
ENDBRANCH  42  56
BRANCH  43  67
ATOM     67  C   UNL A   1      42.825  25.818  27.875  1.00  0.00     0.023 A 
ATOM     68  C   UNL A   1      42.276  24.546  27.647  1.00  0.00     0.031 A 
ATOM     69  C   UNL A   1      43.817  26.277  26.990  1.00  0.00     0.131 A 
ATOM     70  C   UNL A   1      42.741  23.768  26.573  1.00  0.00     0.055 A 
ATOM     71  C   UNL A   1      44.235  25.525  25.892  1.00  0.00     0.041 A 
ATOM     72  F   UNL A   1      44.381  27.483  27.166  1.00  0.00    -0.206 F 
ATOM     73  C   UNL A   1      43.702  24.257  25.685  1.00  0.00     0.022 A 
BRANCH  70  74
ATOM     74  S   UNL A   1      42.117  22.075  26.390  1.00  0.00     0.124 S 
ATOM     75  O   UNL A   1      42.622  21.713  25.071  1.00  0.00    -0.237 OA
ATOM     76  O   UNL A   1      42.737  21.398  27.524  1.00  0.00    -0.237 OA
ATOM     77  O   UNL A   1      40.667  22.236  26.482  1.00  0.00    -0.744 OA
ENDBRANCH  70  74
ENDBRANCH  43  67
BRANCH  55  78
ATOM     78  C   UNL A   1      45.919  27.550  33.864  1.00  0.00     0.023 A 
ATOM     79  C   UNL A   1      46.034  26.453  34.737  1.00  0.00     0.031 A 
ATOM     80  C   UNL A   1      47.074  28.298  33.584  1.00  0.00     0.131 A 
ATOM     81  C   UNL A   1      47.268  26.168  35.341  1.00  0.00     0.055 A 
ATOM     82  C   UNL A   1      48.310  27.979  34.149  1.00  0.00     0.041 A 
ATOM     83  F   UNL A   1      47.019  29.357  32.760  1.00  0.00    -0.206 F 
ATOM     84  C   UNL A   1      48.410  26.916  35.043  1.00  0.00     0.022 A 
BRANCH  81  85
ATOM     85  S   UNL A   1      47.345  24.855  36.591  1.00  0.00     0.124 S 
ATOM     86  O   UNL A   1      47.695  23.689  35.787  1.00  0.00    -0.237 OA
ATOM     87  O   UNL A   1      48.383  25.343  37.494  1.00  0.00    -0.237 OA
ATOM     88  O   UNL A   1      45.995  24.837  37.153  1.00  0.00    -0.744 OA
ENDBRANCH  81  85
ENDBRANCH  55  78
ENDBRANCH  29  30
ENDBRANCH  22  24
ENDBRANCH  21  22
ENDBRANCH  20  21
ENDBRANCH   1  20
TORSDOF 17
ENDMDL
MODEL 2
REMARK VINA RESULT:      -9.2      3.967      9.980
REMARK SMILES C[C@@H](C(=O)OCCOC(=O)c1ccc(-c2c3nc(c(-c4cc(S(=O)(=O)[O-])ccc4F)c4ccc([nH]4)c(-c4cc(S(=O)(=O)[O-])ccc4F)c4nc(c(-c5cc(S(=O)(=O)[O-])ccc5F)c5ccc2[nH]5)C=C4)C=C3)cc1)c1ccc(Cc2cccs2)cc1F
REMARK SMILES IDX 6 1 5 2 3 3 4 4 2 5 1 6 74 7 75 8 85 9 76 10 84 11 86 12
REMARK SMILES IDX 77 13 78 14 79 15 80 16 83 17 81 18 82 19 7 20 8 21 9 22
REMARK SMILES IDX 10 23 11 24 12 25 73 26 13 27 72 28 14 29 15 30 16 31 66 32
REMARK SMILES IDX 17 33 71 34 65 35 67 36 18 37 70 38 64 39 63 40 19 42 51 43
REMARK SMILES IDX 31 44 50 45 32 46 35 47 49 48 68 49 33 50 34 51 48 53 69 54
REMARK SMILES IDX 36 55 20 56 21 57 29 58 22 59 28 60 30 61 27 62 23 63 24 64
REMARK SMILES IDX 25 65 26 66 52 67 53 68 61 69 54 70 60 71 62 72 59 73 55 74
REMARK SMILES IDX 56 75 57 76 58 77 37 78 38 79 46 80 39 81 45 82 47 83 44 84
REMARK SMILES IDX 40 85 41 86 42 87 43 88
REMARK H PARENT 67 41 35 52
REMARK Flexibility Score: inf
ROOT
ATOM      1  C   UNL A   1      31.793  29.068  24.212  1.00  0.00     0.274 C 
ENDROOT
BRANCH   1   2
ATOM      2  O   UNL A   1      30.632  28.409  23.663  1.00  0.00    -0.462 OA
BRANCH   2   3
ATOM      3  C   UNL A   1      30.846  27.240  22.996  1.00  0.00     0.313 C 
ATOM      4  O   UNL A   1      31.701  27.100  22.127  1.00  0.00    -0.252 OA
BRANCH   3   5
ATOM      5  C   UNL A   1      29.852  26.138  23.391  1.00  0.00     0.129 C 
ATOM      6  C   UNL A   1      28.509  26.690  23.882  1.00  0.00     0.025 C 
BRANCH   5   7
ATOM      7  C   UNL A   1      30.493  25.102  24.311  1.00  0.00     0.002 A 
ATOM      8  C   UNL A   1      30.786  23.824  23.801  1.00  0.00     0.008 A 
ATOM      9  C   UNL A   1      30.861  25.362  25.637  1.00  0.00     0.127 A 
ATOM     10  C   UNL A   1      31.447  22.865  24.579  1.00  0.00     0.004 A 
ATOM     11  C   UNL A   1      31.498  24.403  26.429  1.00  0.00     0.043 A 
ATOM     12  F   UNL A   1      30.655  26.572  26.174  1.00  0.00    -0.207 F 
ATOM     13  C   UNL A   1      31.828  23.151  25.896  1.00  0.00    -0.040 A 
BRANCH  13  14
ATOM     14  C   UNL A   1      32.655  22.165  26.695  1.00  0.00     0.082 C 
BRANCH  14  15
ATOM     15  C   UNL A   1      34.014  21.896  26.126  1.00  0.00     0.009 A 
ATOM     16  C   UNL A   1      34.484  20.749  25.513  1.00  0.00     0.016 A 
ATOM     17  S   UNL A   1      35.193  23.141  26.111  1.00  0.00    -0.149 S 
ATOM     18  C   UNL A   1      35.808  20.906  25.009  1.00  0.00     0.012 A 
ATOM     19  C   UNL A   1      36.305  22.166  25.254  1.00  0.00     0.065 A 
ENDBRANCH  14  15
ENDBRANCH  13  14
ENDBRANCH   5   7
ENDBRANCH   3   5
ENDBRANCH   2   3
ENDBRANCH   1   2
BRANCH   1  20
ATOM     20  C   UNL A   1      31.366  30.054  25.295  1.00  0.00     0.275 C 
BRANCH  20  21
ATOM     21  O   UNL A   1      32.264  29.927  26.407  1.00  0.00    -0.458 OA
BRANCH  21  22
ATOM     22  C   UNL A   1      32.744  31.082  26.926  1.00  0.00     0.338 C 
ATOM     23  O   UNL A   1      32.192  32.168  26.924  1.00  0.00    -0.246 OA
BRANCH  22  24
ATOM     24  C   UNL A   1      34.090  30.840  27.490  1.00  0.00     0.060 A 
ATOM     25  C   UNL A   1      34.573  29.543  27.651  1.00  0.00     0.016 A 
ATOM     26  C   UNL A   1      34.855  31.920  27.934  1.00  0.00     0.016 A 
ATOM     27  C   UNL A   1      35.774  29.327  28.326  1.00  0.00     0.010 A 
ATOM     28  C   UNL A   1      36.100  31.697  28.537  1.00  0.00     0.010 A 
ATOM     29  C   UNL A   1      36.561  30.393  28.789  1.00  0.00    -0.014 A 
BRANCH  29  30
ATOM     30  C   UNL A   1      37.801  30.148  29.592  1.00  0.00     0.031 A 
ATOM     31  C   UNL A   1      38.934  29.330  29.009  1.00  0.00     0.074 A 
ATOM     32  C   UNL A   1      37.964  30.679  30.823  1.00  0.00     0.049 A 
ATOM     33  N   UNL A   1      39.974  28.805  29.607  1.00  0.00    -0.248 NA
ATOM     34  C   UNL A   1      38.876  29.058  27.566  1.00  0.00     0.031 C 
ATOM     35  C   UNL A   1      37.007  31.548  31.510  1.00  0.00     0.029 A 
ATOM     36  N   UNL A   1      39.008  30.578  31.715  1.00  0.00    -0.354 N 
ATOM     37  C   UNL A   1      40.646  28.069  28.632  1.00  0.00     0.074 A 
ATOM     38  C   UNL A   1      39.896  28.227  27.404  1.00  0.00     0.031 C 
ATOM     39  C   UNL A   1      37.530  31.949  32.678  1.00  0.00     0.029 A 
ATOM     40  C   UNL A   1      38.803  31.269  32.888  1.00  0.00     0.049 A 
ATOM     41  H   UNL A   1      39.825  30.061  31.530  1.00  0.00     0.167 HD
ATOM     42  C   UNL A   1      41.774  27.323  28.754  1.00  0.00     0.034 A 
ATOM     43  C   UNL A   1      39.515  31.309  34.032  1.00  0.00     0.034 A 
ATOM     44  C   UNL A   1      42.558  27.236  29.964  1.00  0.00     0.049 A 
ATOM     45  C   UNL A   1      40.753  30.461  34.158  1.00  0.00     0.074 A 
ATOM     46  C   UNL A   1      43.717  26.510  30.192  1.00  0.00     0.029 A 
ATOM     47  N   UNL A   1      42.285  27.916  31.143  1.00  0.00    -0.354 N 
ATOM     48  N   UNL A   1      41.296  29.658  33.273  1.00  0.00    -0.248 NA
ATOM     49  C   UNL A   1      41.456  30.502  35.448  1.00  0.00     0.031 C 
ATOM     50  C   UNL A   1      44.112  26.710  31.520  1.00  0.00     0.029 A 
ATOM     51  C   UNL A   1      43.239  27.614  32.103  1.00  0.00     0.049 A 
ATOM     52  H   UNL A   1      41.522  28.524  31.277  1.00  0.00     0.167 HD
ATOM     53  C   UNL A   1      42.401  29.095  33.904  1.00  0.00     0.074 A 
ATOM     54  C   UNL A   1      42.467  29.675  35.229  1.00  0.00     0.031 C 
ATOM     55  C   UNL A   1      43.280  28.174  33.432  1.00  0.00     0.034 A 
BRANCH  42  56
ATOM     56  C   UNL A   1      42.187  26.481  27.569  1.00  0.00     0.023 A 
ATOM     57  C   UNL A   1      41.796  25.140  27.421  1.00  0.00     0.031 A 
ATOM     58  C   UNL A   1      43.011  27.039  26.572  1.00  0.00     0.131 A 
ATOM     59  C   UNL A   1      42.280  24.386  26.338  1.00  0.00     0.055 A 
ATOM     60  C   UNL A   1      43.426  26.307  25.460  1.00  0.00     0.041 A 
ATOM     61  F   UNL A   1      43.433  28.311  26.669  1.00  0.00    -0.206 F 
ATOM     62  C   UNL A   1      43.072  24.967  25.345  1.00  0.00     0.022 A 
BRANCH  59  63
ATOM     63  S   UNL A   1      41.973  22.599  26.316  1.00  0.00     0.124 S 
ATOM     64  O   UNL A   1      42.577  22.209  25.044  1.00  0.00    -0.237 OA
ATOM     65  O   UNL A   1      42.661  22.145  27.519  1.00  0.00    -0.237 OA
ATOM     66  O   UNL A   1      40.515  22.500  26.358  1.00  0.00    -0.744 OA
ENDBRANCH  59  63
ENDBRANCH  42  56
BRANCH  43  67
ATOM     67  C   UNL A   1      39.024  32.106  35.195  1.00  0.00     0.023 A 
ATOM     68  C   UNL A   1      38.430  31.485  36.304  1.00  0.00     0.031 A 
ATOM     69  C   UNL A   1      39.118  33.510  35.194  1.00  0.00     0.131 A 
ATOM     70  C   UNL A   1      37.932  32.270  37.358  1.00  0.00     0.055 A 
ATOM     71  C   UNL A   1      38.672  34.281  36.268  1.00  0.00     0.041 A 
ATOM     72  F   UNL A   1      39.670  34.154  34.154  1.00  0.00    -0.206 F 
ATOM     73  C   UNL A   1      38.066  33.660  37.355  1.00  0.00     0.022 A 
BRANCH  70  74
ATOM     74  S   UNL A   1      37.043  31.449  38.709  1.00  0.00     0.124 S 
ATOM     75  O   UNL A   1      37.995  31.569  39.808  1.00  0.00    -0.237 OA
ATOM     76  O   UNL A   1      35.834  32.259  38.815  1.00  0.00    -0.237 OA
ATOM     77  O   UNL A   1      36.837  30.092  38.205  1.00  0.00    -0.744 OA
ENDBRANCH  70  74
ENDBRANCH  43  67
BRANCH  55  78
ATOM     78  C   UNL A   1      44.394  27.759  34.358  1.00  0.00     0.023 A 
ATOM     79  C   UNL A   1      44.273  26.638  35.199  1.00  0.00     0.031 A 
ATOM     80  C   UNL A   1      45.579  28.512  34.424  1.00  0.00     0.131 A 
ATOM     81  C   UNL A   1      45.298  26.331  36.107  1.00  0.00     0.055 A 
ATOM     82  C   UNL A   1      46.617  28.172  35.294  1.00  0.00     0.041 A 
ATOM     83  F   UNL A   1      45.745  29.594  33.646  1.00  0.00    -0.206 F 
ATOM     84  C   UNL A   1      46.474  27.084  36.151  1.00  0.00     0.022 A 
BRANCH  81  85
ATOM     85  S   UNL A   1      45.039  24.984  37.293  1.00  0.00     0.124 S 
ATOM     86  O   UNL A   1      46.402  24.687  37.721  1.00  0.00    -0.237 OA
ATOM     87  O   UNL A   1      44.179  25.608  38.293  1.00  0.00    -0.237 OA
ATOM     88  O   UNL A   1      44.399  23.940  36.493  1.00  0.00    -0.744 OA
ENDBRANCH  81  85
ENDBRANCH  55  78
ENDBRANCH  29  30
ENDBRANCH  22  24
ENDBRANCH  21  22
ENDBRANCH  20  21
ENDBRANCH   1  20
TORSDOF 17
ENDMDL
MODEL 3
REMARK VINA RESULT:      -9.2      3.624      9.835
REMARK SMILES C[C@@H](C(=O)OCCOC(=O)c1ccc(-c2c3nc(c(-c4cc(S(=O)(=O)[O-])ccc4F)c4ccc([nH]4)c(-c4cc(S(=O)(=O)[O-])ccc4F)c4nc(c(-c5cc(S(=O)(=O)[O-])ccc5F)c5ccc2[nH]5)C=C4)C=C3)cc1)c1ccc(Cc2cccs2)cc1F
REMARK SMILES IDX 6 1 5 2 3 3 4 4 2 5 1 6 74 7 75 8 85 9 76 10 84 11 86 12
REMARK SMILES IDX 77 13 78 14 79 15 80 16 83 17 81 18 82 19 7 20 8 21 9 22
REMARK SMILES IDX 10 23 11 24 12 25 73 26 13 27 72 28 14 29 15 30 16 31 66 32
REMARK SMILES IDX 17 33 71 34 65 35 67 36 18 37 70 38 64 39 63 40 19 42 51 43
REMARK SMILES IDX 31 44 50 45 32 46 35 47 49 48 68 49 33 50 34 51 48 53 69 54
REMARK SMILES IDX 36 55 20 56 21 57 29 58 22 59 28 60 30 61 27 62 23 63 24 64
REMARK SMILES IDX 25 65 26 66 52 67 53 68 61 69 54 70 60 71 62 72 59 73 55 74
REMARK SMILES IDX 56 75 57 76 58 77 37 78 38 79 46 80 39 81 45 82 47 83 44 84
REMARK SMILES IDX 40 85 41 86 42 87 43 88
REMARK H PARENT 67 41 35 52
REMARK Flexibility Score: inf
ROOT
ATOM      1  C   UNL A   1      31.395  30.077  25.003  1.00  0.00     0.274 C 
ENDROOT
BRANCH   1   2
ATOM      2  O   UNL A   1      31.048  28.688  24.826  1.00  0.00    -0.462 OA
BRANCH   2   3
ATOM      3  C   UNL A   1      31.529  28.072  23.709  1.00  0.00     0.313 C 
ATOM      4  O   UNL A   1      30.813  27.581  22.842  1.00  0.00    -0.252 OA
BRANCH   3   5
ATOM      5  C   UNL A   1      33.063  27.988  23.688  1.00  0.00     0.129 C 
ATOM      6  C   UNL A   1      33.682  28.634  22.443  1.00  0.00     0.025 C 
BRANCH   5   7
ATOM      7  C   UNL A   1      33.555  26.575  23.988  1.00  0.00     0.002 A 
ATOM      8  C   UNL A   1      33.748  25.678  22.920  1.00  0.00     0.008 A 
ATOM      9  C   UNL A   1      33.879  26.120  25.272  1.00  0.00     0.127 A 
ATOM     10  C   UNL A   1      34.273  24.397  23.133  1.00  0.00     0.004 A 
ATOM     11  C   UNL A   1      34.380  24.835  25.497  1.00  0.00     0.043 A 
ATOM     12  F   UNL A   1      33.763  26.935  26.329  1.00  0.00    -0.207 F 
ATOM     13  C   UNL A   1      34.614  23.969  24.423  1.00  0.00    -0.040 A 
BRANCH  13  14
ATOM     14  C   UNL A   1      35.301  22.637  24.641  1.00  0.00     0.082 C 
BRANCH  14  15
ATOM     15  C   UNL A   1      34.370  21.463  24.688  1.00  0.00     0.009 A 
ATOM     16  C   UNL A   1      33.008  21.429  24.456  1.00  0.00     0.016 A 
ATOM     17  S   UNL A   1      34.994  19.894  24.984  1.00  0.00    -0.149 S 
ATOM     18  C   UNL A   1      32.483  20.105  24.497  1.00  0.00     0.012 A 
ATOM     19  C   UNL A   1      33.461  19.173  24.760  1.00  0.00     0.065 A 
ENDBRANCH  14  15
ENDBRANCH  13  14
ENDBRANCH   5   7
ENDBRANCH   3   5
ENDBRANCH   2   3
ENDBRANCH   1   2
BRANCH   1  20
ATOM     20  C   UNL A   1      31.759  30.340  26.461  1.00  0.00     0.275 C 
BRANCH  20  21
ATOM     21  O   UNL A   1      33.189  30.361  26.578  1.00  0.00    -0.458 OA
BRANCH  21  22
ATOM     22  C   UNL A   1      33.719  31.394  27.276  1.00  0.00     0.338 C 
ATOM     23  O   UNL A   1      33.209  32.483  27.467  1.00  0.00    -0.246 OA
BRANCH  22  24
ATOM     24  C   UNL A   1      35.060  31.011  27.769  1.00  0.00     0.060 A 
ATOM     25  C   UNL A   1      35.379  29.675  28.004  1.00  0.00     0.016 A 
ATOM     26  C   UNL A   1      35.992  32.005  28.069  1.00  0.00     0.016 A 
ATOM     27  C   UNL A   1      36.588  29.345  28.615  1.00  0.00     0.010 A 
ATOM     28  C   UNL A   1      37.240  31.658  28.606  1.00  0.00     0.010 A 
ATOM     29  C   UNL A   1      37.542  30.324  28.934  1.00  0.00    -0.014 A 
BRANCH  29  30
ATOM     30  C   UNL A   1      38.797  29.970  29.672  1.00  0.00     0.031 A 
ATOM     31  C   UNL A   1      39.811  29.040  29.041  1.00  0.00     0.074 A 
ATOM     32  C   UNL A   1      39.080  30.498  30.882  1.00  0.00     0.049 A 
ATOM     33  N   UNL A   1      40.829  28.424  29.589  1.00  0.00    -0.248 NA
ATOM     34  C   UNL A   1      39.644  28.756  27.608  1.00  0.00     0.031 C 
ATOM     35  C   UNL A   1      38.252  31.465  31.604  1.00  0.00     0.029 A 
ATOM     36  N   UNL A   1      40.159  30.308  31.715  1.00  0.00    -0.354 N 
ATOM     37  C   UNL A   1      41.369  27.613  28.593  1.00  0.00     0.074 A 
ATOM     38  C   UNL A   1      40.569  27.828  27.406  1.00  0.00     0.031 C 
ATOM     39  C   UNL A   1      38.877  31.828  32.734  1.00  0.00     0.029 A 
ATOM     40  C   UNL A   1      40.089  31.031  32.885  1.00  0.00     0.049 A 
ATOM     41  H   UNL A   1      40.911  29.713  31.495  1.00  0.00     0.167 HD
ATOM     42  C   UNL A   1      42.426  26.763  28.665  1.00  0.00     0.034 A 
ATOM     43  C   UNL A   1      40.866  31.017  33.987  1.00  0.00     0.034 A 
ATOM     44  C   UNL A   1      43.266  26.616  29.831  1.00  0.00     0.049 A 
ATOM     45  C   UNL A   1      42.021  30.054  34.059  1.00  0.00     0.074 A 
ATOM     46  C   UNL A   1      44.360  25.784  30.008  1.00  0.00     0.029 A 
ATOM     47  N   UNL A   1      43.127  27.334  31.011  1.00  0.00    -0.354 N 
ATOM     48  N   UNL A   1      42.434  29.192  33.161  1.00  0.00    -0.248 NA
ATOM     49  C   UNL A   1      42.798  30.044  35.307  1.00  0.00     0.031 C 
ATOM     50  C   UNL A   1      44.848  25.962  31.307  1.00  0.00     0.029 A 
ATOM     51  C   UNL A   1      44.101  26.953  31.922  1.00  0.00     0.049 A 
ATOM     52  H   UNL A   1      42.435  28.015  31.177  1.00  0.00     0.167 HD
ATOM     53  C   UNL A   1      43.514  28.532  33.739  1.00  0.00     0.074 A 
ATOM     54  C   UNL A   1      43.710  29.120  35.048  1.00  0.00     0.031 C 
ATOM     55  C   UNL A   1      44.271  27.524  33.236  1.00  0.00     0.034 A 
BRANCH  42  56
ATOM     56  C   UNL A   1      42.688  25.870  27.475  1.00  0.00     0.023 A 
ATOM     57  C   UNL A   1      42.160  24.572  27.372  1.00  0.00     0.031 A 
ATOM     58  C   UNL A   1      43.506  26.332  26.425  1.00  0.00     0.131 A 
ATOM     59  C   UNL A   1      42.507  23.762  26.278  1.00  0.00     0.055 A 
ATOM     60  C   UNL A   1      43.784  25.549  25.305  1.00  0.00     0.041 A 
ATOM     61  F   UNL A   1      44.055  27.556  26.476  1.00  0.00    -0.206 F 
ATOM     62  C   UNL A   1      43.295  24.249  25.233  1.00  0.00     0.022 A 
BRANCH  59  63
ATOM     63  S   UNL A   1      42.025  22.013  26.304  1.00  0.00     0.124 S 
ATOM     64  O   UNL A   1      42.394  21.624  27.663  1.00  0.00    -0.237 OA
ATOM     65  O   UNL A   1      40.596  22.075  26.021  1.00  0.00    -0.237 OA
ATOM     66  O   UNL A   1      42.843  21.415  25.251  1.00  0.00    -0.744 OA
ENDBRANCH  59  63
ENDBRANCH  42  56
BRANCH  43  67
ATOM     67  C   UNL A   1      40.521  31.873  35.160  1.00  0.00     0.023 A 
ATOM     68  C   UNL A   1      39.476  31.526  36.032  1.00  0.00     0.031 A 
ATOM     69  C   UNL A   1      41.218  33.069  35.407  1.00  0.00     0.131 A 
ATOM     70  C   UNL A   1      39.144  32.381  37.096  1.00  0.00     0.055 A 
ATOM     71  C   UNL A   1      40.921  33.887  36.498  1.00  0.00     0.041 A 
ATOM     72  F   UNL A   1      42.220  33.451  34.599  1.00  0.00    -0.206 F 
ATOM     73  C   UNL A   1      39.871  33.548  37.345  1.00  0.00     0.022 A 
BRANCH  70  74
ATOM     74  S   UNL A   1      37.701  31.980  38.118  1.00  0.00     0.124 S 
ATOM     75  O   UNL A   1      38.232  32.151  39.465  1.00  0.00    -0.237 OA
ATOM     76  O   UNL A   1      36.730  32.976  37.679  1.00  0.00    -0.237 OA
ATOM     77  O   UNL A   1      37.389  30.602  37.739  1.00  0.00    -0.744 OA
ENDBRANCH  70  74
ENDBRANCH  43  67
BRANCH  55  78
ATOM     78  C   UNL A   1      45.392  27.015  34.106  1.00  0.00     0.023 A 
ATOM     79  C   UNL A   1      45.230  25.884  34.926  1.00  0.00     0.031 A 
ATOM     80  C   UNL A   1      46.625  27.687  34.139  1.00  0.00     0.131 A 
ATOM     81  C   UNL A   1      46.268  25.489  35.784  1.00  0.00     0.055 A 
ATOM     82  C   UNL A   1      47.672  27.260  34.958  1.00  0.00     0.041 A 
ATOM     83  F   UNL A   1      46.831  28.775  33.380  1.00  0.00    -0.206 F 
ATOM     84  C   UNL A   1      47.492  26.163  35.796  1.00  0.00     0.022 A 
BRANCH  81  85
ATOM     85  S   UNL A   1      45.968  24.132  36.951  1.00  0.00     0.124 S 
ATOM     86  O   UNL A   1      44.767  23.514  36.397  1.00  0.00    -0.237 OA
ATOM     87  O   UNL A   1      47.195  23.350  36.845  1.00  0.00    -0.237 OA
ATOM     88  O   UNL A   1      45.779  24.815  38.230  1.00  0.00    -0.744 OA
ENDBRANCH  81  85
ENDBRANCH  55  78
ENDBRANCH  29  30
ENDBRANCH  22  24
ENDBRANCH  21  22
ENDBRANCH  20  21
ENDBRANCH   1  20
TORSDOF 17
ENDMDL
