MODEL 1
REMARK VINA RESULT:     -12.4      0.000      0.000
REMARK SMILES C[C@H]1[C@@H](C(=O)OCCOC(=O)c2ccc(-c3c4nc(c(-c5cc(S(=O)(=O)[O-])ccc5F)c5ccc([nH]5)c(-c5cc(S(=O)(=O)[O-])ccc5F)c5nc(c(-c6cc(S(=O)(=O)[O-])ccc6F)c6ccc3[nH]6)C=C5)C=C4)cc2)CCN1C(=O)/C=C/c1cccc(F)c1
REMARK SMILES IDX 7 1 6 2 4 3 5 4 3 5 1 6 2 7 77 8 75 9 76 10 78 11 79 12
REMARK SMILES IDX 80 13 81 14 82 15 83 16 88 17 84 18 86 19 85 20 87 21 8 22
REMARK SMILES IDX 9 23 10 24 11 25 12 26 13 27 74 28 14 29 73 30 15 31 16 32
REMARK SMILES IDX 17 33 67 34 18 35 72 36 66 37 68 38 19 39 71 40 65 41 64 42
REMARK SMILES IDX 20 44 52 45 32 46 51 47 33 48 36 49 50 50 69 51 34 52 35 53
REMARK SMILES IDX 49 55 70 56 37 57 21 58 22 59 30 60 23 61 29 62 31 63 28 64
REMARK SMILES IDX 24 65 25 66 26 67 27 68 53 69 54 70 62 71 55 72 61 73 63 74
REMARK SMILES IDX 60 75 56 76 57 77 58 78 59 79 38 80 39 81 47 82 40 83 46 84
REMARK SMILES IDX 48 85 45 86 41 87 42 88 43 89 44 90
REMARK H PARENT 68 43 36 54
REMARK Flexibility Score: inf
ROOT
ATOM      1  C   UNL A   1      34.727  20.899  25.132  1.00  0.00     0.274 C 
ENDROOT
BRANCH   1   2
ATOM      2  O   UNL A   1      34.577  22.068  25.963  1.00  0.00    -0.462 OA
BRANCH   2   3
ATOM      3  C   UNL A   1      33.474  22.828  25.804  1.00  0.00     0.311 C 
ATOM      4  O   UNL A   1      32.764  23.206  26.731  1.00  0.00    -0.252 OA
BRANCH   3   5
ATOM      5  C   UNL A   1      33.182  23.224  24.367  1.00  0.00     0.123 C 
ATOM      6  C   UNL A   1      34.051  25.685  24.736  1.00  0.00     0.032 C 
ATOM      7  C   UNL A   1      33.625  24.578  23.776  1.00  0.00     0.096 C 
ATOM      8  N   UNL A   1      32.484  25.004  22.950  1.00  0.00    -0.336 N 
ATOM      9  C   UNL A   1      31.699  23.070  24.002  1.00  0.00     0.039 C 
ATOM     10  C   UNL A   1      31.263  24.396  23.422  1.00  0.00     0.121 C 
BRANCH   8  11
ATOM     11  C   UNL A   1      32.435  25.932  21.932  1.00  0.00     0.246 C 
ATOM     12  O   UNL A   1      33.287  26.052  21.059  1.00  0.00    -0.270 OA
BRANCH  11  13
ATOM     13  C   UNL A   1      31.210  26.750  21.845  1.00  0.00     0.072 C 
ATOM     14  C   UNL A   1      31.098  27.909  22.508  1.00  0.00     0.014 C 
BRANCH  14  15
ATOM     15  C   UNL A   1      29.846  28.663  22.653  1.00  0.00    -0.023 A 
ATOM     16  C   UNL A   1      29.879  30.051  22.442  1.00  0.00     0.008 A 
ATOM     17  C   UNL A   1      28.633  28.074  23.033  1.00  0.00     0.047 A 
ATOM     18  C   UNL A   1      28.736  30.835  22.628  1.00  0.00     0.004 A 
ATOM     19  C   UNL A   1      27.503  28.862  23.219  1.00  0.00     0.123 A 
ATOM     20  C   UNL A   1      27.543  30.237  23.024  1.00  0.00     0.039 A 
ATOM     21  F   UNL A   1      26.356  28.287  23.605  1.00  0.00    -0.207 F 
ENDBRANCH  14  15
ENDBRANCH  11  13
ENDBRANCH   8  11
ENDBRANCH   3   5
ENDBRANCH   2   3
ENDBRANCH   1   2
BRANCH   1  22
ATOM     22  C   UNL A   1      36.188  20.460  25.107  1.00  0.00     0.275 C 
BRANCH  22  23
ATOM     23  O   UNL A   1      37.023  21.534  25.566  1.00  0.00    -0.458 OA
BRANCH  23  24
ATOM     24  C   UNL A   1      38.331  21.222  25.698  1.00  0.00     0.338 C 
ATOM     25  O   UNL A   1      38.908  20.230  25.292  1.00  0.00    -0.246 OA
BRANCH  24  26
ATOM     26  C   UNL A   1      39.014  22.342  26.352  1.00  0.00     0.060 A 
ATOM     27  C   UNL A   1      38.590  23.640  26.070  1.00  0.00     0.016 A 
ATOM     28  C   UNL A   1      40.139  22.111  27.139  1.00  0.00     0.016 A 
ATOM     29  C   UNL A   1      39.353  24.722  26.491  1.00  0.00     0.010 A 
ATOM     30  C   UNL A   1      40.838  23.205  27.653  1.00  0.00     0.010 A 
ATOM     31  C   UNL A   1      40.469  24.520  27.312  1.00  0.00    -0.014 A 
BRANCH  31  32
ATOM     32  C   UNL A   1      41.261  25.669  27.826  1.00  0.00     0.031 A 
ATOM     33  C   UNL A   1      40.580  26.732  28.642  1.00  0.00     0.074 A 
ATOM     34  C   UNL A   1      42.568  25.780  27.523  1.00  0.00     0.049 A 
ATOM     35  N   UNL A   1      40.977  27.947  28.918  1.00  0.00    -0.248 NA
ATOM     36  C   UNL A   1      39.267  26.385  29.205  1.00  0.00     0.031 C 
ATOM     37  C   UNL A   1      43.362  24.782  26.803  1.00  0.00     0.029 A 
ATOM     38  N   UNL A   1      43.460  26.795  27.768  1.00  0.00    -0.354 N 
ATOM     39  C   UNL A   1      39.937  28.533  29.630  1.00  0.00     0.074 A 
ATOM     40  C   UNL A   1      38.895  27.535  29.749  1.00  0.00     0.031 C 
ATOM     41  C   UNL A   1      44.620  25.228  26.670  1.00  0.00     0.029 A 
ATOM     42  C   UNL A   1      44.694  26.586  27.195  1.00  0.00     0.049 A 
ATOM     43  H   UNL A   1      43.238  27.593  28.300  1.00  0.00     0.167 HD
ATOM     44  C   UNL A   1      39.862  29.795  30.122  1.00  0.00     0.034 A 
ATOM     45  C   UNL A   1      45.741  27.417  27.036  1.00  0.00     0.034 A 
ATOM     46  C   UNL A   1      40.937  30.753  30.016  1.00  0.00     0.049 A 
ATOM     47  C   UNL A   1      45.621  28.829  27.537  1.00  0.00     0.074 A 
ATOM     48  C   UNL A   1      40.981  32.059  30.472  1.00  0.00     0.029 A 
ATOM     49  N   UNL A   1      42.165  30.502  29.416  1.00  0.00    -0.354 N 
ATOM     50  N   UNL A   1      44.599  29.409  28.125  1.00  0.00    -0.248 NA
ATOM     51  C   UNL A   1      46.783  29.704  27.340  1.00  0.00     0.031 C 
ATOM     52  C   UNL A   1      42.215  32.610  30.106  1.00  0.00     0.029 A 
ATOM     53  C   UNL A   1      42.966  31.631  29.476  1.00  0.00     0.049 A 
ATOM     54  H   UNL A   1      42.428  29.645  29.009  1.00  0.00     0.167 HD
ATOM     55  C   UNL A   1      45.004  30.713  28.384  1.00  0.00     0.074 A 
ATOM     56  C   UNL A   1      46.362  30.833  27.893  1.00  0.00     0.031 C 
ATOM     57  C   UNL A   1      44.316  31.721  28.977  1.00  0.00     0.034 A 
BRANCH  44  58
ATOM     58  C   UNL A   1      38.556  30.227  30.742  1.00  0.00     0.023 A 
ATOM     59  C   UNL A   1      37.562  30.898  30.010  1.00  0.00     0.031 A 
ATOM     60  C   UNL A   1      38.318  29.988  32.108  1.00  0.00     0.131 A 
ATOM     61  C   UNL A   1      36.406  31.359  30.661  1.00  0.00     0.055 A 
ATOM     62  C   UNL A   1      37.135  30.386  32.733  1.00  0.00     0.041 A 
ATOM     63  F   UNL A   1      39.242  29.372  32.864  1.00  0.00    -0.206 F 
ATOM     64  C   UNL A   1      36.176  31.088  32.012  1.00  0.00     0.022 A 
BRANCH  61  65
ATOM     65  S   UNL A   1      35.265  32.435  29.749  1.00  0.00     0.124 S 
ATOM     66  O   UNL A   1      34.273  32.748  30.774  1.00  0.00    -0.237 OA
ATOM     67  O   UNL A   1      36.130  33.534  29.338  1.00  0.00    -0.237 OA
ATOM     68  O   UNL A   1      34.782  31.582  28.665  1.00  0.00    -0.744 OA
ENDBRANCH  61  65
ENDBRANCH  44  58
BRANCH  45  69
ATOM     69  C   UNL A   1      46.949  26.960  26.292  1.00  0.00     0.023 A 
ATOM     70  C   UNL A   1      48.035  26.376  26.959  1.00  0.00     0.031 A 
ATOM     71  C   UNL A   1      47.030  27.102  24.894  1.00  0.00     0.131 A 
ATOM     72  C   UNL A   1      49.165  25.973  26.231  1.00  0.00     0.055 A 
ATOM     73  C   UNL A   1      48.135  26.657  24.169  1.00  0.00     0.041 A 
ATOM     74  F   UNL A   1      46.015  27.653  24.208  1.00  0.00    -0.206 F 
ATOM     75  C   UNL A   1      49.216  26.095  24.840  1.00  0.00     0.022 A 
BRANCH  72  76
ATOM     76  S   UNL A   1      50.601  25.338  27.137  1.00  0.00     0.124 S 
ATOM     77  O   UNL A   1      50.016  24.231  27.885  1.00  0.00    -0.237 OA
ATOM     78  O   UNL A   1      51.507  24.973  26.053  1.00  0.00    -0.237 OA
ATOM     79  O   UNL A   1      51.027  26.479  27.944  1.00  0.00    -0.744 OA
ENDBRANCH  72  76
ENDBRANCH  45  69
BRANCH  57  80
ATOM     80  C   UNL A   1      45.055  33.017  29.177  1.00  0.00     0.023 A 
ATOM     81  C   UNL A   1      45.089  34.008  28.184  1.00  0.00     0.031 A 
ATOM     82  C   UNL A   1      45.732  33.253  30.385  1.00  0.00     0.131 A 
ATOM     83  C   UNL A   1      45.822  35.184  28.404  1.00  0.00     0.055 A 
ATOM     84  C   UNL A   1      46.423  34.443  30.615  1.00  0.00     0.041 A 
ATOM     85  F   UNL A   1      45.728  32.332  31.362  1.00  0.00    -0.206 F 
ATOM     86  C   UNL A   1      46.477  35.413  29.618  1.00  0.00     0.022 A 
BRANCH  83  87
ATOM     87  S   UNL A   1      45.947  36.398  27.063  1.00  0.00     0.124 S 
ATOM     88  O   UNL A   1      44.686  37.122  27.191  1.00  0.00    -0.237 OA
ATOM     89  O   UNL A   1      47.149  37.144  27.422  1.00  0.00    -0.237 OA
ATOM     90  O   UNL A   1      46.069  35.572  25.863  1.00  0.00    -0.744 OA
ENDBRANCH  83  87
ENDBRANCH  57  80
ENDBRANCH  31  32
ENDBRANCH  24  26
ENDBRANCH  23  24
ENDBRANCH  22  23
ENDBRANCH   1  22
TORSDOF 17
ENDMDL
MODEL 2
REMARK VINA RESULT:     -12.3      4.864     10.189
REMARK SMILES C[C@H]1[C@@H](C(=O)OCCOC(=O)c2ccc(-c3c4nc(c(-c5cc(S(=O)(=O)[O-])ccc5F)c5ccc([nH]5)c(-c5cc(S(=O)(=O)[O-])ccc5F)c5nc(c(-c6cc(S(=O)(=O)[O-])ccc6F)c6ccc3[nH]6)C=C5)C=C4)cc2)CCN1C(=O)/C=C/c1cccc(F)c1
REMARK SMILES IDX 7 1 6 2 4 3 5 4 3 5 1 6 2 7 77 8 75 9 76 10 78 11 79 12
REMARK SMILES IDX 80 13 81 14 82 15 83 16 88 17 84 18 86 19 85 20 87 21 8 22
REMARK SMILES IDX 9 23 10 24 11 25 12 26 13 27 74 28 14 29 73 30 15 31 16 32
REMARK SMILES IDX 17 33 67 34 18 35 72 36 66 37 68 38 19 39 71 40 65 41 64 42
REMARK SMILES IDX 20 44 52 45 32 46 51 47 33 48 36 49 50 50 69 51 34 52 35 53
REMARK SMILES IDX 49 55 70 56 37 57 21 58 22 59 30 60 23 61 29 62 31 63 28 64
REMARK SMILES IDX 24 65 25 66 26 67 27 68 53 69 54 70 62 71 55 72 61 73 63 74
REMARK SMILES IDX 60 75 56 76 57 77 58 78 59 79 38 80 39 81 47 82 40 83 46 84
REMARK SMILES IDX 48 85 45 86 41 87 42 88 43 89 44 90
REMARK H PARENT 68 43 36 54
REMARK Flexibility Score: inf
ROOT
ATOM      1  C   UNL A   1      31.812  28.947  24.373  1.00  0.00     0.274 C 
ENDROOT
BRANCH   1   2
ATOM      2  O   UNL A   1      32.356  28.037  23.396  1.00  0.00    -0.462 OA
BRANCH   2   3
ATOM      3  C   UNL A   1      31.531  27.121  22.847  1.00  0.00     0.311 C 
ATOM      4  O   UNL A   1      30.710  27.376  21.972  1.00  0.00    -0.252 OA
BRANCH   3   5
ATOM      5  C   UNL A   1      31.719  25.708  23.372  1.00  0.00     0.123 C 
ATOM      6  C   UNL A   1      29.817  25.992  25.176  1.00  0.00     0.032 C 
ATOM      7  C   UNL A   1      30.761  25.075  24.403  1.00  0.00     0.096 C 
ATOM      8  N   UNL A   1      31.648  24.337  25.316  1.00  0.00    -0.336 N 
ATOM      9  C   UNL A   1      33.136  25.459  23.906  1.00  0.00     0.039 C 
ATOM     10  C   UNL A   1      32.975  24.906  25.303  1.00  0.00     0.121 C 
BRANCH   8  11
ATOM     11  C   UNL A   1      31.350  23.320  26.197  1.00  0.00     0.246 C 
ATOM     12  O   UNL A   1      31.030  23.487  27.369  1.00  0.00    -0.270 OA
BRANCH  11  13
ATOM     13  C   UNL A   1      31.311  21.954  25.640  1.00  0.00     0.072 C 
ATOM     14  C   UNL A   1      32.429  21.229  25.498  1.00  0.00     0.014 C 
BRANCH  14  15
ATOM     15  C   UNL A   1      32.506  19.964  24.754  1.00  0.00    -0.023 A 
ATOM     16  C   UNL A   1      32.852  18.800  25.459  1.00  0.00     0.008 A 
ATOM     17  C   UNL A   1      32.295  19.871  23.372  1.00  0.00     0.047 A 
ATOM     18  C   UNL A   1      33.008  17.578  24.798  1.00  0.00     0.004 A 
ATOM     19  C   UNL A   1      32.456  18.652  22.724  1.00  0.00     0.123 A 
ATOM     20  C   UNL A   1      32.813  17.506  23.421  1.00  0.00     0.039 A 
ATOM     21  F   UNL A   1      32.273  18.585  21.398  1.00  0.00    -0.207 F 
ENDBRANCH  14  15
ENDBRANCH  11  13
ENDBRANCH   8  11
ENDBRANCH   3   5
ENDBRANCH   2   3
ENDBRANCH   1   2
BRANCH   1  22
ATOM     22  C   UNL A   1      32.941  29.711  25.059  1.00  0.00     0.275 C 
BRANCH  22  23
ATOM     23  O   UNL A   1      32.657  29.837  26.461  1.00  0.00    -0.458 OA
BRANCH  23  24
ATOM     24  C   UNL A   1      33.069  30.994  27.024  1.00  0.00     0.338 C 
ATOM     25  O   UNL A   1      32.438  32.026  27.159  1.00  0.00    -0.246 OA
BRANCH  24  26
ATOM     26  C   UNL A   1      34.420  30.798  27.560  1.00  0.00     0.060 A 
ATOM     27  C   UNL A   1      34.787  29.525  27.996  1.00  0.00     0.016 A 
ATOM     28  C   UNL A   1      35.266  31.889  27.737  1.00  0.00     0.016 A 
ATOM     29  C   UNL A   1      35.966  29.355  28.711  1.00  0.00     0.010 A 
ATOM     30  C   UNL A   1      36.501  31.690  28.358  1.00  0.00     0.010 A 
ATOM     31  C   UNL A   1      36.852  30.428  28.875  1.00  0.00    -0.014 A 
BRANCH  31  32
ATOM     32  C   UNL A   1      38.149  30.250  29.580  1.00  0.00     0.031 A 
ATOM     33  C   UNL A   1      39.203  29.363  28.980  1.00  0.00     0.074 A 
ATOM     34  C   UNL A   1      38.359  30.843  30.771  1.00  0.00     0.049 A 
ATOM     35  N   UNL A   1      40.249  28.819  29.546  1.00  0.00    -0.248 NA
ATOM     36  C   UNL A   1      39.045  29.029  27.557  1.00  0.00     0.031 C 
ATOM     37  C   UNL A   1      37.446  31.784  31.425  1.00  0.00     0.029 A 
ATOM     38  N   UNL A   1      39.402  30.727  31.656  1.00  0.00    -0.354 N 
ATOM     39  C   UNL A   1      40.839  28.026  28.567  1.00  0.00     0.074 A 
ATOM     40  C   UNL A   1      40.036  28.167  27.371  1.00  0.00     0.031 C 
ATOM     41  C   UNL A   1      37.971  32.165  32.599  1.00  0.00     0.029 A 
ATOM     42  C   UNL A   1      39.197  31.412  32.832  1.00  0.00     0.049 A 
ATOM     43  H   UNL A   1      40.215  30.205  31.468  1.00  0.00     0.167 HD
ATOM     44  C   UNL A   1      41.941  27.242  28.674  1.00  0.00     0.034 A 
ATOM     45  C   UNL A   1      39.871  31.381  33.996  1.00  0.00     0.034 A 
ATOM     46  C   UNL A   1      42.740  27.153  29.873  1.00  0.00     0.049 A 
ATOM     47  C   UNL A   1      41.058  30.465  34.115  1.00  0.00     0.074 A 
ATOM     48  C   UNL A   1      43.875  26.397  30.105  1.00  0.00     0.029 A 
ATOM     49  N   UNL A   1      42.488  27.857  31.046  1.00  0.00    -0.354 N 
ATOM     50  N   UNL A   1      41.556  29.643  33.219  1.00  0.00    -0.248 NA
ATOM     51  C   UNL A   1      41.763  30.457  35.403  1.00  0.00     0.031 C 
ATOM     52  C   UNL A   1      44.280  26.606  31.428  1.00  0.00     0.029 A 
ATOM     53  C   UNL A   1      43.435  27.540  32.005  1.00  0.00     0.049 A 
ATOM     54  H   UNL A   1      41.744  28.490  31.175  1.00  0.00     0.167 HD
ATOM     55  C   UNL A   1      42.645  29.033  33.831  1.00  0.00     0.074 A 
ATOM     56  C   UNL A   1      42.733  29.584  35.168  1.00  0.00     0.031 C 
ATOM     57  C   UNL A   1      43.497  28.104  33.332  1.00  0.00     0.034 A 
BRANCH  44  58
ATOM     58  C   UNL A   1      42.295  26.370  27.495  1.00  0.00     0.023 A 
ATOM     59  C   UNL A   1      41.885  25.029  27.402  1.00  0.00     0.031 A 
ATOM     60  C   UNL A   1      43.088  26.888  26.455  1.00  0.00     0.131 A 
ATOM     61  C   UNL A   1      42.321  24.237  26.327  1.00  0.00     0.055 A 
ATOM     62  C   UNL A   1      43.459  26.116  25.352  1.00  0.00     0.041 A 
ATOM     63  F   UNL A   1      43.529  28.155  26.499  1.00  0.00    -0.206 F 
ATOM     64  C   UNL A   1      43.086  24.777  25.291  1.00  0.00     0.022 A 
BRANCH  61  65
ATOM     65  S   UNL A   1      41.985  22.455  26.368  1.00  0.00     0.124 S 
ATOM     66  O   UNL A   1      42.774  21.981  25.234  1.00  0.00    -0.237 OA
ATOM     67  O   UNL A   1      42.471  22.073  27.689  1.00  0.00    -0.237 OA
ATOM     68  O   UNL A   1      40.537  22.374  26.189  1.00  0.00    -0.744 OA
ENDBRANCH  61  65
ENDBRANCH  44  58
BRANCH  45  69
ATOM     69  C   UNL A   1      39.382  32.169  35.163  1.00  0.00     0.023 A 
ATOM     70  C   UNL A   1      39.851  33.468  35.409  1.00  0.00     0.031 A 
ATOM     71  C   UNL A   1      38.433  31.629  36.050  1.00  0.00     0.131 A 
ATOM     72  C   UNL A   1      39.384  34.177  36.527  1.00  0.00     0.055 A 
ATOM     73  C   UNL A   1      37.936  32.356  37.132  1.00  0.00     0.041 A 
ATOM     74  F   UNL A   1      37.951  30.391  35.857  1.00  0.00    -0.206 F 
ATOM     75  C   UNL A   1      38.419  33.636  37.380  1.00  0.00     0.022 A 
BRANCH  72  76
ATOM     76  S   UNL A   1      40.102  35.802  36.887  1.00  0.00     0.124 S 
ATOM     77  O   UNL A   1      39.473  36.131  38.161  1.00  0.00    -0.237 OA
ATOM     78  O   UNL A   1      41.528  35.501  36.933  1.00  0.00    -0.237 OA
ATOM     79  O   UNL A   1      39.677  36.620  35.752  1.00  0.00    -0.744 OA
ENDBRANCH  72  76
ENDBRANCH  45  69
BRANCH  57  80
ATOM     80  C   UNL A   1      44.631  27.679  34.224  1.00  0.00     0.023 A 
ATOM     81  C   UNL A   1      44.523  26.572  35.081  1.00  0.00     0.031 A 
ATOM     82  C   UNL A   1      45.837  28.400  34.210  1.00  0.00     0.131 A 
ATOM     83  C   UNL A   1      45.595  26.237  35.920  1.00  0.00     0.055 A 
ATOM     84  C   UNL A   1      46.916  28.036  35.017  1.00  0.00     0.041 A 
ATOM     85  F   UNL A   1      45.986  29.467  33.409  1.00  0.00    -0.206 F 
ATOM     86  C   UNL A   1      46.795  26.954  35.883  1.00  0.00     0.022 A 
BRANCH  83  87
ATOM     87  S   UNL A   1      45.388  24.875  37.100  1.00  0.00     0.124 S 
ATOM     88  O   UNL A   1      45.373  23.711  36.218  1.00  0.00    -0.237 OA
ATOM     89  O   UNL A   1      46.564  25.014  37.953  1.00  0.00    -0.237 OA
ATOM     90  O   UNL A   1      44.114  25.176  37.750  1.00  0.00    -0.744 OA
ENDBRANCH  83  87
ENDBRANCH  57  80
ENDBRANCH  31  32
ENDBRANCH  24  26
ENDBRANCH  23  24
ENDBRANCH  22  23
ENDBRANCH   1  22
TORSDOF 17
ENDMDL
MODEL 3
REMARK VINA RESULT:     -12.2      1.470      1.798
REMARK SMILES C[C@H]1[C@@H](C(=O)OCCOC(=O)c2ccc(-c3c4nc(c(-c5cc(S(=O)(=O)[O-])ccc5F)c5ccc([nH]5)c(-c5cc(S(=O)(=O)[O-])ccc5F)c5nc(c(-c6cc(S(=O)(=O)[O-])ccc6F)c6ccc3[nH]6)C=C5)C=C4)cc2)CCN1C(=O)/C=C/c1cccc(F)c1
REMARK SMILES IDX 7 1 6 2 4 3 5 4 3 5 1 6 2 7 77 8 75 9 76 10 78 11 79 12
REMARK SMILES IDX 80 13 81 14 82 15 83 16 88 17 84 18 86 19 85 20 87 21 8 22
REMARK SMILES IDX 9 23 10 24 11 25 12 26 13 27 74 28 14 29 73 30 15 31 16 32
REMARK SMILES IDX 17 33 67 34 18 35 72 36 66 37 68 38 19 39 71 40 65 41 64 42
REMARK SMILES IDX 20 44 52 45 32 46 51 47 33 48 36 49 50 50 69 51 34 52 35 53
REMARK SMILES IDX 49 55 70 56 37 57 21 58 22 59 30 60 23 61 29 62 31 63 28 64
REMARK SMILES IDX 24 65 25 66 26 67 27 68 53 69 54 70 62 71 55 72 61 73 63 74
REMARK SMILES IDX 60 75 56 76 57 77 58 78 59 79 38 80 39 81 47 82 40 83 46 84
REMARK SMILES IDX 48 85 45 86 41 87 42 88 43 89 44 90
REMARK H PARENT 68 43 36 54
REMARK Flexibility Score: inf
ROOT
ATOM      1  C   UNL A   1      35.020  21.171  24.755  1.00  0.00     0.274 C 
ENDROOT
BRANCH   1   2
ATOM      2  O   UNL A   1      34.552  21.893  25.912  1.00  0.00    -0.462 OA
BRANCH   2   3
ATOM      3  C   UNL A   1      33.323  22.446  25.868  1.00  0.00     0.311 C 
ATOM      4  O   UNL A   1      32.568  22.515  26.832  1.00  0.00    -0.252 OA
BRANCH   3   5
ATOM      5  C   UNL A   1      32.940  23.025  24.517  1.00  0.00     0.123 C 
ATOM      6  C   UNL A   1      34.332  25.226  24.924  1.00  0.00     0.032 C 
ATOM      7  C   UNL A   1      33.572  24.317  23.961  1.00  0.00     0.096 C 
ATOM      8  N   UNL A   1      32.448  25.031  23.335  1.00  0.00    -0.336 N 
ATOM      9  C   UNL A   1      31.423  23.195  24.355  1.00  0.00     0.039 C 
ATOM     10  C   UNL A   1      31.197  24.628  23.934  1.00  0.00     0.121 C 
BRANCH   8  11
ATOM     11  C   UNL A   1      32.462  26.043  22.400  1.00  0.00     0.246 C 
ATOM     12  O   UNL A   1      33.353  26.217  21.577  1.00  0.00    -0.270 OA
BRANCH  11  13
ATOM     13  C   UNL A   1      31.258  26.894  22.331  1.00  0.00     0.072 C 
ATOM     14  C   UNL A   1      31.215  28.089  22.936  1.00  0.00     0.014 C 
BRANCH  14  15
ATOM     15  C   UNL A   1      29.994  28.889  23.103  1.00  0.00    -0.023 A 
ATOM     16  C   UNL A   1      28.756  28.269  22.866  1.00  0.00     0.008 A 
ATOM     17  C   UNL A   1      30.007  30.248  23.442  1.00  0.00     0.047 A 
ATOM     18  C   UNL A   1      27.562  28.993  22.943  1.00  0.00     0.004 A 
ATOM     19  C   UNL A   1      28.814  30.960  23.513  1.00  0.00     0.123 A 
ATOM     20  C   UNL A   1      27.593  30.347  23.263  1.00  0.00     0.039 A 
ATOM     21  F   UNL A   1      28.845  32.265  23.816  1.00  0.00    -0.207 F 
ENDBRANCH  14  15
ENDBRANCH  11  13
ENDBRANCH   8  11
ENDBRANCH   3   5
ENDBRANCH   2   3
ENDBRANCH   1   2
BRANCH   1  22
ATOM     22  C   UNL A   1      36.420  20.621  25.013  1.00  0.00     0.275 C 
BRANCH  22  23
ATOM     23  O   UNL A   1      37.301  21.694  25.378  1.00  0.00    -0.458 OA
BRANCH  23  24
ATOM     24  C   UNL A   1      38.531  21.307  25.785  1.00  0.00     0.338 C 
ATOM     25  O   UNL A   1      39.074  20.232  25.607  1.00  0.00    -0.246 OA
BRANCH  24  26
ATOM     26  C   UNL A   1      39.190  22.449  26.426  1.00  0.00     0.060 A 
ATOM     27  C   UNL A   1      38.762  23.736  26.101  1.00  0.00     0.016 A 
ATOM     28  C   UNL A   1      40.298  22.247  27.244  1.00  0.00     0.016 A 
ATOM     29  C   UNL A   1      39.507  24.835  26.512  1.00  0.00     0.010 A 
ATOM     30  C   UNL A   1      40.977  23.359  27.746  1.00  0.00     0.010 A 
ATOM     31  C   UNL A   1      40.606  24.663  27.363  1.00  0.00    -0.014 A 
BRANCH  31  32
ATOM     32  C   UNL A   1      41.376  25.831  27.866  1.00  0.00     0.031 A 
ATOM     33  C   UNL A   1      40.682  26.879  28.687  1.00  0.00     0.074 A 
ATOM     34  C   UNL A   1      42.678  25.971  27.547  1.00  0.00     0.049 A 
ATOM     35  N   UNL A   1      41.053  28.103  28.956  1.00  0.00    -0.248 NA
ATOM     36  C   UNL A   1      39.383  26.503  29.266  1.00  0.00     0.031 C 
ATOM     37  C   UNL A   1      43.486  24.989  26.820  1.00  0.00     0.029 A 
ATOM     38  N   UNL A   1      43.548  27.007  27.780  1.00  0.00    -0.354 N 
ATOM     39  C   UNL A   1      40.008  28.667  29.680  1.00  0.00     0.074 A 
ATOM     40  C   UNL A   1      38.991  27.645  29.813  1.00  0.00     0.031 C 
ATOM     41  C   UNL A   1      44.731  25.465  26.672  1.00  0.00     0.029 A 
ATOM     42  C   UNL A   1      44.780  26.825  27.192  1.00  0.00     0.049 A 
ATOM     43  H   UNL A   1      43.315  27.800  28.312  1.00  0.00     0.167 HD
ATOM     44  C   UNL A   1      39.910  29.929  30.169  1.00  0.00     0.034 A 
ATOM     45  C   UNL A   1      45.806  27.679  27.020  1.00  0.00     0.034 A 
ATOM     46  C   UNL A   1      40.961  30.911  30.050  1.00  0.00     0.049 A 
ATOM     47  C   UNL A   1      45.659  29.089  27.520  1.00  0.00     0.074 A 
ATOM     48  C   UNL A   1      40.981  32.218  30.502  1.00  0.00     0.029 A 
ATOM     49  N   UNL A   1      42.188  30.687  29.436  1.00  0.00    -0.354 N 
ATOM     50  N   UNL A   1      44.631  29.647  28.118  1.00  0.00    -0.248 NA
ATOM     51  C   UNL A   1      46.798  29.991  27.307  1.00  0.00     0.031 C 
ATOM     52  C   UNL A   1      42.197  32.797  30.121  1.00  0.00     0.029 A 
ATOM     53  C   UNL A   1      42.963  31.833  29.484  1.00  0.00     0.049 A 
ATOM     54  H   UNL A   1      42.466  29.835  29.027  1.00  0.00     0.167 HD
ATOM     55  C   UNL A   1      45.008  30.961  28.370  1.00  0.00     0.074 A 
ATOM     56  C   UNL A   1      46.358  31.110  27.863  1.00  0.00     0.031 C 
ATOM     57  C   UNL A   1      44.305  31.954  28.969  1.00  0.00     0.034 A 
BRANCH  44  58
ATOM     58  C   UNL A   1      38.602  30.332  30.805  1.00  0.00     0.023 A 
ATOM     59  C   UNL A   1      37.583  30.975  30.082  1.00  0.00     0.031 A 
ATOM     60  C   UNL A   1      38.387  30.092  32.174  1.00  0.00     0.131 A 
ATOM     61  C   UNL A   1      36.424  31.411  30.746  1.00  0.00     0.055 A 
ATOM     62  C   UNL A   1      37.202  30.465  32.812  1.00  0.00     0.041 A 
ATOM     63  F   UNL A   1      39.334  29.503  32.921  1.00  0.00    -0.206 F 
ATOM     64  C   UNL A   1      36.217  31.141  32.100  1.00  0.00     0.022 A 
BRANCH  61  65
ATOM     65  S   UNL A   1      35.246  32.455  29.842  1.00  0.00     0.124 S 
ATOM     66  O   UNL A   1      36.102  33.557  29.411  1.00  0.00    -0.237 OA
ATOM     67  O   UNL A   1      34.775  31.561  28.791  1.00  0.00    -0.237 OA
ATOM     68  O   UNL A   1      34.253  32.806  30.855  1.00  0.00    -0.744 OA
ENDBRANCH  61  65
ENDBRANCH  44  58
BRANCH  45  69
ATOM     69  C   UNL A   1      47.015  27.249  26.262  1.00  0.00     0.023 A 
ATOM     70  C   UNL A   1      47.201  27.616  24.922  1.00  0.00     0.031 A 
ATOM     71  C   UNL A   1      48.006  26.460  26.875  1.00  0.00     0.131 A 
ATOM     72  C   UNL A   1      48.342  27.179  24.231  1.00  0.00     0.055 A 
ATOM     73  C   UNL A   1      49.162  26.068  26.199  1.00  0.00     0.041 A 
ATOM     74  F   UNL A   1      47.877  26.084  28.158  1.00  0.00    -0.206 F 
ATOM     75  C   UNL A   1      49.330  26.421  24.865  1.00  0.00     0.022 A 
BRANCH  72  76
ATOM     76  S   UNL A   1      48.490  27.566  22.466  1.00  0.00     0.124 S 
ATOM     77  O   UNL A   1      48.593  26.235  21.877  1.00  0.00    -0.237 OA
ATOM     78  O   UNL A   1      47.250  28.289  22.209  1.00  0.00    -0.237 OA
ATOM     79  O   UNL A   1      49.706  28.374  22.396  1.00  0.00    -0.744 OA
ENDBRANCH  72  76
ENDBRANCH  45  69
BRANCH  57  80
ATOM     80  C   UNL A   1      45.016  33.266  29.158  1.00  0.00     0.023 A 
ATOM     81  C   UNL A   1      45.033  34.249  28.155  1.00  0.00     0.031 A 
ATOM     82  C   UNL A   1      45.685  33.529  30.365  1.00  0.00     0.131 A 
ATOM     83  C   UNL A   1      45.739  35.442  28.365  1.00  0.00     0.055 A 
ATOM     84  C   UNL A   1      46.350  34.735  30.584  1.00  0.00     0.041 A 
ATOM     85  F   UNL A   1      45.697  32.618  31.351  1.00  0.00    -0.206 F 
ATOM     86  C   UNL A   1      46.386  35.696  29.578  1.00  0.00     0.022 A 
BRANCH  83  87
ATOM     87  S   UNL A   1      45.843  36.645  27.012  1.00  0.00     0.124 S 
ATOM     88  O   UNL A   1      46.906  37.531  27.477  1.00  0.00    -0.237 OA
ATOM     89  O   UNL A   1      46.172  35.803  25.865  1.00  0.00    -0.237 OA
ATOM     90  O   UNL A   1      44.509  37.240  26.979  1.00  0.00    -0.744 OA
ENDBRANCH  83  87
ENDBRANCH  57  80
ENDBRANCH  31  32
ENDBRANCH  24  26
ENDBRANCH  23  24
ENDBRANCH  22  23
ENDBRANCH   1  22
TORSDOF 17
ENDMDL
