MODEL 1
REMARK VINA RESULT:      -9.9      0.000      0.000
REMARK SMILES C[C@H](C(=O)OCCOC(=O)c1ccc(-c2c3nc(c(-c4cc(S(=O)(=O)[O-])ccc4F)c4ccc([nH]4)c(-c4cc(S(=O)(=O)[O-])ccc4F)c4nc(c(-c5cc(S(=O)(=O)[O-])ccc5F)c5ccc2[nH]5)C=C4)C=C3)cc1)c1cccc(C(=O)c2ccccc2)c1
REMARK SMILES IDX 6 1 5 2 3 3 4 4 2 5 1 6 74 7 75 8 87 9 76 10 78 11 77 12
REMARK SMILES IDX 79 13 80 14 81 15 82 16 86 17 83 18 85 19 84 20 7 21 8 22
REMARK SMILES IDX 9 23 10 24 11 25 12 26 73 27 13 28 72 29 14 30 15 31 16 32
REMARK SMILES IDX 66 33 17 34 71 35 65 36 67 37 18 38 70 39 64 40 63 41 19 43
REMARK SMILES IDX 51 44 31 45 50 46 32 47 35 48 49 49 68 50 33 51 34 52 48 54
REMARK SMILES IDX 69 55 36 56 20 57 21 58 29 59 22 60 28 61 30 62 27 63 23 64
REMARK SMILES IDX 24 65 25 66 26 67 52 68 53 69 61 70 54 71 60 72 62 73 59 74
REMARK SMILES IDX 55 75 56 76 57 77 58 78 37 79 38 80 46 81 39 82 45 83 47 84
REMARK SMILES IDX 44 85 40 86 41 87 42 88 43 89
REMARK H PARENT 67 42 35 53
REMARK Flexibility Score: inf
ROOT
ATOM      1  C   UNL A   1      42.546  20.491  26.122  1.00  0.00     0.274 C 
ENDROOT
BRANCH   1   2
ATOM      2  O   UNL A   1      42.585  21.505  25.097  1.00  0.00    -0.462 OA
BRANCH   2   3
ATOM      3  C   UNL A   1      43.457  22.531  25.264  1.00  0.00     0.313 C 
ATOM      4  O   UNL A   1      43.200  23.694  24.962  1.00  0.00    -0.252 OA
BRANCH   3   5
ATOM      5  C   UNL A   1      44.829  22.116  25.813  1.00  0.00     0.126 C 
ATOM      6  C   UNL A   1      45.701  21.662  24.632  1.00  0.00     0.025 C 
BRANCH   5   7
ATOM      7  C   UNL A   1      45.525  23.092  26.767  1.00  0.00    -0.033 A 
ATOM      8  C   UNL A   1      46.659  23.802  26.335  1.00  0.00     0.004 A 
ATOM      9  C   UNL A   1      45.018  23.388  28.049  1.00  0.00     0.016 A 
ATOM     10  C   UNL A   1      47.298  24.722  27.167  1.00  0.00     0.001 A 
ATOM     11  C   UNL A   1      45.643  24.325  28.887  1.00  0.00     0.023 A 
ATOM     12  C   UNL A   1      46.792  24.982  28.438  1.00  0.00     0.012 A 
BRANCH  11  13
ATOM     13  C   UNL A   1      45.071  24.724  30.206  1.00  0.00     0.193 C 
ATOM     14  O   UNL A   1      44.283  23.975  30.781  1.00  0.00    -0.289 OA
BRANCH  13  15
ATOM     15  C   UNL A   1      45.491  25.965  30.894  1.00  0.00     0.022 A 
ATOM     16  C   UNL A   1      44.770  27.137  30.643  1.00  0.00     0.012 A 
ATOM     17  C   UNL A   1      46.590  25.983  31.761  1.00  0.00     0.012 A 
ATOM     18  C   UNL A   1      45.123  28.322  31.290  1.00  0.00     0.001 A 
ATOM     19  C   UNL A   1      46.941  27.173  32.401  1.00  0.00     0.001 A 
ATOM     20  C   UNL A   1      46.205  28.336  32.170  1.00  0.00     0.000 A 
ENDBRANCH  13  15
ENDBRANCH  11  13
ENDBRANCH   5   7
ENDBRANCH   3   5
ENDBRANCH   2   3
ENDBRANCH   1   2
BRANCH   1  21
ATOM     21  C   UNL A   1      41.132  19.941  26.278  1.00  0.00     0.275 C 
BRANCH  21  22
ATOM     22  O   UNL A   1      40.378  20.780  27.169  1.00  0.00    -0.458 OA
BRANCH  22  23
ATOM     23  C   UNL A   1      39.562  21.670  26.562  1.00  0.00     0.338 C 
ATOM     24  O   UNL A   1      38.647  21.444  25.792  1.00  0.00    -0.246 OA
BRANCH  23  25
ATOM     25  C   UNL A   1      39.887  23.014  27.052  1.00  0.00     0.060 A 
ATOM     26  C   UNL A   1      39.235  24.101  26.474  1.00  0.00     0.016 A 
ATOM     27  C   UNL A   1      40.899  23.204  27.990  1.00  0.00     0.016 A 
ATOM     28  C   UNL A   1      39.652  25.395  26.769  1.00  0.00     0.010 A 
ATOM     29  C   UNL A   1      41.263  24.507  28.341  1.00  0.00     0.010 A 
ATOM     30  C   UNL A   1      40.667  25.616  27.710  1.00  0.00    -0.014 A 
BRANCH  30  31
ATOM     31  C   UNL A   1      41.134  26.998  28.003  1.00  0.00     0.031 A 
ATOM     32  C   UNL A   1      42.542  27.405  27.655  1.00  0.00     0.074 A 
ATOM     33  C   UNL A   1      40.299  27.892  28.568  1.00  0.00     0.049 A 
ATOM     34  N   UNL A   1      43.193  28.496  27.968  1.00  0.00    -0.248 NA
ATOM     35  C   UNL A   1      43.324  26.446  26.861  1.00  0.00     0.031 C 
ATOM     36  C   UNL A   1      38.898  27.641  28.912  1.00  0.00     0.029 A 
ATOM     37  N   UNL A   1      40.506  29.194  28.951  1.00  0.00    -0.354 N 
ATOM     38  C   UNL A   1      44.476  28.335  27.456  1.00  0.00     0.074 A 
ATOM     39  C   UNL A   1      44.511  27.034  26.820  1.00  0.00     0.031 C 
ATOM     40  C   UNL A   1      38.365  28.760  29.428  1.00  0.00     0.029 A 
ATOM     41  C   UNL A   1      39.403  29.780  29.527  1.00  0.00     0.049 A 
ATOM     42  H   UNL A   1      41.362  29.664  28.825  1.00  0.00     0.167 HD
ATOM     43  C   UNL A   1      45.526  29.192  27.516  1.00  0.00     0.034 A 
ATOM     44  C   UNL A   1      39.252  30.987  30.108  1.00  0.00     0.034 A 
ATOM     45  C   UNL A   1      45.463  30.501  28.119  1.00  0.00     0.049 A 
ATOM     46  C   UNL A   1      40.440  31.908  30.193  1.00  0.00     0.074 A 
ATOM     47  C   UNL A   1      46.460  31.458  28.215  1.00  0.00     0.029 A 
ATOM     48  N   UNL A   1      44.336  31.045  28.723  1.00  0.00    -0.354 N 
ATOM     49  N   UNL A   1      41.664  31.718  29.758  1.00  0.00    -0.248 NA
ATOM     50  C   UNL A   1      40.229  33.199  30.859  1.00  0.00     0.031 C 
ATOM     51  C   UNL A   1      45.952  32.555  28.921  1.00  0.00     0.029 A 
ATOM     52  C   UNL A   1      44.619  32.311  29.212  1.00  0.00     0.049 A 
ATOM     53  H   UNL A   1      43.463  30.596  28.793  1.00  0.00     0.167 HD
ATOM     54  C   UNL A   1      42.366  32.872  30.090  1.00  0.00     0.074 A 
ATOM     55  C   UNL A   1      41.424  33.758  30.743  1.00  0.00     0.031 C 
ATOM     56  C   UNL A   1      43.673  33.171  29.879  1.00  0.00     0.034 A 
BRANCH  43  57
ATOM     57  C   UNL A   1      46.846  28.709  26.966  1.00  0.00     0.023 A 
ATOM     58  C   UNL A   1      47.045  28.490  25.592  1.00  0.00     0.031 A 
ATOM     59  C   UNL A   1      47.912  28.428  27.839  1.00  0.00     0.131 A 
ATOM     60  C   UNL A   1      48.254  27.937  25.141  1.00  0.00     0.055 A 
ATOM     61  C   UNL A   1      49.139  27.949  27.375  1.00  0.00     0.041 A 
ATOM     62  F   UNL A   1      47.772  28.598  29.164  1.00  0.00    -0.206 F 
ATOM     63  C   UNL A   1      49.310  27.686  26.021  1.00  0.00     0.022 A 
BRANCH  60  64
ATOM     64  S   UNL A   1      48.372  27.414  23.408  1.00  0.00     0.124 S 
ATOM     65  O   UNL A   1      47.274  28.162  22.800  1.00  0.00    -0.237 OA
ATOM     66  O   UNL A   1      49.716  27.844  23.041  1.00  0.00    -0.237 OA
ATOM     67  O   UNL A   1      48.174  25.968  23.473  1.00  0.00    -0.744 OA
ENDBRANCH  60  64
ENDBRANCH  43  57
BRANCH  44  68
ATOM     68  C   UNL A   1      37.947  31.370  30.716  1.00  0.00     0.023 A 
ATOM     69  C   UNL A   1      36.979  32.065  29.974  1.00  0.00     0.031 A 
ATOM     70  C   UNL A   1      37.661  31.066  32.059  1.00  0.00     0.131 A 
ATOM     71  C   UNL A   1      35.780  32.460  30.591  1.00  0.00     0.055 A 
ATOM     72  C   UNL A   1      36.449  31.420  32.653  1.00  0.00     0.041 A 
ATOM     73  F   UNL A   1      38.553  30.402  32.810  1.00  0.00    -0.206 F 
ATOM     74  C   UNL A   1      35.503  32.130  31.920  1.00  0.00     0.022 A 
BRANCH  71  75
ATOM     75  S   UNL A   1      34.610  33.472  29.644  1.00  0.00     0.124 S 
ATOM     76  O   UNL A   1      35.501  34.415  28.979  1.00  0.00    -0.237 OA
ATOM     77  O   UNL A   1      33.973  32.477  28.788  1.00  0.00    -0.237 OA
ATOM     78  O   UNL A   1      33.748  34.048  30.675  1.00  0.00    -0.744 OA
ENDBRANCH  71  75
ENDBRANCH  44  68
BRANCH  56  79
ATOM     79  C   UNL A   1      44.136  34.532  30.334  1.00  0.00     0.023 A 
ATOM     80  C   UNL A   1      43.995  35.666  29.517  1.00  0.00     0.031 A 
ATOM     81  C   UNL A   1      44.752  34.686  31.587  1.00  0.00     0.131 A 
ATOM     82  C   UNL A   1      44.513  36.900  29.942  1.00  0.00     0.055 A 
ATOM     83  C   UNL A   1      45.219  35.925  32.026  1.00  0.00     0.041 A 
ATOM     84  F   UNL A   1      44.912  33.633  32.404  1.00  0.00    -0.206 F 
ATOM     85  C   UNL A   1      45.112  37.038  31.196  1.00  0.00     0.022 A 
BRANCH  82  86
ATOM     86  S   UNL A   1      44.464  38.306  28.798  1.00  0.00     0.124 S 
ATOM     87  O   UNL A   1      45.878  38.650  28.679  1.00  0.00    -0.237 OA
ATOM     88  O   UNL A   1      43.849  37.722  27.610  1.00  0.00    -0.237 OA
ATOM     89  O   UNL A   1      43.644  39.291  29.499  1.00  0.00    -0.744 OA
ENDBRANCH  82  86
ENDBRANCH  56  79
ENDBRANCH  30  31
ENDBRANCH  23  25
ENDBRANCH  22  23
ENDBRANCH  21  22
ENDBRANCH   1  21
TORSDOF 17
ENDMDL
MODEL 2
REMARK VINA RESULT:      -9.8      3.887     10.512
REMARK SMILES C[C@H](C(=O)OCCOC(=O)c1ccc(-c2c3nc(c(-c4cc(S(=O)(=O)[O-])ccc4F)c4ccc([nH]4)c(-c4cc(S(=O)(=O)[O-])ccc4F)c4nc(c(-c5cc(S(=O)(=O)[O-])ccc5F)c5ccc2[nH]5)C=C4)C=C3)cc1)c1cccc(C(=O)c2ccccc2)c1
REMARK SMILES IDX 6 1 5 2 3 3 4 4 2 5 1 6 74 7 75 8 87 9 76 10 78 11 77 12
REMARK SMILES IDX 79 13 80 14 81 15 82 16 86 17 83 18 85 19 84 20 7 21 8 22
REMARK SMILES IDX 9 23 10 24 11 25 12 26 73 27 13 28 72 29 14 30 15 31 16 32
REMARK SMILES IDX 66 33 17 34 71 35 65 36 67 37 18 38 70 39 64 40 63 41 19 43
REMARK SMILES IDX 51 44 31 45 50 46 32 47 35 48 49 49 68 50 33 51 34 52 48 54
REMARK SMILES IDX 69 55 36 56 20 57 21 58 29 59 22 60 28 61 30 62 27 63 23 64
REMARK SMILES IDX 24 65 25 66 26 67 52 68 53 69 61 70 54 71 60 72 62 73 59 74
REMARK SMILES IDX 55 75 56 76 57 77 58 78 37 79 38 80 46 81 39 82 45 83 47 84
REMARK SMILES IDX 44 85 40 86 41 87 42 88 43 89
REMARK H PARENT 67 42 35 53
REMARK Flexibility Score: inf
ROOT
ATOM      1  C   UNL A   1      35.498  21.712  26.295  1.00  0.00     0.274 C 
ENDROOT
BRANCH   1   2
ATOM      2  O   UNL A   1      34.215  21.131  26.603  1.00  0.00    -0.462 OA
BRANCH   2   3
ATOM      3  C   UNL A   1      33.293  21.928  27.201  1.00  0.00     0.313 C 
ATOM      4  O   UNL A   1      33.418  22.370  28.340  1.00  0.00    -0.252 OA
BRANCH   3   5
ATOM      5  C   UNL A   1      32.040  22.195  26.356  1.00  0.00     0.126 C 
ATOM      6  C   UNL A   1      31.678  23.682  26.492  1.00  0.00     0.025 C 
BRANCH   5   7
ATOM      7  C   UNL A   1      32.046  21.681  24.913  1.00  0.00    -0.033 A 
ATOM      8  C   UNL A   1      32.019  22.595  23.845  1.00  0.00     0.004 A 
ATOM      9  C   UNL A   1      32.174  20.313  24.597  1.00  0.00     0.016 A 
ATOM     10  C   UNL A   1      32.057  22.163  22.519  1.00  0.00     0.001 A 
ATOM     11  C   UNL A   1      32.231  19.868  23.267  1.00  0.00     0.023 A 
ATOM     12  C   UNL A   1      32.161  20.804  22.231  1.00  0.00     0.012 A 
BRANCH  11  13
ATOM     13  C   UNL A   1      32.463  18.438  22.912  1.00  0.00     0.193 C 
ATOM     14  O   UNL A   1      32.162  18.031  21.791  1.00  0.00    -0.289 OA
BRANCH  13  15
ATOM     15  C   UNL A   1      33.129  17.502  23.845  1.00  0.00     0.022 A 
ATOM     16  C   UNL A   1      32.327  16.714  24.676  1.00  0.00     0.012 A 
ATOM     17  C   UNL A   1      34.524  17.412  23.915  1.00  0.00     0.012 A 
ATOM     18  C   UNL A   1      32.920  15.804  25.553  1.00  0.00     0.001 A 
ATOM     19  C   UNL A   1      35.111  16.503  24.798  1.00  0.00     0.001 A 
ATOM     20  C   UNL A   1      34.309  15.698  25.609  1.00  0.00     0.000 A 
ENDBRANCH  13  15
ENDBRANCH  11  13
ENDBRANCH   5   7
ENDBRANCH   3   5
ENDBRANCH   2   3
ENDBRANCH   1   2
BRANCH   1  21
ATOM     21  C   UNL A   1      36.194  20.919  25.193  1.00  0.00     0.275 C 
BRANCH  21  22
ATOM     22  O   UNL A   1      37.446  21.542  24.861  1.00  0.00    -0.458 OA
BRANCH  22  23
ATOM     23  C   UNL A   1      38.503  21.126  25.593  1.00  0.00     0.338 C 
ATOM     24  O   UNL A   1      38.942  19.995  25.702  1.00  0.00    -0.246 OA
BRANCH  23  25
ATOM     25  C   UNL A   1      39.142  22.297  26.202  1.00  0.00     0.060 A 
ATOM     26  C   UNL A   1      38.637  23.558  25.892  1.00  0.00     0.016 A 
ATOM     27  C   UNL A   1      40.292  22.159  26.976  1.00  0.00     0.016 A 
ATOM     28  C   UNL A   1      39.329  24.698  26.287  1.00  0.00     0.010 A 
ATOM     29  C   UNL A   1      40.943  23.308  27.436  1.00  0.00     0.010 A 
ATOM     30  C   UNL A   1      40.487  24.589  27.069  1.00  0.00    -0.014 A 
BRANCH  30  31
ATOM     31  C   UNL A   1      41.245  25.807  27.465  1.00  0.00     0.031 A 
ATOM     32  C   UNL A   1      40.602  26.836  28.357  1.00  0.00     0.074 A 
ATOM     33  C   UNL A   1      42.510  25.988  27.037  1.00  0.00     0.049 A 
ATOM     34  N   UNL A   1      41.022  28.031  28.685  1.00  0.00    -0.248 NA
ATOM     35  C   UNL A   1      39.304  26.474  28.945  1.00  0.00     0.031 C 
ATOM     36  C   UNL A   1      43.266  25.048  26.207  1.00  0.00     0.029 A 
ATOM     37  N   UNL A   1      43.386  27.025  27.242  1.00  0.00    -0.354 N 
ATOM     38  C   UNL A   1      40.020  28.585  29.474  1.00  0.00     0.074 A 
ATOM     39  C   UNL A   1      38.966  27.595  29.566  1.00  0.00     0.031 C 
ATOM     40  C   UNL A   1      44.498  25.537  26.000  1.00  0.00     0.029 A 
ATOM     41  C   UNL A   1      44.595  26.858  26.609  1.00  0.00     0.049 A 
ATOM     42  H   UNL A   1      43.169  27.813  27.791  1.00  0.00     0.167 HD
ATOM     43  C   UNL A   1      39.983  29.807  30.062  1.00  0.00     0.034 A 
ATOM     44  C   UNL A   1      45.650  27.691  26.495  1.00  0.00     0.034 A 
ATOM     45  C   UNL A   1      41.059  30.766  29.994  1.00  0.00     0.049 A 
ATOM     46  C   UNL A   1      45.572  29.054  27.128  1.00  0.00     0.074 A 
ATOM     47  C   UNL A   1      41.135  32.023  30.570  1.00  0.00     0.029 A 
ATOM     48  N   UNL A   1      42.255  30.573  29.313  1.00  0.00    -0.354 N 
ATOM     49  N   UNL A   1      44.593  29.589  27.820  1.00  0.00    -0.248 NA
ATOM     50  C   UNL A   1      46.736  29.931  26.951  1.00  0.00     0.031 C 
ATOM     51  C   UNL A   1      42.350  32.608  30.195  1.00  0.00     0.029 A 
ATOM     52  C   UNL A   1      43.062  31.693  29.436  1.00  0.00     0.049 A 
ATOM     53  H   UNL A   1      42.494  29.757  28.815  1.00  0.00     0.167 HD
ATOM     54  C   UNL A   1      45.029  30.862  28.171  1.00  0.00     0.074 A 
ATOM     55  C   UNL A   1      46.366  31.007  27.630  1.00  0.00     0.031 C 
ATOM     56  C   UNL A   1      44.383  31.827  28.873  1.00  0.00     0.034 A 
BRANCH  43  57
ATOM     57  C   UNL A   1      38.712  30.192  30.779  1.00  0.00     0.023 A 
ATOM     58  C   UNL A   1      37.663  30.865  30.128  1.00  0.00     0.031 A 
ATOM     59  C   UNL A   1      38.565  29.913  32.150  1.00  0.00     0.131 A 
ATOM     60  C   UNL A   1      36.549  31.298  30.863  1.00  0.00     0.055 A 
ATOM     61  C   UNL A   1      37.420  30.281  32.858  1.00  0.00     0.041 A 
ATOM     62  F   UNL A   1      39.543  29.292  32.828  1.00  0.00    -0.206 F 
ATOM     63  C   UNL A   1      36.410  30.991  32.219  1.00  0.00     0.022 A 
BRANCH  60  64
ATOM     64  S   UNL A   1      35.354  32.396  30.053  1.00  0.00     0.124 S 
ATOM     65  O   UNL A   1      34.374  32.602  31.117  1.00  0.00    -0.237 OA
ATOM     66  O   UNL A   1      36.173  33.553  29.710  1.00  0.00    -0.237 OA
ATOM     67  O   UNL A   1      34.878  31.608  28.919  1.00  0.00    -0.744 OA
ENDBRANCH  60  64
ENDBRANCH  43  57
BRANCH  44  68
ATOM     68  C   UNL A   1      46.841  27.288  25.696  1.00  0.00     0.023 A 
ATOM     69  C   UNL A   1      47.006  27.723  24.372  1.00  0.00     0.031 A 
ATOM     70  C   UNL A   1      47.820  26.439  26.242  1.00  0.00     0.131 A 
ATOM     71  C   UNL A   1      48.111  27.282  23.627  1.00  0.00     0.055 A 
ATOM     72  C   UNL A   1      48.941  26.041  25.513  1.00  0.00     0.041 A 
ATOM     73  F   UNL A   1      47.709  25.996  27.504  1.00  0.00    -0.206 F 
ATOM     74  C   UNL A   1      49.086  26.456  24.192  1.00  0.00     0.022 A 
BRANCH  71  75
ATOM     75  S   UNL A   1      48.223  27.753  21.879  1.00  0.00     0.124 S 
ATOM     76  O   UNL A   1      48.393  26.458  21.231  1.00  0.00    -0.237 OA
ATOM     77  O   UNL A   1      46.943  28.417  21.662  1.00  0.00    -0.237 OA
ATOM     78  O   UNL A   1      49.392  28.630  21.839  1.00  0.00    -0.744 OA
ENDBRANCH  71  75
ENDBRANCH  44  68
BRANCH  56  79
ATOM     79  C   UNL A   1      45.141  33.107  29.116  1.00  0.00     0.023 A 
ATOM     80  C   UNL A   1      45.056  34.191  28.227  1.00  0.00     0.031 A 
ATOM     81  C   UNL A   1      45.980  33.229  30.237  1.00  0.00     0.131 A 
ATOM     82  C   UNL A   1      45.840  35.335  28.445  1.00  0.00     0.055 A 
ATOM     83  C   UNL A   1      46.719  34.388  30.476  1.00  0.00     0.041 A 
ATOM     84  F   UNL A   1      46.097  32.220  31.115  1.00  0.00    -0.206 F 
ATOM     85  C   UNL A   1      46.661  35.444  29.570  1.00  0.00     0.022 A 
BRANCH  82  86
ATOM     86  S   UNL A   1      45.835  36.647  27.193  1.00  0.00     0.124 S 
ATOM     87  O   UNL A   1      44.409  36.930  27.056  1.00  0.00    -0.237 OA
ATOM     88  O   UNL A   1      46.633  37.690  27.829  1.00  0.00    -0.237 OA
ATOM     89  O   UNL A   1      46.456  36.015  26.031  1.00  0.00    -0.744 OA
ENDBRANCH  82  86
ENDBRANCH  56  79
ENDBRANCH  30  31
ENDBRANCH  23  25
ENDBRANCH  22  23
ENDBRANCH  21  22
ENDBRANCH   1  21
TORSDOF 17
ENDMDL
MODEL 3
REMARK VINA RESULT:      -9.4      2.933      6.010
REMARK SMILES C[C@H](C(=O)OCCOC(=O)c1ccc(-c2c3nc(c(-c4cc(S(=O)(=O)[O-])ccc4F)c4ccc([nH]4)c(-c4cc(S(=O)(=O)[O-])ccc4F)c4nc(c(-c5cc(S(=O)(=O)[O-])ccc5F)c5ccc2[nH]5)C=C4)C=C3)cc1)c1cccc(C(=O)c2ccccc2)c1
REMARK SMILES IDX 6 1 5 2 3 3 4 4 2 5 1 6 74 7 75 8 87 9 76 10 78 11 77 12
REMARK SMILES IDX 79 13 80 14 81 15 82 16 86 17 83 18 85 19 84 20 7 21 8 22
REMARK SMILES IDX 9 23 10 24 11 25 12 26 73 27 13 28 72 29 14 30 15 31 16 32
REMARK SMILES IDX 66 33 17 34 71 35 65 36 67 37 18 38 70 39 64 40 63 41 19 43
REMARK SMILES IDX 51 44 31 45 50 46 32 47 35 48 49 49 68 50 33 51 34 52 48 54
REMARK SMILES IDX 69 55 36 56 20 57 21 58 29 59 22 60 28 61 30 62 27 63 23 64
REMARK SMILES IDX 24 65 25 66 26 67 52 68 53 69 61 70 54 71 60 72 62 73 59 74
REMARK SMILES IDX 55 75 56 76 57 77 58 78 37 79 38 80 46 81 39 82 45 83 47 84
REMARK SMILES IDX 44 85 40 86 41 87 42 88 43 89
REMARK H PARENT 67 42 35 53
REMARK Flexibility Score: inf
ROOT
ATOM      1  C   UNL A   1      37.548  19.588  24.758  1.00  0.00     0.274 C 
ENDROOT
BRANCH   1   2
ATOM      2  O   UNL A   1      36.652  20.466  25.470  1.00  0.00    -0.462 OA
BRANCH   2   3
ATOM      3  C   UNL A   1      36.451  21.706  24.958  1.00  0.00     0.313 C 
ATOM      4  O   UNL A   1      36.536  21.966  23.760  1.00  0.00    -0.252 OA
BRANCH   3   5
ATOM      5  C   UNL A   1      36.160  22.788  26.007  1.00  0.00     0.126 C 
ATOM      6  C   UNL A   1      36.933  24.057  25.614  1.00  0.00     0.025 C 
BRANCH   5   7
ATOM      7  C   UNL A   1      34.692  23.035  26.369  1.00  0.00    -0.033 A 
ATOM      8  C   UNL A   1      34.052  22.201  27.302  1.00  0.00     0.004 A 
ATOM      9  C   UNL A   1      33.966  24.137  25.872  1.00  0.00     0.016 A 
ATOM     10  C   UNL A   1      32.726  22.418  27.679  1.00  0.00     0.001 A 
ATOM     11  C   UNL A   1      32.637  24.375  26.258  1.00  0.00     0.023 A 
ATOM     12  C   UNL A   1      32.021  23.501  27.158  1.00  0.00     0.012 A 
BRANCH  11  13
ATOM     13  C   UNL A   1      31.883  25.586  25.821  1.00  0.00     0.193 C 
ATOM     14  O   UNL A   1      30.854  25.458  25.161  1.00  0.00    -0.289 OA
BRANCH  13  15
ATOM     15  C   UNL A   1      32.290  26.948  26.235  1.00  0.00     0.022 A 
ATOM     16  C   UNL A   1      33.534  27.423  25.810  1.00  0.00     0.012 A 
ATOM     17  C   UNL A   1      31.467  27.741  27.042  1.00  0.00     0.012 A 
ATOM     18  C   UNL A   1      33.942  28.710  26.162  1.00  0.00     0.001 A 
ATOM     19  C   UNL A   1      31.883  29.026  27.394  1.00  0.00     0.001 A 
ATOM     20  C   UNL A   1      33.115  29.510  26.949  1.00  0.00     0.000 A 
ENDBRANCH  13  15
ENDBRANCH  11  13
ENDBRANCH   5   7
ENDBRANCH   3   5
ENDBRANCH   2   3
ENDBRANCH   1   2
BRANCH   1  21
ATOM     21  C   UNL A   1      38.795  19.307  25.590  1.00  0.00     0.275 C 
BRANCH  21  22
ATOM     22  O   UNL A   1      39.547  20.520  25.766  1.00  0.00    -0.458 OA
BRANCH  22  23
ATOM     23  C   UNL A   1      40.375  20.528  26.835  1.00  0.00     0.338 C 
ATOM     24  O   UNL A   1      40.896  19.576  27.387  1.00  0.00    -0.246 OA
BRANCH  23  25
ATOM     25  C   UNL A   1      40.648  21.920  27.205  1.00  0.00     0.060 A 
ATOM     26  C   UNL A   1      39.999  22.930  26.497  1.00  0.00     0.016 A 
ATOM     27  C   UNL A   1      41.614  22.226  28.161  1.00  0.00     0.016 A 
ATOM     28  C   UNL A   1      40.374  24.256  26.681  1.00  0.00     0.010 A 
ATOM     29  C   UNL A   1      41.935  23.566  28.398  1.00  0.00     0.010 A 
ATOM     30  C   UNL A   1      41.342  24.593  27.638  1.00  0.00    -0.014 A 
BRANCH  30  31
ATOM     31  C   UNL A   1      41.766  26.009  27.813  1.00  0.00     0.031 A 
ATOM     32  C   UNL A   1      43.080  26.476  27.243  1.00  0.00     0.074 A 
ATOM     33  C   UNL A   1      40.974  26.878  28.472  1.00  0.00     0.049 A 
ATOM     34  N   UNL A   1      43.705  27.611  27.421  1.00  0.00    -0.248 NA
ATOM     35  C   UNL A   1      43.788  25.529  26.370  1.00  0.00     0.031 C 
ATOM     36  C   UNL A   1      39.658  26.567  29.032  1.00  0.00     0.029 A 
ATOM     37  N   UNL A   1      41.160  28.203  28.779  1.00  0.00    -0.354 N 
ATOM     38  C   UNL A   1      44.905  27.499  26.725  1.00  0.00     0.074 A 
ATOM     39  C   UNL A   1      44.919  26.178  26.130  1.00  0.00     0.031 C 
ATOM     40  C   UNL A   1      39.144  27.675  29.588  1.00  0.00     0.029 A 
ATOM     41  C   UNL A   1      40.123  28.752  29.497  1.00  0.00     0.049 A 
ATOM     42  H   UNL A   1      41.958  28.713  28.510  1.00  0.00     0.167 HD
ATOM     43  C   UNL A   1      45.900  28.412  26.598  1.00  0.00     0.034 A 
ATOM     44  C   UNL A   1      39.991  29.971  30.058  1.00  0.00     0.034 A 
ATOM     45  C   UNL A   1      45.851  29.739  27.163  1.00  0.00     0.049 A 
ATOM     46  C   UNL A   1      41.122  30.956  29.932  1.00  0.00     0.074 A 
ATOM     47  C   UNL A   1      46.793  30.751  27.077  1.00  0.00     0.029 A 
ATOM     48  N   UNL A   1      44.798  30.246  27.914  1.00  0.00    -0.354 N 
ATOM     49  N   UNL A   1      42.276  30.815  29.322  1.00  0.00    -0.248 NA
ATOM     50  C   UNL A   1      40.938  32.260  30.583  1.00  0.00     0.031 C 
ATOM     51  C   UNL A   1      46.334  31.846  27.818  1.00  0.00     0.029 A 
ATOM     52  C   UNL A   1      45.076  31.543  28.315  1.00  0.00     0.049 A 
ATOM     53  H   UNL A   1      43.972  29.753  28.130  1.00  0.00     0.167 HD
ATOM     54  C   UNL A   1      42.951  32.017  29.508  1.00  0.00     0.074 A 
ATOM     55  C   UNL A   1      42.067  32.877  30.270  1.00  0.00     0.031 C 
ATOM     56  C   UNL A   1      44.191  32.377  29.091  1.00  0.00     0.034 A 
BRANCH  43  57
ATOM     57  C   UNL A   1      47.148  27.980  25.868  1.00  0.00     0.023 A 
ATOM     58  C   UNL A   1      47.302  28.160  24.483  1.00  0.00     0.031 A 
ATOM     59  C   UNL A   1      48.186  27.340  26.569  1.00  0.00     0.131 A 
ATOM     60  C   UNL A   1      48.433  27.642  23.833  1.00  0.00     0.055 A 
ATOM     61  C   UNL A   1      49.344  26.895  25.927  1.00  0.00     0.041 A 
ATOM     62  F   UNL A   1      48.085  27.122  27.890  1.00  0.00    -0.206 F 
ATOM     63  C   UNL A   1      49.465  27.030  24.548  1.00  0.00     0.022 A 
BRANCH  60  64
ATOM     64  S   UNL A   1      48.466  27.650  22.019  1.00  0.00     0.124 S 
ATOM     65  O   UNL A   1      48.718  26.242  21.723  1.00  0.00    -0.237 OA
ATOM     66  O   UNL A   1      47.136  28.144  21.683  1.00  0.00    -0.237 OA
ATOM     67  O   UNL A   1      49.568  28.555  21.701  1.00  0.00    -0.744 OA
ENDBRANCH  60  64
ENDBRANCH  43  57
BRANCH  44  68
ATOM     68  C   UNL A   1      38.772  30.307  30.844  1.00  0.00     0.023 A 
ATOM     69  C   UNL A   1      37.718  31.036  30.271  1.00  0.00     0.031 A 
ATOM     70  C   UNL A   1      38.656  29.924  32.193  1.00  0.00     0.131 A 
ATOM     71  C   UNL A   1      36.605  31.385  31.054  1.00  0.00     0.055 A 
ATOM     72  C   UNL A   1      37.528  30.232  32.953  1.00  0.00     0.041 A 
ATOM     73  F   UNL A   1      39.636  29.225  32.787  1.00  0.00    -0.206 F 
ATOM     74  C   UNL A   1      36.497  30.976  32.386  1.00  0.00     0.022 A 
BRANCH  71  75
ATOM     75  S   UNL A   1      35.326  32.440  30.322  1.00  0.00     0.124 S 
ATOM     76  O   UNL A   1      36.081  33.645  29.999  1.00  0.00    -0.237 OA
ATOM     77  O   UNL A   1      34.882  31.637  29.188  1.00  0.00    -0.237 OA
ATOM     78  O   UNL A   1      34.348  32.586  31.400  1.00  0.00    -0.744 OA
ENDBRANCH  71  75
ENDBRANCH  44  68
BRANCH  56  79
ATOM     79  C   UNL A   1      44.637  33.777  29.428  1.00  0.00     0.023 A 
ATOM     80  C   UNL A   1      44.305  34.870  28.610  1.00  0.00     0.031 A 
ATOM     81  C   UNL A   1      45.429  34.012  30.566  1.00  0.00     0.131 A 
ATOM     82  C   UNL A   1      44.807  36.145  28.914  1.00  0.00     0.055 A 
ATOM     83  C   UNL A   1      45.883  35.290  30.890  1.00  0.00     0.041 A 
ATOM     84  F   UNL A   1      45.774  33.001  31.378  1.00  0.00    -0.206 F 
ATOM     85  C   UNL A   1      45.583  36.364  30.055  1.00  0.00     0.022 A 
BRANCH  82  86
ATOM     86  S   UNL A   1      44.499  37.502  27.750  1.00  0.00     0.124 S 
ATOM     87  O   UNL A   1      43.456  36.941  26.898  1.00  0.00    -0.237 OA
ATOM     88  O   UNL A   1      44.086  38.586  28.635  1.00  0.00    -0.237 OA
ATOM     89  O   UNL A   1      45.793  37.695  27.099  1.00  0.00    -0.744 OA
ENDBRANCH  82  86
ENDBRANCH  56  79
ENDBRANCH  30  31
ENDBRANCH  23  25
ENDBRANCH  22  23
ENDBRANCH  21  22
ENDBRANCH   1  21
TORSDOF 17
ENDMDL
