MODEL 1
REMARK VINA RESULT:     -12.8      0.000      0.000
REMARK SMILES O=C(Nc1cccc(C(=O)OCCOC(=O)c2ccc(-c3c4nc(c(-c5cc(S(=O)(=O)[O-])ccc5F)c5ccc([nH]5)c(-c5cc(S(=O)(=O)[O-])ccc5F)c5nc(c(-c6cc(S(=O)(=O)[O-])ccc6F)c6ccc3[nH]6)C=C5)C=C4)cc2)c1)Nc1cc(Cl)c(Cl)cc1Cl
REMARK SMILES IDX 13 1 12 2 11 3 9 4 10 5 8 6 4 7 5 8 80 9 6 10 7 11 3 12 1 13
REMARK SMILES IDX 2 14 81 15 82 18 83 19 89 20 84 21 88 22 90 23 85 24 86 25
REMARK SMILES IDX 87 26 14 27 15 28 16 29 17 30 18 31 79 32 19 33 78 34 20 35
REMARK SMILES IDX 21 36 22 37 72 38 23 39 77 40 71 41 73 42 24 43 76 44 70 45
REMARK SMILES IDX 69 46 25 48 57 49 37 50 56 51 38 52 41 53 55 54 74 55 39 56
REMARK SMILES IDX 40 57 54 59 75 60 42 61 26 62 27 63 35 64 28 65 34 66 36 67
REMARK SMILES IDX 33 68 29 69 30 70 31 71 32 72 58 73 59 74 67 75 60 76 66 77
REMARK SMILES IDX 68 78 65 79 61 80 62 81 63 82 64 83 43 84 44 85 52 86 45 87
REMARK SMILES IDX 51 88 53 89 50 90 46 91 47 92 48 93 49 94
REMARK H PARENT 3 16 81 17 73 47 41 58
REMARK Flexibility Score: inf
ROOT
ATOM      1  C   UNL A   1      31.446  31.783  26.567  1.00  0.00     0.275 C 
ENDROOT
BRANCH   1   2
ATOM      2  C   UNL A   1      31.116  30.808  25.435  1.00  0.00     0.275 C 
BRANCH   2   3
ATOM      3  O   UNL A   1      32.044  29.704  25.405  1.00  0.00    -0.458 OA
BRANCH   3   4
ATOM      4  C   UNL A   1      32.073  28.966  24.268  1.00  0.00     0.338 C 
ATOM      5  O   UNL A   1      32.884  29.062  23.359  1.00  0.00    -0.246 OA
BRANCH   4   6
ATOM      6  C   UNL A   1      30.996  27.945  24.282  1.00  0.00     0.062 A 
ATOM      7  C   UNL A   1      29.971  25.986  25.256  1.00  0.00     0.043 A 
ATOM      8  C   UNL A   1      28.955  26.031  24.300  1.00  0.00     0.026 A 
ATOM      9  C   UNL A   1      31.044  26.880  25.179  1.00  0.00     0.041 A 
ATOM     10  C   UNL A   1      28.902  27.092  23.403  1.00  0.00     0.003 A 
ATOM     11  C   UNL A   1      29.881  28.083  23.449  1.00  0.00     0.016 A 
BRANCH   7  12
ATOM     12  N   UNL A   1      29.827  25.076  26.315  1.00  0.00    -0.308 N 
ATOM     13  O   UNL A   1      30.153  23.170  27.466  1.00  0.00    -0.248 OA
ATOM     14  C   UNL A   1      30.475  23.880  26.518  1.00  0.00     0.323 C 
ATOM     15  N   UNL A   1      31.565  23.656  25.711  1.00  0.00    -0.306 N 
ATOM     16  H   UNL A   1      29.174  25.327  27.007  1.00  0.00     0.171 HD
ATOM     17  H   UNL A   1      31.911  24.438  25.223  1.00  0.00     0.171 HD
BRANCH  15  18
ATOM     18  C   UNL A   1      32.243  22.440  25.499  1.00  0.00     0.063 A 
ATOM     19  C   UNL A   1      31.894  21.748  24.326  1.00  0.00     0.049 A 
ATOM     20  C   UNL A   1      33.178  21.861  26.372  1.00  0.00     0.066 A 
ATOM     21  C   UNL A   1      32.534  20.553  23.982  1.00  0.00     0.061 A 
ATOM     22  C   UNL A   1      33.828  20.673  26.015  1.00  0.00     0.044 A 
ATOM     23  Cl  UNL A   1      33.456  22.411  27.989  1.00  0.00    -0.082 Cl
ATOM     24  Cl  UNL A   1      32.058  19.779  22.511  1.00  0.00    -0.083 Cl
ATOM     25  C   UNL A   1      33.520  20.027  24.817  1.00  0.00     0.061 A 
ATOM     26  Cl  UNL A   1      34.369  18.569  24.449  1.00  0.00    -0.083 Cl
ENDBRANCH  15  18
ENDBRANCH   7  12
ENDBRANCH   4   6
ENDBRANCH   3   4
ENDBRANCH   2   3
ENDBRANCH   1   2
BRANCH   1  27
ATOM     27  O   UNL A   1      32.689  31.428  27.201  1.00  0.00    -0.458 OA
BRANCH  27  28
ATOM     28  C   UNL A   1      33.441  32.480  27.598  1.00  0.00     0.338 C 
ATOM     29  O   UNL A   1      33.078  33.634  27.747  1.00  0.00    -0.246 OA
BRANCH  28  30
ATOM     30  C   UNL A   1      34.783  32.019  27.981  1.00  0.00     0.060 A 
ATOM     31  C   UNL A   1      34.891  30.721  28.460  1.00  0.00     0.016 A 
ATOM     32  C   UNL A   1      35.872  32.880  28.056  1.00  0.00     0.016 A 
ATOM     33  C   UNL A   1      36.027  30.305  29.139  1.00  0.00     0.010 A 
ATOM     34  C   UNL A   1      37.069  32.416  28.623  1.00  0.00     0.010 A 
ATOM     35  C   UNL A   1      37.149  31.137  29.212  1.00  0.00    -0.014 A 
BRANCH  35  36
ATOM     36  C   UNL A   1      38.375  30.676  29.929  1.00  0.00     0.031 A 
ATOM     37  C   UNL A   1      39.318  29.703  29.267  1.00  0.00     0.074 A 
ATOM     38  C   UNL A   1      38.664  31.144  31.163  1.00  0.00     0.049 A 
ATOM     39  N   UNL A   1      40.322  29.040  29.782  1.00  0.00    -0.248 NA
ATOM     40  C   UNL A   1      39.089  29.428  27.840  1.00  0.00     0.031 C 
ATOM     41  C   UNL A   1      37.881  32.142  31.898  1.00  0.00     0.029 A 
ATOM     42  N   UNL A   1      39.697  30.849  32.021  1.00  0.00    -0.354 N 
ATOM     43  C   UNL A   1      40.810  28.229  28.760  1.00  0.00     0.074 A 
ATOM     44  C   UNL A   1      39.975  28.472  27.602  1.00  0.00     0.031 C 
ATOM     45  C   UNL A   1      38.479  32.402  33.069  1.00  0.00     0.029 A 
ATOM     46  C   UNL A   1      39.618  31.508  33.228  1.00  0.00     0.049 A 
ATOM     47  H   UNL A   1      40.424  30.226  31.793  1.00  0.00     0.167 HD
ATOM     48  C   UNL A   1      41.856  27.367  28.788  1.00  0.00     0.034 A 
ATOM     49  C   UNL A   1      40.334  31.369  34.361  1.00  0.00     0.034 A 
ATOM     50  C   UNL A   1      42.698  27.166  29.945  1.00  0.00     0.049 A 
ATOM     51  C   UNL A   1      41.436  30.341  34.397  1.00  0.00     0.074 A 
ATOM     52  C   UNL A   1      43.789  26.324  30.080  1.00  0.00     0.029 A 
ATOM     53  N   UNL A   1      42.547  27.814  31.165  1.00  0.00    -0.354 N 
ATOM     54  N   UNL A   1      41.847  29.539  33.443  1.00  0.00    -0.248 NA
ATOM     55  C   UNL A   1      42.161  30.193  35.664  1.00  0.00     0.031 C 
ATOM     56  C   UNL A   1      44.246  26.404  31.399  1.00  0.00     0.029 A 
ATOM     57  C   UNL A   1      43.502  27.366  32.064  1.00  0.00     0.049 A 
ATOM     58  H   UNL A   1      41.860  28.492  31.362  1.00  0.00     0.167 HD
ATOM     59  C   UNL A   1      42.902  28.813  33.989  1.00  0.00     0.074 A 
ATOM     60  C   UNL A   1      43.073  29.286  35.347  1.00  0.00     0.031 C 
ATOM     61  C   UNL A   1      43.661  27.843  33.418  1.00  0.00     0.034 A 
BRANCH  48  62
ATOM     62  C   UNL A   1      42.111  26.530  27.555  1.00  0.00     0.023 A 
ATOM     63  C   UNL A   1      41.683  25.196  27.451  1.00  0.00     0.031 A 
ATOM     64  C   UNL A   1      42.812  27.080  26.465  1.00  0.00     0.131 A 
ATOM     65  C   UNL A   1      42.022  24.437  26.319  1.00  0.00     0.055 A 
ATOM     66  C   UNL A   1      43.070  26.347  25.305  1.00  0.00     0.041 A 
ATOM     67  F   UNL A   1      43.268  28.342  26.512  1.00  0.00    -0.206 F 
ATOM     68  C   UNL A   1      42.687  25.011  25.233  1.00  0.00     0.022 A 
BRANCH  65  69
ATOM     69  S   UNL A   1      41.708  22.651  26.347  1.00  0.00     0.124 S 
ATOM     70  O   UNL A   1      42.327  22.264  27.612  1.00  0.00    -0.237 OA
ATOM     71  O   UNL A   1      40.252  22.585  26.301  1.00  0.00    -0.237 OA
ATOM     72  O   UNL A   1      42.394  22.164  25.151  1.00  0.00    -0.744 OA
ENDBRANCH  65  69
ENDBRANCH  48  62
BRANCH  49  73
ATOM     73  C   UNL A   1      39.988  32.160  35.581  1.00  0.00     0.023 A 
ATOM     74  C   UNL A   1      39.048  31.686  36.509  1.00  0.00     0.031 A 
ATOM     75  C   UNL A   1      40.551  33.430  35.808  1.00  0.00     0.131 A 
ATOM     76  C   UNL A   1      38.663  32.494  37.591  1.00  0.00     0.055 A 
ATOM     77  C   UNL A   1      40.218  34.200  36.923  1.00  0.00     0.041 A 
ATOM     78  F   UNL A   1      41.449  33.941  34.949  1.00  0.00    -0.206 F 
ATOM     79  C   UNL A   1      39.255  33.739  37.814  1.00  0.00     0.022 A 
BRANCH  76  80
ATOM     80  S   UNL A   1      37.290  31.943  38.639  1.00  0.00     0.124 S 
ATOM     81  O   UNL A   1      37.131  30.558  38.212  1.00  0.00    -0.237 OA
ATOM     82  O   UNL A   1      37.834  32.143  39.978  1.00  0.00    -0.237 OA
ATOM     83  O   UNL A   1      36.198  32.842  38.270  1.00  0.00    -0.744 OA
ENDBRANCH  76  80
ENDBRANCH  49  73
BRANCH  61  84
ATOM     84  C   UNL A   1      44.787  27.277  34.249  1.00  0.00     0.023 A 
ATOM     85  C   UNL A   1      44.614  26.146  35.065  1.00  0.00     0.031 A 
ATOM     86  C   UNL A   1      46.051  27.894  34.235  1.00  0.00     0.131 A 
ATOM     87  C   UNL A   1      45.667  25.705  35.880  1.00  0.00     0.055 A 
ATOM     88  C   UNL A   1      47.116  27.407  34.993  1.00  0.00     0.041 A 
ATOM     89  F   UNL A   1      46.272  28.982  33.479  1.00  0.00    -0.206 F 
ATOM     90  C   UNL A   1      46.924  26.315  35.834  1.00  0.00     0.022 A 
BRANCH  87  91
ATOM     91  S   UNL A   1      45.344  24.387  37.085  1.00  0.00     0.124 S 
ATOM     92  O   UNL A   1      46.550  24.425  37.905  1.00  0.00    -0.237 OA
ATOM     93  O   UNL A   1      44.119  24.848  37.730  1.00  0.00    -0.237 OA
ATOM     94  O   UNL A   1      45.195  23.193  36.254  1.00  0.00    -0.744 OA
ENDBRANCH  87  91
ENDBRANCH  61  84
ENDBRANCH  35  36
ENDBRANCH  28  30
ENDBRANCH  27  28
ENDBRANCH   1  27
TORSDOF 16
ENDMDL
MODEL 2
REMARK VINA RESULT:     -12.7      5.195     10.421
REMARK SMILES O=C(Nc1cccc(C(=O)OCCOC(=O)c2ccc(-c3c4nc(c(-c5cc(S(=O)(=O)[O-])ccc5F)c5ccc([nH]5)c(-c5cc(S(=O)(=O)[O-])ccc5F)c5nc(c(-c6cc(S(=O)(=O)[O-])ccc6F)c6ccc3[nH]6)C=C5)C=C4)cc2)c1)Nc1cc(Cl)c(Cl)cc1Cl
REMARK SMILES IDX 13 1 12 2 11 3 9 4 10 5 8 6 4 7 5 8 80 9 6 10 7 11 3 12 1 13
REMARK SMILES IDX 2 14 81 15 82 18 83 19 89 20 84 21 88 22 90 23 85 24 86 25
REMARK SMILES IDX 87 26 14 27 15 28 16 29 17 30 18 31 79 32 19 33 78 34 20 35
REMARK SMILES IDX 21 36 22 37 72 38 23 39 77 40 71 41 73 42 24 43 76 44 70 45
REMARK SMILES IDX 69 46 25 48 57 49 37 50 56 51 38 52 41 53 55 54 74 55 39 56
REMARK SMILES IDX 40 57 54 59 75 60 42 61 26 62 27 63 35 64 28 65 34 66 36 67
REMARK SMILES IDX 33 68 29 69 30 70 31 71 32 72 58 73 59 74 67 75 60 76 66 77
REMARK SMILES IDX 68 78 65 79 61 80 62 81 63 82 64 83 43 84 44 85 52 86 45 87
REMARK SMILES IDX 51 88 53 89 50 90 46 91 47 92 48 93 49 94
REMARK H PARENT 3 16 81 17 73 47 41 58
REMARK Flexibility Score: inf
ROOT
ATOM      1  C   UNL A   1      37.543  20.804  24.671  1.00  0.00     0.275 C 
ENDROOT
BRANCH   1   2
ATOM      2  C   UNL A   1      36.140  20.290  25.001  1.00  0.00     0.275 C 
BRANCH   2   3
ATOM      3  O   UNL A   1      35.397  21.251  25.779  1.00  0.00    -0.458 OA
BRANCH   3   4
ATOM      4  C   UNL A   1      34.056  21.067  25.853  1.00  0.00     0.338 C 
ATOM      5  O   UNL A   1      33.424  20.708  26.835  1.00  0.00    -0.246 OA
BRANCH   4   6
ATOM      6  C   UNL A   1      33.409  21.424  24.566  1.00  0.00     0.062 A 
ATOM      7  C   UNL A   1      33.052  22.981  22.755  1.00  0.00     0.043 A 
ATOM      8  C   UNL A   1      32.188  22.078  22.134  1.00  0.00     0.026 A 
ATOM      9  C   UNL A   1      33.577  22.693  24.019  1.00  0.00     0.041 A 
ATOM     10  C   UNL A   1      32.017  20.809  22.677  1.00  0.00     0.003 A 
ATOM     11  C   UNL A   1      32.688  20.463  23.848  1.00  0.00     0.016 A 
BRANCH   7  12
ATOM     12  N   UNL A   1      33.423  24.127  22.031  1.00  0.00    -0.308 N 
ATOM     13  O   UNL A   1      33.654  26.325  21.612  1.00  0.00    -0.248 OA
ATOM     14  C   UNL A   1      33.367  25.445  22.418  1.00  0.00     0.323 C 
ATOM     15  N   UNL A   1      33.142  25.658  23.757  1.00  0.00    -0.306 N 
ATOM     16  H   UNL A   1      33.769  23.964  21.125  1.00  0.00     0.171 HD
ATOM     17  H   UNL A   1      33.255  24.876  24.345  1.00  0.00     0.171 HD
BRANCH  15  18
ATOM     18  C   UNL A   1      32.768  26.860  24.387  1.00  0.00     0.063 A 
ATOM     19  C   UNL A   1      33.653  27.327  25.375  1.00  0.00     0.049 A 
ATOM     20  C   UNL A   1      31.587  27.580  24.143  1.00  0.00     0.066 A 
ATOM     21  C   UNL A   1      33.415  28.536  26.037  1.00  0.00     0.061 A 
ATOM     22  C   UNL A   1      31.361  28.798  24.796  1.00  0.00     0.044 A 
ATOM     23  Cl  UNL A   1      30.259  26.968  23.219  1.00  0.00    -0.082 Cl
ATOM     24  Cl  UNL A   1      34.565  29.046  27.222  1.00  0.00    -0.083 Cl
ATOM     25  C   UNL A   1      32.278  29.284  25.729  1.00  0.00     0.061 A 
ATOM     26  Cl  UNL A   1      31.927  30.796  26.487  1.00  0.00    -0.083 Cl
ENDBRANCH  15  18
ENDBRANCH   7  12
ENDBRANCH   4   6
ENDBRANCH   3   4
ENDBRANCH   2   3
ENDBRANCH   1   2
BRANCH   1  27
ATOM     27  O   UNL A   1      37.964  21.792  25.631  1.00  0.00    -0.458 OA
BRANCH  27  28
ATOM     28  C   UNL A   1      39.173  21.557  26.190  1.00  0.00     0.338 C 
ATOM     29  O   UNL A   1      39.859  20.557  26.073  1.00  0.00    -0.246 OA
BRANCH  28  30
ATOM     30  C   UNL A   1      39.649  22.764  26.879  1.00  0.00     0.060 A 
ATOM     31  C   UNL A   1      39.107  23.976  26.473  1.00  0.00     0.016 A 
ATOM     32  C   UNL A   1      40.726  22.744  27.757  1.00  0.00     0.016 A 
ATOM     33  C   UNL A   1      39.709  25.177  26.823  1.00  0.00     0.010 A 
ATOM     34  C   UNL A   1      41.252  23.961  28.218  1.00  0.00     0.010 A 
ATOM     35  C   UNL A   1      40.779  25.194  27.723  1.00  0.00    -0.014 A 
BRANCH  35  36
ATOM     36  C   UNL A   1      41.411  26.491  28.107  1.00  0.00     0.031 A 
ATOM     37  C   UNL A   1      40.611  27.531  28.852  1.00  0.00     0.074 A 
ATOM     38  C   UNL A   1      42.707  26.735  27.815  1.00  0.00     0.049 A 
ATOM     39  N   UNL A   1      40.908  28.779  29.107  1.00  0.00    -0.248 NA
ATOM     40  C   UNL A   1      39.296  27.112  29.361  1.00  0.00     0.031 C 
ATOM     41  C   UNL A   1      43.623  25.795  27.162  1.00  0.00     0.029 A 
ATOM     42  N   UNL A   1      43.488  27.846  28.034  1.00  0.00    -0.354 N 
ATOM     43  C   UNL A   1      39.797  29.311  29.758  1.00  0.00     0.074 A 
ATOM     44  C   UNL A   1      38.814  28.251  29.836  1.00  0.00     0.031 C 
ATOM     45  C   UNL A   1      44.839  26.350  27.069  1.00  0.00     0.029 A 
ATOM     46  C   UNL A   1      44.769  27.726  27.542  1.00  0.00     0.049 A 
ATOM     47  H   UNL A   1      43.161  28.651  28.498  1.00  0.00     0.167 HD
ATOM     48  C   UNL A   1      39.619  30.566  30.242  1.00  0.00     0.034 A 
ATOM     49  C   UNL A   1      45.759  28.633  27.422  1.00  0.00     0.034 A 
ATOM     50  C   UNL A   1      40.627  31.598  30.183  1.00  0.00     0.049 A 
ATOM     51  C   UNL A   1      45.507  30.043  27.888  1.00  0.00     0.074 A 
ATOM     52  C   UNL A   1      40.555  32.900  30.651  1.00  0.00     0.029 A 
ATOM     53  N   UNL A   1      41.891  31.449  29.626  1.00  0.00    -0.354 N 
ATOM     54  N   UNL A   1      44.431  30.548  28.445  1.00  0.00    -0.248 NA
ATOM     55  C   UNL A   1      46.597  31.007  27.698  1.00  0.00     0.031 C 
ATOM     56  C   UNL A   1      41.741  33.557  30.308  1.00  0.00     0.029 A 
ATOM     57  C   UNL A   1      42.593  32.642  29.709  1.00  0.00     0.049 A 
ATOM     58  H   UNL A   1      42.238  30.617  29.229  1.00  0.00     0.167 HD
ATOM     59  C   UNL A   1      44.730  31.884  28.701  1.00  0.00     0.074 A 
ATOM     60  C   UNL A   1      46.090  32.098  28.254  1.00  0.00     0.031 C 
ATOM     61  C   UNL A   1      43.949  32.845  29.256  1.00  0.00     0.034 A 
BRANCH  48  62
ATOM     62  C   UNL A   1      38.265  30.909  30.821  1.00  0.00     0.023 A 
ATOM     63  C   UNL A   1      37.257  31.526  30.059  1.00  0.00     0.031 A 
ATOM     64  C   UNL A   1      37.984  30.625  32.170  1.00  0.00     0.131 A 
ATOM     65  C   UNL A   1      36.050  31.902  30.669  1.00  0.00     0.055 A 
ATOM     66  C   UNL A   1      36.749  30.923  32.749  1.00  0.00     0.041 A 
ATOM     67  F   UNL A   1      38.913  30.058  32.957  1.00  0.00    -0.206 F 
ATOM     68  C   UNL A   1      35.777  31.580  32.000  1.00  0.00     0.022 A 
BRANCH  65  69
ATOM     69  S   UNL A   1      34.898  32.949  29.737  1.00  0.00     0.124 S 
ATOM     70  O   UNL A   1      34.028  33.447  30.799  1.00  0.00    -0.237 OA
ATOM     71  O   UNL A   1      35.787  33.931  29.126  1.00  0.00    -0.237 OA
ATOM     72  O   UNL A   1      34.264  32.017  28.807  1.00  0.00    -0.744 OA
ENDBRANCH  65  69
ENDBRANCH  48  62
BRANCH  49  73
ATOM     73  C   UNL A   1      47.050  28.265  26.766  1.00  0.00     0.023 A 
ATOM     74  C   UNL A   1      47.158  28.195  25.368  1.00  0.00     0.031 A 
ATOM     75  C   UNL A   1      48.182  27.921  27.529  1.00  0.00     0.131 A 
ATOM     76  C   UNL A   1      48.351  27.746  24.780  1.00  0.00     0.055 A 
ATOM     77  C   UNL A   1      49.389  27.543  26.938  1.00  0.00     0.041 A 
ATOM     78  F   UNL A   1      48.136  27.960  28.871  1.00  0.00    -0.206 F 
ATOM     79  C   UNL A   1      49.472  27.438  25.554  1.00  0.00     0.022 A 
BRANCH  76  80
ATOM     80  S   UNL A   1      48.380  27.458  22.989  1.00  0.00     0.124 S 
ATOM     81  O   UNL A   1      47.205  28.202  22.553  1.00  0.00    -0.237 OA
ATOM     82  O   UNL A   1      49.673  28.021  22.614  1.00  0.00    -0.237 OA
ATOM     83  O   UNL A   1      48.278  26.004  22.877  1.00  0.00    -0.744 OA
ENDBRANCH  76  80
ENDBRANCH  49  73
BRANCH  61  84
ATOM     84  C   UNL A   1      44.578  34.202  29.467  1.00  0.00     0.023 A 
ATOM     85  C   UNL A   1      44.476  35.226  28.509  1.00  0.00     0.031 A 
ATOM     86  C   UNL A   1      45.309  34.464  30.640  1.00  0.00     0.131 A 
ATOM     87  C   UNL A   1      45.145  36.442  28.714  1.00  0.00     0.055 A 
ATOM     88  C   UNL A   1      45.912  35.701  30.870  1.00  0.00     0.041 A 
ATOM     89  F   UNL A   1      45.446  33.521  31.585  1.00  0.00    -0.206 F 
ATOM     90  C   UNL A   1      45.845  36.694  29.897  1.00  0.00     0.022 A 
BRANCH  87  91
ATOM     91  S   UNL A   1      45.179  37.654  27.365  1.00  0.00     0.124 S 
ATOM     92  O   UNL A   1      46.186  37.086  26.474  1.00  0.00    -0.237 OA
ATOM     93  O   UNL A   1      43.804  37.619  26.878  1.00  0.00    -0.237 OA
ATOM     94  O   UNL A   1      45.569  38.896  28.030  1.00  0.00    -0.744 OA
ENDBRANCH  87  91
ENDBRANCH  61  84
ENDBRANCH  35  36
ENDBRANCH  28  30
ENDBRANCH  27  28
ENDBRANCH   1  27
TORSDOF 16
ENDMDL
MODEL 3
REMARK VINA RESULT:     -12.6      0.668      7.463
REMARK SMILES O=C(Nc1cccc(C(=O)OCCOC(=O)c2ccc(-c3c4nc(c(-c5cc(S(=O)(=O)[O-])ccc5F)c5ccc([nH]5)c(-c5cc(S(=O)(=O)[O-])ccc5F)c5nc(c(-c6cc(S(=O)(=O)[O-])ccc6F)c6ccc3[nH]6)C=C5)C=C4)cc2)c1)Nc1cc(Cl)c(Cl)cc1Cl
REMARK SMILES IDX 13 1 12 2 11 3 9 4 10 5 8 6 4 7 5 8 80 9 6 10 7 11 3 12 1 13
REMARK SMILES IDX 2 14 81 15 82 18 83 19 89 20 84 21 88 22 90 23 85 24 86 25
REMARK SMILES IDX 87 26 14 27 15 28 16 29 17 30 18 31 79 32 19 33 78 34 20 35
REMARK SMILES IDX 21 36 22 37 72 38 23 39 77 40 71 41 73 42 24 43 76 44 70 45
REMARK SMILES IDX 69 46 25 48 57 49 37 50 56 51 38 52 41 53 55 54 74 55 39 56
REMARK SMILES IDX 40 57 54 59 75 60 42 61 26 62 27 63 35 64 28 65 34 66 36 67
REMARK SMILES IDX 33 68 29 69 30 70 31 71 32 72 58 73 59 74 67 75 60 76 66 77
REMARK SMILES IDX 68 78 65 79 61 80 62 81 63 82 64 83 43 84 44 85 52 86 45 87
REMARK SMILES IDX 51 88 53 89 50 90 46 91 47 92 48 93 49 94
REMARK H PARENT 3 16 81 17 73 47 41 58
REMARK Flexibility Score: inf
ROOT
ATOM      1  C   UNL A   1      31.482  32.571  26.509  1.00  0.00     0.275 C 
ENDROOT
BRANCH   1   2
ATOM      2  C   UNL A   1      30.962  31.362  25.729  1.00  0.00     0.275 C 
BRANCH   2   3
ATOM      3  O   UNL A   1      31.640  30.152  26.123  1.00  0.00    -0.458 OA
BRANCH   3   4
ATOM      4  C   UNL A   1      32.125  29.374  25.124  1.00  0.00     0.338 C 
ATOM      5  O   UNL A   1      33.206  29.494  24.568  1.00  0.00    -0.246 OA
BRANCH   4   6
ATOM      6  C   UNL A   1      31.175  28.278  24.810  1.00  0.00     0.062 A 
ATOM      7  C   UNL A   1      30.123  26.180  25.384  1.00  0.00     0.043 A 
ATOM      8  C   UNL A   1      29.375  26.222  24.206  1.00  0.00     0.026 A 
ATOM      9  C   UNL A   1      31.096  27.155  25.630  1.00  0.00     0.041 A 
ATOM     10  C   UNL A   1      29.450  27.341  23.384  1.00  0.00     0.003 A 
ATOM     11  C   UNL A   1      30.293  28.395  23.730  1.00  0.00     0.016 A 
BRANCH   7  12
ATOM     12  N   UNL A   1      29.805  25.184  26.321  1.00  0.00    -0.308 N 
ATOM     13  O   UNL A   1      29.908  23.170  27.316  1.00  0.00    -0.248 OA
ATOM     14  C   UNL A   1      30.381  23.948  26.494  1.00  0.00     0.323 C 
ATOM     15  N   UNL A   1      31.565  23.751  25.825  1.00  0.00    -0.306 N 
ATOM     16  H   UNL A   1      29.069  25.400  26.939  1.00  0.00     0.171 HD
ATOM     17  H   UNL A   1      32.000  24.558  25.467  1.00  0.00     0.171 HD
BRANCH  15  18
ATOM     18  C   UNL A   1      32.228  22.531  25.591  1.00  0.00     0.063 A 
ATOM     19  C   UNL A   1      31.919  21.896  24.375  1.00  0.00     0.049 A 
ATOM     20  C   UNL A   1      33.112  21.896  26.480  1.00  0.00     0.066 A 
ATOM     21  C   UNL A   1      32.551  20.703  24.009  1.00  0.00     0.061 A 
ATOM     22  C   UNL A   1      33.754  20.711  26.101  1.00  0.00     0.044 A 
ATOM     23  Cl  UNL A   1      33.327  22.371  28.129  1.00  0.00    -0.082 Cl
ATOM     24  Cl  UNL A   1      32.127  20.002  22.487  1.00  0.00    -0.083 Cl
ATOM     25  C   UNL A   1      33.488  20.122  24.864  1.00  0.00     0.061 A 
ATOM     26  Cl  UNL A   1      34.324  18.663  24.471  1.00  0.00    -0.083 Cl
ENDBRANCH  15  18
ENDBRANCH   7  12
ENDBRANCH   4   6
ENDBRANCH   3   4
ENDBRANCH   2   3
ENDBRANCH   1   2
BRANCH   1  27
ATOM     27  O   UNL A   1      32.527  32.182  27.420  1.00  0.00    -0.458 OA
BRANCH  27  28
ATOM     28  C   UNL A   1      33.477  33.123  27.626  1.00  0.00     0.338 C 
ATOM     29  O   UNL A   1      33.335  34.333  27.605  1.00  0.00    -0.246 OA
BRANCH  28  30
ATOM     30  C   UNL A   1      34.734  32.483  28.035  1.00  0.00     0.060 A 
ATOM     31  C   UNL A   1      34.689  31.122  28.309  1.00  0.00     0.016 A 
ATOM     32  C   UNL A   1      35.879  33.213  28.331  1.00  0.00     0.016 A 
ATOM     33  C   UNL A   1      35.720  30.502  29.000  1.00  0.00     0.010 A 
ATOM     34  C   UNL A   1      36.976  32.556  28.909  1.00  0.00     0.010 A 
ATOM     35  C   UNL A   1      36.896  31.201  29.292  1.00  0.00    -0.014 A 
BRANCH  35  36
ATOM     36  C   UNL A   1      38.007  30.521  30.021  1.00  0.00     0.031 A 
ATOM     37  C   UNL A   1      38.215  30.779  31.493  1.00  0.00     0.074 A 
ATOM     38  C   UNL A   1      38.818  29.653  29.379  1.00  0.00     0.049 A 
ATOM     39  N   UNL A   1      39.222  30.443  32.259  1.00  0.00    -0.248 NA
ATOM     40  C   UNL A   1      37.157  31.528  32.188  1.00  0.00     0.031 C 
ATOM     41  C   UNL A   1      38.692  29.252  27.974  1.00  0.00     0.029 A 
ATOM     42  N   UNL A   1      39.909  28.941  29.820  1.00  0.00    -0.354 N 
ATOM     43  C   UNL A   1      38.945  30.985  33.512  1.00  0.00     0.074 A 
ATOM     44  C   UNL A   1      37.686  31.690  33.393  1.00  0.00     0.031 C 
ATOM     45  C   UNL A   1      39.636  28.346  27.684  1.00  0.00     0.029 A 
ATOM     46  C   UNL A   1      40.510  28.186  28.838  1.00  0.00     0.049 A 
ATOM     47  H   UNL A   1      40.229  28.970  30.751  1.00  0.00     0.167 HD
ATOM     48  C   UNL A   1      39.676  30.901  34.652  1.00  0.00     0.034 A 
ATOM     49  C   UNL A   1      41.666  27.494  28.837  1.00  0.00     0.034 A 
ATOM     50  C   UNL A   1      40.913  30.164  34.758  1.00  0.00     0.049 A 
ATOM     51  C   UNL A   1      42.505  27.487  30.088  1.00  0.00     0.074 A 
ATOM     52  C   UNL A   1      41.729  30.005  35.865  1.00  0.00     0.029 A 
ATOM     53  N   UNL A   1      41.514  29.459  33.722  1.00  0.00    -0.354 N 
ATOM     54  N   UNL A   1      42.262  28.054  31.247  1.00  0.00    -0.248 NA
ATOM     55  C   UNL A   1      43.776  26.757  30.029  1.00  0.00     0.031 C 
ATOM     56  C   UNL A   1      42.857  29.274  35.480  1.00  0.00     0.029 A 
ATOM     57  C   UNL A   1      42.704  28.895  34.156  1.00  0.00     0.049 A 
ATOM     58  H   UNL A   1      41.149  29.375  32.811  1.00  0.00     0.167 HD
ATOM     59  C   UNL A   1      43.339  27.721  32.064  1.00  0.00     0.074 A 
ATOM     60  C   UNL A   1      44.220  26.890  31.270  1.00  0.00     0.031 C 
ATOM     61  C   UNL A   1      43.577  28.070  33.354  1.00  0.00     0.034 A 
BRANCH  48  62
ATOM     62  C   UNL A   1      39.190  31.674  35.857  1.00  0.00     0.023 A 
ATOM     63  C   UNL A   1      38.434  31.075  36.879  1.00  0.00     0.031 A 
ATOM     64  C   UNL A   1      39.478  33.047  35.975  1.00  0.00     0.131 A 
ATOM     65  C   UNL A   1      37.933  31.858  37.931  1.00  0.00     0.055 A 
ATOM     66  C   UNL A   1      39.051  33.802  37.069  1.00  0.00     0.041 A 
ATOM     67  F   UNL A   1      40.176  33.683  35.021  1.00  0.00    -0.206 F 
ATOM     68  C   UNL A   1      38.260  33.210  38.049  1.00  0.00     0.022 A 
BRANCH  65  69
ATOM     69  S   UNL A   1      36.728  31.116  39.066  1.00  0.00     0.124 S 
ATOM     70  O   UNL A   1      35.668  32.121  39.067  1.00  0.00    -0.237 OA
ATOM     71  O   UNL A   1      36.410  29.853  38.408  1.00  0.00    -0.237 OA
ATOM     72  O   UNL A   1      37.466  30.997  40.322  1.00  0.00    -0.744 OA
ENDBRANCH  65  69
ENDBRANCH  48  62
BRANCH  49  73
ATOM     73  C   UNL A   1      42.145  26.816  27.594  1.00  0.00     0.023 A 
ATOM     74  C   UNL A   1      41.948  25.441  27.397  1.00  0.00     0.031 A 
ATOM     75  C   UNL A   1      42.859  27.524  26.608  1.00  0.00     0.131 A 
ATOM     76  C   UNL A   1      42.500  24.809  26.270  1.00  0.00     0.055 A 
ATOM     77  C   UNL A   1      43.344  26.905  25.455  1.00  0.00     0.041 A 
ATOM     78  F   UNL A   1      43.087  28.841  26.746  1.00  0.00    -0.206 F 
ATOM     79  C   UNL A   1      43.179  25.535  25.290  1.00  0.00     0.022 A 
BRANCH  76  80
ATOM     80  S   UNL A   1      42.416  23.000  26.163  1.00  0.00     0.124 S 
ATOM     81  O   UNL A   1      41.015  22.751  26.481  1.00  0.00    -0.237 OA
ATOM     82  O   UNL A   1      42.812  22.762  24.779  1.00  0.00    -0.237 OA
ATOM     83  O   UNL A   1      43.376  22.555  27.171  1.00  0.00    -0.744 OA
ENDBRANCH  76  80
ENDBRANCH  49  73
BRANCH  61  84
ATOM     84  C   UNL A   1      44.814  27.496  34.002  1.00  0.00     0.023 A 
ATOM     85  C   UNL A   1      44.795  26.267  34.684  1.00  0.00     0.031 A 
ATOM     86  C   UNL A   1      46.028  28.205  33.949  1.00  0.00     0.131 A 
ATOM     87  C   UNL A   1      45.951  25.814  35.339  1.00  0.00     0.055 A 
ATOM     88  C   UNL A   1      47.193  27.713  34.541  1.00  0.00     0.041 A 
ATOM     89  F   UNL A   1      46.104  29.387  33.317  1.00  0.00    -0.206 F 
ATOM     90  C   UNL A   1      47.155  26.519  35.254  1.00  0.00     0.022 A 
BRANCH  87  91
ATOM     91  S   UNL A   1      45.833  24.344  36.394  1.00  0.00     0.124 S 
ATOM     92  O   UNL A   1      47.158  24.304  37.005  1.00  0.00    -0.237 OA
ATOM     93  O   UNL A   1      44.730  24.687  37.286  1.00  0.00    -0.237 OA
ATOM     94  O   UNL A   1      45.552  23.265  35.449  1.00  0.00    -0.744 OA
ENDBRANCH  87  91
ENDBRANCH  61  84
ENDBRANCH  35  36
ENDBRANCH  28  30
ENDBRANCH  27  28
ENDBRANCH   1  27
TORSDOF 16
ENDMDL
