MODEL 1
REMARK VINA RESULT:     -12.3      0.000      0.000
REMARK SMILES COc1cc2c(cc1OC)[C@H](C(=O)OCCOC(=O)c1ccc(-c3c4nc(c(-c5cc(S(=O)(=O)[O-])ccc5F)c5ccc([nH]5)c(-c5cc(S(=O)(=O)[O-])ccc5F)c5nc(c(-c6cc(S(=O)(=O)[O-])ccc6F)c6ccc3[nH]6)C=C5)C=C4)cc1)[C@H](c1cccc(Cl)c1)N(C)C2=O
REMARK SMILES IDX 16 1 15 2 14 3 12 4 13 5 11 6 3 7 4 8 8 9 5 10 7 11 6 12
REMARK SMILES IDX 93 13 91 14 94 15 83 16 92 17 2 18 1 19 9 20 10 21 84 22
REMARK SMILES IDX 85 23 90 24 86 25 88 26 87 27 89 28 17 29 18 30 19 31 20 32
REMARK SMILES IDX 21 33 82 34 22 35 81 36 23 37 24 38 25 39 75 40 26 41 80 42
REMARK SMILES IDX 74 43 76 44 27 45 79 46 73 47 72 48 28 50 60 51 40 52 59 53
REMARK SMILES IDX 41 54 44 55 58 56 77 57 42 58 43 59 57 61 78 62 45 63 29 64
REMARK SMILES IDX 30 65 38 66 31 67 37 68 39 69 36 70 32 71 33 72 34 73 35 74
REMARK SMILES IDX 61 75 62 76 70 77 63 78 69 79 71 80 68 81 64 82 65 83 66 84
REMARK SMILES IDX 67 85 46 86 47 87 55 88 48 89 54 90 56 91 53 92 49 93 50 94
REMARK SMILES IDX 51 95 52 96
REMARK H PARENT 76 49 44 60
REMARK Flexibility Score: inf
ROOT
ATOM      1  C   UNL A   1      31.818  30.848  26.595  1.00  0.00     0.275 C 
ENDROOT
BRANCH   1   2
ATOM      2  C   UNL A   1      31.477  29.564  27.365  1.00  0.00     0.274 C 
BRANCH   2   3
ATOM      3  O   UNL A   1      32.446  28.531  27.103  1.00  0.00    -0.462 OA
BRANCH   3   4
ATOM      4  C   UNL A   1      31.982  27.359  26.616  1.00  0.00     0.316 C 
ATOM      5  O   UNL A   1      31.085  26.721  27.164  1.00  0.00    -0.251 OA
BRANCH   4   6
ATOM      6  C   UNL A   1      32.599  26.910  25.301  1.00  0.00     0.157 C 
ATOM      7  C   UNL A   1      31.796  23.016  23.531  1.00  0.00     0.161 A 
ATOM      8  C   UNL A   1      32.273  24.087  22.763  1.00  0.00     0.064 A 
ATOM      9  C   UNL A   1      31.679  23.169  24.916  1.00  0.00     0.161 A 
ATOM     10  C   UNL A   1      32.571  25.320  23.360  1.00  0.00     0.048 A 
ATOM     11  C   UNL A   1      31.997  24.405  25.494  1.00  0.00     0.056 A 
ATOM     12  C   UNL A   1      32.340  25.526  24.728  1.00  0.00    -0.015 A 
ATOM     13  C   UNL A   1      33.181  26.397  22.519  1.00  0.00     0.254 C 
ATOM     14  N   UNL A   1      33.149  27.689  23.038  1.00  0.00    -0.333 N 
ATOM     15  O   UNL A   1      33.656  26.117  21.424  1.00  0.00    -0.269 OA
ATOM     16  C   UNL A   1      32.335  28.004  24.224  1.00  0.00     0.134 C 
ATOM     17  C   UNL A   1      33.788  28.773  22.311  1.00  0.00     0.147 C 
BRANCH   7  18
ATOM     18  O   UNL A   1      31.385  21.852  22.938  1.00  0.00    -0.493 OA
ATOM     19  C   UNL A   1      32.329  20.788  23.009  1.00  0.00     0.278 C 
ENDBRANCH   7  18
BRANCH   9  20
ATOM     20  O   UNL A   1      31.290  22.254  25.858  1.00  0.00    -0.493 OA
ATOM     21  C   UNL A   1      30.205  22.570  26.711  1.00  0.00     0.278 C 
ENDBRANCH   9  20
BRANCH  16  22
ATOM     22  C   UNL A   1      30.850  28.225  23.884  1.00  0.00    -0.023 A 
ATOM     23  C   UNL A   1      29.957  27.137  23.910  1.00  0.00     0.006 A 
ATOM     24  C   UNL A   1      30.325  29.478  23.521  1.00  0.00     0.026 A 
ATOM     25  C   UNL A   1      28.628  27.274  23.501  1.00  0.00     0.002 A 
ATOM     26  C   UNL A   1      28.993  29.617  23.125  1.00  0.00     0.041 A 
ATOM     27  C   UNL A   1      28.148  28.514  23.094  1.00  0.00     0.020 A 
ATOM     28  Cl  UNL A   1      28.397  31.164  22.662  1.00  0.00    -0.084 Cl
ENDBRANCH  16  22
ENDBRANCH   4   6
ENDBRANCH   3   4
ENDBRANCH   2   3
ENDBRANCH   1   2
BRANCH   1  29
ATOM     29  O   UNL A   1      33.240  31.077  26.540  1.00  0.00    -0.458 OA
BRANCH  29  30
ATOM     30  C   UNL A   1      33.712  32.062  27.339  1.00  0.00     0.338 C 
ATOM     31  O   UNL A   1      33.133  33.097  27.642  1.00  0.00    -0.246 OA
BRANCH  30  32
ATOM     32  C   UNL A   1      34.973  31.630  27.961  1.00  0.00     0.060 A 
ATOM     33  C   UNL A   1      35.049  30.338  28.493  1.00  0.00     0.016 A 
ATOM     34  C   UNL A   1      36.062  32.498  28.057  1.00  0.00     0.016 A 
ATOM     35  C   UNL A   1      36.210  29.898  29.113  1.00  0.00     0.010 A 
ATOM     36  C   UNL A   1      37.229  32.058  28.689  1.00  0.00     0.010 A 
ATOM     37  C   UNL A   1      37.305  30.758  29.221  1.00  0.00    -0.014 A 
BRANCH  37  38
ATOM     38  C   UNL A   1      38.508  30.313  29.958  1.00  0.00     0.031 A 
ATOM     39  C   UNL A   1      39.418  29.303  29.327  1.00  0.00     0.074 A 
ATOM     40  C   UNL A   1      38.783  30.834  31.166  1.00  0.00     0.049 A 
ATOM     41  N   UNL A   1      40.455  28.693  29.835  1.00  0.00    -0.248 NA
ATOM     42  C   UNL A   1      39.115  28.933  27.936  1.00  0.00     0.031 C 
ATOM     43  C   UNL A   1      38.002  31.878  31.832  1.00  0.00     0.029 A 
ATOM     44  N   UNL A   1      39.791  30.555  32.051  1.00  0.00    -0.354 N 
ATOM     45  C   UNL A   1      40.924  27.851  28.833  1.00  0.00     0.074 A 
ATOM     46  C   UNL A   1      40.041  28.017  27.696  1.00  0.00     0.031 C 
ATOM     47  C   UNL A   1      38.553  32.140  33.028  1.00  0.00     0.029 A 
ATOM     48  C   UNL A   1      39.691  31.248  33.234  1.00  0.00     0.049 A 
ATOM     49  H   UNL A   1      40.518  29.919  31.858  1.00  0.00     0.167 HD
ATOM     50  C   UNL A   1      41.992  27.017  28.865  1.00  0.00     0.034 A 
ATOM     51  C   UNL A   1      40.410  31.139  34.368  1.00  0.00     0.034 A 
ATOM     52  C   UNL A   1      42.848  26.865  30.017  1.00  0.00     0.049 A 
ATOM     53  C   UNL A   1      41.535  30.137  34.414  1.00  0.00     0.074 A 
ATOM     54  C   UNL A   1      43.949  26.041  30.174  1.00  0.00     0.029 A 
ATOM     55  N   UNL A   1      42.692  27.548  31.217  1.00  0.00    -0.354 N 
ATOM     56  N   UNL A   1      41.950  29.316  33.475  1.00  0.00    -0.248 NA
ATOM     57  C   UNL A   1      42.289  30.046  35.670  1.00  0.00     0.031 C 
ATOM     58  C   UNL A   1      44.419  26.182  31.484  1.00  0.00     0.029 A 
ATOM     59  C   UNL A   1      43.657  27.146  32.127  1.00  0.00     0.049 A 
ATOM     60  H   UNL A   1      41.995  28.222  31.395  1.00  0.00     0.167 HD
ATOM     61  C   UNL A   1      43.029  28.629  34.022  1.00  0.00     0.074 A 
ATOM     62  C   UNL A   1      43.208  29.141  35.366  1.00  0.00     0.031 C 
ATOM     63  C   UNL A   1      43.807  27.664  33.466  1.00  0.00     0.034 A 
BRANCH  50  64
ATOM     64  C   UNL A   1      42.238  26.166  27.644  1.00  0.00     0.023 A 
ATOM     65  C   UNL A   1      41.768  24.844  27.553  1.00  0.00     0.031 A 
ATOM     66  C   UNL A   1      43.001  26.670  26.575  1.00  0.00     0.131 A 
ATOM     67  C   UNL A   1      42.125  24.049  26.453  1.00  0.00     0.055 A 
ATOM     68  C   UNL A   1      43.288  25.898  25.447  1.00  0.00     0.041 A 
ATOM     69  F   UNL A   1      43.497  27.916  26.619  1.00  0.00    -0.206 F 
ATOM     70  C   UNL A   1      42.863  24.574  25.389  1.00  0.00     0.022 A 
BRANCH  67  71
ATOM     71  S   UNL A   1      41.736  22.278  26.498  1.00  0.00     0.124 S 
ATOM     72  O   UNL A   1      42.273  21.890  27.799  1.00  0.00    -0.237 OA
ATOM     73  O   UNL A   1      40.282  22.272  26.378  1.00  0.00    -0.237 OA
ATOM     74  O   UNL A   1      42.458  21.739  25.347  1.00  0.00    -0.744 OA
ENDBRANCH  67  71
ENDBRANCH  50  64
BRANCH  51  75
ATOM     75  C   UNL A   1      40.057  31.950  35.567  1.00  0.00     0.023 A 
ATOM     76  C   UNL A   1      39.071  31.522  36.470  1.00  0.00     0.031 A 
ATOM     77  C   UNL A   1      40.674  33.193  35.803  1.00  0.00     0.131 A 
ATOM     78  C   UNL A   1      38.703  32.347  37.544  1.00  0.00     0.055 A 
ATOM     79  C   UNL A   1      40.338  33.988  36.900  1.00  0.00     0.041 A 
ATOM     80  F   UNL A   1      41.622  33.650  34.970  1.00  0.00    -0.206 F 
ATOM     81  C   UNL A   1      39.337  33.571  37.772  1.00  0.00     0.022 A 
BRANCH  78  82
ATOM     82  S   UNL A   1      37.320  31.832  38.600  1.00  0.00     0.124 S 
ATOM     83  O   UNL A   1      37.909  31.932  39.931  1.00  0.00    -0.237 OA
ATOM     84  O   UNL A   1      36.303  32.824  38.270  1.00  0.00    -0.237 OA
ATOM     85  O   UNL A   1      37.033  30.472  38.145  1.00  0.00    -0.744 OA
ENDBRANCH  78  82
ENDBRANCH  51  75
BRANCH  63  86
ATOM     86  C   UNL A   1      44.947  27.145  34.305  1.00  0.00     0.023 A 
ATOM     87  C   UNL A   1      44.843  25.945  35.032  1.00  0.00     0.031 A 
ATOM     88  C   UNL A   1      46.147  27.871  34.389  1.00  0.00     0.131 A 
ATOM     89  C   UNL A   1      45.903  25.535  35.853  1.00  0.00     0.055 A 
ATOM     90  C   UNL A   1      47.218  27.429  35.165  1.00  0.00     0.041 A 
ATOM     91  F   UNL A   1      46.296  29.024  33.718  1.00  0.00    -0.206 F 
ATOM     92  C   UNL A   1      47.096  26.262  35.913  1.00  0.00     0.022 A 
BRANCH  89  93
ATOM     93  S   UNL A   1      45.674  24.080  36.910  1.00  0.00     0.124 S 
ATOM     94  O   UNL A   1      44.563  23.399  36.253  1.00  0.00    -0.237 OA
ATOM     95  O   UNL A   1      46.971  23.417  36.818  1.00  0.00    -0.237 OA
ATOM     96  O   UNL A   1      45.363  24.651  38.219  1.00  0.00    -0.744 OA
ENDBRANCH  89  93
ENDBRANCH  63  86
ENDBRANCH  37  38
ENDBRANCH  30  32
ENDBRANCH  29  30
ENDBRANCH   1  29
TORSDOF 17
ENDMDL
MODEL 2
REMARK VINA RESULT:     -12.2      5.182      8.289
REMARK SMILES COc1cc2c(cc1OC)[C@H](C(=O)OCCOC(=O)c1ccc(-c3c4nc(c(-c5cc(S(=O)(=O)[O-])ccc5F)c5ccc([nH]5)c(-c5cc(S(=O)(=O)[O-])ccc5F)c5nc(c(-c6cc(S(=O)(=O)[O-])ccc6F)c6ccc3[nH]6)C=C5)C=C4)cc1)[C@H](c1cccc(Cl)c1)N(C)C2=O
REMARK SMILES IDX 16 1 15 2 14 3 12 4 13 5 11 6 3 7 4 8 8 9 5 10 7 11 6 12
REMARK SMILES IDX 93 13 91 14 94 15 83 16 92 17 2 18 1 19 9 20 10 21 84 22
REMARK SMILES IDX 85 23 90 24 86 25 88 26 87 27 89 28 17 29 18 30 19 31 20 32
REMARK SMILES IDX 21 33 82 34 22 35 81 36 23 37 24 38 25 39 75 40 26 41 80 42
REMARK SMILES IDX 74 43 76 44 27 45 79 46 73 47 72 48 28 50 60 51 40 52 59 53
REMARK SMILES IDX 41 54 44 55 58 56 77 57 42 58 43 59 57 61 78 62 45 63 29 64
REMARK SMILES IDX 30 65 38 66 31 67 37 68 39 69 36 70 32 71 33 72 34 73 35 74
REMARK SMILES IDX 61 75 62 76 70 77 63 78 69 79 71 80 68 81 64 82 65 83 66 84
REMARK SMILES IDX 67 85 46 86 47 87 55 88 48 89 54 90 56 91 53 92 49 93 50 94
REMARK SMILES IDX 51 95 52 96
REMARK H PARENT 76 49 44 60
REMARK Flexibility Score: inf
ROOT
ATOM      1  C   UNL A   1      38.259  20.235  25.481  1.00  0.00     0.275 C 
ENDROOT
BRANCH   1   2
ATOM      2  C   UNL A   1      37.336  20.992  24.515  1.00  0.00     0.274 C 
BRANCH   2   3
ATOM      3  O   UNL A   1      36.974  22.280  25.048  1.00  0.00    -0.462 OA
BRANCH   3   4
ATOM      4  C   UNL A   1      36.073  23.005  24.348  1.00  0.00     0.316 C 
ATOM      5  O   UNL A   1      36.159  23.181  23.135  1.00  0.00    -0.251 OA
BRANCH   4   6
ATOM      6  C   UNL A   1      34.900  23.538  25.155  1.00  0.00     0.157 C 
ATOM      7  C   UNL A   1      31.894  26.194  23.466  1.00  0.00     0.161 A 
ATOM      8  C   UNL A   1      31.641  25.438  24.618  1.00  0.00     0.064 A 
ATOM      9  C   UNL A   1      33.176  26.179  22.908  1.00  0.00     0.161 A 
ATOM     10  C   UNL A   1      32.637  24.624  25.175  1.00  0.00     0.048 A 
ATOM     11  C   UNL A   1      34.162  25.371  23.490  1.00  0.00     0.056 A 
ATOM     12  C   UNL A   1      33.890  24.503  24.555  1.00  0.00    -0.015 A 
ATOM     13  C   UNL A   1      32.355  23.922  26.465  1.00  0.00     0.254 C 
ATOM     14  N   UNL A   1      33.210  22.878  26.810  1.00  0.00    -0.333 N 
ATOM     15  O   UNL A   1      31.396  24.266  27.147  1.00  0.00    -0.269 OA
ATOM     16  C   UNL A   1      34.172  22.340  25.833  1.00  0.00     0.134 C 
ATOM     17  C   UNL A   1      33.040  22.200  28.084  1.00  0.00     0.147 C 
BRANCH   7  18
ATOM     18  O   UNL A   1      30.891  26.892  22.846  1.00  0.00    -0.493 OA
ATOM     19  C   UNL A   1      30.629  28.174  23.409  1.00  0.00     0.278 C 
ENDBRANCH   7  18
BRANCH   9  20
ATOM     20  O   UNL A   1      33.659  26.872  21.830  1.00  0.00    -0.493 OA
ATOM     21  C   UNL A   1      34.027  28.229  21.998  1.00  0.00     0.278 C 
ENDBRANCH   9  20
BRANCH  16  22
ATOM     22  C   UNL A   1      33.529  21.341  24.854  1.00  0.00    -0.023 A 
ATOM     23  C   UNL A   1      32.851  21.816  23.716  1.00  0.00     0.006 A 
ATOM     24  C   UNL A   1      33.565  19.948  25.046  1.00  0.00     0.026 A 
ATOM     25  C   UNL A   1      32.160  20.950  22.863  1.00  0.00     0.002 A 
ATOM     26  C   UNL A   1      32.886  19.083  24.186  1.00  0.00     0.041 A 
ATOM     27  C   UNL A   1      32.166  19.581  23.107  1.00  0.00     0.020 A 
ATOM     28  Cl  UNL A   1      32.932  17.386  24.473  1.00  0.00    -0.084 Cl
ENDBRANCH  16  22
ENDBRANCH   4   6
ENDBRANCH   3   4
ENDBRANCH   2   3
ENDBRANCH   1   2
BRANCH   1  29
ATOM     29  O   UNL A   1      39.564  20.841  25.559  1.00  0.00    -0.458 OA
BRANCH  29  30
ATOM     30  C   UNL A   1      40.122  20.891  26.791  1.00  0.00     0.338 C 
ATOM     31  O   UNL A   1      40.406  19.936  27.503  1.00  0.00    -0.246 OA
BRANCH  30  32
ATOM     32  C   UNL A   1      40.521  22.274  27.097  1.00  0.00     0.060 A 
ATOM     33  C   UNL A   1      39.928  23.316  26.376  1.00  0.00     0.016 A 
ATOM     34  C   UNL A   1      41.496  22.545  28.057  1.00  0.00     0.016 A 
ATOM     35  C   UNL A   1      40.295  24.634  26.612  1.00  0.00     0.010 A 
ATOM     36  C   UNL A   1      41.872  23.871  28.290  1.00  0.00     0.010 A 
ATOM     37  C   UNL A   1      41.274  24.919  27.567  1.00  0.00    -0.014 A 
BRANCH  37  38
ATOM     38  C   UNL A   1      41.720  26.317  27.752  1.00  0.00     0.031 A 
ATOM     39  C   UNL A   1      43.065  26.728  27.233  1.00  0.00     0.074 A 
ATOM     40  C   UNL A   1      40.910  27.203  28.356  1.00  0.00     0.049 A 
ATOM     41  N   UNL A   1      43.699  27.860  27.385  1.00  0.00    -0.248 NA
ATOM     42  C   UNL A   1      43.790  25.726  26.439  1.00  0.00     0.031 C 
ATOM     43  C   UNL A   1      39.552  26.921  28.827  1.00  0.00     0.029 A 
ATOM     44  N   UNL A   1      41.110  28.518  28.683  1.00  0.00    -0.354 N 
ATOM     45  C   UNL A   1      44.908  27.705  26.718  1.00  0.00     0.074 A 
ATOM     46  C   UNL A   1      44.924  26.359  26.181  1.00  0.00     0.031 C 
ATOM     47  C   UNL A   1      39.049  28.028  29.395  1.00  0.00     0.029 A 
ATOM     48  C   UNL A   1      40.063  29.078  29.376  1.00  0.00     0.049 A 
ATOM     49  H   UNL A   1      41.926  29.016  28.443  1.00  0.00     0.167 HD
ATOM     50  C   UNL A   1      45.911  28.606  26.573  1.00  0.00     0.034 A 
ATOM     51  C   UNL A   1      39.958  30.285  29.965  1.00  0.00     0.034 A 
ATOM     52  C   UNL A   1      45.872  29.936  27.129  1.00  0.00     0.049 A 
ATOM     53  C   UNL A   1      41.122  31.237  29.872  1.00  0.00     0.074 A 
ATOM     54  C   UNL A   1      46.832  30.931  27.062  1.00  0.00     0.029 A 
ATOM     55  N   UNL A   1      44.815  30.457  27.866  1.00  0.00    -0.354 N 
ATOM     56  N   UNL A   1      42.281  31.070  29.272  1.00  0.00    -0.248 NA
ATOM     57  C   UNL A   1      40.969  32.538  30.534  1.00  0.00     0.031 C 
ATOM     58  C   UNL A   1      46.381  32.027  27.807  1.00  0.00     0.029 A 
ATOM     59  C   UNL A   1      45.109  31.746  28.282  1.00  0.00     0.049 A 
ATOM     60  H   UNL A   1      43.977  29.978  28.065  1.00  0.00     0.167 HD
ATOM     61  C   UNL A   1      42.982  32.255  29.465  1.00  0.00     0.074 A 
ATOM     62  C   UNL A   1      42.112  33.132  30.225  1.00  0.00     0.031 C 
ATOM     63  C   UNL A   1      44.230  32.595  29.050  1.00  0.00     0.034 A 
BRANCH  50  64
ATOM     64  C   UNL A   1      47.149  28.145  25.845  1.00  0.00     0.023 A 
ATOM     65  C   UNL A   1      47.292  28.294  24.454  1.00  0.00     0.031 A 
ATOM     66  C   UNL A   1      48.182  27.499  26.547  1.00  0.00     0.131 A 
ATOM     67  C   UNL A   1      48.405  27.742  23.802  1.00  0.00     0.055 A 
ATOM     68  C   UNL A   1      49.324  27.019  25.903  1.00  0.00     0.041 A 
ATOM     69  F   UNL A   1      48.089  27.305  27.872  1.00  0.00    -0.206 F 
ATOM     70  C   UNL A   1      49.432  27.124  24.519  1.00  0.00     0.022 A 
BRANCH  67  71
ATOM     71  S   UNL A   1      48.422  27.711  21.988  1.00  0.00     0.124 S 
ATOM     72  O   UNL A   1      48.654  26.294  21.719  1.00  0.00    -0.237 OA
ATOM     73  O   UNL A   1      47.097  28.218  21.652  1.00  0.00    -0.237 OA
ATOM     74  O   UNL A   1      49.534  28.594  21.641  1.00  0.00    -0.744 OA
ENDBRANCH  67  71
ENDBRANCH  50  64
BRANCH  51  75
ATOM     75  C   UNL A   1      38.738  30.642  30.744  1.00  0.00     0.023 A 
ATOM     76  C   UNL A   1      37.658  31.304  30.141  1.00  0.00     0.031 A 
ATOM     77  C   UNL A   1      38.656  30.362  32.120  1.00  0.00     0.131 A 
ATOM     78  C   UNL A   1      36.559  31.700  30.919  1.00  0.00     0.055 A 
ATOM     79  C   UNL A   1      37.540  30.715  32.880  1.00  0.00     0.041 A 
ATOM     80  F   UNL A   1      39.661  29.731  32.747  1.00  0.00    -0.206 F 
ATOM     81  C   UNL A   1      36.487  31.400  32.282  1.00  0.00     0.022 A 
BRANCH  78  82
ATOM     82  S   UNL A   1      35.253  32.688  30.138  1.00  0.00     0.124 S 
ATOM     83  O   UNL A   1      34.313  32.862  31.239  1.00  0.00    -0.237 OA
ATOM     84  O   UNL A   1      35.985  33.880  29.722  1.00  0.00    -0.237 OA
ATOM     85  O   UNL A   1      34.786  31.834  29.047  1.00  0.00    -0.744 OA
ENDBRANCH  78  82
ENDBRANCH  51  75
BRANCH  63  86
ATOM     86  C   UNL A   1      44.696  33.992  29.375  1.00  0.00     0.023 A 
ATOM     87  C   UNL A   1      44.374  35.088  28.555  1.00  0.00     0.031 A 
ATOM     88  C   UNL A   1      45.486  34.224  30.514  1.00  0.00     0.131 A 
ATOM     89  C   UNL A   1      44.886  36.358  28.858  1.00  0.00     0.055 A 
ATOM     90  C   UNL A   1      45.946  35.499  30.840  1.00  0.00     0.041 A 
ATOM     91  F   UNL A   1      45.824  33.211  31.328  1.00  0.00    -0.206 F 
ATOM     92  C   UNL A   1      45.657  36.573  30.003  1.00  0.00     0.022 A 
BRANCH  89  93
ATOM     93  S   UNL A   1      44.599  37.715  27.689  1.00  0.00     0.124 S 
ATOM     94  O   UNL A   1      44.266  38.820  28.582  1.00  0.00    -0.237 OA
ATOM     95  O   UNL A   1      45.884  37.815  27.004  1.00  0.00    -0.237 OA
ATOM     96  O   UNL A   1      43.494  37.230  26.864  1.00  0.00    -0.744 OA
ENDBRANCH  89  93
ENDBRANCH  63  86
ENDBRANCH  37  38
ENDBRANCH  30  32
ENDBRANCH  29  30
ENDBRANCH   1  29
TORSDOF 17
ENDMDL
MODEL 3
REMARK VINA RESULT:     -11.9      1.006      7.370
REMARK SMILES COc1cc2c(cc1OC)[C@H](C(=O)OCCOC(=O)c1ccc(-c3c4nc(c(-c5cc(S(=O)(=O)[O-])ccc5F)c5ccc([nH]5)c(-c5cc(S(=O)(=O)[O-])ccc5F)c5nc(c(-c6cc(S(=O)(=O)[O-])ccc6F)c6ccc3[nH]6)C=C5)C=C4)cc1)[C@H](c1cccc(Cl)c1)N(C)C2=O
REMARK SMILES IDX 16 1 15 2 14 3 12 4 13 5 11 6 3 7 4 8 8 9 5 10 7 11 6 12
REMARK SMILES IDX 93 13 91 14 94 15 83 16 92 17 2 18 1 19 9 20 10 21 84 22
REMARK SMILES IDX 85 23 90 24 86 25 88 26 87 27 89 28 17 29 18 30 19 31 20 32
REMARK SMILES IDX 21 33 82 34 22 35 81 36 23 37 24 38 25 39 75 40 26 41 80 42
REMARK SMILES IDX 74 43 76 44 27 45 79 46 73 47 72 48 28 50 60 51 40 52 59 53
REMARK SMILES IDX 41 54 44 55 58 56 77 57 42 58 43 59 57 61 78 62 45 63 29 64
REMARK SMILES IDX 30 65 38 66 31 67 37 68 39 69 36 70 32 71 33 72 34 73 35 74
REMARK SMILES IDX 61 75 62 76 70 77 63 78 69 79 71 80 68 81 64 82 65 83 66 84
REMARK SMILES IDX 67 85 46 86 47 87 55 88 48 89 54 90 56 91 53 92 49 93 50 94
REMARK SMILES IDX 51 95 52 96
REMARK H PARENT 76 49 44 60
REMARK Flexibility Score: inf
ROOT
ATOM      1  C   UNL A   1      32.090  30.885  27.007  1.00  0.00     0.275 C 
ENDROOT
BRANCH   1   2
ATOM      2  C   UNL A   1      31.658  29.426  27.217  1.00  0.00     0.274 C 
BRANCH   2   3
ATOM      3  O   UNL A   1      32.743  28.521  26.934  1.00  0.00    -0.462 OA
BRANCH   3   4
ATOM      4  C   UNL A   1      32.418  27.239  26.657  1.00  0.00     0.316 C 
ATOM      5  O   UNL A   1      31.669  26.574  27.368  1.00  0.00    -0.251 OA
BRANCH   4   6
ATOM      6  C   UNL A   1      32.992  26.689  25.360  1.00  0.00     0.157 C 
ATOM      7  C   UNL A   1      32.557  22.524  24.173  1.00  0.00     0.161 A 
ATOM      8  C   UNL A   1      32.842  23.528  23.238  1.00  0.00     0.064 A 
ATOM      9  C   UNL A   1      32.519  22.850  25.533  1.00  0.00     0.161 A 
ATOM     10  C   UNL A   1      33.025  24.857  23.646  1.00  0.00     0.048 A 
ATOM     11  C   UNL A   1      32.721  24.181  25.920  1.00  0.00     0.056 A 
ATOM     12  C   UNL A   1      32.867  25.219  24.992  1.00  0.00    -0.015 A 
ATOM     13  C   UNL A   1      33.435  25.872  22.626  1.00  0.00     0.254 C 
ATOM     14  N   UNL A   1      33.280  27.210  22.978  1.00  0.00    -0.333 N 
ATOM     15  O   UNL A   1      33.863  25.502  21.538  1.00  0.00    -0.269 OA
ATOM     16  C   UNL A   1      32.519  27.588  24.180  1.00  0.00     0.134 C 
ATOM     17  C   UNL A   1      33.726  28.250  22.067  1.00  0.00     0.147 C 
BRANCH   7  18
ATOM     18  O   UNL A   1      32.253  21.251  23.770  1.00  0.00    -0.493 OA
ATOM     19  C   UNL A   1      33.157  20.253  24.234  1.00  0.00     0.278 C 
ENDBRANCH   7  18
BRANCH   9  20
ATOM     20  O   UNL A   1      32.315  22.033  26.613  1.00  0.00    -0.493 OA
ATOM     21  C   UNL A   1      33.247  22.064  27.679  1.00  0.00     0.278 C 
ENDBRANCH   9  20
BRANCH  16  22
ATOM     22  C   UNL A   1      30.997  27.591  23.945  1.00  0.00    -0.023 A 
ATOM     23  C   UNL A   1      30.226  26.485  24.350  1.00  0.00     0.006 A 
ATOM     24  C   UNL A   1      30.321  28.650  23.314  1.00  0.00     0.026 A 
ATOM     25  C   UNL A   1      28.862  26.400  24.055  1.00  0.00     0.002 A 
ATOM     26  C   UNL A   1      28.956  28.570  23.032  1.00  0.00     0.041 A 
ATOM     27  C   UNL A   1      28.229  27.439  23.382  1.00  0.00     0.020 A 
ATOM     28  Cl  UNL A   1      28.171  29.878  22.234  1.00  0.00    -0.084 Cl
ENDBRANCH  16  22
ENDBRANCH   4   6
ENDBRANCH   3   4
ENDBRANCH   2   3
ENDBRANCH   1   2
BRANCH   1  29
ATOM     29  O   UNL A   1      33.514  31.000  26.814  1.00  0.00    -0.458 OA
BRANCH  29  30
ATOM     30  C   UNL A   1      34.141  31.929  27.572  1.00  0.00     0.338 C 
ATOM     31  O   UNL A   1      33.698  33.020  27.905  1.00  0.00    -0.246 OA
BRANCH  30  32
ATOM     32  C   UNL A   1      35.388  31.365  28.112  1.00  0.00     0.060 A 
ATOM     33  C   UNL A   1      35.400  30.022  28.507  1.00  0.00     0.016 A 
ATOM     34  C   UNL A   1      36.528  32.155  28.266  1.00  0.00     0.016 A 
ATOM     35  C   UNL A   1      36.546  29.456  29.047  1.00  0.00     0.010 A 
ATOM     36  C   UNL A   1      37.680  31.588  28.818  1.00  0.00     0.010 A 
ATOM     37  C   UNL A   1      37.692  30.238  29.211  1.00  0.00    -0.014 A 
BRANCH  37  38
ATOM     38  C   UNL A   1      38.882  29.652  29.866  1.00  0.00     0.031 A 
ATOM     39  C   UNL A   1      39.289  30.149  31.220  1.00  0.00     0.074 A 
ATOM     40  C   UNL A   1      39.565  28.667  29.255  1.00  0.00     0.049 A 
ATOM     41  N   UNL A   1      40.353  29.862  31.921  1.00  0.00    -0.248 NA
ATOM     42  C   UNL A   1      38.373  31.101  31.866  1.00  0.00     0.031 C 
ATOM     43  C   UNL A   1      39.203  28.061  27.973  1.00  0.00     0.029 A 
ATOM     44  N   UNL A   1      40.706  28.008  29.628  1.00  0.00    -0.354 N 
ATOM     45  C   UNL A   1      40.246  30.608  33.089  1.00  0.00     0.074 A 
ATOM     46  C   UNL A   1      39.022  31.377  32.987  1.00  0.00     0.031 C 
ATOM     47  C   UNL A   1      40.117  27.127  27.659  1.00  0.00     0.029 A 
ATOM     48  C   UNL A   1      41.151  27.108  28.690  1.00  0.00     0.049 A 
ATOM     49  H   UNL A   1      41.164  28.164  30.486  1.00  0.00     0.167 HD
ATOM     50  C   UNL A   1      41.095  30.645  34.145  1.00  0.00     0.034 A 
ATOM     51  C   UNL A   1      42.288  26.385  28.649  1.00  0.00     0.034 A 
ATOM     52  C   UNL A   1      42.313  29.876  34.213  1.00  0.00     0.049 A 
ATOM     53  C   UNL A   1      43.264  26.513  29.791  1.00  0.00     0.074 A 
ATOM     54  C   UNL A   1      43.260  29.842  35.223  1.00  0.00     0.029 A 
ATOM     55  N   UNL A   1      42.759  29.006  33.225  1.00  0.00    -0.354 N 
ATOM     56  N   UNL A   1      43.175  27.251  30.875  1.00  0.00    -0.248 NA
ATOM     57  C   UNL A   1      44.492  25.714  29.704  1.00  0.00     0.031 C 
ATOM     58  C   UNL A   1      44.304  29.002  34.818  1.00  0.00     0.029 A 
ATOM     59  C   UNL A   1      43.978  28.454  33.586  1.00  0.00     0.049 A 
ATOM     60  H   UNL A   1      42.278  28.812  32.387  1.00  0.00     0.167 HD
ATOM     61  C   UNL A   1      44.326  26.984  31.610  1.00  0.00     0.074 A 
ATOM     62  C   UNL A   1      45.085  26.009  30.852  1.00  0.00     0.031 C 
ATOM     63  C   UNL A   1      44.721  27.493  32.806  1.00  0.00     0.034 A 
BRANCH  50  64
ATOM     64  C   UNL A   1      40.760  31.600  35.264  1.00  0.00     0.023 A 
ATOM     65  C   UNL A   1      39.704  31.354  36.159  1.00  0.00     0.031 A 
ATOM     66  C   UNL A   1      41.476  32.802  35.404  1.00  0.00     0.131 A 
ATOM     67  C   UNL A   1      39.350  32.327  37.107  1.00  0.00     0.055 A 
ATOM     68  C   UNL A   1      41.168  33.732  36.398  1.00  0.00     0.041 A 
ATOM     69  F   UNL A   1      42.477  33.102  34.561  1.00  0.00    -0.206 F 
ATOM     70  C   UNL A   1      40.089  33.504  37.247  1.00  0.00     0.022 A 
BRANCH  67  71
ATOM     71  S   UNL A   1      37.822  32.098  38.057  1.00  0.00     0.124 S 
ATOM     72  O   UNL A   1      38.284  32.332  39.422  1.00  0.00    -0.237 OA
ATOM     73  O   UNL A   1      36.946  33.120  37.495  1.00  0.00    -0.237 OA
ATOM     74  O   UNL A   1      37.439  30.719  37.763  1.00  0.00    -0.744 OA
ENDBRANCH  67  71
ENDBRANCH  50  64
BRANCH  51  75
ATOM     75  C   UNL A   1      42.596  25.527  27.471  1.00  0.00     0.023 A 
ATOM     76  C   UNL A   1      42.134  24.204  27.393  1.00  0.00     0.031 A 
ATOM     77  C   UNL A   1      43.400  26.008  26.421  1.00  0.00     0.131 A 
ATOM     78  C   UNL A   1      42.511  23.395  26.310  1.00  0.00     0.055 A 
ATOM     79  C   UNL A   1      43.732  25.215  25.322  1.00  0.00     0.041 A 
ATOM     80  F   UNL A   1      43.868  27.266  26.446  1.00  0.00    -0.206 F 
ATOM     81  C   UNL A   1      43.296  23.895  25.268  1.00  0.00     0.022 A 
BRANCH  78  82
ATOM     82  S   UNL A   1      42.023  21.648  26.320  1.00  0.00     0.124 S 
ATOM     83  O   UNL A   1      42.286  21.273  27.705  1.00  0.00    -0.237 OA
ATOM     84  O   UNL A   1      40.620  21.724  25.930  1.00  0.00    -0.237 OA
ATOM     85  O   UNL A   1      42.912  21.041  25.330  1.00  0.00    -0.744 OA
ENDBRANCH  78  82
ENDBRANCH  51  75
BRANCH  63  86
ATOM     86  C   UNL A   1      46.011  26.959  33.377  1.00  0.00     0.023 A 
ATOM     87  C   UNL A   1      46.043  25.803  34.176  1.00  0.00     0.031 A 
ATOM     88  C   UNL A   1      47.221  27.629  33.128  1.00  0.00     0.131 A 
ATOM     89  C   UNL A   1      47.255  25.382  34.743  1.00  0.00     0.055 A 
ATOM     90  C   UNL A   1      48.432  27.174  33.649  1.00  0.00     0.041 A 
ATOM     91  F   UNL A   1      47.245  28.739  32.373  1.00  0.00    -0.206 F 
ATOM     92  C   UNL A   1      48.452  26.051  34.472  1.00  0.00     0.022 A 
BRANCH  89  93
ATOM     93  S   UNL A   1      47.236  23.993  35.908  1.00  0.00     0.124 S 
ATOM     94  O   UNL A   1      48.042  24.509  37.009  1.00  0.00    -0.237 OA
ATOM     95  O   UNL A   1      45.811  23.833  36.182  1.00  0.00    -0.237 OA
ATOM     96  O   UNL A   1      47.846  22.901  35.152  1.00  0.00    -0.744 OA
ENDBRANCH  89  93
ENDBRANCH  63  86
ENDBRANCH  37  38
ENDBRANCH  30  32
ENDBRANCH  29  30
ENDBRANCH   1  29
TORSDOF 17
ENDMDL
