MODEL 1
REMARK VINA RESULT:     -12.4      0.000      0.000
REMARK SMILES COc1ccc2c(CC(=O)OCCOC(=O)c3ccc(-c4c5nc(c(-c6cc(S(=O)(=O)[O-])ccc6F)c6ccc([nH]6)c(-c6cc(S(=O)(=O)[O-])ccc6F)c6nc(c(-c7cc(S(=O)(=O)[O-])ccc7F)c7ccc4[nH]7)C=C6)C=C5)cc3)c(C(=O)c3cc(C)ccn3)[nH]c2c1
REMARK SMILES IDX 12 1 11 2 9 3 10 4 8 5 7 6 3 7 4 8 92 9 5 10 91 11 6 12
REMARK SMILES IDX 90 13 80 14 2 16 1 17 81 18 82 19 83 20 84 21 89 22 85 23
REMARK SMILES IDX 88 24 86 25 87 26 13 27 14 28 15 29 16 30 17 31 18 32 79 33
REMARK SMILES IDX 19 34 78 35 20 36 21 37 22 38 72 39 23 40 77 41 71 42 73 43
REMARK SMILES IDX 24 44 76 45 70 46 69 47 25 49 57 50 37 51 56 52 38 53 41 54
REMARK SMILES IDX 55 55 74 56 39 57 40 58 54 60 75 61 42 62 26 63 27 64 35 65
REMARK SMILES IDX 28 66 34 67 36 68 33 69 29 70 30 71 31 72 32 73 58 74 59 75
REMARK SMILES IDX 67 76 60 77 66 78 68 79 65 80 61 81 62 82 63 83 64 84 43 85
REMARK SMILES IDX 44 86 52 87 45 88 51 89 53 90 50 91 46 92 47 93 48 94 49 95
REMARK H PARENT 90 15 73 48 41 59
REMARK Flexibility Score: inf
ROOT
ATOM      1  C   UNL A   1      31.992  28.366  26.966  1.00  0.00     0.274 C 
ENDROOT
BRANCH   1   2
ATOM      2  O   UNL A   1      30.807  27.677  26.521  1.00  0.00    -0.462 OA
BRANCH   2   3
ATOM      3  C   UNL A   1      30.992  26.385  26.135  1.00  0.00     0.310 C 
ATOM      4  O   UNL A   1      31.445  25.507  26.867  1.00  0.00    -0.252 OA
BRANCH   3   5
ATOM      5  C   UNL A   1      30.551  26.075  24.722  1.00  0.00     0.161 C 
BRANCH   5   6
ATOM      6  C   UNL A   1      30.806  27.128  23.686  1.00  0.00     0.000 A 
ATOM      7  C   UNL A   1      28.416  30.151  22.060  1.00  0.00     0.120 A 
ATOM      8  C   UNL A   1      27.729  29.198  22.806  1.00  0.00     0.047 A 
ATOM      9  C   UNL A   1      29.766  29.992  21.737  1.00  0.00     0.073 A 
ATOM     10  C   UNL A   1      28.407  28.100  23.341  1.00  0.00     0.014 A 
ATOM     11  C   UNL A   1      30.435  28.907  22.315  1.00  0.00     0.050 A 
ATOM     12  C   UNL A   1      29.797  27.983  23.137  1.00  0.00     0.004 A 
ATOM     13  N   UNL A   1      31.760  28.544  22.258  1.00  0.00    -0.351 N 
ATOM     14  C   UNL A   1      32.037  27.600  23.223  1.00  0.00     0.093 A 
ATOM     15  H   UNL A   1      32.417  28.906  21.620  1.00  0.00     0.167 HD
BRANCH   7  16
ATOM     16  O   UNL A   1      27.791  31.285  21.604  1.00  0.00    -0.497 OA
ATOM     17  C   UNL A   1      28.425  32.454  22.130  1.00  0.00     0.278 C 
ENDBRANCH   7  16
BRANCH  14  18
ATOM     18  C   UNL A   1      33.376  27.283  23.702  1.00  0.00     0.227 C 
ATOM     19  O   UNL A   1      34.193  28.144  24.018  1.00  0.00    -0.285 OA
BRANCH  18  20
ATOM     20  C   UNL A   1      33.829  25.871  23.710  1.00  0.00     0.113 A 
ATOM     21  C   UNL A   1      34.381  25.336  24.868  1.00  0.00     0.036 A 
ATOM     22  N   UNL A   1      33.640  25.175  22.564  1.00  0.00    -0.253 NA
ATOM     23  C   UNL A   1      34.751  23.990  24.859  1.00  0.00    -0.047 A 
ATOM     24  C   UNL A   1      33.924  23.859  22.612  1.00  0.00     0.112 A 
ATOM     25  C   UNL A   1      35.381  23.347  26.060  1.00  0.00     0.044 C 
ATOM     26  C   UNL A   1      34.482  23.231  23.716  1.00  0.00     0.023 A 
ENDBRANCH  18  20
ENDBRANCH  14  18
ENDBRANCH   5   6
ENDBRANCH   3   5
ENDBRANCH   2   3
ENDBRANCH   1   2
BRANCH   1  27
ATOM     27  C   UNL A   1      31.967  29.820  26.503  1.00  0.00     0.275 C 
BRANCH  27  28
ATOM     28  O   UNL A   1      33.312  30.312  26.401  1.00  0.00    -0.458 OA
BRANCH  28  29
ATOM     29  C   UNL A   1      33.623  31.320  27.251  1.00  0.00     0.338 C 
ATOM     30  O   UNL A   1      32.983  32.350  27.419  1.00  0.00    -0.246 OA
BRANCH  29  31
ATOM     31  C   UNL A   1      34.920  31.056  27.903  1.00  0.00     0.060 A 
ATOM     32  C   UNL A   1      35.911  32.037  27.993  1.00  0.00     0.016 A 
ATOM     33  C   UNL A   1      35.169  29.769  28.379  1.00  0.00     0.016 A 
ATOM     34  C   UNL A   1      37.171  31.709  28.494  1.00  0.00     0.010 A 
ATOM     35  C   UNL A   1      36.394  29.473  28.977  1.00  0.00     0.010 A 
ATOM     36  C   UNL A   1      37.417  30.436  29.029  1.00  0.00    -0.014 A 
BRANCH  36  37
ATOM     37  C   UNL A   1      38.713  30.108  29.683  1.00  0.00     0.031 A 
ATOM     38  C   UNL A   1      39.653  29.109  29.063  1.00  0.00     0.074 A 
ATOM     39  C   UNL A   1      39.017  30.666  30.872  1.00  0.00     0.049 A 
ATOM     40  N   UNL A   1      40.703  28.524  29.583  1.00  0.00    -0.248 NA
ATOM     41  C   UNL A   1      39.362  28.700  27.680  1.00  0.00     0.031 C 
ATOM     42  C   UNL A   1      38.208  31.669  31.568  1.00  0.00     0.029 A 
ATOM     43  N   UNL A   1      40.080  30.458  31.717  1.00  0.00    -0.354 N 
ATOM     44  C   UNL A   1      41.175  27.647  28.611  1.00  0.00     0.074 A 
ATOM     45  C   UNL A   1      40.284  27.770  27.474  1.00  0.00     0.031 C 
ATOM     46  C   UNL A   1      38.808  32.001  32.719  1.00  0.00     0.029 A 
ATOM     47  C   UNL A   1      39.992  31.169  32.891  1.00  0.00     0.049 A 
ATOM     48  H   UNL A   1      40.831  29.860  31.502  1.00  0.00     0.167 HD
ATOM     49  C   UNL A   1      42.250  26.820  28.668  1.00  0.00     0.034 A 
ATOM     50  C   UNL A   1      40.740  31.119  34.009  1.00  0.00     0.034 A 
ATOM     51  C   UNL A   1      43.139  26.733  29.804  1.00  0.00     0.049 A 
ATOM     52  C   UNL A   1      41.885  30.149  34.075  1.00  0.00     0.074 A 
ATOM     53  C   UNL A   1      44.278  25.958  29.952  1.00  0.00     0.029 A 
ATOM     54  N   UNL A   1      42.991  27.443  30.989  1.00  0.00    -0.354 N 
ATOM     55  N   UNL A   1      42.296  29.294  33.168  1.00  0.00    -0.248 NA
ATOM     56  C   UNL A   1      42.657  30.125  35.323  1.00  0.00     0.031 C 
ATOM     57  C   UNL A   1      44.781  26.153  31.245  1.00  0.00     0.029 A 
ATOM     58  C   UNL A   1      43.996  27.099  31.884  1.00  0.00     0.049 A 
ATOM     59  H   UNL A   1      42.276  28.095  31.170  1.00  0.00     0.167 HD
ATOM     60  C   UNL A   1      43.382  28.636  33.733  1.00  0.00     0.074 A 
ATOM     61  C   UNL A   1      43.574  29.206  35.052  1.00  0.00     0.031 C 
ATOM     62  C   UNL A   1      44.154  27.652  33.208  1.00  0.00     0.034 A 
BRANCH  49  63
ATOM     63  C   UNL A   1      42.487  25.902  27.491  1.00  0.00     0.023 A 
ATOM     64  C   UNL A   1      41.964  24.598  27.439  1.00  0.00     0.031 A 
ATOM     65  C   UNL A   1      43.267  26.340  26.405  1.00  0.00     0.131 A 
ATOM     66  C   UNL A   1      42.279  23.758  26.358  1.00  0.00     0.055 A 
ATOM     67  C   UNL A   1      43.514  25.526  25.298  1.00  0.00     0.041 A 
ATOM     68  F   UNL A   1      43.811  27.567  26.405  1.00  0.00    -0.206 F 
ATOM     69  C   UNL A   1      43.029  24.223  25.276  1.00  0.00     0.022 A 
BRANCH  66  70
ATOM     70  S   UNL A   1      41.796  22.010  26.439  1.00  0.00     0.124 S 
ATOM     71  O   UNL A   1      40.365  22.079  26.150  1.00  0.00    -0.237 OA
ATOM     72  O   UNL A   1      42.628  21.403  25.408  1.00  0.00    -0.237 OA
ATOM     73  O   UNL A   1      42.125  21.627  27.812  1.00  0.00    -0.744 OA
ENDBRANCH  66  70
ENDBRANCH  49  63
BRANCH  50  74
ATOM     74  C   UNL A   1      40.377  31.958  35.185  1.00  0.00     0.023 A 
ATOM     75  C   UNL A   1      39.358  31.569  36.065  1.00  0.00     0.031 A 
ATOM     76  C   UNL A   1      41.043  33.173  35.435  1.00  0.00     0.131 A 
ATOM     77  C   UNL A   1      39.016  32.399  37.144  1.00  0.00     0.055 A 
ATOM     78  C   UNL A   1      40.732  33.970  36.537  1.00  0.00     0.041 A 
ATOM     79  F   UNL A   1      42.027  33.588  34.622  1.00  0.00    -0.206 F 
ATOM     80  C   UNL A   1      39.705  33.588  37.394  1.00  0.00     0.022 A 
BRANCH  77  81
ATOM     81  S   UNL A   1      37.608  31.932  38.186  1.00  0.00     0.124 S 
ATOM     82  O   UNL A   1      36.605  32.917  37.794  1.00  0.00    -0.237 OA
ATOM     83  O   UNL A   1      37.356  30.559  37.761  1.00  0.00    -0.237 OA
ATOM     84  O   UNL A   1      38.127  32.076  39.545  1.00  0.00    -0.744 OA
ENDBRANCH  77  81
ENDBRANCH  50  74
BRANCH  62  85
ATOM     85  C   UNL A   1      45.292  27.161  34.065  1.00  0.00     0.023 A 
ATOM     86  C   UNL A   1      45.128  26.085  34.957  1.00  0.00     0.031 A 
ATOM     87  C   UNL A   1      46.541  27.802  34.018  1.00  0.00     0.131 A 
ATOM     88  C   UNL A   1      46.184  25.715  35.803  1.00  0.00     0.055 A 
ATOM     89  C   UNL A   1      47.603  27.398  34.827  1.00  0.00     0.041 A 
ATOM     90  F   UNL A   1      46.747  28.837  33.188  1.00  0.00    -0.206 F 
ATOM     91  C   UNL A   1      47.424  26.356  35.735  1.00  0.00     0.022 A 
BRANCH  88  92
ATOM     92  S   UNL A   1      45.893  24.433  37.053  1.00  0.00     0.124 S 
ATOM     93  O   UNL A   1      47.162  24.416  37.772  1.00  0.00    -0.237 OA
ATOM     94  O   UNL A   1      44.749  24.964  37.788  1.00  0.00    -0.237 OA
ATOM     95  O   UNL A   1      45.615  23.237  36.259  1.00  0.00    -0.744 OA
ENDBRANCH  88  92
ENDBRANCH  62  85
ENDBRANCH  36  37
ENDBRANCH  29  31
ENDBRANCH  28  29
ENDBRANCH  27  28
ENDBRANCH   1  27
TORSDOF 18
ENDMDL
MODEL 2
REMARK VINA RESULT:     -12.2      1.595      3.858
REMARK SMILES COc1ccc2c(CC(=O)OCCOC(=O)c3ccc(-c4c5nc(c(-c6cc(S(=O)(=O)[O-])ccc6F)c6ccc([nH]6)c(-c6cc(S(=O)(=O)[O-])ccc6F)c6nc(c(-c7cc(S(=O)(=O)[O-])ccc7F)c7ccc4[nH]7)C=C6)C=C5)cc3)c(C(=O)c3cc(C)ccn3)[nH]c2c1
REMARK SMILES IDX 12 1 11 2 9 3 10 4 8 5 7 6 3 7 4 8 92 9 5 10 91 11 6 12
REMARK SMILES IDX 90 13 80 14 2 16 1 17 81 18 82 19 83 20 84 21 89 22 85 23
REMARK SMILES IDX 88 24 86 25 87 26 13 27 14 28 15 29 16 30 17 31 18 32 79 33
REMARK SMILES IDX 19 34 78 35 20 36 21 37 22 38 72 39 23 40 77 41 71 42 73 43
REMARK SMILES IDX 24 44 76 45 70 46 69 47 25 49 57 50 37 51 56 52 38 53 41 54
REMARK SMILES IDX 55 55 74 56 39 57 40 58 54 60 75 61 42 62 26 63 27 64 35 65
REMARK SMILES IDX 28 66 34 67 36 68 33 69 29 70 30 71 31 72 32 73 58 74 59 75
REMARK SMILES IDX 67 76 60 77 66 78 68 79 65 80 61 81 62 82 63 83 64 84 43 85
REMARK SMILES IDX 44 86 52 87 45 88 51 89 53 90 50 91 46 92 47 93 48 94 49 95
REMARK H PARENT 90 15 73 48 41 59
REMARK Flexibility Score: inf
ROOT
ATOM      1  C   UNL A   1      31.785  28.066  26.290  1.00  0.00     0.274 C 
ENDROOT
BRANCH   1   2
ATOM      2  O   UNL A   1      32.914  27.386  25.709  1.00  0.00    -0.462 OA
BRANCH   2   3
ATOM      3  C   UNL A   1      32.939  26.036  25.886  1.00  0.00     0.310 C 
ATOM      4  O   UNL A   1      32.140  25.421  26.590  1.00  0.00    -0.252 OA
BRANCH   3   5
ATOM      5  C   UNL A   1      34.012  25.312  25.104  1.00  0.00     0.161 C 
BRANCH   5   6
ATOM      6  C   UNL A   1      33.555  24.250  24.149  1.00  0.00     0.000 A 
ATOM      7  C   UNL A   1      32.571  20.215  24.646  1.00  0.00     0.120 A 
ATOM      8  C   UNL A   1      33.218  20.799  25.733  1.00  0.00     0.047 A 
ATOM      9  C   UNL A   1      32.437  20.887  23.429  1.00  0.00     0.073 A 
ATOM     10  C   UNL A   1      33.659  22.123  25.660  1.00  0.00     0.014 A 
ATOM     11  C   UNL A   1      32.852  22.223  23.390  1.00  0.00     0.050 A 
ATOM     12  C   UNL A   1      33.422  22.865  24.485  1.00  0.00     0.004 A 
ATOM     13  N   UNL A   1      32.767  23.153  22.381  1.00  0.00    -0.351 N 
ATOM     14  C   UNL A   1      33.003  24.417  22.877  1.00  0.00     0.093 A 
ATOM     15  H   UNL A   1      32.567  22.947  21.439  1.00  0.00     0.167 HD
BRANCH   7  16
ATOM     16  O   UNL A   1      32.046  18.950  24.726  1.00  0.00    -0.497 OA
ATOM     17  C   UNL A   1      32.752  18.174  25.699  1.00  0.00     0.278 C 
ENDBRANCH   7  16
BRANCH  14  18
ATOM     18  C   UNL A   1      32.623  25.650  22.199  1.00  0.00     0.227 C 
ATOM     19  O   UNL A   1      33.311  26.170  21.326  1.00  0.00    -0.285 OA
BRANCH  18  20
ATOM     20  C   UNL A   1      31.413  26.380  22.646  1.00  0.00     0.113 A 
ATOM     21  C   UNL A   1      31.227  27.701  22.255  1.00  0.00     0.036 A 
ATOM     22  N   UNL A   1      30.533  25.678  23.398  1.00  0.00    -0.253 NA
ATOM     23  C   UNL A   1      30.053  28.346  22.650  1.00  0.00    -0.047 A 
ATOM     24  C   UNL A   1      29.372  26.296  23.690  1.00  0.00     0.112 A 
ATOM     25  C   UNL A   1      29.795  29.780  22.294  1.00  0.00     0.044 C 
ATOM     26  C   UNL A   1      29.093  27.612  23.352  1.00  0.00     0.023 A 
ENDBRANCH  18  20
ENDBRANCH  14  18
ENDBRANCH   5   6
ENDBRANCH   3   5
ENDBRANCH   2   3
ENDBRANCH   1   2
BRANCH   1  27
ATOM     27  C   UNL A   1      31.699  29.497  25.768  1.00  0.00     0.275 C 
BRANCH  27  28
ATOM     28  O   UNL A   1      33.000  30.104  25.819  1.00  0.00    -0.458 OA
BRANCH  28  29
ATOM     29  C   UNL A   1      33.175  31.013  26.807  1.00  0.00     0.338 C 
ATOM     30  O   UNL A   1      32.423  31.939  27.081  1.00  0.00    -0.246 OA
BRANCH  29  31
ATOM     31  C   UNL A   1      34.470  30.794  27.477  1.00  0.00     0.060 A 
ATOM     32  C   UNL A   1      34.851  29.535  27.949  1.00  0.00     0.016 A 
ATOM     33  C   UNL A   1      35.296  31.898  27.695  1.00  0.00     0.016 A 
ATOM     34  C   UNL A   1      36.022  29.397  28.697  1.00  0.00     0.010 A 
ATOM     35  C   UNL A   1      36.516  31.736  28.351  1.00  0.00     0.010 A 
ATOM     36  C   UNL A   1      36.888  30.486  28.873  1.00  0.00    -0.014 A 
BRANCH  36  37
ATOM     37  C   UNL A   1      38.200  30.328  29.558  1.00  0.00     0.031 A 
ATOM     38  C   UNL A   1      39.271  29.449  28.969  1.00  0.00     0.074 A 
ATOM     39  C   UNL A   1      38.406  30.928  30.747  1.00  0.00     0.049 A 
ATOM     40  N   UNL A   1      40.374  29.004  29.517  1.00  0.00    -0.248 NA
ATOM     41  C   UNL A   1      39.063  28.996  27.585  1.00  0.00     0.031 C 
ATOM     42  C   UNL A   1      37.462  31.828  31.415  1.00  0.00     0.029 A 
ATOM     43  N   UNL A   1      39.467  30.862  31.617  1.00  0.00    -0.354 N 
ATOM     44  C   UNL A   1      40.973  28.185  28.564  1.00  0.00     0.074 A 
ATOM     45  C   UNL A   1      40.099  28.187  27.408  1.00  0.00     0.031 C 
ATOM     46  C   UNL A   1      37.991  32.241  32.575  1.00  0.00     0.029 A 
ATOM     47  C   UNL A   1      39.265  31.565  32.782  1.00  0.00     0.049 A 
ATOM     48  H   UNL A   1      40.292  30.360  31.424  1.00  0.00     0.167 HD
ATOM     49  C   UNL A   1      42.141  27.500  28.653  1.00  0.00     0.034 A 
ATOM     50  C   UNL A   1      39.989  31.617  33.916  1.00  0.00     0.034 A 
ATOM     51  C   UNL A   1      43.009  27.533  29.808  1.00  0.00     0.049 A 
ATOM     52  C   UNL A   1      41.244  30.798  34.016  1.00  0.00     0.074 A 
ATOM     53  C   UNL A   1      44.231  26.907  29.988  1.00  0.00     0.029 A 
ATOM     54  N   UNL A   1      42.747  28.228  30.982  1.00  0.00    -0.354 N 
ATOM     55  N   UNL A   1      41.778  29.995  33.126  1.00  0.00    -0.248 NA
ATOM     56  C   UNL A   1      41.985  30.881  35.280  1.00  0.00     0.031 C 
ATOM     57  C   UNL A   1      44.677  27.173  31.289  1.00  0.00     0.029 A 
ATOM     58  C   UNL A   1      43.767  28.019  31.902  1.00  0.00     0.049 A 
ATOM     59  H   UNL A   1      41.952  28.787  31.141  1.00  0.00     0.167 HD
ATOM     60  C   UNL A   1      42.925  29.482  33.721  1.00  0.00     0.074 A 
ATOM     61  C   UNL A   1      43.015  30.082  35.038  1.00  0.00     0.031 C 
ATOM     62  C   UNL A   1      43.825  28.598  33.223  1.00  0.00     0.034 A 
BRANCH  49  63
ATOM     63  C   UNL A   1      42.517  26.609  27.491  1.00  0.00     0.023 A 
ATOM     64  C   UNL A   1      42.066  25.281  27.387  1.00  0.00     0.031 A 
ATOM     65  C   UNL A   1      43.357  27.099  26.474  1.00  0.00     0.131 A 
ATOM     66  C   UNL A   1      42.508  24.472  26.327  1.00  0.00     0.055 A 
ATOM     67  C   UNL A   1      43.732  26.312  25.383  1.00  0.00     0.041 A 
ATOM     68  F   UNL A   1      43.836  28.352  26.527  1.00  0.00    -0.206 F 
ATOM     69  C   UNL A   1      43.317  24.986  25.312  1.00  0.00     0.022 A 
BRANCH  66  70
ATOM     70  S   UNL A   1      42.110  22.700  26.355  1.00  0.00     0.124 S 
ATOM     71  O   UNL A   1      42.751  22.228  25.129  1.00  0.00    -0.237 OA
ATOM     72  O   UNL A   1      42.717  22.259  27.605  1.00  0.00    -0.237 OA
ATOM     73  O   UNL A   1      40.648  22.677  26.330  1.00  0.00    -0.744 OA
ENDBRANCH  66  70
ENDBRANCH  49  63
BRANCH  50  74
ATOM     74  C   UNL A   1      39.498  32.414  35.074  1.00  0.00     0.023 A 
ATOM     75  C   UNL A   1      38.823  31.802  36.140  1.00  0.00     0.031 A 
ATOM     76  C   UNL A   1      39.690  33.808  35.122  1.00  0.00     0.131 A 
ATOM     77  C   UNL A   1      38.342  32.585  37.201  1.00  0.00     0.055 A 
ATOM     78  C   UNL A   1      39.252  34.574  36.203  1.00  0.00     0.041 A 
ATOM     79  F   UNL A   1      40.331  34.440  34.127  1.00  0.00    -0.206 F 
ATOM     80  C   UNL A   1      38.565  33.964  37.246  1.00  0.00     0.022 A 
BRANCH  77  81
ATOM     81  S   UNL A   1      37.361  31.783  38.497  1.00  0.00     0.124 S 
ATOM     82  O   UNL A   1      36.152  32.599  38.505  1.00  0.00    -0.237 OA
ATOM     83  O   UNL A   1      37.216  30.428  37.975  1.00  0.00    -0.237 OA
ATOM     84  O   UNL A   1      38.204  31.903  39.686  1.00  0.00    -0.744 OA
ENDBRANCH  77  81
ENDBRANCH  50  74
BRANCH  62  85
ATOM     85  C   UNL A   1      44.996  28.259  34.109  1.00  0.00     0.023 A 
ATOM     86  C   UNL A   1      44.956  27.165  34.992  1.00  0.00     0.031 A 
ATOM     87  C   UNL A   1      46.147  29.064  34.099  1.00  0.00     0.131 A 
ATOM     88  C   UNL A   1      46.030  26.935  35.865  1.00  0.00     0.055 A 
ATOM     89  C   UNL A   1      47.232  28.802  34.935  1.00  0.00     0.041 A 
ATOM     90  F   UNL A   1      46.232  30.124  33.278  1.00  0.00    -0.206 F 
ATOM     91  C   UNL A   1      47.172  27.739  35.833  1.00  0.00     0.022 A 
BRANCH  88  92
ATOM     92  S   UNL A   1      45.882  25.617  37.102  1.00  0.00     0.124 S 
ATOM     93  O   UNL A   1      44.457  25.308  37.049  1.00  0.00    -0.237 OA
ATOM     94  O   UNL A   1      46.778  24.591  36.578  1.00  0.00    -0.237 OA
ATOM     95  O   UNL A   1      46.331  26.255  38.339  1.00  0.00    -0.744 OA
ENDBRANCH  88  92
ENDBRANCH  62  85
ENDBRANCH  36  37
ENDBRANCH  29  31
ENDBRANCH  28  29
ENDBRANCH  27  28
ENDBRANCH   1  27
TORSDOF 18
ENDMDL
MODEL 3
REMARK VINA RESULT:     -12.1      5.070      9.615
REMARK SMILES COc1ccc2c(CC(=O)OCCOC(=O)c3ccc(-c4c5nc(c(-c6cc(S(=O)(=O)[O-])ccc6F)c6ccc([nH]6)c(-c6cc(S(=O)(=O)[O-])ccc6F)c6nc(c(-c7cc(S(=O)(=O)[O-])ccc7F)c7ccc4[nH]7)C=C6)C=C5)cc3)c(C(=O)c3cc(C)ccn3)[nH]c2c1
REMARK SMILES IDX 12 1 11 2 9 3 10 4 8 5 7 6 3 7 4 8 92 9 5 10 91 11 6 12
REMARK SMILES IDX 90 13 80 14 2 16 1 17 81 18 82 19 83 20 84 21 89 22 85 23
REMARK SMILES IDX 88 24 86 25 87 26 13 27 14 28 15 29 16 30 17 31 18 32 79 33
REMARK SMILES IDX 19 34 78 35 20 36 21 37 22 38 72 39 23 40 77 41 71 42 73 43
REMARK SMILES IDX 24 44 76 45 70 46 69 47 25 49 57 50 37 51 56 52 38 53 41 54
REMARK SMILES IDX 55 55 74 56 39 57 40 58 54 60 75 61 42 62 26 63 27 64 35 65
REMARK SMILES IDX 28 66 34 67 36 68 33 69 29 70 30 71 31 72 32 73 58 74 59 75
REMARK SMILES IDX 67 76 60 77 66 78 68 79 65 80 61 81 62 82 63 83 64 84 43 85
REMARK SMILES IDX 44 86 52 87 45 88 51 89 53 90 50 91 46 92 47 93 48 94 49 95
REMARK H PARENT 90 15 73 48 41 59
REMARK Flexibility Score: inf
ROOT
ATOM      1  C   UNL A   1      36.171  22.645  23.788  1.00  0.00     0.274 C 
ENDROOT
BRANCH   1   2
ATOM      2  O   UNL A   1      35.562  23.507  24.768  1.00  0.00    -0.462 OA
BRANCH   2   3
ATOM      3  C   UNL A   1      34.768  24.493  24.268  1.00  0.00     0.310 C 
ATOM      4  O   UNL A   1      34.471  24.599  23.079  1.00  0.00    -0.252 OA
BRANCH   3   5
ATOM      5  C   UNL A   1      34.218  25.452  25.300  1.00  0.00     0.161 C 
BRANCH   5   6
ATOM      6  C   UNL A   1      32.763  25.800  25.194  1.00  0.00     0.000 A 
ATOM      7  C   UNL A   1      30.625  28.337  22.648  1.00  0.00     0.120 A 
ATOM      8  C   UNL A   1      32.008  28.494  22.607  1.00  0.00     0.047 A 
ATOM      9  C   UNL A   1      30.011  27.524  23.604  1.00  0.00     0.073 A 
ATOM     10  C   UNL A   1      32.826  27.752  23.463  1.00  0.00     0.014 A 
ATOM     11  C   UNL A   1      30.849  26.761  24.425  1.00  0.00     0.050 A 
ATOM     12  C   UNL A   1      32.237  26.829  24.350  1.00  0.00     0.004 A 
ATOM     13  N   UNL A   1      30.546  25.820  25.380  1.00  0.00    -0.351 N 
ATOM     14  C   UNL A   1      31.672  25.098  25.712  1.00  0.00     0.093 A 
ATOM     15  H   UNL A   1      29.653  25.681  25.771  1.00  0.00     0.167 HD
BRANCH   7  16
ATOM     16  O   UNL A   1      29.808  28.983  21.755  1.00  0.00    -0.497 OA
ATOM     17  C   UNL A   1      29.385  30.244  22.283  1.00  0.00     0.278 C 
ENDBRANCH   7  16
BRANCH  14  18
ATOM     18  C   UNL A   1      31.649  23.802  26.378  1.00  0.00     0.227 C 
ATOM     19  O   UNL A   1      31.356  23.666  27.562  1.00  0.00    -0.285 OA
BRANCH  18  20
ATOM     20  C   UNL A   1      32.103  22.599  25.640  1.00  0.00     0.113 A 
ATOM     21  C   UNL A   1      31.799  22.468  24.290  1.00  0.00     0.036 A 
ATOM     22  N   UNL A   1      32.830  21.702  26.346  1.00  0.00    -0.253 NA
ATOM     23  C   UNL A   1      32.284  21.348  23.611  1.00  0.00    -0.047 A 
ATOM     24  C   UNL A   1      33.358  20.678  25.647  1.00  0.00     0.112 A 
ATOM     25  C   UNL A   1      31.972  21.121  22.161  1.00  0.00     0.044 C 
ATOM     26  C   UNL A   1      33.110  20.456  24.301  1.00  0.00     0.023 A 
ENDBRANCH  18  20
ENDBRANCH  14  18
ENDBRANCH   5   6
ENDBRANCH   3   5
ENDBRANCH   2   3
ENDBRANCH   1   2
BRANCH   1  27
ATOM     27  C   UNL A   1      36.688  21.370  24.448  1.00  0.00     0.275 C 
BRANCH  27  28
ATOM     28  O   UNL A   1      37.191  21.678  25.757  1.00  0.00    -0.458 OA
BRANCH  28  29
ATOM     29  C   UNL A   1      38.500  21.395  25.953  1.00  0.00     0.338 C 
ATOM     30  O   UNL A   1      39.029  20.297  25.836  1.00  0.00    -0.246 OA
BRANCH  29  31
ATOM     31  C   UNL A   1      39.216  22.594  26.428  1.00  0.00     0.060 A 
ATOM     32  C   UNL A   1      38.834  23.880  26.040  1.00  0.00     0.016 A 
ATOM     33  C   UNL A   1      40.342  22.415  27.232  1.00  0.00     0.016 A 
ATOM     34  C   UNL A   1      39.617  24.978  26.400  1.00  0.00     0.010 A 
ATOM     35  C   UNL A   1      41.062  23.524  27.678  1.00  0.00     0.010 A 
ATOM     36  C   UNL A   1      40.717  24.819  27.254  1.00  0.00    -0.014 A 
BRANCH  36  37
ATOM     37  C   UNL A   1      41.488  25.992  27.751  1.00  0.00     0.031 A 
ATOM     38  C   UNL A   1      40.822  27.044  28.596  1.00  0.00     0.074 A 
ATOM     39  C   UNL A   1      42.777  26.142  27.387  1.00  0.00     0.049 A 
ATOM     40  N   UNL A   1      41.250  28.237  28.926  1.00  0.00    -0.248 NA
ATOM     41  C   UNL A   1      39.488  26.718  29.124  1.00  0.00     0.031 C 
ATOM     42  C   UNL A   1      43.550  25.182  26.594  1.00  0.00     0.029 A 
ATOM     43  N   UNL A   1      43.664  27.165  27.619  1.00  0.00    -0.354 N 
ATOM     44  C   UNL A   1      40.226  28.822  29.665  1.00  0.00     0.074 A 
ATOM     45  C   UNL A   1      39.149  27.853  29.719  1.00  0.00     0.031 C 
ATOM     46  C   UNL A   1      44.793  25.652  26.422  1.00  0.00     0.029 A 
ATOM     47  C   UNL A   1      44.882  26.984  27.006  1.00  0.00     0.049 A 
ATOM     48  H   UNL A   1      43.449  27.951  28.171  1.00  0.00     0.167 HD
ATOM     49  C   UNL A   1      40.193  30.051  30.239  1.00  0.00     0.034 A 
ATOM     50  C   UNL A   1      45.933  27.814  26.873  1.00  0.00     0.034 A 
ATOM     51  C   UNL A   1      41.290  30.992  30.192  1.00  0.00     0.049 A 
ATOM     52  C   UNL A   1      45.849  29.194  27.459  1.00  0.00     0.074 A 
ATOM     53  C   UNL A   1      41.376  32.247  30.770  1.00  0.00     0.029 A 
ATOM     54  N   UNL A   1      42.491  30.782  29.526  1.00  0.00    -0.354 N 
ATOM     55  N   UNL A   1      44.860  29.752  28.117  1.00  0.00    -0.248 NA
ATOM     56  C   UNL A   1      47.018  30.062  27.271  1.00  0.00     0.031 C 
ATOM     57  C   UNL A   1      42.602  32.819  30.404  1.00  0.00     0.029 A 
ATOM     58  C   UNL A   1      43.310  31.897  29.652  1.00  0.00     0.049 A 
ATOM     59  H   UNL A   1      42.728  29.963  29.035  1.00  0.00     0.167 HD
ATOM     60  C   UNL A   1      45.291  31.036  28.429  1.00  0.00     0.074 A 
ATOM     61  C   UNL A   1      46.637  31.162  27.905  1.00  0.00     0.031 C 
ATOM     62  C   UNL A   1      44.636  32.021  29.094  1.00  0.00     0.034 A 
BRANCH  49  63
ATOM     63  C   UNL A   1      38.909  30.471  30.915  1.00  0.00     0.023 A 
ATOM     64  C   UNL A   1      37.874  31.126  30.222  1.00  0.00     0.031 A 
ATOM     65  C   UNL A   1      38.724  30.223  32.288  1.00  0.00     0.131 A 
ATOM     66  C   UNL A   1      36.734  31.564  30.915  1.00  0.00     0.055 A 
ATOM     67  C   UNL A   1      37.556  30.595  32.955  1.00  0.00     0.041 A 
ATOM     68  F   UNL A   1      39.684  29.620  33.008  1.00  0.00    -0.206 F 
ATOM     69  C   UNL A   1      36.557  31.280  32.271  1.00  0.00     0.022 A 
BRANCH  66  70
ATOM     70  S   UNL A   1      35.536  32.617  30.049  1.00  0.00     0.124 S 
ATOM     71  O   UNL A   1      36.222  33.907  30.037  1.00  0.00    -0.237 OA
ATOM     72  O   UNL A   1      35.403  31.951  28.759  1.00  0.00    -0.237 OA
ATOM     73  O   UNL A   1      34.350  32.563  30.903  1.00  0.00    -0.744 OA
ENDBRANCH  66  70
ENDBRANCH  49  63
BRANCH  50  74
ATOM     74  C   UNL A   1      47.122  27.387  26.083  1.00  0.00     0.023 A 
ATOM     75  C   UNL A   1      47.271  27.761  24.740  1.00  0.00     0.031 A 
ATOM     76  C   UNL A   1      48.122  26.585  26.664  1.00  0.00     0.131 A 
ATOM     77  C   UNL A   1      48.385  27.314  24.013  1.00  0.00     0.055 A 
ATOM     78  C   UNL A   1      49.251  26.184  25.950  1.00  0.00     0.041 A 
ATOM     79  F   UNL A   1      48.025  26.202  27.947  1.00  0.00    -0.206 F 
ATOM     80  C   UNL A   1      49.383  26.541  24.613  1.00  0.00     0.022 A 
BRANCH  77  81
ATOM     81  S   UNL A   1      48.483  27.706  22.245  1.00  0.00     0.124 S 
ATOM     82  O   UNL A   1      48.632  26.381  21.653  1.00  0.00    -0.237 OA
ATOM     83  O   UNL A   1      47.206  28.372  22.010  1.00  0.00    -0.237 OA
ATOM     84  O   UNL A   1      49.660  28.568  22.152  1.00  0.00    -0.744 OA
ENDBRANCH  77  81
ENDBRANCH  50  74
BRANCH  62  85
ATOM     85  C   UNL A   1      45.393  33.306  29.306  1.00  0.00     0.023 A 
ATOM     86  C   UNL A   1      45.294  34.375  28.398  1.00  0.00     0.031 A 
ATOM     87  C   UNL A   1      46.252  33.447  30.409  1.00  0.00     0.131 A 
ATOM     88  C   UNL A   1      46.083  35.521  28.582  1.00  0.00     0.055 A 
ATOM     89  C   UNL A   1      46.997  34.609  30.614  1.00  0.00     0.041 A 
ATOM     90  F   UNL A   1      46.385  32.454  31.303  1.00  0.00    -0.206 F 
ATOM     91  C   UNL A   1      46.924  35.649  29.691  1.00  0.00     0.022 A 
BRANCH  88  92
ATOM     92  S   UNL A   1      46.056  36.813  27.309  1.00  0.00     0.124 S 
ATOM     93  O   UNL A   1      44.625  37.033  27.129  1.00  0.00    -0.237 OA
ATOM     94  O   UNL A   1      46.794  37.898  27.945  1.00  0.00    -0.237 OA
ATOM     95  O   UNL A   1      46.734  36.188  26.173  1.00  0.00    -0.744 OA
ENDBRANCH  88  92
ENDBRANCH  62  85
ENDBRANCH  36  37
ENDBRANCH  29  31
ENDBRANCH  28  29
ENDBRANCH  27  28
ENDBRANCH   1  27
TORSDOF 18
ENDMDL
