MODEL 1
REMARK VINA RESULT:     -12.5      0.000      0.000
REMARK SMILES C[C@@H]1CCC[C@H](C)[N@H+]1Cc1cc2c(cc1Cl)C=C(C(=O)OCCOC(=O)c1ccc(-c3c4nc(c(-c5cc(S(=O)(=O)[O-])ccc5F)c5ccc([nH]5)c(-c5cc(S(=O)(=O)[O-])ccc5F)c5nc(c(-c6cc(S(=O)(=O)[O-])ccc6F)c6ccc3[nH]6)C=C5)C=C4)cc1)[C@@H](C(F)(F)F)O2
REMARK SMILES IDX 23 1 22 2 21 3 19 4 20 5 18 6 10 7 11 8 15 9 12 10 14 11
REMARK SMILES IDX 16 12 13 13 95 14 17 15 90 16 9 17 8 18 7 19 6 20 5 21 4 22
REMARK SMILES IDX 2 23 3 25 1 26 91 27 92 28 93 29 94 30 24 31 25 32 26 33
REMARK SMILES IDX 27 34 28 35 89 36 29 37 88 38 30 39 31 40 32 41 82 42 33 43
REMARK SMILES IDX 87 44 81 45 83 46 34 47 86 48 80 49 79 50 35 52 67 53 47 54
REMARK SMILES IDX 66 55 48 56 51 57 65 58 84 59 49 60 50 61 64 63 85 64 52 65
REMARK SMILES IDX 36 66 37 67 45 68 38 69 44 70 46 71 43 72 39 73 40 74 41 75
REMARK SMILES IDX 42 76 68 77 69 78 77 79 70 80 76 81 78 82 75 83 71 84 72 85
REMARK SMILES IDX 73 86 74 87 53 88 54 89 62 90 55 91 61 92 63 93 60 94 56 95
REMARK SMILES IDX 57 96 58 97 59 98
REMARK H PARENT 8 24 83 51 51 62
REMARK Flexibility Score: inf
ROOT
ATOM      1  C   UNL A   1      36.597  20.653  25.020  1.00  0.00     0.275 C 
ENDROOT
BRANCH   1   2
ATOM      2  C   UNL A   1      35.247  21.286  25.361  1.00  0.00     0.275 C 
BRANCH   2   3
ATOM      3  O   UNL A   1      35.217  22.705  25.088  1.00  0.00    -0.459 OA
BRANCH   3   4
ATOM      4  C   UNL A   1      34.404  23.422  25.905  1.00  0.00     0.338 C 
ATOM      5  O   UNL A   1      34.351  23.329  27.117  1.00  0.00    -0.246 OA
BRANCH   4   6
ATOM      6  C   UNL A   1      33.593  24.396  25.145  1.00  0.00     0.087 C 
ATOM      7  C   UNL A   1      31.375  28.626  23.527  1.00  0.00     0.029 A 
ATOM      8  C   UNL A   1      31.475  27.309  23.017  1.00  0.00     0.058 A 
ATOM      9  C   UNL A   1      31.849  28.866  24.827  1.00  0.00     0.050 A 
ATOM     10  C   UNL A   1      32.138  26.307  23.731  1.00  0.00     0.128 A 
ATOM     11  C   UNL A   1      32.559  27.882  25.512  1.00  0.00     0.033 A 
ATOM     12  Cl  UNL A   1      31.588  30.348  25.673  1.00  0.00    -0.084 Cl
ATOM     13  C   UNL A   1      32.725  26.617  24.953  1.00  0.00     0.019 A 
ATOM     14  O   UNL A   1      32.235  25.065  23.158  1.00  0.00    -0.475 OA
ATOM     15  C   UNL A   1      33.544  25.639  25.635  1.00  0.00     0.027 C 
ATOM     16  C   UNL A   1      32.725  23.970  23.994  1.00  0.00     0.316 C 
BRANCH   7  17
ATOM     17  C   UNL A   1      30.816  29.732  22.651  1.00  0.00     0.301 C 
BRANCH  17  18
ATOM     18  N   UNL A   1      29.417  30.147  22.896  1.00  0.00    -0.327 N 
ATOM     19  C   UNL A   1      27.184  29.101  22.811  1.00  0.00     0.075 C 
ATOM     20  C   UNL A   1      28.418  29.539  22.009  1.00  0.00     0.181 C 
ATOM     21  C   UNL A   1      28.010  30.411  20.809  1.00  0.00     0.065 C 
ATOM     22  C   UNL A   1      27.716  31.858  21.184  1.00  0.00     0.012 C 
ATOM     23  C   UNL A   1      29.230  31.575  23.214  1.00  0.00     0.181 C 
ATOM     24  H   UNL A   1      29.197  29.706  23.790  1.00  0.00     0.348 HD
ATOM     25  C   UNL A   1      28.858  32.445  22.002  1.00  0.00     0.065 C 
ATOM     26  C   UNL A   1      28.219  31.772  24.353  1.00  0.00     0.075 C 
ENDBRANCH  17  18
ENDBRANCH   7  17
BRANCH  16  27
ATOM     27  C   UNL A   1      31.544  23.142  24.531  1.00  0.00     0.430 C 
ATOM     28  F   UNL A   1      31.134  23.581  25.745  1.00  0.00    -0.167 F 
ATOM     29  F   UNL A   1      30.470  23.228  23.706  1.00  0.00    -0.167 F 
ATOM     30  F   UNL A   1      31.846  21.830  24.657  1.00  0.00    -0.167 F 
ENDBRANCH  16  27
ENDBRANCH   4   6
ENDBRANCH   3   4
ENDBRANCH   2   3
ENDBRANCH   1   2
BRANCH   1  31
ATOM     31  O   UNL A   1      37.657  21.625  25.074  1.00  0.00    -0.458 OA
BRANCH  31  32
ATOM     32  C   UNL A   1      38.743  21.260  25.795  1.00  0.00     0.338 C 
ATOM     33  O   UNL A   1      39.247  20.149  25.859  1.00  0.00    -0.246 OA
BRANCH  32  34
ATOM     34  C   UNL A   1      39.319  22.441  26.452  1.00  0.00     0.060 A 
ATOM     35  C   UNL A   1      40.429  22.349  27.284  1.00  0.00     0.016 A 
ATOM     36  C   UNL A   1      38.812  23.689  26.104  1.00  0.00     0.016 A 
ATOM     37  C   UNL A   1      41.007  23.527  27.782  1.00  0.00     0.010 A 
ATOM     38  C   UNL A   1      39.448  24.857  26.516  1.00  0.00     0.010 A 
ATOM     39  C   UNL A   1      40.543  24.798  27.383  1.00  0.00    -0.014 A 
BRANCH  39  40
ATOM     40  C   UNL A   1      41.223  26.052  27.833  1.00  0.00     0.031 A 
ATOM     41  C   UNL A   1      42.643  26.372  27.425  1.00  0.00     0.074 A 
ATOM     42  C   UNL A   1      40.574  26.895  28.664  1.00  0.00     0.049 A 
ATOM     43  N   UNL A   1      43.355  27.441  27.688  1.00  0.00    -0.248 NA
ATOM     44  C   UNL A   1      43.378  25.349  26.664  1.00  0.00     0.031 C 
ATOM     45  C   UNL A   1      39.253  26.645  29.242  1.00  0.00     0.029 A 
ATOM     46  N   UNL A   1      40.921  28.131  29.155  1.00  0.00    -0.354 N 
ATOM     47  C   UNL A   1      44.615  27.209  27.143  1.00  0.00     0.074 A 
ATOM     48  C   UNL A   1      44.596  25.867  26.609  1.00  0.00     0.031 C 
ATOM     49  C   UNL A   1      38.866  27.723  29.940  1.00  0.00     0.029 A 
ATOM     50  C   UNL A   1      39.925  28.729  29.897  1.00  0.00     0.049 A 
ATOM     51  H   UNL A   1      41.796  28.550  28.992  1.00  0.00     0.167 HD
ATOM     52  C   UNL A   1      45.674  28.051  27.051  1.00  0.00     0.034 A 
ATOM     53  C   UNL A   1      39.855  29.955  30.460  1.00  0.00     0.034 A 
ATOM     54  C   UNL A   1      45.657  29.407  27.536  1.00  0.00     0.049 A 
ATOM     55  C   UNL A   1      41.004  30.913  30.268  1.00  0.00     0.074 A 
ATOM     56  C   UNL A   1      46.640  30.373  27.403  1.00  0.00     0.029 A 
ATOM     57  N   UNL A   1      44.610  29.995  28.230  1.00  0.00    -0.354 N 
ATOM     58  N   UNL A   1      42.136  30.723  29.630  1.00  0.00    -0.248 NA
ATOM     59  C   UNL A   1      40.867  32.254  30.852  1.00  0.00     0.031 C 
ATOM     60  C   UNL A   1      46.207  31.527  28.057  1.00  0.00     0.029 A 
ATOM     61  C   UNL A   1      44.928  31.306  28.543  1.00  0.00     0.049 A 
ATOM     62  H   UNL A   1      43.765  29.547  28.464  1.00  0.00     0.167 HD
ATOM     63  C   UNL A   1      42.834  31.923  29.719  1.00  0.00     0.074 A 
ATOM     64  C   UNL A   1      41.986  32.843  30.446  1.00  0.00     0.031 C 
ATOM     65  C   UNL A   1      44.070  32.229  29.249  1.00  0.00     0.034 A 
BRANCH  52  66
ATOM     66  C   UNL A   1      46.925  27.573  26.348  1.00  0.00     0.023 A 
ATOM     67  C   UNL A   1      47.144  27.883  24.991  1.00  0.00     0.031 A 
ATOM     68  C   UNL A   1      47.832  26.702  26.980  1.00  0.00     0.131 A 
ATOM     69  C   UNL A   1      48.226  27.308  24.310  1.00  0.00     0.055 A 
ATOM     70  C   UNL A   1      48.935  26.173  26.312  1.00  0.00     0.041 A 
ATOM     71  F   UNL A   1      47.664  26.361  28.269  1.00  0.00    -0.206 F 
ATOM     72  C   UNL A   1      49.129  26.465  24.967  1.00  0.00     0.022 A 
BRANCH  69  73
ATOM     73  S   UNL A   1      48.471  27.572  22.532  1.00  0.00     0.124 S 
ATOM     74  O   UNL A   1      48.523  26.200  22.030  1.00  0.00    -0.237 OA
ATOM     75  O   UNL A   1      47.275  28.324  22.168  1.00  0.00    -0.237 OA
ATOM     76  O   UNL A   1      49.728  28.309  22.456  1.00  0.00    -0.744 OA
ENDBRANCH  69  73
ENDBRANCH  52  66
BRANCH  53  77
ATOM     77  C   UNL A   1      38.593  30.364  31.146  1.00  0.00     0.023 A 
ATOM     78  C   UNL A   1      37.550  30.992  30.441  1.00  0.00     0.031 A 
ATOM     79  C   UNL A   1      38.473  30.253  32.543  1.00  0.00     0.131 A 
ATOM     80  C   UNL A   1      36.471  31.548  31.144  1.00  0.00     0.055 A 
ATOM     81  C   UNL A   1      37.360  30.743  33.230  1.00  0.00     0.041 A 
ATOM     82  F   UNL A   1      39.449  29.678  33.262  1.00  0.00    -0.206 F 
ATOM     83  C   UNL A   1      36.361  31.412  32.531  1.00  0.00     0.022 A 
BRANCH  80  84
ATOM     84  S   UNL A   1      35.252  32.595  30.299  1.00  0.00     0.124 S 
ATOM     85  O   UNL A   1      34.862  31.759  29.170  1.00  0.00    -0.237 OA
ATOM     86  O   UNL A   1      34.237  32.767  31.338  1.00  0.00    -0.237 OA
ATOM     87  O   UNL A   1      36.005  33.800  29.966  1.00  0.00    -0.744 OA
ENDBRANCH  80  84
ENDBRANCH  53  77
BRANCH  65  88
ATOM     88  C   UNL A   1      44.618  33.615  29.485  1.00  0.00     0.023 A 
ATOM     89  C   UNL A   1      44.410  34.627  28.527  1.00  0.00     0.031 A 
ATOM     90  C   UNL A   1      45.486  33.882  30.558  1.00  0.00     0.131 A 
ATOM     91  C   UNL A   1      45.099  35.841  28.636  1.00  0.00     0.055 A 
ATOM     92  C   UNL A   1      46.133  35.112  30.687  1.00  0.00     0.041 A 
ATOM     93  F   UNL A   1      45.729  32.946  31.489  1.00  0.00    -0.206 F 
ATOM     94  C   UNL A   1      45.954  36.092  29.713  1.00  0.00     0.022 A 
BRANCH  91  95
ATOM     95  S   UNL A   1      44.989  37.099  27.332  1.00  0.00     0.124 S 
ATOM     96  O   UNL A   1      43.619  36.922  26.856  1.00  0.00    -0.237 OA
ATOM     97  O   UNL A   1      45.237  38.333  28.074  1.00  0.00    -0.237 OA
ATOM     98  O   UNL A   1      46.030  36.717  26.384  1.00  0.00    -0.744 OA
ENDBRANCH  91  95
ENDBRANCH  65  88
ENDBRANCH  39  40
ENDBRANCH  32  34
ENDBRANCH  31  32
ENDBRANCH   1  31
TORSDOF 17
ENDMDL
MODEL 2
REMARK VINA RESULT:     -12.5      1.401      1.684
REMARK SMILES C[C@@H]1CCC[C@H](C)[N@H+]1Cc1cc2c(cc1Cl)C=C(C(=O)OCCOC(=O)c1ccc(-c3c4nc(c(-c5cc(S(=O)(=O)[O-])ccc5F)c5ccc([nH]5)c(-c5cc(S(=O)(=O)[O-])ccc5F)c5nc(c(-c6cc(S(=O)(=O)[O-])ccc6F)c6ccc3[nH]6)C=C5)C=C4)cc1)[C@@H](C(F)(F)F)O2
REMARK SMILES IDX 23 1 22 2 21 3 19 4 20 5 18 6 10 7 11 8 15 9 12 10 14 11
REMARK SMILES IDX 16 12 13 13 95 14 17 15 90 16 9 17 8 18 7 19 6 20 5 21 4 22
REMARK SMILES IDX 2 23 3 25 1 26 91 27 92 28 93 29 94 30 24 31 25 32 26 33
REMARK SMILES IDX 27 34 28 35 89 36 29 37 88 38 30 39 31 40 32 41 82 42 33 43
REMARK SMILES IDX 87 44 81 45 83 46 34 47 86 48 80 49 79 50 35 52 67 53 47 54
REMARK SMILES IDX 66 55 48 56 51 57 65 58 84 59 49 60 50 61 64 63 85 64 52 65
REMARK SMILES IDX 36 66 37 67 45 68 38 69 44 70 46 71 43 72 39 73 40 74 41 75
REMARK SMILES IDX 42 76 68 77 69 78 77 79 70 80 76 81 78 82 75 83 71 84 72 85
REMARK SMILES IDX 73 86 74 87 53 88 54 89 62 90 55 91 61 92 63 93 60 94 56 95
REMARK SMILES IDX 57 96 58 97 59 98
REMARK H PARENT 8 24 83 51 51 62
REMARK Flexibility Score: inf
ROOT
ATOM      1  C   UNL A   1      36.254  20.570  24.993  1.00  0.00     0.275 C 
ENDROOT
BRANCH   1   2
ATOM      2  C   UNL A   1      34.767  20.924  25.006  1.00  0.00     0.275 C 
BRANCH   2   3
ATOM      3  O   UNL A   1      34.526  22.309  24.670  1.00  0.00    -0.459 OA
BRANCH   3   4
ATOM      4  C   UNL A   1      34.015  23.056  25.682  1.00  0.00     0.338 C 
ATOM      5  O   UNL A   1      34.159  22.840  26.869  1.00  0.00    -0.246 OA
BRANCH   4   6
ATOM      6  C   UNL A   1      33.277  24.231  25.170  1.00  0.00     0.087 C 
ATOM      7  C   UNL A   1      31.309  28.840  24.611  1.00  0.00     0.029 A 
ATOM      8  C   UNL A   1      31.373  27.689  23.788  1.00  0.00     0.058 A 
ATOM      9  C   UNL A   1      31.742  28.722  25.942  1.00  0.00     0.050 A 
ATOM     10  C   UNL A   1      31.963  26.507  24.245  1.00  0.00     0.128 A 
ATOM     11  C   UNL A   1      32.382  27.562  26.375  1.00  0.00     0.033 A 
ATOM     12  Cl  UNL A   1      31.513  29.956  27.127  1.00  0.00    -0.084 Cl
ATOM     13  C   UNL A   1      32.515  26.471  25.521  1.00  0.00     0.019 A 
ATOM     14  O   UNL A   1      32.029  25.446  23.379  1.00  0.00    -0.475 OA
ATOM     15  C   UNL A   1      33.263  25.312  25.956  1.00  0.00     0.027 C 
ATOM     16  C   UNL A   1      32.438  24.152  23.925  1.00  0.00     0.316 C 
BRANCH   7  17
ATOM     17  C   UNL A   1      30.834  30.157  24.028  1.00  0.00     0.301 C 
BRANCH  17  18
ATOM     18  N   UNL A   1      29.412  30.247  23.630  1.00  0.00    -0.327 N 
ATOM     19  C   UNL A   1      27.674  28.711  22.788  1.00  0.00     0.075 C 
ATOM     20  C   UNL A   1      29.020  29.392  22.503  1.00  0.00     0.181 C 
ATOM     21  C   UNL A   1      28.997  30.101  21.138  1.00  0.00     0.065 C 
ATOM     22  C   UNL A   1      28.298  31.453  21.169  1.00  0.00     0.012 C 
ATOM     23  C   UNL A   1      28.835  31.604  23.655  1.00  0.00     0.181 C 
ATOM     24  H   UNL A   1      28.925  29.801  24.408  1.00  0.00     0.348 HD
ATOM     25  C   UNL A   1      28.849  32.318  22.294  1.00  0.00     0.065 C 
ATOM     26  C   UNL A   1      27.420  31.605  24.253  1.00  0.00     0.075 C 
ENDBRANCH  17  18
ENDBRANCH   7  17
BRANCH  16  27
ATOM     27  C   UNL A   1      31.202  23.278  24.204  1.00  0.00     0.430 C 
ATOM     28  F   UNL A   1      30.238  23.458  23.270  1.00  0.00    -0.167 F 
ATOM     29  F   UNL A   1      31.519  21.959  24.183  1.00  0.00    -0.167 F 
ATOM     30  F   UNL A   1      30.647  23.536  25.410  1.00  0.00    -0.167 F 
ENDBRANCH  16  27
ENDBRANCH   4   6
ENDBRANCH   3   4
ENDBRANCH   2   3
ENDBRANCH   1   2
BRANCH   1  31
ATOM     31  O   UNL A   1      37.045  21.618  25.580  1.00  0.00    -0.458 OA
BRANCH  31  32
ATOM     32  C   UNL A   1      38.342  21.309  25.812  1.00  0.00     0.338 C 
ATOM     33  O   UNL A   1      38.926  20.287  25.485  1.00  0.00    -0.246 OA
BRANCH  32  34
ATOM     34  C   UNL A   1      39.014  22.444  26.459  1.00  0.00     0.060 A 
ATOM     35  C   UNL A   1      40.168  22.279  27.217  1.00  0.00     0.016 A 
ATOM     36  C   UNL A   1      38.546  23.722  26.173  1.00  0.00     0.016 A 
ATOM     37  C   UNL A   1      40.831  23.415  27.705  1.00  0.00     0.010 A 
ATOM     38  C   UNL A   1      39.261  24.849  26.571  1.00  0.00     0.010 A 
ATOM     39  C   UNL A   1      40.404  24.717  27.365  1.00  0.00    -0.014 A 
BRANCH  39  40
ATOM     40  C   UNL A   1      41.170  25.925  27.801  1.00  0.00     0.031 A 
ATOM     41  C   UNL A   1      42.596  26.159  27.359  1.00  0.00     0.074 A 
ATOM     42  C   UNL A   1      40.593  26.804  28.647  1.00  0.00     0.049 A 
ATOM     43  N   UNL A   1      43.378  27.182  27.607  1.00  0.00    -0.248 NA
ATOM     44  C   UNL A   1      43.250  25.095  26.581  1.00  0.00     0.031 C 
ATOM     45  C   UNL A   1      39.273  26.635  29.256  1.00  0.00     0.029 A 
ATOM     46  N   UNL A   1      41.026  28.016  29.132  1.00  0.00    -0.354 N 
ATOM     47  C   UNL A   1      44.609  26.875  27.032  1.00  0.00     0.074 A 
ATOM     48  C   UNL A   1      44.496  25.538  26.497  1.00  0.00     0.031 C 
ATOM     49  C   UNL A   1      38.969  27.732  29.964  1.00  0.00     0.029 A 
ATOM     50  C   UNL A   1      40.087  28.671  29.898  1.00  0.00     0.049 A 
ATOM     51  H   UNL A   1      41.921  28.381  28.948  1.00  0.00     0.167 HD
ATOM     52  C   UNL A   1      45.715  27.650  26.917  1.00  0.00     0.034 A 
ATOM     53  C   UNL A   1      40.104  29.898  30.463  1.00  0.00     0.034 A 
ATOM     54  C   UNL A   1      45.793  29.004  27.403  1.00  0.00     0.049 A 
ATOM     55  C   UNL A   1      41.305  30.784  30.245  1.00  0.00     0.074 A 
ATOM     56  C   UNL A   1      46.829  29.909  27.248  1.00  0.00     0.029 A 
ATOM     57  N   UNL A   1      44.799  29.653  28.122  1.00  0.00    -0.354 N 
ATOM     58  N   UNL A   1      42.408  30.528  29.580  1.00  0.00    -0.248 NA
ATOM     59  C   UNL A   1      41.264  32.130  30.834  1.00  0.00     0.031 C 
ATOM     60  C   UNL A   1      46.483  31.085  27.913  1.00  0.00     0.029 A 
ATOM     61  C   UNL A   1      45.204  30.942  28.429  1.00  0.00     0.049 A 
ATOM     62  H   UNL A   1      43.935  29.257  28.376  1.00  0.00     0.167 HD
ATOM     63  C   UNL A   1      43.180  31.683  29.654  1.00  0.00     0.074 A 
ATOM     64  C   UNL A   1      42.407  32.651  30.402  1.00  0.00     0.031 C 
ATOM     65  C   UNL A   1      44.421  31.913  29.156  1.00  0.00     0.034 A 
BRANCH  52  66
ATOM     66  C   UNL A   1      46.918  27.099  26.183  1.00  0.00     0.023 A 
ATOM     67  C   UNL A   1      47.942  26.438  26.888  1.00  0.00     0.031 A 
ATOM     68  C   UNL A   1      47.112  27.344  24.811  1.00  0.00     0.131 A 
ATOM     69  C   UNL A   1      49.121  26.070  26.223  1.00  0.00     0.055 A 
ATOM     70  C   UNL A   1      48.264  26.931  24.143  1.00  0.00     0.041 A 
ATOM     71  F   UNL A   1      46.174  27.984  24.093  1.00  0.00    -0.206 F 
ATOM     72  C   UNL A   1      49.281  26.301  24.853  1.00  0.00     0.022 A 
BRANCH  69  73
ATOM     73  S   UNL A   1      50.520  25.338  27.115  1.00  0.00     0.124 S 
ATOM     74  O   UNL A   1      50.956  26.452  27.955  1.00  0.00    -0.237 OA
ATOM     75  O   UNL A   1      49.884  24.233  27.827  1.00  0.00    -0.237 OA
ATOM     76  O   UNL A   1      51.450  24.955  26.058  1.00  0.00    -0.744 OA
ENDBRANCH  69  73
ENDBRANCH  52  66
BRANCH  53  77
ATOM     77  C   UNL A   1      38.887  30.382  31.179  1.00  0.00     0.023 A 
ATOM     78  C   UNL A   1      37.881  31.098  30.505  1.00  0.00     0.031 A 
ATOM     79  C   UNL A   1      38.780  30.249  32.575  1.00  0.00     0.131 A 
ATOM     80  C   UNL A   1      36.855  31.715  31.237  1.00  0.00     0.055 A 
ATOM     81  C   UNL A   1      37.717  30.803  33.291  1.00  0.00     0.041 A 
ATOM     82  F   UNL A   1      39.724  29.590  33.265  1.00  0.00    -0.206 F 
ATOM     83  C   UNL A   1      36.758  31.557  32.623  1.00  0.00     0.022 A 
BRANCH  80  84
ATOM     84  S   UNL A   1      35.702  32.865  30.436  1.00  0.00     0.124 S 
ATOM     85  O   UNL A   1      34.417  32.434  30.975  1.00  0.00    -0.237 OA
ATOM     86  O   UNL A   1      36.188  34.157  30.917  1.00  0.00    -0.237 OA
ATOM     87  O   UNL A   1      35.905  32.619  29.012  1.00  0.00    -0.744 OA
ENDBRANCH  80  84
ENDBRANCH  53  77
BRANCH  65  88
ATOM     88  C   UNL A   1      45.058  33.263  29.381  1.00  0.00     0.023 A 
ATOM     89  C   UNL A   1      44.925  34.274  28.409  1.00  0.00     0.031 A 
ATOM     90  C   UNL A   1      45.934  33.485  30.457  1.00  0.00     0.131 A 
ATOM     91  C   UNL A   1      45.692  35.442  28.509  1.00  0.00     0.055 A 
ATOM     92  C   UNL A   1      46.660  34.671  30.577  1.00  0.00     0.041 A 
ATOM     93  F   UNL A   1      46.107  32.546  31.402  1.00  0.00    -0.206 F 
ATOM     94  C   UNL A   1      46.554  35.649  29.591  1.00  0.00     0.022 A 
BRANCH  91  95
ATOM     95  S   UNL A   1      45.677  36.688  27.190  1.00  0.00     0.124 S 
ATOM     96  O   UNL A   1      46.336  35.978  26.097  1.00  0.00    -0.237 OA
ATOM     97  O   UNL A   1      44.248  36.925  27.008  1.00  0.00    -0.237 OA
ATOM     98  O   UNL A   1      46.432  37.804  27.750  1.00  0.00    -0.744 OA
ENDBRANCH  91  95
ENDBRANCH  65  88
ENDBRANCH  39  40
ENDBRANCH  32  34
ENDBRANCH  31  32
ENDBRANCH   1  31
TORSDOF 17
ENDMDL
MODEL 3
REMARK VINA RESULT:     -12.4      5.132     10.500
REMARK SMILES C[C@@H]1CCC[C@H](C)[N@H+]1Cc1cc2c(cc1Cl)C=C(C(=O)OCCOC(=O)c1ccc(-c3c4nc(c(-c5cc(S(=O)(=O)[O-])ccc5F)c5ccc([nH]5)c(-c5cc(S(=O)(=O)[O-])ccc5F)c5nc(c(-c6cc(S(=O)(=O)[O-])ccc6F)c6ccc3[nH]6)C=C5)C=C4)cc1)[C@@H](C(F)(F)F)O2
REMARK SMILES IDX 23 1 22 2 21 3 19 4 20 5 18 6 10 7 11 8 15 9 12 10 14 11
REMARK SMILES IDX 16 12 13 13 95 14 17 15 90 16 9 17 8 18 7 19 6 20 5 21 4 22
REMARK SMILES IDX 2 23 3 25 1 26 91 27 92 28 93 29 94 30 24 31 25 32 26 33
REMARK SMILES IDX 27 34 28 35 89 36 29 37 88 38 30 39 31 40 32 41 82 42 33 43
REMARK SMILES IDX 87 44 81 45 83 46 34 47 86 48 80 49 79 50 35 52 67 53 47 54
REMARK SMILES IDX 66 55 48 56 51 57 65 58 84 59 49 60 50 61 64 63 85 64 52 65
REMARK SMILES IDX 36 66 37 67 45 68 38 69 44 70 46 71 43 72 39 73 40 74 41 75
REMARK SMILES IDX 42 76 68 77 69 78 77 79 70 80 76 81 78 82 75 83 71 84 72 85
REMARK SMILES IDX 73 86 74 87 53 88 54 89 62 90 55 91 61 92 63 93 60 94 56 95
REMARK SMILES IDX 57 96 58 97 59 98
REMARK H PARENT 8 24 83 51 51 62
REMARK Flexibility Score: inf
ROOT
ATOM      1  C   UNL A   1      31.408  29.998  25.704  1.00  0.00     0.275 C 
ENDROOT
BRANCH   1   2
ATOM      2  C   UNL A   1      31.404  28.679  24.929  1.00  0.00     0.275 C 
BRANCH   2   3
ATOM      3  O   UNL A   1      32.256  27.680  25.533  1.00  0.00    -0.459 OA
BRANCH   3   4
ATOM      4  C   UNL A   1      33.382  27.398  24.830  1.00  0.00     0.338 C 
ATOM      5  O   UNL A   1      34.183  28.211  24.410  1.00  0.00    -0.246 OA
BRANCH   4   6
ATOM      6  C   UNL A   1      33.566  25.940  24.662  1.00  0.00     0.087 C 
ATOM      7  C   UNL A   1      35.374  21.238  24.870  1.00  0.00     0.029 A 
ATOM      8  C   UNL A   1      34.161  21.808  24.413  1.00  0.00     0.058 A 
ATOM      9  C   UNL A   1      36.414  22.108  25.236  1.00  0.00     0.050 A 
ATOM     10  C   UNL A   1      33.957  23.190  24.443  1.00  0.00     0.128 A 
ATOM     11  C   UNL A   1      36.188  23.481  25.320  1.00  0.00     0.033 A 
ATOM     12  Cl  UNL A   1      38.018  21.576  25.587  1.00  0.00    -0.084 Cl
ATOM     13  C   UNL A   1      34.956  24.015  24.951  1.00  0.00     0.019 A 
ATOM     14  O   UNL A   1      32.742  23.670  24.027  1.00  0.00    -0.475 OA
ATOM     15  C   UNL A   1      34.708  25.428  25.133  1.00  0.00     0.027 C 
ATOM     16  C   UNL A   1      32.610  25.115  23.847  1.00  0.00     0.316 C 
BRANCH   7  17
ATOM     17  C   UNL A   1      35.496  19.731  25.000  1.00  0.00     0.301 C 
BRANCH  17  18
ATOM     18  N   UNL A   1      34.437  18.910  24.374  1.00  0.00    -0.327 N 
ATOM     19  C   UNL A   1      32.118  19.243  23.599  1.00  0.00     0.075 C 
ATOM     20  C   UNL A   1      33.068  19.217  24.806  1.00  0.00     0.181 C 
ATOM     21  C   UNL A   1      32.522  18.299  25.912  1.00  0.00     0.065 C 
ATOM     22  C   UNL A   1      32.779  16.820  25.654  1.00  0.00     0.012 C 
ATOM     23  C   UNL A   1      34.765  17.483  24.201  1.00  0.00     0.181 C 
ATOM     24  H   UNL A   1      34.429  19.239  23.408  1.00  0.00     0.348 HD
ATOM     25  C   UNL A   1      34.247  16.578  25.330  1.00  0.00     0.065 C 
ATOM     26  C   UNL A   1      34.304  16.959  22.832  1.00  0.00     0.075 C 
ENDBRANCH  17  18
ENDBRANCH   7  17
BRANCH  16  27
ATOM     27  C   UNL A   1      32.768  25.482  22.360  1.00  0.00     0.430 C 
ATOM     28  F   UNL A   1      32.512  24.426  21.552  1.00  0.00    -0.167 F 
ATOM     29  F   UNL A   1      31.900  26.461  22.002  1.00  0.00    -0.167 F 
ATOM     30  F   UNL A   1      34.012  25.924  22.065  1.00  0.00    -0.167 F 
ENDBRANCH  16  27
ENDBRANCH   4   6
ENDBRANCH   3   4
ENDBRANCH   2   3
ENDBRANCH   1   2
BRANCH   1  31
ATOM     31  O   UNL A   1      32.365  29.968  26.777  1.00  0.00    -0.458 OA
BRANCH  31  32
ATOM     32  C   UNL A   1      32.949  31.153  27.070  1.00  0.00     0.338 C 
ATOM     33  O   UNL A   1      32.443  32.263  26.995  1.00  0.00    -0.246 OA
BRANCH  32  34
ATOM     34  C   UNL A   1      34.301  30.923  27.596  1.00  0.00     0.060 A 
ATOM     35  C   UNL A   1      35.112  31.970  28.020  1.00  0.00     0.016 A 
ATOM     36  C   UNL A   1      34.702  29.606  27.799  1.00  0.00     0.016 A 
ATOM     37  C   UNL A   1      36.342  31.676  28.627  1.00  0.00     0.010 A 
ATOM     38  C   UNL A   1      35.874  29.316  28.492  1.00  0.00     0.010 A 
ATOM     39  C   UNL A   1      36.729  30.345  28.898  1.00  0.00    -0.014 A 
BRANCH  39  40
ATOM     40  C   UNL A   1      37.992  30.036  29.636  1.00  0.00     0.031 A 
ATOM     41  C   UNL A   1      38.232  30.544  31.039  1.00  0.00     0.074 A 
ATOM     42  C   UNL A   1      38.962  29.330  29.019  1.00  0.00     0.049 A 
ATOM     43  N   UNL A   1      39.251  30.320  31.833  1.00  0.00    -0.248 NA
ATOM     44  C   UNL A   1      37.229  31.455  31.613  1.00  0.00     0.031 C 
ATOM     45  C   UNL A   1      38.919  28.893  27.623  1.00  0.00     0.029 A 
ATOM     46  N   UNL A   1      40.163  28.842  29.479  1.00  0.00    -0.354 N 
ATOM     47  C   UNL A   1      39.017  31.071  32.982  1.00  0.00     0.074 A 
ATOM     48  C   UNL A   1      37.805  31.822  32.749  1.00  0.00     0.031 C 
ATOM     49  C   UNL A   1      39.995  28.136  27.364  1.00  0.00     0.029 A 
ATOM     50  C   UNL A   1      40.831  28.065  28.560  1.00  0.00     0.049 A 
ATOM     51  H   UNL A   1      40.510  29.029  30.381  1.00  0.00     0.167 HD
ATOM     52  C   UNL A   1      39.719  31.098  34.142  1.00  0.00     0.034 A 
ATOM     53  C   UNL A   1      41.973  27.351  28.667  1.00  0.00     0.034 A 
ATOM     54  C   UNL A   1      40.893  30.299  34.382  1.00  0.00     0.049 A 
ATOM     55  C   UNL A   1      42.691  27.317  29.993  1.00  0.00     0.074 A 
ATOM     56  C   UNL A   1      41.618  30.176  35.555  1.00  0.00     0.029 A 
ATOM     57  N   UNL A   1      41.506  29.480  33.446  1.00  0.00    -0.354 N 
ATOM     58  N   UNL A   1      42.379  27.927  31.113  1.00  0.00    -0.248 NA
ATOM     59  C   UNL A   1      43.902  26.489  30.083  1.00  0.00     0.031 C 
ATOM     60  C   UNL A   1      42.695  29.323  35.314  1.00  0.00     0.029 A 
ATOM     61  C   UNL A   1      42.608  28.859  34.011  1.00  0.00     0.049 A 
ATOM     62  H   UNL A   1      41.203  29.357  32.517  1.00  0.00     0.167 HD
ATOM     63  C   UNL A   1      43.340  27.541  32.043  1.00  0.00     0.074 A 
ATOM     64  C   UNL A   1      44.228  26.622  31.363  1.00  0.00     0.031 C 
ATOM     65  C   UNL A   1      43.478  27.925  33.337  1.00  0.00     0.034 A 
BRANCH  52  66
ATOM     66  C   UNL A   1      39.216  31.962  35.278  1.00  0.00     0.023 A 
ATOM     67  C   UNL A   1      39.744  33.251  35.482  1.00  0.00     0.031 A 
ATOM     68  C   UNL A   1      38.312  31.460  36.233  1.00  0.00     0.131 A 
ATOM     69  C   UNL A   1      39.383  33.980  36.625  1.00  0.00     0.055 A 
ATOM     70  C   UNL A   1      37.917  32.208  37.341  1.00  0.00     0.041 A 
ATOM     71  F   UNL A   1      37.788  30.231  36.095  1.00  0.00    -0.206 F 
ATOM     72  C   UNL A   1      38.464  33.470  37.547  1.00  0.00     0.022 A 
BRANCH  69  73
ATOM     73  S   UNL A   1      40.139  35.586  37.000  1.00  0.00     0.124 S 
ATOM     74  O   UNL A   1      39.615  35.860  38.336  1.00  0.00    -0.237 OA
ATOM     75  O   UNL A   1      41.564  35.273  36.941  1.00  0.00    -0.237 OA
ATOM     76  O   UNL A   1      39.642  36.463  35.945  1.00  0.00    -0.744 OA
ENDBRANCH  69  73
ENDBRANCH  52  66
BRANCH  53  77
ATOM     77  C   UNL A   1      42.421  26.524  27.507  1.00  0.00     0.023 A 
ATOM     78  C   UNL A   1      42.108  25.155  27.425  1.00  0.00     0.031 A 
ATOM     79  C   UNL A   1      43.280  27.063  26.534  1.00  0.00     0.131 A 
ATOM     80  C   UNL A   1      42.710  24.360  26.438  1.00  0.00     0.055 A 
ATOM     81  C   UNL A   1      43.819  26.283  25.508  1.00  0.00     0.041 A 
ATOM     82  F   UNL A   1      43.623  28.360  26.579  1.00  0.00    -0.206 F 
ATOM     83  C   UNL A   1      43.549  24.920  25.469  1.00  0.00     0.022 A 
BRANCH  80  84
ATOM     84  S   UNL A   1      42.544  22.553  26.469  1.00  0.00     0.124 S 
ATOM     85  O   UNL A   1      41.211  22.379  27.034  1.00  0.00    -0.237 OA
ATOM     86  O   UNL A   1      42.677  22.218  25.052  1.00  0.00    -0.237 OA
ATOM     87  O   UNL A   1      43.652  22.119  27.313  1.00  0.00    -0.744 OA
ENDBRANCH  80  84
ENDBRANCH  53  77
BRANCH  65  88
ATOM     88  C   UNL A   1      44.625  27.366  34.144  1.00  0.00     0.023 A 
ATOM     89  C   UNL A   1      44.470  26.149  34.837  1.00  0.00     0.031 A 
ATOM     90  C   UNL A   1      45.792  28.117  34.369  1.00  0.00     0.131 A 
ATOM     91  C   UNL A   1      45.445  25.744  35.758  1.00  0.00     0.055 A 
ATOM     92  C   UNL A   1      46.782  27.684  35.252  1.00  0.00     0.041 A 
ATOM     93  F   UNL A   1      45.979  29.290  33.744  1.00  0.00    -0.206 F 
ATOM     94  C   UNL A   1      46.602  26.500  35.964  1.00  0.00     0.022 A 
BRANCH  91  95
ATOM     95  S   UNL A   1      45.199  24.274  36.794  1.00  0.00     0.124 S 
ATOM     96  O   UNL A   1      44.487  24.830  37.942  1.00  0.00    -0.237 OA
ATOM     97  O   UNL A   1      44.403  23.413  35.923  1.00  0.00    -0.237 OA
ATOM     98  O   UNL A   1      46.553  23.807  37.071  1.00  0.00    -0.744 OA
ENDBRANCH  91  95
ENDBRANCH  65  88
ENDBRANCH  39  40
ENDBRANCH  32  34
ENDBRANCH  31  32
ENDBRANCH   1  31
TORSDOF 17
ENDMDL
