MODEL 1
REMARK VINA RESULT:     -12.8      0.000      0.000
REMARK SMILES CC(C)(C)c1cc2c(cc1Cl)C=C(C(=O)OCCOC(=O)c1ccc(-c3c4nc(c(-c5cc(S(=O)(=O)[O-])ccc5F)c5ccc([nH]5)c(-c5cc(S(=O)(=O)[O-])ccc5F)c5nc(c(-c6cc(S(=O)(=O)[O-])ccc6F)c6ccc3[nH]6)C=C5)C=C4)cc1)[C@@H](C(F)(F)F)O2
REMARK SMILES IDX 18 1 17 2 16 3 14 4 15 5 13 6 5 7 6 8 10 9 7 10 9 11 11 12
REMARK SMILES IDX 8 13 90 14 12 15 85 16 2 17 1 18 3 19 4 20 86 21 87 22 88 23
REMARK SMILES IDX 89 24 19 25 20 26 21 27 22 28 23 29 84 30 24 31 83 32 25 33
REMARK SMILES IDX 26 34 27 35 77 36 28 37 82 38 76 39 78 40 29 41 81 42 75 43
REMARK SMILES IDX 74 44 30 46 62 47 42 48 61 49 43 50 46 51 60 52 79 53 44 54
REMARK SMILES IDX 45 55 59 57 80 58 47 59 31 60 32 61 40 62 33 63 39 64 41 65
REMARK SMILES IDX 38 66 34 67 35 68 36 69 37 70 63 71 64 72 72 73 65 74 71 75
REMARK SMILES IDX 73 76 70 77 66 78 67 79 68 80 69 81 48 82 49 83 57 84 50 85
REMARK SMILES IDX 56 86 58 87 55 88 51 89 52 90 53 91 54 92
REMARK H PARENT 78 45 46 56
REMARK Flexibility Score: inf
ROOT
ATOM      1  C   UNL A   1      37.532  20.503  24.877  1.00  0.00     0.275 C 
ENDROOT
BRANCH   1   2
ATOM      2  C   UNL A   1      36.023  20.367  25.091  1.00  0.00     0.275 C 
BRANCH   2   3
ATOM      3  O   UNL A   1      35.287  21.385  24.378  1.00  0.00    -0.459 OA
BRANCH   3   4
ATOM      4  C   UNL A   1      33.942  21.287  24.467  1.00  0.00     0.338 C 
ATOM      5  O   UNL A   1      33.273  20.286  24.261  1.00  0.00    -0.246 OA
BRANCH   4   6
ATOM      6  C   UNL A   1      33.340  22.569  24.872  1.00  0.00     0.087 C 
ATOM      7  C   UNL A   1      32.711  27.551  25.550  1.00  0.00    -0.020 A 
ATOM      8  C   UNL A   1      32.306  26.368  26.241  1.00  0.00     0.053 A 
ATOM      9  C   UNL A   1      33.384  27.358  24.326  1.00  0.00     0.045 A 
ATOM     10  C   UNL A   1      32.568  25.081  25.765  1.00  0.00     0.128 A 
ATOM     11  C   UNL A   1      33.626  26.065  23.843  1.00  0.00     0.032 A 
ATOM     12  Cl  UNL A   1      34.030  28.597  23.314  1.00  0.00    -0.084 Cl
ATOM     13  C   UNL A   1      33.235  24.938  24.565  1.00  0.00     0.019 A 
ATOM     14  O   UNL A   1      32.153  24.024  26.527  1.00  0.00    -0.475 OA
ATOM     15  C   UNL A   1      33.601  23.623  24.096  1.00  0.00     0.027 C 
ATOM     16  C   UNL A   1      32.617  22.681  26.182  1.00  0.00     0.316 C 
BRANCH   7  17
ATOM     17  C   UNL A   1      32.419  28.905  26.245  1.00  0.00    -0.012 C 
ATOM     18  C   UNL A   1      31.522  29.783  25.335  1.00  0.00     0.016 C 
ATOM     19  C   UNL A   1      33.620  29.804  26.612  1.00  0.00     0.016 C 
ATOM     20  C   UNL A   1      31.673  28.609  27.566  1.00  0.00     0.016 C 
ENDBRANCH   7  17
BRANCH  16  21
ATOM     21  C   UNL A   1      33.451  22.136  27.351  1.00  0.00     0.430 C 
ATOM     22  F   UNL A   1      33.535  20.782  27.302  1.00  0.00    -0.167 F 
ATOM     23  F   UNL A   1      34.726  22.594  27.314  1.00  0.00    -0.167 F 
ATOM     24  F   UNL A   1      32.935  22.465  28.554  1.00  0.00    -0.167 F 
ENDBRANCH  16  21
ENDBRANCH   4   6
ENDBRANCH   3   4
ENDBRANCH   2   3
ENDBRANCH   1   2
BRANCH   1  25
ATOM     25  O   UNL A   1      38.050  21.653  25.572  1.00  0.00    -0.458 OA
BRANCH  25  26
ATOM     26  C   UNL A   1      39.252  21.466  26.161  1.00  0.00     0.338 C 
ATOM     27  O   UNL A   1      39.961  20.476  26.094  1.00  0.00    -0.246 OA
BRANCH  26  28
ATOM     28  C   UNL A   1      39.669  22.694  26.854  1.00  0.00     0.060 A 
ATOM     29  C   UNL A   1      40.751  22.696  27.726  1.00  0.00     0.016 A 
ATOM     30  C   UNL A   1      39.083  23.893  26.471  1.00  0.00     0.016 A 
ATOM     31  C   UNL A   1      41.238  23.921  28.202  1.00  0.00     0.010 A 
ATOM     32  C   UNL A   1      39.685  25.105  26.795  1.00  0.00     0.010 A 
ATOM     33  C   UNL A   1      40.748  25.146  27.701  1.00  0.00    -0.014 A 
BRANCH  33  34
ATOM     34  C   UNL A   1      41.337  26.459  28.113  1.00  0.00     0.031 A 
ATOM     35  C   UNL A   1      42.754  26.833  27.733  1.00  0.00     0.074 A 
ATOM     36  C   UNL A   1      40.614  27.305  28.877  1.00  0.00     0.049 A 
ATOM     37  N   UNL A   1      43.417  27.930  28.004  1.00  0.00    -0.248 NA
ATOM     38  C   UNL A   1      43.550  25.836  26.998  1.00  0.00     0.031 C 
ATOM     39  C   UNL A   1      39.283  27.021  29.416  1.00  0.00     0.029 A 
ATOM     40  N   UNL A   1      40.880  28.578  29.325  1.00  0.00    -0.354 N 
ATOM     41  C   UNL A   1      44.701  27.736  27.500  1.00  0.00     0.074 A 
ATOM     42  C   UNL A   1      44.754  26.388  26.992  1.00  0.00     0.031 C 
ATOM     43  C   UNL A   1      38.816  28.110  30.042  1.00  0.00     0.029 A 
ATOM     44  C   UNL A   1      39.832  29.158  30.006  1.00  0.00     0.049 A 
ATOM     45  H   UNL A   1      41.741  29.032  29.173  1.00  0.00     0.167 HD
ATOM     46  C   UNL A   1      45.727  28.617  27.418  1.00  0.00     0.034 A 
ATOM     47  C   UNL A   1      39.692  30.394  30.529  1.00  0.00     0.034 A 
ATOM     48  C   UNL A   1      45.638  29.982  27.862  1.00  0.00     0.049 A 
ATOM     49  C   UNL A   1      40.817  31.386  30.363  1.00  0.00     0.074 A 
ATOM     50  C   UNL A   1      46.582  30.984  27.734  1.00  0.00     0.029 A 
ATOM     51  N   UNL A   1      44.541  30.543  28.499  1.00  0.00    -0.354 N 
ATOM     52  N   UNL A   1      41.977  31.219  29.774  1.00  0.00    -0.248 NA
ATOM     53  C   UNL A   1      40.615  32.733  30.914  1.00  0.00     0.031 C 
ATOM     54  C   UNL A   1      46.083  32.133  28.344  1.00  0.00     0.029 A 
ATOM     55  C   UNL A   1      44.794  31.873  28.786  1.00  0.00     0.049 A 
ATOM     56  H   UNL A   1      43.708  30.067  28.715  1.00  0.00     0.167 HD
ATOM     57  C   UNL A   1      42.635  32.444  29.864  1.00  0.00     0.074 A 
ATOM     58  C   UNL A   1      41.730  33.349  30.540  1.00  0.00     0.031 C 
ATOM     59  C   UNL A   1      43.876  32.779  29.433  1.00  0.00     0.034 A 
BRANCH  46  60
ATOM     60  C   UNL A   1      47.020  28.175  26.766  1.00  0.00     0.023 A 
ATOM     61  C   UNL A   1      47.151  28.199  25.364  1.00  0.00     0.031 A 
ATOM     62  C   UNL A   1      48.064  27.605  27.518  1.00  0.00     0.131 A 
ATOM     63  C   UNL A   1      48.283  27.633  24.761  1.00  0.00     0.055 A 
ATOM     64  C   UNL A   1      49.213  27.094  26.916  1.00  0.00     0.041 A 
ATOM     65  F   UNL A   1      47.987  27.546  28.858  1.00  0.00    -0.206 F 
ATOM     66  C   UNL A   1      49.320  27.092  25.529  1.00  0.00     0.022 A 
BRANCH  63  67
ATOM     67  S   UNL A   1      48.425  27.506  22.957  1.00  0.00     0.124 S 
ATOM     68  O   UNL A   1      48.366  26.061  22.752  1.00  0.00    -0.237 OA
ATOM     69  O   UNL A   1      47.250  28.248  22.506  1.00  0.00    -0.237 OA
ATOM     70  O   UNL A   1      49.713  28.123  22.661  1.00  0.00    -0.744 OA
ENDBRANCH  63  67
ENDBRANCH  46  60
BRANCH  47  71
ATOM     71  C   UNL A   1      38.390  30.773  31.160  1.00  0.00     0.023 A 
ATOM     72  C   UNL A   1      37.363  31.374  30.410  1.00  0.00     0.031 A 
ATOM     73  C   UNL A   1      38.208  30.656  32.550  1.00  0.00     0.131 A 
ATOM     74  C   UNL A   1      36.240  31.905  31.064  1.00  0.00     0.055 A 
ATOM     75  C   UNL A   1      37.053  31.116  33.186  1.00  0.00     0.041 A 
ATOM     76  F   UNL A   1      39.164  30.104  33.313  1.00  0.00    -0.206 F 
ATOM     77  C   UNL A   1      36.071  31.763  32.444  1.00  0.00     0.022 A 
BRANCH  74  78
ATOM     78  S   UNL A   1      35.039  32.930  30.168  1.00  0.00     0.124 S 
ATOM     79  O   UNL A   1      34.111  33.309  31.229  1.00  0.00    -0.237 OA
ATOM     80  O   UNL A   1      35.888  34.004  29.657  1.00  0.00    -0.237 OA
ATOM     81  O   UNL A   1      34.505  32.027  29.153  1.00  0.00    -0.744 OA
ENDBRANCH  74  78
ENDBRANCH  47  71
BRANCH  59  82
ATOM     82  C   UNL A   1      44.369  34.189  29.651  1.00  0.00     0.023 A 
ATOM     83  C   UNL A   1      44.150  35.166  28.659  1.00  0.00     0.031 A 
ATOM     84  C   UNL A   1      45.212  34.511  30.727  1.00  0.00     0.131 A 
ATOM     85  C   UNL A   1      44.815  36.396  28.735  1.00  0.00     0.055 A 
ATOM     86  C   UNL A   1      45.830  35.758  30.825  1.00  0.00     0.041 A 
ATOM     87  F   UNL A   1      45.463  33.609  31.690  1.00  0.00    -0.206 F 
ATOM     88  C   UNL A   1      45.647  36.700  29.816  1.00  0.00     0.022 A 
BRANCH  85  89
ATOM     89  S   UNL A   1      44.710  37.599  27.381  1.00  0.00     0.124 S 
ATOM     90  O   UNL A   1      45.864  37.234  26.562  1.00  0.00    -0.237 OA
ATOM     91  O   UNL A   1      43.409  37.291  26.795  1.00  0.00    -0.237 OA
ATOM     92  O   UNL A   1      44.809  38.893  28.048  1.00  0.00    -0.744 OA
ENDBRANCH  85  89
ENDBRANCH  59  82
ENDBRANCH  33  34
ENDBRANCH  26  28
ENDBRANCH  25  26
ENDBRANCH   1  25
TORSDOF 16
ENDMDL
MODEL 2
REMARK VINA RESULT:     -12.6      1.345      1.637
REMARK SMILES CC(C)(C)c1cc2c(cc1Cl)C=C(C(=O)OCCOC(=O)c1ccc(-c3c4nc(c(-c5cc(S(=O)(=O)[O-])ccc5F)c5ccc([nH]5)c(-c5cc(S(=O)(=O)[O-])ccc5F)c5nc(c(-c6cc(S(=O)(=O)[O-])ccc6F)c6ccc3[nH]6)C=C5)C=C4)cc1)[C@@H](C(F)(F)F)O2
REMARK SMILES IDX 18 1 17 2 16 3 14 4 15 5 13 6 5 7 6 8 10 9 7 10 9 11 11 12
REMARK SMILES IDX 8 13 90 14 12 15 85 16 2 17 1 18 3 19 4 20 86 21 87 22 88 23
REMARK SMILES IDX 89 24 19 25 20 26 21 27 22 28 23 29 84 30 24 31 83 32 25 33
REMARK SMILES IDX 26 34 27 35 77 36 28 37 82 38 76 39 78 40 29 41 81 42 75 43
REMARK SMILES IDX 74 44 30 46 62 47 42 48 61 49 43 50 46 51 60 52 79 53 44 54
REMARK SMILES IDX 45 55 59 57 80 58 47 59 31 60 32 61 40 62 33 63 39 64 41 65
REMARK SMILES IDX 38 66 34 67 35 68 36 69 37 70 63 71 64 72 72 73 65 74 71 75
REMARK SMILES IDX 73 76 70 77 66 78 67 79 68 80 69 81 48 82 49 83 57 84 50 85
REMARK SMILES IDX 56 86 58 87 55 88 51 89 52 90 53 91 54 92
REMARK H PARENT 78 45 46 56
REMARK Flexibility Score: inf
ROOT
ATOM      1  C   UNL A   1      37.741  20.456  24.854  1.00  0.00     0.275 C 
ENDROOT
BRANCH   1   2
ATOM      2  C   UNL A   1      36.229  20.262  24.978  1.00  0.00     0.275 C 
BRANCH   2   3
ATOM      3  O   UNL A   1      35.499  21.393  24.454  1.00  0.00    -0.459 OA
BRANCH   3   4
ATOM      4  C   UNL A   1      34.153  21.276  24.495  1.00  0.00     0.338 C 
ATOM      5  O   UNL A   1      33.507  20.267  24.256  1.00  0.00    -0.246 OA
BRANCH   4   6
ATOM      6  C   UNL A   1      33.520  22.544  24.893  1.00  0.00     0.087 C 
ATOM      7  C   UNL A   1      32.798  27.509  25.607  1.00  0.00    -0.020 A 
ATOM      8  C   UNL A   1      32.383  26.312  26.267  1.00  0.00     0.053 A 
ATOM      9  C   UNL A   1      33.521  27.340  24.408  1.00  0.00     0.045 A 
ATOM     10  C   UNL A   1      32.680  25.035  25.786  1.00  0.00     0.128 A 
ATOM     11  C   UNL A   1      33.799  26.057  23.918  1.00  0.00     0.032 A 
ATOM     12  Cl  UNL A   1      34.190  28.600  23.437  1.00  0.00    -0.084 Cl
ATOM     13  C   UNL A   1      33.395  24.916  24.610  1.00  0.00     0.019 A 
ATOM     14  O   UNL A   1      32.250  23.963  26.518  1.00  0.00    -0.475 OA
ATOM     15  C   UNL A   1      33.796  23.612  24.141  1.00  0.00     0.027 C 
ATOM     16  C   UNL A   1      32.744  22.631  26.175  1.00  0.00     0.316 C 
BRANCH   7  17
ATOM     17  C   UNL A   1      32.462  28.850  26.306  1.00  0.00    -0.012 C 
ATOM     18  C   UNL A   1      31.592  28.587  27.561  1.00  0.00     0.016 C 
ATOM     19  C   UNL A   1      31.690  29.916  25.498  1.00  0.00     0.016 C 
ATOM     20  C   UNL A   1      33.794  29.507  26.736  1.00  0.00     0.016 C 
ENDBRANCH   7  17
BRANCH  16  21
ATOM     21  C   UNL A   1      33.540  22.081  27.368  1.00  0.00     0.430 C 
ATOM     22  F   UNL A   1      34.798  22.590  27.394  1.00  0.00    -0.167 F 
ATOM     23  F   UNL A   1      32.970  22.422  28.550  1.00  0.00    -0.167 F 
ATOM     24  F   UNL A   1      33.649  20.735  27.342  1.00  0.00    -0.167 F 
ENDBRANCH  16  21
ENDBRANCH   4   6
ENDBRANCH   3   4
ENDBRANCH   2   3
ENDBRANCH   1   2
BRANCH   1  25
ATOM     25  O   UNL A   1      38.179  21.595  25.617  1.00  0.00    -0.458 OA
BRANCH  25  26
ATOM     26  C   UNL A   1      39.379  21.446  26.223  1.00  0.00     0.338 C 
ATOM     27  O   UNL A   1      40.111  20.472  26.180  1.00  0.00    -0.246 OA
BRANCH  26  28
ATOM     28  C   UNL A   1      39.759  22.694  26.901  1.00  0.00     0.060 A 
ATOM     29  C   UNL A   1      40.802  22.726  27.819  1.00  0.00     0.016 A 
ATOM     30  C   UNL A   1      39.185  23.880  26.460  1.00  0.00     0.016 A 
ATOM     31  C   UNL A   1      41.262  23.966  28.283  1.00  0.00     0.010 A 
ATOM     32  C   UNL A   1      39.767  25.103  26.779  1.00  0.00     0.010 A 
ATOM     33  C   UNL A   1      40.789  25.174  27.729  1.00  0.00    -0.014 A 
BRANCH  33  34
ATOM     34  C   UNL A   1      41.353  26.500  28.131  1.00  0.00     0.031 A 
ATOM     35  C   UNL A   1      42.770  26.891  27.765  1.00  0.00     0.074 A 
ATOM     36  C   UNL A   1      40.608  27.346  28.875  1.00  0.00     0.049 A 
ATOM     37  N   UNL A   1      43.412  28.000  28.030  1.00  0.00    -0.248 NA
ATOM     38  C   UNL A   1      43.590  25.896  27.053  1.00  0.00     0.031 C 
ATOM     39  C   UNL A   1      39.274  27.048  29.400  1.00  0.00     0.029 A 
ATOM     40  N   UNL A   1      40.850  28.628  29.310  1.00  0.00    -0.354 N 
ATOM     41  C   UNL A   1      44.705  27.820  27.545  1.00  0.00     0.074 A 
ATOM     42  C   UNL A   1      44.785  26.466  27.055  1.00  0.00     0.031 C 
ATOM     43  C   UNL A   1      38.783  28.138  30.007  1.00  0.00     0.029 A 
ATOM     44  C   UNL A   1      39.784  29.201  29.970  1.00  0.00     0.049 A 
ATOM     45  H   UNL A   1      41.706  29.093  29.164  1.00  0.00     0.167 HD
ATOM     46  C   UNL A   1      45.720  28.714  27.465  1.00  0.00     0.034 A 
ATOM     47  C   UNL A   1      39.619  30.442  30.476  1.00  0.00     0.034 A 
ATOM     48  C   UNL A   1      45.605  30.083  27.890  1.00  0.00     0.049 A 
ATOM     49  C   UNL A   1      40.732  31.447  30.311  1.00  0.00     0.074 A 
ATOM     50  C   UNL A   1      46.536  31.097  27.761  1.00  0.00     0.029 A 
ATOM     51  N   UNL A   1      44.492  30.636  28.505  1.00  0.00    -0.354 N 
ATOM     52  N   UNL A   1      41.902  31.290  29.739  1.00  0.00    -0.248 NA
ATOM     53  C   UNL A   1      40.503  32.798  30.842  1.00  0.00     0.031 C 
ATOM     54  C   UNL A   1      46.012  32.246  28.350  1.00  0.00     0.029 A 
ATOM     55  C   UNL A   1      44.721  31.973  28.778  1.00  0.00     0.049 A 
ATOM     56  H   UNL A   1      43.663  30.151  28.717  1.00  0.00     0.167 HD
ATOM     57  C   UNL A   1      42.540  32.525  29.821  1.00  0.00     0.074 A 
ATOM     58  C   UNL A   1      41.614  33.426  30.474  1.00  0.00     0.031 C 
ATOM     59  C   UNL A   1      43.782  32.874  29.402  1.00  0.00     0.034 A 
BRANCH  46  60
ATOM     60  C   UNL A   1      47.027  28.283  26.835  1.00  0.00     0.023 A 
ATOM     61  C   UNL A   1      47.152  28.216  25.434  1.00  0.00     0.031 A 
ATOM     62  C   UNL A   1      48.098  27.811  27.617  1.00  0.00     0.131 A 
ATOM     63  C   UNL A   1      48.304  27.659  24.863  1.00  0.00     0.055 A 
ATOM     64  C   UNL A   1      49.265  27.307  27.043  1.00  0.00     0.041 A 
ATOM     65  F   UNL A   1      48.029  27.840  28.958  1.00  0.00    -0.206 F 
ATOM     66  C   UNL A   1      49.365  27.216  25.659  1.00  0.00     0.022 A 
BRANCH  63  67
ATOM     67  S   UNL A   1      48.443  27.414  23.071  1.00  0.00     0.124 S 
ATOM     68  O   UNL A   1      48.326  25.963  22.955  1.00  0.00    -0.237 OA
ATOM     69  O   UNL A   1      47.299  28.173  22.570  1.00  0.00    -0.237 OA
ATOM     70  O   UNL A   1      49.755  27.960  22.742  1.00  0.00    -0.744 OA
ENDBRANCH  63  67
ENDBRANCH  46  60
BRANCH  47  71
ATOM     71  C   UNL A   1      38.304  30.809  31.084  1.00  0.00     0.023 A 
ATOM     72  C   UNL A   1      37.289  31.413  30.321  1.00  0.00     0.031 A 
ATOM     73  C   UNL A   1      38.095  30.678  32.470  1.00  0.00     0.131 A 
ATOM     74  C   UNL A   1      36.151  31.933  30.958  1.00  0.00     0.055 A 
ATOM     75  C   UNL A   1      36.927  31.127  33.088  1.00  0.00     0.041 A 
ATOM     76  F   UNL A   1      39.040  30.123  33.246  1.00  0.00    -0.206 F 
ATOM     77  C   UNL A   1      35.956  31.777  32.333  1.00  0.00     0.022 A 
BRANCH  74  78
ATOM     78  S   UNL A   1      34.964  32.961  30.048  1.00  0.00     0.124 S 
ATOM     79  O   UNL A   1      34.079  33.420  31.115  1.00  0.00    -0.237 OA
ATOM     80  O   UNL A   1      35.835  33.980  29.469  1.00  0.00    -0.237 OA
ATOM     81  O   UNL A   1      34.370  32.035  29.088  1.00  0.00    -0.744 OA
ENDBRANCH  74  78
ENDBRANCH  47  71
BRANCH  59  82
ATOM     82  C   UNL A   1      44.251  34.294  29.608  1.00  0.00     0.023 A 
ATOM     83  C   UNL A   1      44.801  34.675  30.848  1.00  0.00     0.031 A 
ATOM     84  C   UNL A   1      43.975  35.299  28.666  1.00  0.00     0.131 A 
ATOM     85  C   UNL A   1      45.002  36.031  31.134  1.00  0.00     0.055 A 
ATOM     86  C   UNL A   1      44.227  36.644  28.936  1.00  0.00     0.041 A 
ATOM     87  F   UNL A   1      43.438  34.987  27.475  1.00  0.00    -0.206 F 
ATOM     88  C   UNL A   1      44.725  37.016  30.182  1.00  0.00     0.022 A 
BRANCH  85  89
ATOM     89  S   UNL A   1      45.523  36.570  32.786  1.00  0.00     0.124 S 
ATOM     90  O   UNL A   1      44.271  37.074  33.348  1.00  0.00    -0.237 OA
ATOM     91  O   UNL A   1      46.014  35.328  33.375  1.00  0.00    -0.237 OA
ATOM     92  O   UNL A   1      46.537  37.585  32.523  1.00  0.00    -0.744 OA
ENDBRANCH  85  89
ENDBRANCH  59  82
ENDBRANCH  33  34
ENDBRANCH  26  28
ENDBRANCH  25  26
ENDBRANCH   1  25
TORSDOF 16
ENDMDL
MODEL 3
REMARK VINA RESULT:     -12.6      5.108     10.287
REMARK SMILES CC(C)(C)c1cc2c(cc1Cl)C=C(C(=O)OCCOC(=O)c1ccc(-c3c4nc(c(-c5cc(S(=O)(=O)[O-])ccc5F)c5ccc([nH]5)c(-c5cc(S(=O)(=O)[O-])ccc5F)c5nc(c(-c6cc(S(=O)(=O)[O-])ccc6F)c6ccc3[nH]6)C=C5)C=C4)cc1)[C@@H](C(F)(F)F)O2
REMARK SMILES IDX 18 1 17 2 16 3 14 4 15 5 13 6 5 7 6 8 10 9 7 10 9 11 11 12
REMARK SMILES IDX 8 13 90 14 12 15 85 16 2 17 1 18 3 19 4 20 86 21 87 22 88 23
REMARK SMILES IDX 89 24 19 25 20 26 21 27 22 28 23 29 84 30 24 31 83 32 25 33
REMARK SMILES IDX 26 34 27 35 77 36 28 37 82 38 76 39 78 40 29 41 81 42 75 43
REMARK SMILES IDX 74 44 30 46 62 47 42 48 61 49 43 50 46 51 60 52 79 53 44 54
REMARK SMILES IDX 45 55 59 57 80 58 47 59 31 60 32 61 40 62 33 63 39 64 41 65
REMARK SMILES IDX 38 66 34 67 35 68 36 69 37 70 63 71 64 72 72 73 65 74 71 75
REMARK SMILES IDX 73 76 70 77 66 78 67 79 68 80 69 81 48 82 49 83 57 84 50 85
REMARK SMILES IDX 56 86 58 87 55 88 51 89 52 90 53 91 54 92
REMARK H PARENT 78 45 46 56
REMARK Flexibility Score: inf
ROOT
ATOM      1  C   UNL A   1      31.415  31.203  26.454  1.00  0.00     0.275 C 
ENDROOT
BRANCH   1   2
ATOM      2  C   UNL A   1      31.078  30.462  25.160  1.00  0.00     0.275 C 
BRANCH   2   3
ATOM      3  O   UNL A   1      31.228  29.032  25.308  1.00  0.00    -0.459 OA
BRANCH   3   4
ATOM      4  C   UNL A   1      30.809  28.300  24.251  1.00  0.00     0.338 C 
ATOM      5  O   UNL A   1      29.846  28.542  23.538  1.00  0.00    -0.246 OA
BRANCH   4   6
ATOM      6  C   UNL A   1      31.684  27.137  24.028  1.00  0.00     0.087 C 
ATOM      7  C   UNL A   1      34.860  23.298  24.955  1.00  0.00    -0.020 A 
ATOM      8  C   UNL A   1      34.615  24.178  23.856  1.00  0.00     0.053 A 
ATOM      9  C   UNL A   1      33.985  23.417  26.054  1.00  0.00     0.045 A 
ATOM     10  C   UNL A   1      33.588  25.125  23.853  1.00  0.00     0.128 A 
ATOM     11  C   UNL A   1      32.944  24.355  26.038  1.00  0.00     0.032 A 
ATOM     12  Cl  UNL A   1      34.078  22.527  27.530  1.00  0.00    -0.084 Cl
ATOM     13  C   UNL A   1      32.759  25.211  24.953  1.00  0.00     0.019 A 
ATOM     14  O   UNL A   1      33.468  25.929  22.753  1.00  0.00    -0.475 OA
ATOM     15  C   UNL A   1      31.751  26.241  25.016  1.00  0.00     0.027 C 
ATOM     16  C   UNL A   1      32.566  27.078  22.816  1.00  0.00     0.316 C 
BRANCH   7  17
ATOM     17  C   UNL A   1      36.086  22.358  24.843  1.00  0.00    -0.012 C 
ATOM     18  C   UNL A   1      35.637  20.883  25.006  1.00  0.00     0.016 C 
ATOM     19  C   UNL A   1      37.236  22.542  25.857  1.00  0.00     0.016 C 
ATOM     20  C   UNL A   1      36.704  22.551  23.439  1.00  0.00     0.016 C 
ENDBRANCH   7  17
BRANCH  16  21
ATOM     21  C   UNL A   1      33.395  28.360  22.642  1.00  0.00     0.430 C 
ATOM     22  F   UNL A   1      34.021  28.698  23.798  1.00  0.00    -0.167 F 
ATOM     23  F   UNL A   1      34.372  28.204  21.715  1.00  0.00    -0.167 F 
ATOM     24  F   UNL A   1      32.642  29.417  22.267  1.00  0.00    -0.167 F 
ENDBRANCH  16  21
ENDBRANCH   4   6
ENDBRANCH   3   4
ENDBRANCH   2   3
ENDBRANCH   1   2
BRANCH   1  25
ATOM     25  O   UNL A   1      32.749  30.893  26.895  1.00  0.00    -0.458 OA
BRANCH  25  26
ATOM     26  C   UNL A   1      33.436  31.937  27.411  1.00  0.00     0.338 C 
ATOM     27  O   UNL A   1      33.016  33.062  27.625  1.00  0.00    -0.246 OA
BRANCH  26  28
ATOM     28  C   UNL A   1      34.792  31.513  27.786  1.00  0.00     0.060 A 
ATOM     29  C   UNL A   1      35.787  32.442  28.062  1.00  0.00     0.016 A 
ATOM     30  C   UNL A   1      35.007  30.166  28.051  1.00  0.00     0.016 A 
ATOM     31  C   UNL A   1      36.998  32.000  28.612  1.00  0.00     0.010 A 
ATOM     32  C   UNL A   1      36.129  29.761  28.766  1.00  0.00     0.010 A 
ATOM     33  C   UNL A   1      37.167  30.661  29.024  1.00  0.00    -0.014 A 
BRANCH  33  34
ATOM     34  C   UNL A   1      38.410  30.200  29.718  1.00  0.00     0.031 A 
ATOM     35  C   UNL A   1      38.730  30.650  31.128  1.00  0.00     0.074 A 
ATOM     36  C   UNL A   1      39.287  29.409  29.063  1.00  0.00     0.049 A 
ATOM     37  N   UNL A   1      39.759  30.343  31.877  1.00  0.00    -0.248 NA
ATOM     38  C   UNL A   1      37.807  31.604  31.767  1.00  0.00     0.031 C 
ATOM     39  C   UNL A   1      39.164  28.999  27.664  1.00  0.00     0.029 A 
ATOM     40  N   UNL A   1      40.445  28.796  29.481  1.00  0.00    -0.354 N 
ATOM     41  C   UNL A   1      39.617  31.084  33.048  1.00  0.00     0.074 A 
ATOM     42  C   UNL A   1      38.457  31.923  32.875  1.00  0.00     0.031 C 
ATOM     43  C   UNL A   1      40.148  28.140  27.366  1.00  0.00     0.029 A 
ATOM     44  C   UNL A   1      41.013  27.976  28.531  1.00  0.00     0.049 A 
ATOM     45  H   UNL A   1      40.832  28.932  30.377  1.00  0.00     0.167 HD
ATOM     46  C   UNL A   1      40.352  31.033  34.185  1.00  0.00     0.034 A 
ATOM     47  C   UNL A   1      42.095  27.170  28.589  1.00  0.00     0.034 A 
ATOM     48  C   UNL A   1      41.462  30.138  34.372  1.00  0.00     0.049 A 
ATOM     49  C   UNL A   1      42.857  27.070  29.887  1.00  0.00     0.074 A 
ATOM     50  C   UNL A   1      42.210  29.934  35.517  1.00  0.00     0.029 A 
ATOM     51  N   UNL A   1      41.972  29.287  33.402  1.00  0.00    -0.354 N 
ATOM     52  N   UNL A   1      42.631  27.688  31.022  1.00  0.00    -0.248 NA
ATOM     53  C   UNL A   1      44.008  26.157  29.924  1.00  0.00     0.031 C 
ATOM     54  C   UNL A   1      43.207  29.006  35.225  1.00  0.00     0.029 A 
ATOM     55  C   UNL A   1      43.037  28.570  33.920  1.00  0.00     0.049 A 
ATOM     56  H   UNL A   1      41.629  29.206  32.484  1.00  0.00     0.167 HD
ATOM     57  C   UNL A   1      43.595  27.224  31.913  1.00  0.00     0.074 A 
ATOM     58  C   UNL A   1      44.390  26.251  31.192  1.00  0.00     0.031 C 
ATOM     59  C   UNL A   1      43.806  27.580  33.205  1.00  0.00     0.034 A 
BRANCH  46  60
ATOM     60  C   UNL A   1      39.954  31.909  35.353  1.00  0.00     0.023 A 
ATOM     61  C   UNL A   1      39.081  31.418  36.343  1.00  0.00     0.031 A 
ATOM     62  C   UNL A   1      40.326  33.265  35.414  1.00  0.00     0.131 A 
ATOM     63  C   UNL A   1      38.585  32.285  37.327  1.00  0.00     0.055 A 
ATOM     64  C   UNL A   1      39.873  34.109  36.427  1.00  0.00     0.041 A 
ATOM     65  F   UNL A   1      41.147  33.790  34.489  1.00  0.00    -0.206 F 
ATOM     66  C   UNL A   1      38.986  33.624  37.382  1.00  0.00     0.022 A 
BRANCH  63  67
ATOM     67  S   UNL A   1      37.344  31.733  38.530  1.00  0.00     0.124 S 
ATOM     68  O   UNL A   1      38.070  31.861  39.791  1.00  0.00    -0.237 OA
ATOM     69  O   UNL A   1      36.272  32.705  38.327  1.00  0.00    -0.237 OA
ATOM     70  O   UNL A   1      37.042  30.366  38.122  1.00  0.00    -0.744 OA
ENDBRANCH  63  67
ENDBRANCH  46  60
BRANCH  47  71
ATOM     71  C   UNL A   1      42.437  26.327  27.403  1.00  0.00     0.023 A 
ATOM     72  C   UNL A   1      41.978  25.002  27.291  1.00  0.00     0.031 A 
ATOM     73  C   UNL A   1      43.337  26.795  26.428  1.00  0.00     0.131 A 
ATOM     74  C   UNL A   1      42.480  24.172  26.278  1.00  0.00     0.055 A 
ATOM     75  C   UNL A   1      43.774  25.989  25.376  1.00  0.00     0.041 A 
ATOM     76  F   UNL A   1      43.818  28.047  26.497  1.00  0.00    -0.206 F 
ATOM     77  C   UNL A   1      43.361  24.662  25.309  1.00  0.00     0.022 A 
BRANCH  74  78
ATOM     78  S   UNL A   1      42.127  22.391  26.273  1.00  0.00     0.124 S 
ATOM     79  O   UNL A   1      42.714  21.962  27.539  1.00  0.00    -0.237 OA
ATOM     80  O   UNL A   1      40.668  22.377  26.217  1.00  0.00    -0.237 OA
ATOM     81  O   UNL A   1      42.798  21.910  25.070  1.00  0.00    -0.744 OA
ENDBRANCH  74  78
ENDBRANCH  47  71
BRANCH  59  82
ATOM     82  C   UNL A   1      44.931  26.925  33.969  1.00  0.00     0.023 A 
ATOM     83  C   UNL A   1      44.678  25.761  34.722  1.00  0.00     0.031 A 
ATOM     84  C   UNL A   1      46.179  27.552  34.113  1.00  0.00     0.131 A 
ATOM     85  C   UNL A   1      45.639  25.295  35.627  1.00  0.00     0.055 A 
ATOM     86  C   UNL A   1      47.154  27.053  34.977  1.00  0.00     0.041 A 
ATOM     87  F   UNL A   1      46.462  28.672  33.428  1.00  0.00    -0.206 F 
ATOM     88  C   UNL A   1      46.878  25.930  35.753  1.00  0.00     0.022 A 
BRANCH  85  89
ATOM     89  S   UNL A   1      45.275  23.918  36.750  1.00  0.00     0.124 S 
ATOM     90  O   UNL A   1      44.529  23.009  35.882  1.00  0.00    -0.237 OA
ATOM     91  O   UNL A   1      46.611  23.464  37.124  1.00  0.00    -0.237 OA
ATOM     92  O   UNL A   1      44.496  24.530  37.822  1.00  0.00    -0.744 OA
ENDBRANCH  85  89
ENDBRANCH  59  82
ENDBRANCH  33  34
ENDBRANCH  26  28
ENDBRANCH  25  26
ENDBRANCH   1  25
TORSDOF 16
ENDMDL
