MODEL 1
REMARK VINA RESULT:     -10.9      0.000      0.000
REMARK SMILES Nc1c(Cl)ccc2c1C=C(C(=O)OCCOC(=O)c1ccc(-c3c4nc(c(-c5cc(S(=O)(=O)[O-])ccc5F)c5ccc([nH]5)c(-c5cc(S(=O)(=O)[O-])ccc5F)c5nc(c(-c6cc(S(=O)(=O)[O-])ccc6F)c6ccc3[nH]6)C=C5)C=C4)cc1)[C@@H](C(F)(F)F)O2
REMARK SMILES IDX 15 1 14 2 13 3 11 4 12 5 10 6 2 7 3 8 8 9 4 10 5 11 7 12
REMARK SMILES IDX 9 13 6 14 87 15 82 16 1 17 83 20 84 21 85 22 86 23 16 24
REMARK SMILES IDX 17 25 18 26 19 27 20 28 81 29 21 30 80 31 22 32 23 33 24 34
REMARK SMILES IDX 74 35 25 36 79 37 73 38 75 39 26 40 78 41 72 42 71 43 27 45
REMARK SMILES IDX 59 46 39 47 58 48 40 49 43 50 57 51 76 52 41 53 42 54 56 56
REMARK SMILES IDX 77 57 44 58 28 59 29 60 37 61 30 62 36 63 38 64 35 65 31 66
REMARK SMILES IDX 32 67 33 68 34 69 60 70 61 71 69 72 62 73 68 74 70 75 67 76
REMARK SMILES IDX 63 77 64 78 65 79 66 80 45 81 46 82 54 83 47 84 53 85 55 86
REMARK SMILES IDX 52 87 48 88 49 89 50 90 51 91
REMARK H PARENT 1 18 1 19 75 44 43 55
REMARK Flexibility Score: inf
ROOT
ATOM      1  C   UNL A   1      41.042  19.895  26.476  1.00  0.00     0.275 C 
ENDROOT
BRANCH   1   2
ATOM      2  C   UNL A   1      42.503  19.953  26.925  1.00  0.00     0.275 C 
BRANCH   2   3
ATOM      3  O   UNL A   1      43.353  20.468  25.878  1.00  0.00    -0.459 OA
BRANCH   3   4
ATOM      4  C   UNL A   1      43.289  21.809  25.684  1.00  0.00     0.338 C 
ATOM      5  O   UNL A   1      42.430  22.411  25.066  1.00  0.00    -0.246 OA
BRANCH   4   6
ATOM      6  C   UNL A   1      44.427  22.476  26.346  1.00  0.00     0.088 C 
ATOM      7  C   UNL A   1      45.074  24.585  29.338  1.00  0.00     0.061 A 
ATOM      8  C   UNL A   1      46.109  25.431  29.783  1.00  0.00     0.064 A 
ATOM      9  C   UNL A   1      45.272  23.861  28.138  1.00  0.00     0.042 A 
ATOM     10  Cl  UNL A   1      45.909  26.411  31.195  1.00  0.00    -0.082 Cl
ATOM     11  C   UNL A   1      47.333  25.487  29.115  1.00  0.00     0.026 A 
ATOM     12  C   UNL A   1      46.508  23.915  27.478  1.00  0.00     0.130 A 
ATOM     13  C   UNL A   1      44.204  23.086  27.516  1.00  0.00     0.029 C 
ATOM     14  C   UNL A   1      47.538  24.715  27.974  1.00  0.00     0.049 A 
ATOM     15  O   UNL A   1      46.807  23.208  26.345  1.00  0.00    -0.475 OA
ATOM     16  C   UNL A   1      45.730  22.560  25.616  1.00  0.00     0.316 C 
BRANCH   7  17
ATOM     17  N   UNL A   1      43.852  24.548  30.025  1.00  0.00    -0.397 N 
ATOM     18  H   UNL A   1      43.774  24.966  30.914  1.00  0.00     0.156 HD
ATOM     19  H   UNL A   1      43.071  24.106  29.620  1.00  0.00     0.156 HD
ENDBRANCH   7  17
BRANCH  16  20
ATOM     20  C   UNL A   1      45.561  23.260  24.258  1.00  0.00     0.430 C 
ATOM     21  F   UNL A   1      44.847  24.406  24.379  1.00  0.00    -0.167 F 
ATOM     22  F   UNL A   1      46.755  23.611  23.721  1.00  0.00    -0.167 F 
ATOM     23  F   UNL A   1      44.924  22.483  23.352  1.00  0.00    -0.167 F 
ENDBRANCH  16  20
ENDBRANCH   4   6
ENDBRANCH   3   4
ENDBRANCH   2   3
ENDBRANCH   1   2
BRANCH   1  24
ATOM     24  O   UNL A   1      40.244  20.822  27.232  1.00  0.00    -0.458 OA
BRANCH  24  25
ATOM     25  C   UNL A   1      39.559  21.717  26.488  1.00  0.00     0.338 C 
ATOM     26  O   UNL A   1      38.836  21.487  25.532  1.00  0.00    -0.246 OA
BRANCH  25  27
ATOM     27  C   UNL A   1      39.741  23.071  27.026  1.00  0.00     0.060 A 
ATOM     28  C   UNL A   1      39.187  24.149  26.342  1.00  0.00     0.016 A 
ATOM     29  C   UNL A   1      40.619  23.285  28.085  1.00  0.00     0.016 A 
ATOM     30  C   UNL A   1      39.636  25.438  26.605  1.00  0.00     0.010 A 
ATOM     31  C   UNL A   1      40.962  24.594  28.437  1.00  0.00     0.010 A 
ATOM     32  C   UNL A   1      40.524  25.682  27.663  1.00  0.00    -0.014 A 
BRANCH  32  33
ATOM     33  C   UNL A   1      40.998  27.065  27.948  1.00  0.00     0.031 A 
ATOM     34  C   UNL A   1      42.408  27.479  27.609  1.00  0.00     0.074 A 
ATOM     35  C   UNL A   1      40.162  27.954  28.521  1.00  0.00     0.049 A 
ATOM     36  N   UNL A   1      43.033  28.587  27.907  1.00  0.00    -0.248 NA
ATOM     37  C   UNL A   1      43.226  26.520  26.848  1.00  0.00     0.031 C 
ATOM     38  C   UNL A   1      38.767  27.689  28.873  1.00  0.00     0.029 A 
ATOM     39  N   UNL A   1      40.357  29.258  28.909  1.00  0.00    -0.354 N 
ATOM     40  C   UNL A   1      44.331  28.437  27.429  1.00  0.00     0.074 A 
ATOM     41  C   UNL A   1      44.405  27.128  26.821  1.00  0.00     0.031 C 
ATOM     42  C   UNL A   1      38.223  28.798  29.389  1.00  0.00     0.029 A 
ATOM     43  C   UNL A   1      39.255  29.823  29.504  1.00  0.00     0.049 A 
ATOM     44  H   UNL A   1      41.205  29.740  28.774  1.00  0.00     0.167 HD
ATOM     45  C   UNL A   1      45.360  29.313  27.494  1.00  0.00     0.034 A 
ATOM     46  C   UNL A   1      39.089  31.011  30.121  1.00  0.00     0.034 A 
ATOM     47  C   UNL A   1      45.254  30.637  28.053  1.00  0.00     0.049 A 
ATOM     48  C   UNL A   1      40.246  31.965  30.188  1.00  0.00     0.074 A 
ATOM     49  C   UNL A   1      46.227  31.620  28.106  1.00  0.00     0.029 A 
ATOM     50  N   UNL A   1      44.117  31.168  28.646  1.00  0.00    -0.354 N 
ATOM     51  N   UNL A   1      41.460  31.813  29.715  1.00  0.00    -0.248 NA
ATOM     52  C   UNL A   1      40.022  33.245  30.871  1.00  0.00     0.031 C 
ATOM     53  C   UNL A   1      45.703  32.715  28.793  1.00  0.00     0.029 A 
ATOM     54  C   UNL A   1      44.378  32.450  29.100  1.00  0.00     0.049 A 
ATOM     55  H   UNL A   1      43.255  30.702  28.733  1.00  0.00     0.167 HD
ATOM     56  C   UNL A   1      42.142  32.983  30.029  1.00  0.00     0.074 A 
ATOM     57  C   UNL A   1      41.198  33.842  30.716  1.00  0.00     0.031 C 
ATOM     58  C   UNL A   1      43.433  33.308  29.773  1.00  0.00     0.034 A 
BRANCH  45  59
ATOM     59  C   UNL A   1      46.712  28.896  26.970  1.00  0.00     0.023 A 
ATOM     60  C   UNL A   1      46.857  28.596  25.601  1.00  0.00     0.031 A 
ATOM     61  C   UNL A   1      47.802  28.661  27.822  1.00  0.00     0.131 A 
ATOM     62  C   UNL A   1      48.051  28.036  25.133  1.00  0.00     0.055 A 
ATOM     63  C   UNL A   1      49.007  28.141  27.342  1.00  0.00     0.041 A 
ATOM     64  F   UNL A   1      47.715  28.935  29.133  1.00  0.00    -0.206 F 
ATOM     65  C   UNL A   1      49.129  27.813  25.995  1.00  0.00     0.022 A 
BRANCH  62  66
ATOM     66  S   UNL A   1      48.229  27.528  23.401  1.00  0.00     0.124 S 
ATOM     67  O   UNL A   1      48.030  26.083  23.488  1.00  0.00    -0.237 OA
ATOM     68  O   UNL A   1      47.149  28.268  22.755  1.00  0.00    -0.237 OA
ATOM     69  O   UNL A   1      49.582  27.945  23.050  1.00  0.00    -0.744 OA
ENDBRANCH  62  66
ENDBRANCH  45  59
BRANCH  46  70
ATOM     70  C   UNL A   1      37.755  31.328  30.705  1.00  0.00     0.023 A 
ATOM     71  C   UNL A   1      36.785  32.008  29.945  1.00  0.00     0.031 A 
ATOM     72  C   UNL A   1      37.494  31.101  32.065  1.00  0.00     0.131 A 
ATOM     73  C   UNL A   1      35.645  32.522  30.572  1.00  0.00     0.055 A 
ATOM     74  C   UNL A   1      36.319  31.552  32.671  1.00  0.00     0.041 A 
ATOM     75  F   UNL A   1      38.394  30.462  32.829  1.00  0.00    -0.206 F 
ATOM     76  C   UNL A   1      35.398  32.285  31.928  1.00  0.00     0.022 A 
BRANCH  73  77
ATOM     77  S   UNL A   1      34.515  33.626  29.680  1.00  0.00     0.124 S 
ATOM     78  O   UNL A   1      33.710  34.183  30.764  1.00  0.00    -0.237 OA
ATOM     79  O   UNL A   1      35.448  34.554  29.046  1.00  0.00    -0.237 OA
ATOM     80  O   UNL A   1      33.808  32.733  28.769  1.00  0.00    -0.744 OA
ENDBRANCH  73  77
ENDBRANCH  46  70
BRANCH  58  81
ATOM     81  C   UNL A   1      43.938  34.658  30.214  1.00  0.00     0.023 A 
ATOM     82  C   UNL A   1      43.770  35.775  29.373  1.00  0.00     0.031 A 
ATOM     83  C   UNL A   1      44.720  34.804  31.371  1.00  0.00     0.131 A 
ATOM     84  C   UNL A   1      44.418  36.976  29.675  1.00  0.00     0.055 A 
ATOM     85  C   UNL A   1      45.326  36.019  31.693  1.00  0.00     0.041 A 
ATOM     86  F   UNL A   1      44.913  33.766  32.200  1.00  0.00    -0.206 F 
ATOM     87  C   UNL A   1      45.189  37.108  30.836  1.00  0.00     0.022 A 
BRANCH  84  88
ATOM     88  S   UNL A   1      44.347  38.387  28.537  1.00  0.00     0.124 S 
ATOM     89  O   UNL A   1      45.573  39.108  28.871  1.00  0.00    -0.237 OA
ATOM     90  O   UNL A   1      44.346  37.729  27.234  1.00  0.00    -0.237 OA
ATOM     91  O   UNL A   1      43.110  39.070  28.899  1.00  0.00    -0.744 OA
ENDBRANCH  84  88
ENDBRANCH  58  81
ENDBRANCH  32  33
ENDBRANCH  25  27
ENDBRANCH  24  25
ENDBRANCH   1  24
TORSDOF 16
ENDMDL
MODEL 2
REMARK VINA RESULT:     -10.6      0.689      7.612
REMARK SMILES Nc1c(Cl)ccc2c1C=C(C(=O)OCCOC(=O)c1ccc(-c3c4nc(c(-c5cc(S(=O)(=O)[O-])ccc5F)c5ccc([nH]5)c(-c5cc(S(=O)(=O)[O-])ccc5F)c5nc(c(-c6cc(S(=O)(=O)[O-])ccc6F)c6ccc3[nH]6)C=C5)C=C4)cc1)[C@@H](C(F)(F)F)O2
REMARK SMILES IDX 15 1 14 2 13 3 11 4 12 5 10 6 2 7 3 8 8 9 4 10 5 11 7 12
REMARK SMILES IDX 9 13 6 14 87 15 82 16 1 17 83 20 84 21 85 22 86 23 16 24
REMARK SMILES IDX 17 25 18 26 19 27 20 28 81 29 21 30 80 31 22 32 23 33 24 34
REMARK SMILES IDX 74 35 25 36 79 37 73 38 75 39 26 40 78 41 72 42 71 43 27 45
REMARK SMILES IDX 59 46 39 47 58 48 40 49 43 50 57 51 76 52 41 53 42 54 56 56
REMARK SMILES IDX 77 57 44 58 28 59 29 60 37 61 30 62 36 63 38 64 35 65 31 66
REMARK SMILES IDX 32 67 33 68 34 69 60 70 61 71 69 72 62 73 68 74 70 75 67 76
REMARK SMILES IDX 63 77 64 78 65 79 66 80 45 81 46 82 54 83 47 84 53 85 55 86
REMARK SMILES IDX 52 87 48 88 49 89 50 90 51 91
REMARK H PARENT 1 18 1 19 75 44 43 55
REMARK Flexibility Score: inf
ROOT
ATOM      1  C   UNL A   1      40.349  19.973  25.982  1.00  0.00     0.275 C 
ENDROOT
BRANCH   1   2
ATOM      2  C   UNL A   1      41.872  19.947  26.113  1.00  0.00     0.275 C 
BRANCH   2   3
ATOM      3  O   UNL A   1      42.429  21.276  26.027  1.00  0.00    -0.459 OA
BRANCH   3   4
ATOM      4  C   UNL A   1      43.709  21.344  25.585  1.00  0.00     0.338 C 
ATOM      5  O   UNL A   1      44.168  20.786  24.605  1.00  0.00    -0.246 OA
BRANCH   4   6
ATOM      6  C   UNL A   1      44.508  22.219  26.466  1.00  0.00     0.088 C 
ATOM      7  C   UNL A   1      44.347  23.623  29.903  1.00  0.00     0.061 A 
ATOM      8  C   UNL A   1      44.977  24.669  30.606  1.00  0.00     0.064 A 
ATOM      9  C   UNL A   1      44.785  23.346  28.586  1.00  0.00     0.042 A 
ATOM     10  Cl  UNL A   1      44.443  25.123  32.189  1.00  0.00    -0.082 Cl
ATOM     11  C   UNL A   1      46.062  25.355  30.060  1.00  0.00     0.026 A 
ATOM     12  C   UNL A   1      45.882  24.032  28.048  1.00  0.00     0.130 A 
ATOM     13  C   UNL A   1      44.092  22.393  27.725  1.00  0.00     0.029 C 
ATOM     14  C   UNL A   1      46.526  25.023  28.790  1.00  0.00     0.049 A 
ATOM     15  O   UNL A   1      46.407  23.792  26.807  1.00  0.00    -0.475 OA
ATOM     16  C   UNL A   1      45.655  22.974  25.871  1.00  0.00     0.316 C 
BRANCH   7  17
ATOM     17  N   UNL A   1      43.256  22.951  30.473  1.00  0.00    -0.397 N 
ATOM     18  H   UNL A   1      42.451  22.772  29.933  1.00  0.00     0.156 HD
ATOM     19  H   UNL A   1      43.293  22.657  31.412  1.00  0.00     0.156 HD
ENDBRANCH   7  17
BRANCH  16  20
ATOM     20  C   UNL A   1      45.189  23.859  24.704  1.00  0.00     0.430 C 
ATOM     21  F   UNL A   1      45.767  25.085  24.753  1.00  0.00    -0.167 F 
ATOM     22  F   UNL A   1      45.529  23.328  23.503  1.00  0.00    -0.167 F 
ATOM     23  F   UNL A   1      43.850  24.046  24.698  1.00  0.00    -0.167 F 
ENDBRANCH  16  20
ENDBRANCH   4   6
ENDBRANCH   3   4
ENDBRANCH   2   3
ENDBRANCH   1   2
BRANCH   1  24
ATOM     24  O   UNL A   1      39.781  20.938  26.884  1.00  0.00    -0.458 OA
BRANCH  24  25
ATOM     25  C   UNL A   1      39.136  21.963  26.284  1.00  0.00     0.338 C 
ATOM     26  O   UNL A   1      38.356  21.901  25.349  1.00  0.00    -0.246 OA
BRANCH  25  27
ATOM     27  C   UNL A   1      39.448  23.226  26.963  1.00  0.00     0.060 A 
ATOM     28  C   UNL A   1      38.854  24.400  26.511  1.00  0.00     0.016 A 
ATOM     29  C   UNL A   1      40.471  23.274  27.907  1.00  0.00     0.016 A 
ATOM     30  C   UNL A   1      39.390  25.630  26.874  1.00  0.00     0.010 A 
ATOM     31  C   UNL A   1      40.914  24.514  28.375  1.00  0.00     0.010 A 
ATOM     32  C   UNL A   1      40.423  25.707  27.819  1.00  0.00    -0.014 A 
BRANCH  32  33
ATOM     33  C   UNL A   1      40.991  27.027  28.212  1.00  0.00     0.031 A 
ATOM     34  C   UNL A   1      40.132  28.060  28.898  1.00  0.00     0.074 A 
ATOM     35  C   UNL A   1      42.283  27.306  27.947  1.00  0.00     0.049 A 
ATOM     36  N   UNL A   1      40.413  29.303  29.187  1.00  0.00    -0.248 NA
ATOM     37  C   UNL A   1      38.776  27.647  29.300  1.00  0.00     0.031 C 
ATOM     38  C   UNL A   1      43.228  26.386  27.314  1.00  0.00     0.029 A 
ATOM     39  N   UNL A   1      43.028  28.438  28.174  1.00  0.00    -0.354 N 
ATOM     40  C   UNL A   1      39.257  29.838  29.746  1.00  0.00     0.074 A 
ATOM     41  C   UNL A   1      38.267  28.785  29.754  1.00  0.00     0.031 C 
ATOM     42  C   UNL A   1      44.429  26.971  27.235  1.00  0.00     0.029 A 
ATOM     43  C   UNL A   1      44.320  28.344  27.714  1.00  0.00     0.049 A 
ATOM     44  H   UNL A   1      42.671  29.239  28.622  1.00  0.00     0.167 HD
ATOM     45  C   UNL A   1      39.047  31.093  30.207  1.00  0.00     0.034 A 
ATOM     46  C   UNL A   1      45.303  29.264  27.634  1.00  0.00     0.034 A 
ATOM     47  C   UNL A   1      40.062  32.115  30.244  1.00  0.00     0.049 A 
ATOM     48  C   UNL A   1      45.047  30.652  28.145  1.00  0.00     0.074 A 
ATOM     49  C   UNL A   1      39.959  33.399  30.752  1.00  0.00     0.029 A 
ATOM     50  N   UNL A   1      41.357  31.977  29.766  1.00  0.00    -0.354 N 
ATOM     51  N   UNL A   1      43.954  31.136  28.685  1.00  0.00    -0.248 NA
ATOM     52  C   UNL A   1      46.144  31.621  28.035  1.00  0.00     0.031 C 
ATOM     53  C   UNL A   1      41.166  34.058  30.518  1.00  0.00     0.029 A 
ATOM     54  C   UNL A   1      42.050  33.164  29.935  1.00  0.00     0.049 A 
ATOM     55  H   UNL A   1      41.727  31.158  29.365  1.00  0.00     0.167 HD
ATOM     56  C   UNL A   1      44.234  32.461  28.994  1.00  0.00     0.074 A 
ATOM     57  C   UNL A   1      45.608  32.698  28.598  1.00  0.00     0.031 C 
ATOM     58  C   UNL A   1      43.423  33.394  29.551  1.00  0.00     0.034 A 
BRANCH  45  59
ATOM     59  C   UNL A   1      37.673  31.472  30.702  1.00  0.00     0.023 A 
ATOM     60  C   UNL A   1      36.790  32.146  29.837  1.00  0.00     0.031 A 
ATOM     61  C   UNL A   1      37.290  31.300  32.042  1.00  0.00     0.131 A 
ATOM     62  C   UNL A   1      35.587  32.663  30.332  1.00  0.00     0.055 A 
ATOM     63  C   UNL A   1      36.069  31.781  32.521  1.00  0.00     0.041 A 
ATOM     64  F   UNL A   1      38.095  30.660  32.905  1.00  0.00    -0.206 F 
ATOM     65  C   UNL A   1      35.219  32.478  31.668  1.00  0.00     0.022 A 
BRANCH  62  66
ATOM     66  S   UNL A   1      34.483  33.637  29.273  1.00  0.00     0.124 S 
ATOM     67  O   UNL A   1      33.924  32.611  28.395  1.00  0.00    -0.237 OA
ATOM     68  O   UNL A   1      33.550  34.201  30.244  1.00  0.00    -0.237 OA
ATOM     69  O   UNL A   1      35.373  34.591  28.621  1.00  0.00    -0.744 OA
ENDBRANCH  62  66
ENDBRANCH  45  59
BRANCH  46  70
ATOM     70  C   UNL A   1      46.611  28.856  27.046  1.00  0.00     0.023 A 
ATOM     71  C   UNL A   1      46.749  28.692  25.655  1.00  0.00     0.031 A 
ATOM     72  C   UNL A   1      47.680  28.473  27.870  1.00  0.00     0.131 A 
ATOM     73  C   UNL A   1      47.892  28.071  25.139  1.00  0.00     0.055 A 
ATOM     74  C   UNL A   1      48.849  27.920  27.343  1.00  0.00     0.041 A 
ATOM     75  F   UNL A   1      47.588  28.606  29.202  1.00  0.00    -0.206 F 
ATOM     76  C   UNL A   1      48.950  27.697  25.973  1.00  0.00     0.022 A 
BRANCH  73  77
ATOM     77  S   UNL A   1      47.982  27.606  23.387  1.00  0.00     0.124 S 
ATOM     78  O   UNL A   1      49.260  28.185  22.981  1.00  0.00    -0.237 OA
ATOM     79  O   UNL A   1      47.947  26.148  23.466  1.00  0.00    -0.237 OA
ATOM     80  O   UNL A   1      46.799  28.228  22.803  1.00  0.00    -0.744 OA
ENDBRANCH  73  77
ENDBRANCH  46  70
BRANCH  58  81
ATOM     81  C   UNL A   1      43.972  34.775  29.796  1.00  0.00     0.023 A 
ATOM     82  C   UNL A   1      43.976  35.719  28.751  1.00  0.00     0.031 A 
ATOM     83  C   UNL A   1      44.633  35.099  30.992  1.00  0.00     0.131 A 
ATOM     84  C   UNL A   1      44.672  36.923  28.904  1.00  0.00     0.055 A 
ATOM     85  C   UNL A   1      45.286  36.321  31.157  1.00  0.00     0.041 A 
ATOM     86  F   UNL A   1      44.661  34.228  32.013  1.00  0.00    -0.206 F 
ATOM     87  C   UNL A   1      45.320  37.233  30.105  1.00  0.00     0.022 A 
BRANCH  84  88
ATOM     88  S   UNL A   1      44.825  38.094  27.528  1.00  0.00     0.124 S 
ATOM     89  O   UNL A   1      43.437  38.241  27.098  1.00  0.00    -0.237 OA
ATOM     90  O   UNL A   1      45.402  39.264  28.185  1.00  0.00    -0.237 OA
ATOM     91  O   UNL A   1      45.698  37.411  26.578  1.00  0.00    -0.744 OA
ENDBRANCH  84  88
ENDBRANCH  58  81
ENDBRANCH  32  33
ENDBRANCH  25  27
ENDBRANCH  24  25
ENDBRANCH   1  24
TORSDOF 16
ENDMDL
MODEL 3
REMARK VINA RESULT:     -10.5      3.945      9.625
REMARK SMILES Nc1c(Cl)ccc2c1C=C(C(=O)OCCOC(=O)c1ccc(-c3c4nc(c(-c5cc(S(=O)(=O)[O-])ccc5F)c5ccc([nH]5)c(-c5cc(S(=O)(=O)[O-])ccc5F)c5nc(c(-c6cc(S(=O)(=O)[O-])ccc6F)c6ccc3[nH]6)C=C5)C=C4)cc1)[C@@H](C(F)(F)F)O2
REMARK SMILES IDX 15 1 14 2 13 3 11 4 12 5 10 6 2 7 3 8 8 9 4 10 5 11 7 12
REMARK SMILES IDX 9 13 6 14 87 15 82 16 1 17 83 20 84 21 85 22 86 23 16 24
REMARK SMILES IDX 17 25 18 26 19 27 20 28 81 29 21 30 80 31 22 32 23 33 24 34
REMARK SMILES IDX 74 35 25 36 79 37 73 38 75 39 26 40 78 41 72 42 71 43 27 45
REMARK SMILES IDX 59 46 39 47 58 48 40 49 43 50 57 51 76 52 41 53 42 54 56 56
REMARK SMILES IDX 77 57 44 58 28 59 29 60 37 61 30 62 36 63 38 64 35 65 31 66
REMARK SMILES IDX 32 67 33 68 34 69 60 70 61 71 69 72 62 73 68 74 70 75 67 76
REMARK SMILES IDX 63 77 64 78 65 79 66 80 45 81 46 82 54 83 47 84 53 85 55 86
REMARK SMILES IDX 52 87 48 88 49 89 50 90 51 91
REMARK H PARENT 1 18 1 19 75 44 43 55
REMARK Flexibility Score: inf
ROOT
ATOM      1  C   UNL A   1      37.243  20.503  24.990  1.00  0.00     0.275 C 
ENDROOT
BRANCH   1   2
ATOM      2  C   UNL A   1      35.836  20.966  25.371  1.00  0.00     0.275 C 
BRANCH   2   3
ATOM      3  O   UNL A   1      35.800  22.390  25.610  1.00  0.00    -0.459 OA
BRANCH   3   4
ATOM      4  C   UNL A   1      34.572  22.907  25.859  1.00  0.00     0.338 C 
ATOM      5  O   UNL A   1      33.747  22.472  26.642  1.00  0.00    -0.246 OA
BRANCH   4   6
ATOM      6  C   UNL A   1      34.350  24.116  25.041  1.00  0.00     0.088 C 
ATOM      7  C   UNL A   1      33.331  27.659  25.509  1.00  0.00     0.061 A 
ATOM      8  C   UNL A   1      32.861  28.701  24.684  1.00  0.00     0.064 A 
ATOM      9  C   UNL A   1      33.714  26.443  24.894  1.00  0.00     0.042 A 
ATOM     10  Cl  UNL A   1      32.296  30.187  25.367  1.00  0.00    -0.082 Cl
ATOM     11  C   UNL A   1      32.857  28.576  23.294  1.00  0.00     0.026 A 
ATOM     12  C   UNL A   1      33.717  26.329  23.497  1.00  0.00     0.130 A 
ATOM     13  C   UNL A   1      34.061  25.259  25.673  1.00  0.00     0.029 C 
ATOM     14  C   UNL A   1      33.304  27.398  22.702  1.00  0.00     0.049 A 
ATOM     15  O   UNL A   1      34.123  25.213  22.817  1.00  0.00    -0.475 OA
ATOM     16  C   UNL A   1      34.319  23.974  23.551  1.00  0.00     0.316 C 
BRANCH   7  17
ATOM     17  N   UNL A   1      33.321  27.808  26.903  1.00  0.00    -0.397 N 
ATOM     18  H   UNL A   1      33.210  27.019  27.482  1.00  0.00     0.156 HD
ATOM     19  H   UNL A   1      33.426  28.701  27.304  1.00  0.00     0.156 HD
ENDBRANCH   7  17
BRANCH  16  20
ATOM     20  C   UNL A   1      33.248  22.963  23.112  1.00  0.00     0.430 C 
ATOM     21  F   UNL A   1      32.105  23.114  23.826  1.00  0.00    -0.167 F 
ATOM     22  F   UNL A   1      32.906  23.126  21.811  1.00  0.00    -0.167 F 
ATOM     23  F   UNL A   1      33.652  21.682  23.267  1.00  0.00    -0.167 F 
ENDBRANCH  16  20
ENDBRANCH   4   6
ENDBRANCH   3   4
ENDBRANCH   2   3
ENDBRANCH   1   2
BRANCH   1  24
ATOM     24  O   UNL A   1      38.182  21.586  25.110  1.00  0.00    -0.458 OA
BRANCH  24  25
ATOM     25  C   UNL A   1      39.219  21.347  25.942  1.00  0.00     0.338 C 
ATOM     26  O   UNL A   1      39.829  20.299  26.083  1.00  0.00    -0.246 OA
BRANCH  25  27
ATOM     27  C   UNL A   1      39.594  22.574  26.654  1.00  0.00     0.060 A 
ATOM     28  C   UNL A   1      39.067  23.789  26.227  1.00  0.00     0.016 A 
ATOM     29  C   UNL A   1      40.612  22.544  27.604  1.00  0.00     0.016 A 
ATOM     30  C   UNL A   1      39.666  24.980  26.623  1.00  0.00     0.010 A 
ATOM     31  C   UNL A   1      41.118  23.747  28.104  1.00  0.00     0.010 A 
ATOM     32  C   UNL A   1      40.695  24.978  27.574  1.00  0.00    -0.014 A 
BRANCH  32  33
ATOM     33  C   UNL A   1      41.331  26.255  28.003  1.00  0.00     0.031 A 
ATOM     34  C   UNL A   1      40.539  27.290  28.763  1.00  0.00     0.074 A 
ATOM     35  C   UNL A   1      42.623  26.494  27.703  1.00  0.00     0.049 A 
ATOM     36  N   UNL A   1      40.882  28.506  29.095  1.00  0.00    -0.248 NA
ATOM     37  C   UNL A   1      39.183  26.914  29.197  1.00  0.00     0.031 C 
ATOM     38  C   UNL A   1      43.507  25.565  26.997  1.00  0.00     0.029 A 
ATOM     39  N   UNL A   1      43.422  27.583  27.951  1.00  0.00    -0.354 N 
ATOM     40  C   UNL A   1      39.770  29.063  29.718  1.00  0.00     0.074 A 
ATOM     41  C   UNL A   1      38.737  28.051  29.717  1.00  0.00     0.031 C 
ATOM     42  C   UNL A   1      44.728  26.104  26.899  1.00  0.00     0.029 A 
ATOM     43  C   UNL A   1      44.692  27.459  27.441  1.00  0.00     0.049 A 
ATOM     44  H   UNL A   1      43.114  28.377  28.446  1.00  0.00     0.167 HD
ATOM     45  C   UNL A   1      39.628  30.304  30.239  1.00  0.00     0.034 A 
ATOM     46  C   UNL A   1      45.709  28.341  27.364  1.00  0.00     0.034 A 
ATOM     47  C   UNL A   1      40.685  31.282  30.284  1.00  0.00     0.049 A 
ATOM     48  C   UNL A   1      45.529  29.714  27.943  1.00  0.00     0.074 A 
ATOM     49  C   UNL A   1      40.654  32.544  30.849  1.00  0.00     0.029 A 
ATOM     50  N   UNL A   1      41.956  31.113  29.753  1.00  0.00    -0.354 N 
ATOM     51  N   UNL A   1      44.476  30.217  28.543  1.00  0.00    -0.248 NA
ATOM     52  C   UNL A   1      46.661  30.643  27.835  1.00  0.00     0.031 C 
ATOM     53  C   UNL A   1      41.878  33.164  30.600  1.00  0.00     0.029 A 
ATOM     54  C   UNL A   1      42.703  32.262  29.947  1.00  0.00     0.049 A 
ATOM     55  H   UNL A   1      42.278  30.298  29.304  1.00  0.00     0.167 HD
ATOM     56  C   UNL A   1      44.822  31.515  28.898  1.00  0.00     0.074 A 
ATOM     57  C   UNL A   1      46.190  31.714  28.463  1.00  0.00     0.031 C 
ATOM     58  C   UNL A   1      44.070  32.454  29.524  1.00  0.00     0.034 A 
BRANCH  45  59
ATOM     59  C   UNL A   1      38.289  30.714  30.801  1.00  0.00     0.023 A 
ATOM     60  C   UNL A   1      37.390  31.429  29.985  1.00  0.00     0.031 A 
ATOM     61  C   UNL A   1      37.960  30.532  32.153  1.00  0.00     0.131 A 
ATOM     62  C   UNL A   1      36.226  31.972  30.540  1.00  0.00     0.055 A 
ATOM     63  C   UNL A   1      36.776  31.041  32.693  1.00  0.00     0.041 A 
ATOM     64  F   UNL A   1      38.782  29.854  32.970  1.00  0.00    -0.206 F 
ATOM     65  C   UNL A   1      35.911  31.776  31.888  1.00  0.00     0.022 A 
BRANCH  62  66
ATOM     66  S   UNL A   1      35.107  32.996  29.546  1.00  0.00     0.124 S 
ATOM     67  O   UNL A   1      34.066  33.334  30.515  1.00  0.00    -0.237 OA
ATOM     68  O   UNL A   1      35.975  34.103  29.154  1.00  0.00    -0.237 OA
ATOM     69  O   UNL A   1      34.684  32.110  28.469  1.00  0.00    -0.744 OA
ENDBRANCH  62  66
ENDBRANCH  45  59
BRANCH  46  70
ATOM     70  C   UNL A   1      46.978  27.907  26.712  1.00  0.00     0.023 A 
ATOM     71  C   UNL A   1      47.180  28.113  25.334  1.00  0.00     0.031 A 
ATOM     72  C   UNL A   1      47.924  27.146  27.416  1.00  0.00     0.131 A 
ATOM     73  C   UNL A   1      48.250  27.484  24.687  1.00  0.00     0.055 A 
ATOM     74  C   UNL A   1      49.030  26.581  26.779  1.00  0.00     0.041 A 
ATOM     75  F   UNL A   1      47.767  26.920  28.729  1.00  0.00    -0.206 F 
ATOM     76  C   UNL A   1      49.185  26.731  25.404  1.00  0.00     0.022 A 
BRANCH  73  77
ATOM     77  S   UNL A   1      48.383  27.512  22.878  1.00  0.00     0.124 S 
ATOM     78  O   UNL A   1      49.669  28.172  22.675  1.00  0.00    -0.237 OA
ATOM     79  O   UNL A   1      48.348  26.087  22.558  1.00  0.00    -0.237 OA
ATOM     80  O   UNL A   1      47.214  28.275  22.457  1.00  0.00    -0.744 OA
ENDBRANCH  73  77
ENDBRANCH  46  70
BRANCH  58  81
ATOM     81  C   UNL A   1      44.685  33.800  29.807  1.00  0.00     0.023 A 
ATOM     82  C   UNL A   1      44.657  34.802  28.818  1.00  0.00     0.031 A 
ATOM     83  C   UNL A   1      45.433  34.033  30.973  1.00  0.00     0.131 A 
ATOM     84  C   UNL A   1      45.405  35.971  28.990  1.00  0.00     0.055 A 
ATOM     85  C   UNL A   1      46.139  35.221  31.161  1.00  0.00     0.041 A 
ATOM     86  F   UNL A   1      45.494  33.104  31.940  1.00  0.00    -0.206 F 
ATOM     87  C   UNL A   1      46.139  36.190  30.161  1.00  0.00     0.022 A 
BRANCH  84  88
ATOM     88  S   UNL A   1      45.512  37.213  27.674  1.00  0.00     0.124 S 
ATOM     89  O   UNL A   1      46.071  38.361  28.384  1.00  0.00    -0.237 OA
ATOM     90  O   UNL A   1      46.412  36.571  26.720  1.00  0.00    -0.237 OA
ATOM     91  O   UNL A   1      44.132  37.374  27.227  1.00  0.00    -0.744 OA
ENDBRANCH  84  88
ENDBRANCH  58  81
ENDBRANCH  32  33
ENDBRANCH  25  27
ENDBRANCH  24  25
ENDBRANCH   1  24
TORSDOF 16
ENDMDL
