MODEL 1
REMARK VINA RESULT:     -11.8      0.000      0.000
REMARK SMILES C=CCc1cccc(-c2ccc([C@@H](C)C(=O)OCCOC(=O)c3ccc(-c4c5nc(c(-c6cc(S(=O)(=O)[O-])ccc6F)c6ccc([nH]6)c(-c6cc(S(=O)(=O)[O-])ccc6F)c6nc(c(-c7cc(S(=O)(=O)[O-])ccc7F)c7ccc4[nH]7)C=C6)C=C5)cc3)cc2)c1
REMARK SMILES IDX 18 1 17 2 15 3 16 4 13 5 14 6 12 7 9 8 10 9 87 10 11 11
REMARK SMILES IDX 86 12 8 13 4 14 5 15 88 16 6 17 7 18 3 19 2 20 1 21 19 22
REMARK SMILES IDX 20 23 21 24 22 25 23 26 24 27 85 28 25 29 84 30 26 31 27 32
REMARK SMILES IDX 28 33 78 34 29 35 83 36 77 37 79 38 30 39 82 40 76 41 75 42
REMARK SMILES IDX 31 44 63 45 43 46 62 47 44 48 47 49 61 50 80 51 45 52 46 53
REMARK SMILES IDX 60 55 81 56 48 57 32 58 33 59 41 60 34 61 40 62 42 63 39 64
REMARK SMILES IDX 35 65 36 66 37 67 38 68 64 69 65 70 73 71 66 72 72 73 74 74
REMARK SMILES IDX 71 75 67 76 68 77 69 78 70 79 49 80 50 81 58 82 51 83 57 84
REMARK SMILES IDX 59 85 56 86 52 87 53 88 54 89 55 90
REMARK H PARENT 79 43 47 54
REMARK Flexibility Score: inf
ROOT
ATOM      1  C   UNL A   1      31.263  28.928  24.879  1.00  0.00     0.274 C 
ENDROOT
BRANCH   1   2
ATOM      2  O   UNL A   1      31.965  27.712  24.564  1.00  0.00    -0.462 OA
BRANCH   2   3
ATOM      3  C   UNL A   1      31.452  26.560  25.070  1.00  0.00     0.313 C 
ATOM      4  O   UNL A   1      30.268  26.246  24.999  1.00  0.00    -0.252 OA
BRANCH   3   5
ATOM      5  C   UNL A   1      32.474  25.701  25.807  1.00  0.00     0.126 C 
ATOM      6  C   UNL A   1      33.828  26.409  25.819  1.00  0.00     0.025 C 
BRANCH   5   7
ATOM      7  C   UNL A   1      32.581  24.252  25.357  1.00  0.00    -0.034 A 
ATOM      8  C   UNL A   1      32.775  21.565  24.442  1.00  0.00    -0.018 A 
ATOM      9  C   UNL A   1      32.015  21.894  25.574  1.00  0.00     0.009 A 
ATOM     10  C   UNL A   1      33.451  22.602  23.785  1.00  0.00     0.009 A 
ATOM     11  C   UNL A   1      31.916  23.216  26.024  1.00  0.00     0.005 A 
ATOM     12  C   UNL A   1      33.355  23.925  24.233  1.00  0.00     0.005 A 
BRANCH   8  13
ATOM     13  C   UNL A   1      32.831  20.182  23.939  1.00  0.00    -0.018 A 
ATOM     14  C   UNL A   1      33.595  17.857  24.145  1.00  0.00    -0.044 A 
ATOM     15  C   UNL A   1      32.957  17.556  22.932  1.00  0.00     0.004 A 
ATOM     16  C   UNL A   1      33.506  19.169  24.644  1.00  0.00     0.012 A 
ATOM     17  C   UNL A   1      32.275  18.543  22.223  1.00  0.00     0.001 A 
ATOM     18  C   UNL A   1      32.217  19.844  22.723  1.00  0.00     0.009 A 
BRANCH  14  19
ATOM     19  C   UNL A   1      34.282  16.744  24.908  1.00  0.00     0.062 C 
BRANCH  19  20
ATOM     20  C   UNL A   1      33.490  15.476  25.045  1.00  0.00    -0.030 C 
ATOM     21  C   UNL A   1      32.370  15.360  25.772  1.00  0.00     0.004 C 
ENDBRANCH  19  20
ENDBRANCH  14  19
ENDBRANCH   8  13
ENDBRANCH   5   7
ENDBRANCH   3   5
ENDBRANCH   2   3
ENDBRANCH   1   2
BRANCH   1  22
ATOM     22  C   UNL A   1      31.772  29.535  26.188  1.00  0.00     0.275 C 
BRANCH  22  23
ATOM     23  O   UNL A   1      32.959  30.316  25.968  1.00  0.00    -0.458 OA
BRANCH  23  24
ATOM     24  C   UNL A   1      33.203  31.263  26.905  1.00  0.00     0.338 C 
ATOM     25  O   UNL A   1      32.466  32.168  27.252  1.00  0.00    -0.246 OA
BRANCH  24  26
ATOM     26  C   UNL A   1      34.494  30.986  27.548  1.00  0.00     0.060 A 
ATOM     27  C   UNL A   1      34.774  29.675  27.937  1.00  0.00     0.016 A 
ATOM     28  C   UNL A   1      35.384  32.020  27.838  1.00  0.00     0.016 A 
ATOM     29  C   UNL A   1      35.941  29.389  28.638  1.00  0.00     0.010 A 
ATOM     30  C   UNL A   1      36.564  31.731  28.532  1.00  0.00     0.010 A 
ATOM     31  C   UNL A   1      36.842  30.417  28.948  1.00  0.00    -0.014 A 
BRANCH  31  32
ATOM     32  C   UNL A   1      38.046  30.121  29.763  1.00  0.00     0.031 A 
ATOM     33  C   UNL A   1      39.122  29.234  29.203  1.00  0.00     0.074 A 
ATOM     34  C   UNL A   1      38.177  30.661  30.988  1.00  0.00     0.049 A 
ATOM     35  N   UNL A   1      40.207  28.781  29.776  1.00  0.00    -0.248 NA
ATOM     36  C   UNL A   1      38.946  28.797  27.811  1.00  0.00     0.031 C 
ATOM     37  C   UNL A   1      37.224  31.579  31.611  1.00  0.00     0.029 A 
ATOM     38  N   UNL A   1      39.166  30.516  31.928  1.00  0.00    -0.354 N 
ATOM     39  C   UNL A   1      40.839  27.992  28.822  1.00  0.00     0.074 A 
ATOM     40  C   UNL A   1      39.995  28.006  27.643  1.00  0.00     0.031 C 
ATOM     41  C   UNL A   1      37.677  31.918  32.830  1.00  0.00     0.029 A 
ATOM     42  C   UNL A   1      38.921  31.201  33.094  1.00  0.00     0.049 A 
ATOM     43  H   UNL A   1      39.973  29.971  31.782  1.00  0.00     0.167 HD
ATOM     44  C   UNL A   1      42.015  27.322  28.919  1.00  0.00     0.034 A 
ATOM     45  C   UNL A   1      39.607  31.224  34.254  1.00  0.00     0.034 A 
ATOM     46  C   UNL A   1      42.838  27.317  30.106  1.00  0.00     0.049 A 
ATOM     47  C   UNL A   1      40.863  30.398  34.372  1.00  0.00     0.074 A 
ATOM     48  C   UNL A   1      44.049  26.680  30.317  1.00  0.00     0.029 A 
ATOM     49  N   UNL A   1      42.530  27.977  31.290  1.00  0.00    -0.354 N 
ATOM     50  N   UNL A   1      41.439  29.636  33.471  1.00  0.00    -0.248 NA
ATOM     51  C   UNL A   1      41.558  30.435  35.665  1.00  0.00     0.031 C 
ATOM     52  C   UNL A   1      44.439  26.902  31.644  1.00  0.00     0.029 A 
ATOM     53  C   UNL A   1      43.508  27.736  32.242  1.00  0.00     0.049 A 
ATOM     54  H   UNL A   1      41.731  28.536  31.432  1.00  0.00     0.167 HD
ATOM     55  C   UNL A   1      42.578  29.122  34.083  1.00  0.00     0.074 A 
ATOM     56  C   UNL A   1      42.612  29.670  35.424  1.00  0.00     0.031 C 
ATOM     57  C   UNL A   1      43.516  28.277  33.582  1.00  0.00     0.034 A 
BRANCH  44  58
ATOM     58  C   UNL A   1      42.435  26.494  27.729  1.00  0.00     0.023 A 
ATOM     59  C   UNL A   1      41.960  25.186  27.530  1.00  0.00     0.031 A 
ATOM     60  C   UNL A   1      43.369  27.002  26.807  1.00  0.00     0.131 A 
ATOM     61  C   UNL A   1      42.480  24.403  26.487  1.00  0.00     0.055 A 
ATOM     62  C   UNL A   1      43.822  26.246  25.725  1.00  0.00     0.041 A 
ATOM     63  F   UNL A   1      43.874  28.237  26.957  1.00  0.00    -0.206 F 
ATOM     64  C   UNL A   1      43.391  24.932  25.569  1.00  0.00     0.022 A 
BRANCH  61  65
ATOM     65  S   UNL A   1      42.071  22.636  26.440  1.00  0.00     0.124 S 
ATOM     66  O   UNL A   1      40.617  22.665  26.588  1.00  0.00    -0.237 OA
ATOM     67  O   UNL A   1      42.573  22.230  25.134  1.00  0.00    -0.237 OA
ATOM     68  O   UNL A   1      42.794  22.086  27.586  1.00  0.00    -0.744 OA
ENDBRANCH  61  65
ENDBRANCH  44  58
BRANCH  45  69
ATOM     69  C   UNL A   1      39.102  32.012  35.413  1.00  0.00     0.023 A 
ATOM     70  C   UNL A   1      38.461  31.384  36.492  1.00  0.00     0.031 A 
ATOM     71  C   UNL A   1      39.221  33.413  35.439  1.00  0.00     0.131 A 
ATOM     72  C   UNL A   1      37.928  32.158  37.534  1.00  0.00     0.055 A 
ATOM     73  C   UNL A   1      38.732  34.176  36.501  1.00  0.00     0.041 A 
ATOM     74  F   UNL A   1      39.825  34.063  34.431  1.00  0.00    -0.206 F 
ATOM     75  C   UNL A   1      38.072  33.548  37.553  1.00  0.00     0.022 A 
BRANCH  72  76
ATOM     76  S   UNL A   1      36.979  31.327  38.838  1.00  0.00     0.124 S 
ATOM     77  O   UNL A   1      35.755  32.119  38.865  1.00  0.00    -0.237 OA
ATOM     78  O   UNL A   1      36.856  29.973  38.307  1.00  0.00    -0.237 OA
ATOM     79  O   UNL A   1      37.835  31.457  40.016  1.00  0.00    -0.744 OA
ENDBRANCH  72  76
ENDBRANCH  45  69
BRANCH  57  80
ATOM     80  C   UNL A   1      44.676  27.938  34.486  1.00  0.00     0.023 A 
ATOM     81  C   UNL A   1      44.667  26.791  35.300  1.00  0.00     0.031 A 
ATOM     82  C   UNL A   1      45.792  28.790  34.551  1.00  0.00     0.131 A 
ATOM     83  C   UNL A   1      45.731  26.556  36.184  1.00  0.00     0.055 A 
ATOM     84  C   UNL A   1      46.871  28.522  35.392  1.00  0.00     0.041 A 
ATOM     85  F   UNL A   1      45.849  29.899  33.796  1.00  0.00    -0.206 F 
ATOM     86  C   UNL A   1      46.839  27.406  36.225  1.00  0.00     0.022 A 
BRANCH  83  87
ATOM     87  S   UNL A   1      45.610  25.167  37.345  1.00  0.00     0.124 S 
ATOM     88  O   UNL A   1      47.008  24.944  37.699  1.00  0.00    -0.237 OA
ATOM     89  O   UNL A   1      44.764  25.714  38.400  1.00  0.00    -0.237 OA
ATOM     90  O   UNL A   1      44.996  24.106  36.548  1.00  0.00    -0.744 OA
ENDBRANCH  83  87
ENDBRANCH  57  80
ENDBRANCH  31  32
ENDBRANCH  24  26
ENDBRANCH  23  24
ENDBRANCH  22  23
ENDBRANCH   1  22
TORSDOF 18
ENDMDL
MODEL 2
REMARK VINA RESULT:     -11.7      5.235     11.086
REMARK SMILES C=CCc1cccc(-c2ccc([C@@H](C)C(=O)OCCOC(=O)c3ccc(-c4c5nc(c(-c6cc(S(=O)(=O)[O-])ccc6F)c6ccc([nH]6)c(-c6cc(S(=O)(=O)[O-])ccc6F)c6nc(c(-c7cc(S(=O)(=O)[O-])ccc7F)c7ccc4[nH]7)C=C6)C=C5)cc3)cc2)c1
REMARK SMILES IDX 18 1 17 2 15 3 16 4 13 5 14 6 12 7 9 8 10 9 87 10 11 11
REMARK SMILES IDX 86 12 8 13 4 14 5 15 88 16 6 17 7 18 3 19 2 20 1 21 19 22
REMARK SMILES IDX 20 23 21 24 22 25 23 26 24 27 85 28 25 29 84 30 26 31 27 32
REMARK SMILES IDX 28 33 78 34 29 35 83 36 77 37 79 38 30 39 82 40 76 41 75 42
REMARK SMILES IDX 31 44 63 45 43 46 62 47 44 48 47 49 61 50 80 51 45 52 46 53
REMARK SMILES IDX 60 55 81 56 48 57 32 58 33 59 41 60 34 61 40 62 42 63 39 64
REMARK SMILES IDX 35 65 36 66 37 67 38 68 64 69 65 70 73 71 66 72 72 73 74 74
REMARK SMILES IDX 71 75 67 76 68 77 69 78 70 79 49 80 50 81 58 82 51 83 57 84
REMARK SMILES IDX 59 85 56 86 52 87 53 88 54 89 55 90
REMARK H PARENT 79 43 47 54
REMARK Flexibility Score: inf
ROOT
ATOM      1  C   UNL A   1      33.921  34.731  29.168  1.00  0.00     0.274 C 
ENDROOT
BRANCH   1   2
ATOM      2  O   UNL A   1      33.513  34.297  30.479  1.00  0.00    -0.462 OA
BRANCH   2   3
ATOM      3  C   UNL A   1      34.353  34.583  31.507  1.00  0.00     0.313 C 
ATOM      4  O   UNL A   1      34.347  35.644  32.124  1.00  0.00    -0.252 OA
BRANCH   3   5
ATOM      5  C   UNL A   1      35.368  33.484  31.798  1.00  0.00     0.126 C 
ATOM      6  C   UNL A   1      35.302  33.098  33.275  1.00  0.00     0.025 C 
BRANCH   5   7
ATOM      7  C   UNL A   1      36.791  33.745  31.330  1.00  0.00    -0.034 A 
ATOM      8  C   UNL A   1      39.453  34.166  30.416  1.00  0.00    -0.018 A 
ATOM      9  C   UNL A   1      39.078  34.479  31.731  1.00  0.00     0.009 A 
ATOM     10  C   UNL A   1      38.468  33.654  29.560  1.00  0.00     0.009 A 
ATOM     11  C   UNL A   1      37.769  34.270  32.183  1.00  0.00     0.005 A 
ATOM     12  C   UNL A   1      37.159  33.444  30.009  1.00  0.00     0.005 A 
BRANCH   8  13
ATOM     13  C   UNL A   1      40.844  34.335  29.961  1.00  0.00    -0.018 A 
ATOM     14  C   UNL A   1      43.231  33.779  30.117  1.00  0.00    -0.044 A 
ATOM     15  C   UNL A   1      43.498  34.710  29.103  1.00  0.00     0.004 A 
ATOM     16  C   UNL A   1      41.897  33.590  30.522  1.00  0.00     0.012 A 
ATOM     17  C   UNL A   1      42.468  35.451  28.528  1.00  0.00     0.001 A 
ATOM     18  C   UNL A   1      41.154  35.266  28.957  1.00  0.00     0.009 A 
BRANCH  14  19
ATOM     19  C   UNL A   1      44.373  32.958  30.680  1.00  0.00     0.062 C 
BRANCH  19  20
ATOM     20  C   UNL A   1      44.202  31.469  30.580  1.00  0.00    -0.030 C 
ATOM     21  C   UNL A   1      43.970  30.812  29.436  1.00  0.00     0.004 C 
ENDBRANCH  19  20
ENDBRANCH  14  19
ENDBRANCH   8  13
ENDBRANCH   5   7
ENDBRANCH   3   5
ENDBRANCH   2   3
ENDBRANCH   1   2
BRANCH   1  22
ATOM     22  C   UNL A   1      33.882  33.573  28.169  1.00  0.00     0.275 C 
BRANCH  22  23
ATOM     23  O   UNL A   1      34.157  32.320  28.817  1.00  0.00    -0.458 OA
BRANCH  23  24
ATOM     24  C   UNL A   1      34.359  31.274  27.981  1.00  0.00     0.338 C 
ATOM     25  O   UNL A   1      33.689  30.959  27.015  1.00  0.00    -0.246 OA
BRANCH  24  26
ATOM     26  C   UNL A   1      35.608  30.594  28.351  1.00  0.00     0.060 A 
ATOM     27  C   UNL A   1      35.637  29.863  29.540  1.00  0.00     0.016 A 
ATOM     28  C   UNL A   1      36.759  30.744  27.578  1.00  0.00     0.016 A 
ATOM     29  C   UNL A   1      36.828  29.288  29.976  1.00  0.00     0.010 A 
ATOM     30  C   UNL A   1      37.952  30.156  28.010  1.00  0.00     0.010 A 
ATOM     31  C   UNL A   1      37.997  29.437  29.218  1.00  0.00    -0.014 A 
BRANCH  31  32
ATOM     32  C   UNL A   1      39.278  28.890  29.725  1.00  0.00     0.031 A 
ATOM     33  C   UNL A   1      39.941  29.530  30.912  1.00  0.00     0.074 A 
ATOM     34  C   UNL A   1      39.833  27.816  29.133  1.00  0.00     0.049 A 
ATOM     35  N   UNL A   1      41.099  29.267  31.460  1.00  0.00    -0.248 NA
ATOM     36  C   UNL A   1      39.196  30.615  31.566  1.00  0.00     0.031 C 
ATOM     37  C   UNL A   1      39.253  27.081  28.009  1.00  0.00     0.029 A 
ATOM     38  N   UNL A   1      41.007  27.158  29.395  1.00  0.00    -0.354 N 
ATOM     39  C   UNL A   1      41.233  30.164  32.514  1.00  0.00     0.074 A 
ATOM     40  C   UNL A   1      40.047  30.997  32.506  1.00  0.00     0.031 C 
ATOM     41  C   UNL A   1      40.072  26.068  27.681  1.00  0.00     0.029 A 
ATOM     42  C   UNL A   1      41.257  26.117  28.532  1.00  0.00     0.049 A 
ATOM     43  H   UNL A   1      41.614  27.407  30.129  1.00  0.00     0.167 HD
ATOM     44  C   UNL A   1      42.249  30.277  33.407  1.00  0.00     0.034 A 
ATOM     45  C   UNL A   1      42.335  25.314  28.422  1.00  0.00     0.034 A 
ATOM     46  C   UNL A   1      43.425  29.438  33.393  1.00  0.00     0.049 A 
ATOM     47  C   UNL A   1      43.492  25.518  29.366  1.00  0.00     0.074 A 
ATOM     48  C   UNL A   1      44.512  29.459  34.249  1.00  0.00     0.029 A 
ATOM     49  N   UNL A   1      43.671  28.430  32.468  1.00  0.00    -0.354 N 
ATOM     50  N   UNL A   1      43.619  26.384  30.345  1.00  0.00    -0.248 NA
ATOM     51  C   UNL A   1      44.653  24.636  29.187  1.00  0.00     0.031 C 
ATOM     52  C   UNL A   1      45.442  28.510  33.805  1.00  0.00     0.029 A 
ATOM     53  C   UNL A   1      44.905  27.847  32.712  1.00  0.00     0.049 A 
ATOM     54  H   UNL A   1      43.058  28.169  31.743  1.00  0.00     0.167 HD
ATOM     55  C   UNL A   1      44.865  26.134  30.912  1.00  0.00     0.074 A 
ATOM     56  C   UNL A   1      45.443  25.029  30.174  1.00  0.00     0.031 C 
ATOM     57  C   UNL A   1      45.475  26.757  31.954  1.00  0.00     0.034 A 
BRANCH  44  58
ATOM     58  C   UNL A   1      42.149  31.388  34.424  1.00  0.00     0.023 A 
ATOM     59  C   UNL A   1      42.544  32.704  34.127  1.00  0.00     0.031 A 
ATOM     60  C   UNL A   1      41.703  31.114  35.730  1.00  0.00     0.131 A 
ATOM     61  C   UNL A   1      42.563  33.675  35.141  1.00  0.00     0.055 A 
ATOM     62  C   UNL A   1      41.648  32.104  36.713  1.00  0.00     0.041 A 
ATOM     63  F   UNL A   1      41.334  29.871  36.079  1.00  0.00    -0.206 F 
ATOM     64  C   UNL A   1      42.096  33.390  36.426  1.00  0.00     0.022 A 
BRANCH  61  65
ATOM     65  S   UNL A   1      43.355  35.272  34.798  1.00  0.00     0.124 S 
ATOM     66  O   UNL A   1      43.869  35.063  33.446  1.00  0.00    -0.237 OA
ATOM     67  O   UNL A   1      42.245  36.208  34.924  1.00  0.00    -0.237 OA
ATOM     68  O   UNL A   1      44.380  35.375  35.836  1.00  0.00    -0.744 OA
ENDBRANCH  61  65
ENDBRANCH  44  58
BRANCH  45  69
ATOM     69  C   UNL A   1      42.397  24.278  27.353  1.00  0.00     0.023 A 
ATOM     70  C   UNL A   1      41.719  23.056  27.489  1.00  0.00     0.031 A 
ATOM     71  C   UNL A   1      43.169  24.480  26.196  1.00  0.00     0.131 A 
ATOM     72  C   UNL A   1      41.857  22.068  26.502  1.00  0.00     0.055 A 
ATOM     73  C   UNL A   1      43.264  23.514  25.193  1.00  0.00     0.041 A 
ATOM     74  F   UNL A   1      43.838  25.632  26.018  1.00  0.00    -0.206 F 
ATOM     75  C   UNL A   1      42.613  22.294  25.349  1.00  0.00     0.022 A 
BRANCH  72  76
ATOM     76  S   UNL A   1      41.086  20.449  26.778  1.00  0.00     0.124 S 
ATOM     77  O   UNL A   1      42.110  19.543  26.271  1.00  0.00    -0.237 OA
ATOM     78  O   UNL A   1      40.889  20.450  28.224  1.00  0.00    -0.237 OA
ATOM     79  O   UNL A   1      39.862  20.516  25.984  1.00  0.00    -0.744 OA
ENDBRANCH  72  76
ENDBRANCH  45  69
BRANCH  57  80
ATOM     80  C   UNL A   1      46.820  26.218  32.373  1.00  0.00     0.023 A 
ATOM     81  C   UNL A   1      48.011  26.641  31.756  1.00  0.00     0.031 A 
ATOM     82  C   UNL A   1      46.906  25.246  33.385  1.00  0.00     0.131 A 
ATOM     83  C   UNL A   1      49.232  26.055  32.122  1.00  0.00     0.055 A 
ATOM     84  C   UNL A   1      48.129  24.706  33.782  1.00  0.00     0.041 A 
ATOM     85  F   UNL A   1      45.799  24.805  34.005  1.00  0.00    -0.206 F 
ATOM     86  C   UNL A   1      49.301  25.101  33.141  1.00  0.00     0.022 A 
BRANCH  83  87
ATOM     87  S   UNL A   1      50.724  26.494  31.189  1.00  0.00     0.124 S 
ATOM     88  O   UNL A   1      50.604  27.945  31.087  1.00  0.00    -0.237 OA
ATOM     89  O   UNL A   1      51.791  26.002  32.055  1.00  0.00    -0.237 OA
ATOM     90  O   UNL A   1      50.567  25.769  29.929  1.00  0.00    -0.744 OA
ENDBRANCH  83  87
ENDBRANCH  57  80
ENDBRANCH  31  32
ENDBRANCH  24  26
ENDBRANCH  23  24
ENDBRANCH  22  23
ENDBRANCH   1  22
TORSDOF 18
ENDMDL
MODEL 3
REMARK VINA RESULT:     -11.6      5.554      9.823
REMARK SMILES C=CCc1cccc(-c2ccc([C@@H](C)C(=O)OCCOC(=O)c3ccc(-c4c5nc(c(-c6cc(S(=O)(=O)[O-])ccc6F)c6ccc([nH]6)c(-c6cc(S(=O)(=O)[O-])ccc6F)c6nc(c(-c7cc(S(=O)(=O)[O-])ccc7F)c7ccc4[nH]7)C=C6)C=C5)cc3)cc2)c1
REMARK SMILES IDX 18 1 17 2 15 3 16 4 13 5 14 6 12 7 9 8 10 9 87 10 11 11
REMARK SMILES IDX 86 12 8 13 4 14 5 15 88 16 6 17 7 18 3 19 2 20 1 21 19 22
REMARK SMILES IDX 20 23 21 24 22 25 23 26 24 27 85 28 25 29 84 30 26 31 27 32
REMARK SMILES IDX 28 33 78 34 29 35 83 36 77 37 79 38 30 39 82 40 76 41 75 42
REMARK SMILES IDX 31 44 63 45 43 46 62 47 44 48 47 49 61 50 80 51 45 52 46 53
REMARK SMILES IDX 60 55 81 56 48 57 32 58 33 59 41 60 34 61 40 62 42 63 39 64
REMARK SMILES IDX 35 65 36 66 37 67 38 68 64 69 65 70 73 71 66 72 72 73 74 74
REMARK SMILES IDX 71 75 67 76 68 77 69 78 70 79 49 80 50 81 58 82 51 83 57 84
REMARK SMILES IDX 59 85 56 86 52 87 53 88 54 89 55 90
REMARK H PARENT 79 43 47 54
REMARK Flexibility Score: inf
ROOT
ATOM      1  C   UNL A   1      42.142  20.167  26.571  1.00  0.00     0.274 C 
ENDROOT
BRANCH   1   2
ATOM      2  O   UNL A   1      42.725  20.693  25.364  1.00  0.00    -0.462 OA
BRANCH   2   3
ATOM      3  C   UNL A   1      44.042  21.023  25.414  1.00  0.00     0.313 C 
ATOM      4  O   UNL A   1      44.953  20.204  25.482  1.00  0.00    -0.252 OA
BRANCH   3   5
ATOM      5  C   UNL A   1      44.300  22.525  25.445  1.00  0.00     0.126 C 
ATOM      6  C   UNL A   1      45.555  22.849  24.636  1.00  0.00     0.025 C 
BRANCH   5   7
ATOM      7  C   UNL A   1      44.312  23.175  26.820  1.00  0.00    -0.034 A 
ATOM      8  C   UNL A   1      44.266  24.422  29.377  1.00  0.00    -0.018 A 
ATOM      9  C   UNL A   1      45.444  24.365  28.617  1.00  0.00     0.009 A 
ATOM     10  C   UNL A   1      43.116  23.827  28.843  1.00  0.00     0.009 A 
ATOM     11  C   UNL A   1      45.468  23.755  27.358  1.00  0.00     0.005 A 
ATOM     12  C   UNL A   1      43.136  23.216  27.584  1.00  0.00     0.005 A 
BRANCH   8  13
ATOM     13  C   UNL A   1      44.232  25.115  30.677  1.00  0.00    -0.018 A 
ATOM     14  C   UNL A   1      43.791  27.120  32.024  1.00  0.00    -0.044 A 
ATOM     15  C   UNL A   1      44.220  26.428  33.166  1.00  0.00     0.004 A 
ATOM     16  C   UNL A   1      43.785  26.443  30.791  1.00  0.00     0.012 A 
ATOM     17  C   UNL A   1      44.658  25.108  33.076  1.00  0.00     0.001 A 
ATOM     18  C   UNL A   1      44.666  24.461  31.841  1.00  0.00     0.009 A 
BRANCH  14  19
ATOM     19  C   UNL A   1      43.275  28.536  32.174  1.00  0.00     0.062 C 
BRANCH  19  20
ATOM     20  C   UNL A   1      41.939  28.802  31.542  1.00  0.00    -0.030 C 
ATOM     21  C   UNL A   1      40.768  28.711  32.185  1.00  0.00     0.004 C 
ENDBRANCH  19  20
ENDBRANCH  14  19
ENDBRANCH   8  13
ENDBRANCH   5   7
ENDBRANCH   3   5
ENDBRANCH   2   3
ENDBRANCH   1   2
BRANCH   1  22
ATOM     22  C   UNL A   1      40.614  20.206  26.506  1.00  0.00     0.275 C 
BRANCH  22  23
ATOM     23  O   UNL A   1      40.095  21.352  27.201  1.00  0.00    -0.458 OA
BRANCH  23  24
ATOM     24  C   UNL A   1      39.312  22.168  26.457  1.00  0.00     0.338 C 
ATOM     25  O   UNL A   1      38.463  21.842  25.647  1.00  0.00    -0.246 OA
BRANCH  24  26
ATOM     26  C   UNL A   1      39.564  23.563  26.841  1.00  0.00     0.060 A 
ATOM     27  C   UNL A   1      40.037  24.445  25.868  1.00  0.00     0.016 A 
ATOM     28  C   UNL A   1      39.416  23.977  28.165  1.00  0.00     0.016 A 
ATOM     29  C   UNL A   1      40.383  25.747  26.215  1.00  0.00     0.010 A 
ATOM     30  C   UNL A   1      39.751  25.289  28.512  1.00  0.00     0.010 A 
ATOM     31  C   UNL A   1      40.251  26.178  27.542  1.00  0.00    -0.014 A 
BRANCH  31  32
ATOM     32  C   UNL A   1      40.694  27.540  27.923  1.00  0.00     0.031 A 
ATOM     33  C   UNL A   1      42.135  27.929  27.746  1.00  0.00     0.074 A 
ATOM     34  C   UNL A   1      39.805  28.426  28.409  1.00  0.00     0.049 A 
ATOM     35  N   UNL A   1      42.747  29.032  28.093  1.00  0.00    -0.248 NA
ATOM     36  C   UNL A   1      43.000  26.937  27.092  1.00  0.00     0.031 C 
ATOM     37  C   UNL A   1      38.372  28.178  28.573  1.00  0.00     0.029 A 
ATOM     38  N   UNL A   1      39.975  29.713  28.852  1.00  0.00    -0.354 N 
ATOM     39  C   UNL A   1      44.074  28.864  27.715  1.00  0.00     0.074 A 
ATOM     40  C   UNL A   1      44.180  27.537  27.140  1.00  0.00     0.031 C 
ATOM     41  C   UNL A   1      37.793  29.280  29.077  1.00  0.00     0.029 A 
ATOM     42  C   UNL A   1      38.819  30.290  29.321  1.00  0.00     0.049 A 
ATOM     43  H   UNL A   1      40.843  30.179  28.836  1.00  0.00     0.167 HD
ATOM     44  C   UNL A   1      45.106  29.737  27.834  1.00  0.00     0.034 A 
ATOM     45  C   UNL A   1      38.617  31.485  29.911  1.00  0.00     0.034 A 
ATOM     46  C   UNL A   1      44.980  31.053  28.415  1.00  0.00     0.049 A 
ATOM     47  C   UNL A   1      39.796  32.402  30.116  1.00  0.00     0.074 A 
ATOM     48  C   UNL A   1      45.954  32.022  28.583  1.00  0.00     0.029 A 
ATOM     49  N   UNL A   1      43.804  31.583  28.934  1.00  0.00    -0.354 N 
ATOM     50  N   UNL A   1      41.052  32.224  29.777  1.00  0.00    -0.248 NA
ATOM     51  C   UNL A   1      39.528  33.681  30.788  1.00  0.00     0.031 C 
ATOM     52  C   UNL A   1      45.383  33.109  29.257  1.00  0.00     0.029 A 
ATOM     53  C   UNL A   1      44.035  32.849  29.450  1.00  0.00     0.049 A 
ATOM     54  H   UNL A   1      42.932  31.124  28.936  1.00  0.00     0.167 HD
ATOM     55  C   UNL A   1      41.718  33.380  30.173  1.00  0.00     0.074 A 
ATOM     56  C   UNL A   1      40.723  34.251  30.766  1.00  0.00     0.031 C 
ATOM     57  C   UNL A   1      43.033  33.697  30.054  1.00  0.00     0.034 A 
BRANCH  44  58
ATOM     58  C   UNL A   1      46.465  29.260  27.380  1.00  0.00     0.023 A 
ATOM     59  C   UNL A   1      46.720  28.908  26.043  1.00  0.00     0.031 A 
ATOM     60  C   UNL A   1      47.508  29.105  28.312  1.00  0.00     0.131 A 
ATOM     61  C   UNL A   1      47.956  28.341  25.692  1.00  0.00     0.055 A 
ATOM     62  C   UNL A   1      48.761  28.616  27.940  1.00  0.00     0.041 A 
ATOM     63  F   UNL A   1      47.317  29.404  29.606  1.00  0.00    -0.206 F 
ATOM     64  C   UNL A   1      48.986  28.215  26.627  1.00  0.00     0.022 A 
BRANCH  61  65
ATOM     65  S   UNL A   1      48.144  27.627  24.034  1.00  0.00     0.124 S 
ATOM     66  O   UNL A   1      47.223  28.449  23.252  1.00  0.00    -0.237 OA
ATOM     67  O   UNL A   1      49.563  27.823  23.765  1.00  0.00    -0.237 OA
ATOM     68  O   UNL A   1      47.728  26.237  24.211  1.00  0.00    -0.744 OA
ENDBRANCH  61  65
ENDBRANCH  44  58
BRANCH  45  69
ATOM     69  C   UNL A   1      37.261  31.868  30.394  1.00  0.00     0.023 A 
ATOM     70  C   UNL A   1      36.376  32.587  29.574  1.00  0.00     0.031 A 
ATOM     71  C   UNL A   1      36.844  31.554  31.700  1.00  0.00     0.131 A 
ATOM     72  C   UNL A   1      35.134  33.000  30.081  1.00  0.00     0.055 A 
ATOM     73  C   UNL A   1      35.588  31.925  32.183  1.00  0.00     0.041 A 
ATOM     74  F   UNL A   1      37.653  30.869  32.524  1.00  0.00    -0.206 F 
ATOM     75  C   UNL A   1      34.729  32.662  31.374  1.00  0.00     0.022 A 
BRANCH  72  76
ATOM     76  S   UNL A   1      34.078  34.050  29.045  1.00  0.00     0.124 S 
ATOM     77  O   UNL A   1      33.440  33.066  28.179  1.00  0.00    -0.237 OA
ATOM     78  O   UNL A   1      33.217  34.686  30.037  1.00  0.00    -0.237 OA
ATOM     79  O   UNL A   1      35.029  34.942  28.385  1.00  0.00    -0.744 OA
ENDBRANCH  72  76
ENDBRANCH  45  69
BRANCH  57  80
ATOM     80  C   UNL A   1      43.449  35.063  30.540  1.00  0.00     0.023 A 
ATOM     81  C   UNL A   1      43.762  35.304  31.890  1.00  0.00     0.031 A 
ATOM     82  C   UNL A   1      43.504  36.144  29.642  1.00  0.00     0.131 A 
ATOM     83  C   UNL A   1      44.066  36.607  32.313  1.00  0.00     0.055 A 
ATOM     84  C   UNL A   1      43.860  37.426  30.060  1.00  0.00     0.041 A 
ATOM     85  F   UNL A   1      43.212  35.968  28.343  1.00  0.00    -0.206 F 
ATOM     86  C   UNL A   1      44.131  37.667  31.404  1.00  0.00     0.022 A 
BRANCH  83  87
ATOM     87  S   UNL A   1      44.293  36.918  34.086  1.00  0.00     0.124 S 
ATOM     88  O   UNL A   1      43.160  37.786  34.390  1.00  0.00    -0.237 OA
ATOM     89  O   UNL A   1      44.235  35.573  34.649  1.00  0.00    -0.237 OA
ATOM     90  O   UNL A   1      45.604  37.562  34.156  1.00  0.00    -0.744 OA
ENDBRANCH  83  87
ENDBRANCH  57  80
ENDBRANCH  31  32
ENDBRANCH  24  26
ENDBRANCH  23  24
ENDBRANCH  22  23
ENDBRANCH   1  22
TORSDOF 18
ENDMDL
