MODEL 1
REMARK VINA RESULT:     -11.3      0.000      0.000
REMARK SMILES C[C@H]([C@@H](C)C(=O)OCCOC(=O)c1ccc(-c2c3nc(c(-c4cc(S(=O)(=O)[O-])ccc4F)c4ccc([nH]4)c(-c4cc(S(=O)(=O)[O-])ccc4F)c4nc(c(-c5cc(S(=O)(=O)[O-])ccc5F)c5ccc2[nH]5)C=C4)C=C3)cc1)[NH+]1CCN(c2nccs2)CC1
REMARK SMILES IDX 8 1 7 2 5 3 6 4 3 5 4 6 2 7 1 8 76 9 77 10 86 11 78 13 85 14
REMARK SMILES IDX 79 15 80 16 81 17 84 18 82 19 83 20 9 21 10 22 11 23 12 24
REMARK SMILES IDX 13 25 14 26 75 27 15 28 74 29 16 30 17 31 18 32 68 33 19 34
REMARK SMILES IDX 73 35 67 36 69 37 20 38 72 39 66 40 65 41 21 43 53 44 33 45
REMARK SMILES IDX 52 46 34 47 37 48 51 49 70 50 35 51 36 52 50 54 71 55 38 56
REMARK SMILES IDX 22 57 23 58 31 59 24 60 30 61 32 62 29 63 25 64 26 65 27 66
REMARK SMILES IDX 28 67 54 68 55 69 63 70 56 71 62 72 64 73 61 74 57 75 58 76
REMARK SMILES IDX 59 77 60 78 39 79 40 80 48 81 41 82 47 83 49 84 46 85 42 86
REMARK SMILES IDX 43 87 44 88 45 89
REMARK H PARENT 76 12 69 42 37 53
REMARK Flexibility Score: inf
ROOT
ATOM      1  C   UNL A   1      35.309  20.561  25.008  1.00  0.00     0.274 C 
ENDROOT
BRANCH   1   2
ATOM      2  O   UNL A   1      34.882  21.699  25.784  1.00  0.00    -0.462 OA
BRANCH   2   3
ATOM      3  C   UNL A   1      34.135  22.620  25.127  1.00  0.00     0.314 C 
ATOM      4  O   UNL A   1      34.195  22.814  23.916  1.00  0.00    -0.252 OA
BRANCH   3   5
ATOM      5  C   UNL A   1      33.288  23.498  26.041  1.00  0.00     0.154 C 
ATOM      6  C   UNL A   1      32.172  22.622  26.610  1.00  0.00     0.026 C 
BRANCH   5   7
ATOM      7  C   UNL A   1      32.907  24.889  25.451  1.00  0.00     0.195 C 
ATOM      8  C   UNL A   1      34.048  25.922  25.543  1.00  0.00     0.076 C 
BRANCH   7   9
ATOM      9  N   UNL A   1      32.454  25.007  24.043  1.00  0.00    -0.329 N 
ATOM     10  C   UNL A   1      31.095  24.623  23.654  1.00  0.00     0.284 C 
ATOM     11  C   UNL A   1      32.796  26.289  23.385  1.00  0.00     0.284 C 
ATOM     12  H   UNL A   1      33.026  24.238  23.694  1.00  0.00     0.348 HD
ATOM     13  C   UNL A   1      30.001  25.682  23.902  1.00  0.00     0.180 C 
ATOM     14  C   UNL A   1      31.766  27.429  23.556  1.00  0.00     0.180 C 
ATOM     15  N   UNL A   1      30.388  26.972  23.348  1.00  0.00    -0.337 N 
BRANCH  15  16
ATOM     16  C   UNL A   1      29.446  27.916  23.084  1.00  0.00     0.185 A 
ATOM     17  N   UNL A   1      28.169  27.748  23.346  1.00  0.00    -0.229 NA
ATOM     18  S   UNL A   1      29.825  29.444  22.355  1.00  0.00    -0.106 S 
ATOM     19  C   UNL A   1      27.450  28.875  23.002  1.00  0.00     0.125 A 
ATOM     20  C   UNL A   1      28.176  29.890  22.422  1.00  0.00     0.088 A 
ENDBRANCH  15  16
ENDBRANCH   7   9
ENDBRANCH   5   7
ENDBRANCH   3   5
ENDBRANCH   2   3
ENDBRANCH   1   2
BRANCH   1  21
ATOM     21  C   UNL A   1      36.832  20.398  24.989  1.00  0.00     0.275 C 
BRANCH  21  22
ATOM     22  O   UNL A   1      37.497  21.446  25.716  1.00  0.00    -0.458 OA
BRANCH  22  23
ATOM     23  C   UNL A   1      38.788  21.185  26.032  1.00  0.00     0.338 C 
ATOM     24  O   UNL A   1      39.400  20.155  25.804  1.00  0.00    -0.246 OA
BRANCH  23  25
ATOM     25  C   UNL A   1      39.428  22.389  26.582  1.00  0.00     0.060 A 
ATOM     26  C   UNL A   1      38.926  23.632  26.189  1.00  0.00     0.016 A 
ATOM     27  C   UNL A   1      40.561  22.308  27.391  1.00  0.00     0.016 A 
ATOM     28  C   UNL A   1      39.572  24.804  26.571  1.00  0.00     0.010 A 
ATOM     29  C   UNL A   1      41.202  23.487  27.788  1.00  0.00     0.010 A 
ATOM     30  C   UNL A   1      40.723  24.741  27.365  1.00  0.00    -0.014 A 
BRANCH  30  31
ATOM     31  C   UNL A   1      41.454  25.986  27.707  1.00  0.00     0.031 A 
ATOM     32  C   UNL A   1      40.773  27.053  28.517  1.00  0.00     0.074 A 
ATOM     33  C   UNL A   1      42.727  26.150  27.305  1.00  0.00     0.049 A 
ATOM     34  N   UNL A   1      41.187  28.254  28.825  1.00  0.00    -0.248 NA
ATOM     35  C   UNL A   1      39.441  26.719  29.043  1.00  0.00     0.031 C 
ATOM     36  C   UNL A   1      43.511  25.163  26.562  1.00  0.00     0.029 A 
ATOM     37  N   UNL A   1      43.584  27.212  27.455  1.00  0.00    -0.354 N 
ATOM     38  C   UNL A   1      40.164  28.830  29.569  1.00  0.00     0.074 A 
ATOM     39  C   UNL A   1      39.097  27.851  29.639  1.00  0.00     0.031 C 
ATOM     40  C   UNL A   1      44.730  25.669  26.314  1.00  0.00     0.029 A 
ATOM     41  C   UNL A   1      44.796  27.033  26.831  1.00  0.00     0.049 A 
ATOM     42  H   UNL A   1      43.353  28.024  27.964  1.00  0.00     0.167 HD
ATOM     43  C   UNL A   1      40.121  30.060  30.141  1.00  0.00     0.034 A 
ATOM     44  C   UNL A   1      45.825  27.885  26.660  1.00  0.00     0.034 A 
ATOM     45  C   UNL A   1      41.194  31.022  30.057  1.00  0.00     0.049 A 
ATOM     46  C   UNL A   1      45.726  29.275  27.237  1.00  0.00     0.074 A 
ATOM     47  C   UNL A   1      41.258  32.296  30.598  1.00  0.00     0.029 A 
ATOM     48  N   UNL A   1      42.394  30.820  29.385  1.00  0.00    -0.354 N 
ATOM     49  N   UNL A   1      44.741  29.820  27.912  1.00  0.00    -0.248 NA
ATOM     50  C   UNL A   1      46.877  30.162  27.026  1.00  0.00     0.031 C 
ATOM     51  C   UNL A   1      42.466  32.883  30.201  1.00  0.00     0.029 A 
ATOM     52  C   UNL A   1      43.189  31.952  29.473  1.00  0.00     0.049 A 
ATOM     53  H   UNL A   1      42.642  29.991  28.914  1.00  0.00     0.167 HD
ATOM     54  C   UNL A   1      45.164  31.109  28.225  1.00  0.00     0.074 A 
ATOM     55  C   UNL A   1      46.498  31.252  27.678  1.00  0.00     0.031 C 
ATOM     56  C   UNL A   1      44.511  32.085  28.906  1.00  0.00     0.034 A 
BRANCH  43  57
ATOM     57  C   UNL A   1      38.847  30.446  30.852  1.00  0.00     0.023 A 
ATOM     58  C   UNL A   1      37.769  31.043  30.176  1.00  0.00     0.031 A 
ATOM     59  C   UNL A   1      38.724  30.248  32.240  1.00  0.00     0.131 A 
ATOM     60  C   UNL A   1      36.648  31.485  30.897  1.00  0.00     0.055 A 
ATOM     61  C   UNL A   1      37.574  30.621  32.939  1.00  0.00     0.041 A 
ATOM     62  F   UNL A   1      39.729  29.703  32.944  1.00  0.00    -0.206 F 
ATOM     63  C   UNL A   1      36.534  31.257  32.269  1.00  0.00     0.022 A 
BRANCH  60  64
ATOM     64  S   UNL A   1      35.405  32.490  30.039  1.00  0.00     0.124 S 
ATOM     65  O   UNL A   1      35.117  31.667  28.867  1.00  0.00    -0.237 OA
ATOM     66  O   UNL A   1      34.340  32.588  31.030  1.00  0.00    -0.237 OA
ATOM     67  O   UNL A   1      36.110  33.740  29.755  1.00  0.00    -0.744 OA
ENDBRANCH  60  64
ENDBRANCH  43  57
BRANCH  44  68
ATOM     68  C   UNL A   1      47.014  27.475  25.861  1.00  0.00     0.023 A 
ATOM     69  C   UNL A   1      47.141  27.830  24.510  1.00  0.00     0.031 A 
ATOM     70  C   UNL A   1      48.026  26.687  26.437  1.00  0.00     0.131 A 
ATOM     71  C   UNL A   1      48.237  27.366  23.767  1.00  0.00     0.055 A 
ATOM     72  C   UNL A   1      49.139  26.268  25.707  1.00  0.00     0.041 A 
ATOM     73  F   UNL A   1      47.952  26.320  27.726  1.00  0.00    -0.206 F 
ATOM     74  C   UNL A   1      49.244  26.598  24.360  1.00  0.00     0.022 A 
BRANCH  71  75
ATOM     75  S   UNL A   1      48.295  27.722  21.989  1.00  0.00     0.124 S 
ATOM     76  O   UNL A   1      48.511  26.394  21.427  1.00  0.00    -0.237 OA
ATOM     77  O   UNL A   1      46.981  28.311  21.755  1.00  0.00    -0.237 OA
ATOM     78  O   UNL A   1      49.422  28.645  21.864  1.00  0.00    -0.744 OA
ENDBRANCH  71  75
ENDBRANCH  44  68
BRANCH  56  79
ATOM     79  C   UNL A   1      45.259  33.377  29.128  1.00  0.00     0.023 A 
ATOM     80  C   UNL A   1      45.184  34.441  28.211  1.00  0.00     0.031 A 
ATOM     81  C   UNL A   1      46.072  33.534  30.263  1.00  0.00     0.131 A 
ATOM     82  C   UNL A   1      45.952  35.596  28.420  1.00  0.00     0.055 A 
ATOM     83  C   UNL A   1      46.792  34.708  30.493  1.00  0.00     0.041 A 
ATOM     84  F   UNL A   1      46.181  32.549  31.168  1.00  0.00    -0.206 F 
ATOM     85  C   UNL A   1      46.744  35.741  29.563  1.00  0.00     0.022 A 
BRANCH  82  86
ATOM     86  S   UNL A   1      45.969  36.877  27.136  1.00  0.00     0.124 S 
ATOM     87  O   UNL A   1      44.574  37.304  27.114  1.00  0.00    -0.237 OA
ATOM     88  O   UNL A   1      46.923  37.844  27.672  1.00  0.00    -0.237 OA
ATOM     89  O   UNL A   1      46.418  36.162  25.943  1.00  0.00    -0.744 OA
ENDBRANCH  82  86
ENDBRANCH  56  79
ENDBRANCH  30  31
ENDBRANCH  23  25
ENDBRANCH  22  23
ENDBRANCH  21  22
ENDBRANCH   1  21
TORSDOF 17
ENDMDL
MODEL 2
REMARK VINA RESULT:     -11.1      2.033      3.436
REMARK SMILES C[C@H]([C@@H](C)C(=O)OCCOC(=O)c1ccc(-c2c3nc(c(-c4cc(S(=O)(=O)[O-])ccc4F)c4ccc([nH]4)c(-c4cc(S(=O)(=O)[O-])ccc4F)c4nc(c(-c5cc(S(=O)(=O)[O-])ccc5F)c5ccc2[nH]5)C=C4)C=C3)cc1)[NH+]1CCN(c2nccs2)CC1
REMARK SMILES IDX 8 1 7 2 5 3 6 4 3 5 4 6 2 7 1 8 76 9 77 10 86 11 78 13 85 14
REMARK SMILES IDX 79 15 80 16 81 17 84 18 82 19 83 20 9 21 10 22 11 23 12 24
REMARK SMILES IDX 13 25 14 26 75 27 15 28 74 29 16 30 17 31 18 32 68 33 19 34
REMARK SMILES IDX 73 35 67 36 69 37 20 38 72 39 66 40 65 41 21 43 53 44 33 45
REMARK SMILES IDX 52 46 34 47 37 48 51 49 70 50 35 51 36 52 50 54 71 55 38 56
REMARK SMILES IDX 22 57 23 58 31 59 24 60 30 61 32 62 29 63 25 64 26 65 27 66
REMARK SMILES IDX 28 67 54 68 55 69 63 70 56 71 62 72 64 73 61 74 57 75 58 76
REMARK SMILES IDX 59 77 60 78 39 79 40 80 48 81 41 82 47 83 49 84 46 85 42 86
REMARK SMILES IDX 43 87 44 88 45 89
REMARK H PARENT 76 12 69 42 37 53
REMARK Flexibility Score: inf
ROOT
ATOM      1  C   UNL A   1      36.368  22.600  23.586  1.00  0.00     0.274 C 
ENDROOT
BRANCH   1   2
ATOM      2  O   UNL A   1      34.958  22.565  23.888  1.00  0.00    -0.462 OA
BRANCH   2   3
ATOM      3  C   UNL A   1      34.163  23.335  23.106  1.00  0.00     0.314 C 
ATOM      4  O   UNL A   1      34.190  23.323  21.879  1.00  0.00    -0.252 OA
BRANCH   3   5
ATOM      5  C   UNL A   1      33.302  24.326  23.881  1.00  0.00     0.154 C 
ATOM      6  C   UNL A   1      33.530  25.707  23.268  1.00  0.00     0.026 C 
BRANCH   5   7
ATOM      7  C   UNL A   1      33.371  24.186  25.433  1.00  0.00     0.195 C 
ATOM      8  C   UNL A   1      33.127  25.515  26.174  1.00  0.00     0.076 C 
BRANCH   7   9
ATOM      9  N   UNL A   1      32.480  23.234  26.139  1.00  0.00    -0.329 N 
ATOM     10  C   UNL A   1      31.448  22.489  25.415  1.00  0.00     0.284 C 
ATOM     11  C   UNL A   1      33.170  22.312  27.072  1.00  0.00     0.284 C 
ATOM     12  H   UNL A   1      31.950  23.949  26.637  1.00  0.00     0.348 HD
ATOM     13  C   UNL A   1      31.924  21.216  24.685  1.00  0.00     0.180 C 
ATOM     14  C   UNL A   1      33.686  20.993  26.455  1.00  0.00     0.180 C 
ATOM     15  N   UNL A   1      32.697  20.362  25.576  1.00  0.00    -0.337 N 
BRANCH  15  16
ATOM     16  C   UNL A   1      32.860  19.043  25.290  1.00  0.00     0.185 A 
ATOM     17  N   UNL A   1      32.531  18.082  26.124  1.00  0.00    -0.229 NA
ATOM     18  S   UNL A   1      33.539  18.482  23.796  1.00  0.00    -0.106 S 
ATOM     19  C   UNL A   1      32.780  16.845  25.563  1.00  0.00     0.125 A 
ATOM     20  C   UNL A   1      33.354  16.864  24.313  1.00  0.00     0.088 A 
ENDBRANCH  15  16
ENDBRANCH   7   9
ENDBRANCH   5   7
ENDBRANCH   3   5
ENDBRANCH   2   3
ENDBRANCH   1   2
BRANCH   1  21
ATOM     21  C   UNL A   1      37.141  21.456  24.248  1.00  0.00     0.275 C 
BRANCH  21  22
ATOM     22  O   UNL A   1      37.436  21.730  25.629  1.00  0.00    -0.458 OA
BRANCH  22  23
ATOM     23  C   UNL A   1      38.712  21.467  25.998  1.00  0.00     0.338 C 
ATOM     24  O   UNL A   1      39.337  20.443  25.783  1.00  0.00    -0.246 OA
BRANCH  23  25
ATOM     25  C   UNL A   1      39.323  22.664  26.596  1.00  0.00     0.060 A 
ATOM     26  C   UNL A   1      38.907  23.912  26.125  1.00  0.00     0.016 A 
ATOM     27  C   UNL A   1      40.355  22.568  27.528  1.00  0.00     0.016 A 
ATOM     28  C   UNL A   1      39.541  25.074  26.556  1.00  0.00     0.010 A 
ATOM     29  C   UNL A   1      40.983  23.737  27.973  1.00  0.00     0.010 A 
ATOM     30  C   UNL A   1      40.593  24.995  27.477  1.00  0.00    -0.014 A 
BRANCH  30  31
ATOM     31  C   UNL A   1      41.319  26.226  27.876  1.00  0.00     0.031 A 
ATOM     32  C   UNL A   1      40.601  27.298  28.645  1.00  0.00     0.074 A 
ATOM     33  C   UNL A   1      42.619  26.371  27.563  1.00  0.00     0.049 A 
ATOM     34  N   UNL A   1      41.013  28.491  28.989  1.00  0.00    -0.248 NA
ATOM     35  C   UNL A   1      39.231  26.984  29.077  1.00  0.00     0.031 C 
ATOM     36  C   UNL A   1      43.435  25.376  26.867  1.00  0.00     0.029 A 
ATOM     37  N   UNL A   1      43.480  27.419  27.778  1.00  0.00    -0.354 N 
ATOM     38  C   UNL A   1      39.950  29.080  29.666  1.00  0.00     0.074 A 
ATOM     39  C   UNL A   1      38.865  28.118  29.657  1.00  0.00     0.031 C 
ATOM     40  C   UNL A   1      44.676  25.864  26.706  1.00  0.00     0.029 A 
ATOM     41  C   UNL A   1      44.729  27.223  27.236  1.00  0.00     0.049 A 
ATOM     42  H   UNL A   1      43.228  28.231  28.275  1.00  0.00     0.167 HD
ATOM     43  C   UNL A   1      39.888  30.306  30.243  1.00  0.00     0.034 A 
ATOM     44  C   UNL A   1      45.780  28.060  27.142  1.00  0.00     0.034 A 
ATOM     45  C   UNL A   1      40.979  31.251  30.239  1.00  0.00     0.049 A 
ATOM     46  C   UNL A   1      45.664  29.448  27.720  1.00  0.00     0.074 A 
ATOM     47  C   UNL A   1      41.027  32.520  30.792  1.00  0.00     0.029 A 
ATOM     48  N   UNL A   1      42.219  31.033  29.648  1.00  0.00    -0.354 N 
ATOM     49  N   UNL A   1      44.645  30.005  28.331  1.00  0.00    -0.248 NA
ATOM     50  C   UNL A   1      46.841  30.317  27.594  1.00  0.00     0.031 C 
ATOM     51  C   UNL A   1      42.268  33.090  30.482  1.00  0.00     0.029 A 
ATOM     52  C   UNL A   1      43.024  32.152  29.798  1.00  0.00     0.049 A 
ATOM     53  H   UNL A   1      42.485  30.204  29.189  1.00  0.00     0.167 HD
ATOM     54  C   UNL A   1      45.065  31.285  28.681  1.00  0.00     0.074 A 
ATOM     55  C   UNL A   1      46.435  31.409  28.226  1.00  0.00     0.031 C 
ATOM     56  C   UNL A   1      44.383  32.267  29.323  1.00  0.00     0.034 A 
BRANCH  43  57
ATOM     57  C   UNL A   1      38.575  30.709  30.869  1.00  0.00     0.023 A 
ATOM     58  C   UNL A   1      37.552  31.321  30.123  1.00  0.00     0.031 A 
ATOM     59  C   UNL A   1      38.358  30.510  32.244  1.00  0.00     0.131 A 
ATOM     60  C   UNL A   1      36.392  31.778  30.769  1.00  0.00     0.055 A 
ATOM     61  C   UNL A   1      37.169  30.899  32.867  1.00  0.00     0.041 A 
ATOM     62  F   UNL A   1      39.306  29.952  33.013  1.00  0.00    -0.206 F 
ATOM     63  C   UNL A   1      36.184  31.549  32.131  1.00  0.00     0.022 A 
BRANCH  60  64
ATOM     64  S   UNL A   1      35.222  32.800  29.833  1.00  0.00     0.124 S 
ATOM     65  O   UNL A   1      36.019  33.996  29.570  1.00  0.00    -0.237 OA
ATOM     66  O   UNL A   1      34.924  31.961  28.678  1.00  0.00    -0.237 OA
ATOM     67  O   UNL A   1      34.113  32.994  30.766  1.00  0.00    -0.744 OA
ENDBRANCH  60  64
ENDBRANCH  43  57
BRANCH  44  68
ATOM     68  C   UNL A   1      47.014  27.636  26.422  1.00  0.00     0.023 A 
ATOM     69  C   UNL A   1      47.152  27.824  25.040  1.00  0.00     0.031 A 
ATOM     70  C   UNL A   1      48.062  26.998  27.111  1.00  0.00     0.131 A 
ATOM     71  C   UNL A   1      48.296  27.347  24.381  1.00  0.00     0.055 A 
ATOM     72  C   UNL A   1      49.218  26.568  26.461  1.00  0.00     0.041 A 
ATOM     73  F   UNL A   1      47.978  26.793  28.436  1.00  0.00    -0.206 F 
ATOM     74  C   UNL A   1      49.335  26.732  25.084  1.00  0.00     0.022 A 
BRANCH  71  75
ATOM     75  S   UNL A   1      48.376  27.478  22.573  1.00  0.00     0.124 S 
ATOM     76  O   UNL A   1      49.632  28.195  22.383  1.00  0.00    -0.237 OA
ATOM     77  O   UNL A   1      48.368  26.078  22.167  1.00  0.00    -0.237 OA
ATOM     78  O   UNL A   1      47.170  28.231  22.233  1.00  0.00    -0.744 OA
ENDBRANCH  71  75
ENDBRANCH  44  68
BRANCH  56  79
ATOM     79  C   UNL A   1      45.134  33.545  29.604  1.00  0.00     0.023 A 
ATOM     80  C   UNL A   1      45.102  34.633  28.713  1.00  0.00     0.031 A 
ATOM     81  C   UNL A   1      45.909  33.666  30.771  1.00  0.00     0.131 A 
ATOM     82  C   UNL A   1      45.872  35.775  28.979  1.00  0.00     0.055 A 
ATOM     83  C   UNL A   1      46.631  34.825  31.056  1.00  0.00     0.041 A 
ATOM     84  F   UNL A   1      45.977  32.656  31.653  1.00  0.00    -0.206 F 
ATOM     85  C   UNL A   1      46.625  35.883  30.151  1.00  0.00     0.022 A 
BRANCH  82  86
ATOM     86  S   UNL A   1      45.947  37.088  27.729  1.00  0.00     0.124 S 
ATOM     87  O   UNL A   1      44.801  36.768  26.884  1.00  0.00    -0.237 OA
ATOM     88  O   UNL A   1      45.824  38.296  28.539  1.00  0.00    -0.237 OA
ATOM     89  O   UNL A   1      47.252  36.893  27.103  1.00  0.00    -0.744 OA
ENDBRANCH  82  86
ENDBRANCH  56  79
ENDBRANCH  30  31
ENDBRANCH  23  25
ENDBRANCH  22  23
ENDBRANCH  21  22
ENDBRANCH   1  21
TORSDOF 17
ENDMDL
MODEL 3
REMARK VINA RESULT:     -11.1      5.180      9.854
REMARK SMILES C[C@H]([C@@H](C)C(=O)OCCOC(=O)c1ccc(-c2c3nc(c(-c4cc(S(=O)(=O)[O-])ccc4F)c4ccc([nH]4)c(-c4cc(S(=O)(=O)[O-])ccc4F)c4nc(c(-c5cc(S(=O)(=O)[O-])ccc5F)c5ccc2[nH]5)C=C4)C=C3)cc1)[NH+]1CCN(c2nccs2)CC1
REMARK SMILES IDX 8 1 7 2 5 3 6 4 3 5 4 6 2 7 1 8 76 9 77 10 86 11 78 13 85 14
REMARK SMILES IDX 79 15 80 16 81 17 84 18 82 19 83 20 9 21 10 22 11 23 12 24
REMARK SMILES IDX 13 25 14 26 75 27 15 28 74 29 16 30 17 31 18 32 68 33 19 34
REMARK SMILES IDX 73 35 67 36 69 37 20 38 72 39 66 40 65 41 21 43 53 44 33 45
REMARK SMILES IDX 52 46 34 47 37 48 51 49 70 50 35 51 36 52 50 54 71 55 38 56
REMARK SMILES IDX 22 57 23 58 31 59 24 60 30 61 32 62 29 63 25 64 26 65 27 66
REMARK SMILES IDX 28 67 54 68 55 69 63 70 56 71 62 72 64 73 61 74 57 75 58 76
REMARK SMILES IDX 59 77 60 78 39 79 40 80 48 81 41 82 47 83 49 84 46 85 42 86
REMARK SMILES IDX 43 87 44 88 45 89
REMARK H PARENT 76 12 69 42 37 53
REMARK Flexibility Score: inf
ROOT
ATOM      1  C   UNL A   1      31.808  28.759  27.313  1.00  0.00     0.274 C 
ENDROOT
BRANCH   1   2
ATOM      2  O   UNL A   1      31.612  27.663  26.397  1.00  0.00    -0.462 OA
BRANCH   2   3
ATOM      3  C   UNL A   1      32.724  26.964  26.061  1.00  0.00     0.314 C 
ATOM      4  O   UNL A   1      33.838  27.181  26.528  1.00  0.00    -0.252 OA
BRANCH   3   5
ATOM      5  C   UNL A   1      32.505  25.949  24.944  1.00  0.00     0.154 C 
ATOM      6  C   UNL A   1      32.204  24.603  25.603  1.00  0.00     0.026 C 
BRANCH   5   7
ATOM      7  C   UNL A   1      33.560  25.991  23.798  1.00  0.00     0.195 C 
ATOM      8  C   UNL A   1      34.078  24.596  23.397  1.00  0.00     0.076 C 
BRANCH   7   9
ATOM      9  N   UNL A   1      33.226  26.618  22.495  1.00  0.00    -0.329 N 
ATOM     10  C   UNL A   1      31.950  26.343  21.832  1.00  0.00     0.284 C 
ATOM     11  C   UNL A   1      33.504  28.071  22.414  1.00  0.00     0.284 C 
ATOM     12  H   UNL A   1      33.896  26.074  21.952  1.00  0.00     0.348 HD
ATOM     13  C   UNL A   1      30.743  27.165  22.328  1.00  0.00     0.180 C 
ATOM     14  C   UNL A   1      32.360  29.001  22.879  1.00  0.00     0.180 C 
ATOM     15  N   UNL A   1      31.055  28.588  22.352  1.00  0.00    -0.337 N 
BRANCH  15  16
ATOM     16  C   UNL A   1      30.056  29.509  22.354  1.00  0.00     0.185 A 
ATOM     17  N   UNL A   1      29.321  29.773  21.297  1.00  0.00    -0.229 NA
ATOM     18  S   UNL A   1      29.652  30.454  23.751  1.00  0.00    -0.106 S 
ATOM     19  C   UNL A   1      28.368  30.727  21.593  1.00  0.00     0.125 A 
ATOM     20  C   UNL A   1      28.412  31.235  22.871  1.00  0.00     0.088 A 
ENDBRANCH  15  16
ENDBRANCH   7   9
ENDBRANCH   5   7
ENDBRANCH   3   5
ENDBRANCH   2   3
ENDBRANCH   1   2
BRANCH   1  21
ATOM     21  C   UNL A   1      31.930  30.109  26.600  1.00  0.00     0.275 C 
BRANCH  21  22
ATOM     22  O   UNL A   1      33.302  30.501  26.417  1.00  0.00    -0.458 OA
BRANCH  22  23
ATOM     23  C   UNL A   1      33.736  31.457  27.273  1.00  0.00     0.338 C 
ATOM     24  O   UNL A   1      33.101  32.413  27.682  1.00  0.00    -0.246 OA
BRANCH  23  25
ATOM     25  C   UNL A   1      35.076  31.115  27.775  1.00  0.00     0.060 A 
ATOM     26  C   UNL A   1      35.327  29.781  28.106  1.00  0.00     0.016 A 
ATOM     27  C   UNL A   1      36.038  32.096  28.012  1.00  0.00     0.016 A 
ATOM     28  C   UNL A   1      36.529  29.421  28.709  1.00  0.00     0.010 A 
ATOM     29  C   UNL A   1      37.252  31.731  28.605  1.00  0.00     0.010 A 
ATOM     30  C   UNL A   1      37.498  30.395  28.974  1.00  0.00    -0.014 A 
BRANCH  30  31
ATOM     31  C   UNL A   1      38.745  30.023  29.686  1.00  0.00     0.031 A 
ATOM     32  C   UNL A   1      39.679  29.016  29.077  1.00  0.00     0.074 A 
ATOM     33  C   UNL A   1      39.043  30.597  30.866  1.00  0.00     0.049 A 
ATOM     34  N   UNL A   1      40.755  28.469  29.581  1.00  0.00    -0.248 NA
ATOM     35  C   UNL A   1      39.351  28.561  27.718  1.00  0.00     0.031 C 
ATOM     36  C   UNL A   1      38.242  31.626  31.528  1.00  0.00     0.029 A 
ATOM     37  N   UNL A   1      40.095  30.389  31.722  1.00  0.00    -0.354 N 
ATOM     38  C   UNL A   1      41.227  27.593  28.611  1.00  0.00     0.074 A 
ATOM     39  C   UNL A   1      40.300  27.664  27.498  1.00  0.00     0.031 C 
ATOM     40  C   UNL A   1      38.827  31.953  32.692  1.00  0.00     0.029 A 
ATOM     41  C   UNL A   1      40.012  31.122  32.883  1.00  0.00     0.049 A 
ATOM     42  H   UNL A   1      40.840  29.776  31.523  1.00  0.00     0.167 HD
ATOM     43  C   UNL A   1      42.332  26.805  28.644  1.00  0.00     0.034 A 
ATOM     44  C   UNL A   1      40.778  31.094  33.990  1.00  0.00     0.034 A 
ATOM     45  C   UNL A   1      43.241  26.747  29.764  1.00  0.00     0.049 A 
ATOM     46  C   UNL A   1      41.957  30.155  34.040  1.00  0.00     0.074 A 
ATOM     47  C   UNL A   1      44.390  25.986  29.906  1.00  0.00     0.029 A 
ATOM     48  N   UNL A   1      43.105  27.477  30.939  1.00  0.00    -0.354 N 
ATOM     49  N   UNL A   1      42.377  29.308  33.129  1.00  0.00    -0.248 NA
ATOM     50  C   UNL A   1      42.763  30.168  35.267  1.00  0.00     0.031 C 
ATOM     51  C   UNL A   1      44.911  26.209  31.187  1.00  0.00     0.029 A 
ATOM     52  C   UNL A   1      44.130  27.163  31.820  1.00  0.00     0.049 A 
ATOM     53  H   UNL A   1      42.384  28.122  31.120  1.00  0.00     0.167 HD
ATOM     54  C   UNL A   1      43.509  28.703  33.666  1.00  0.00     0.074 A 
ATOM     55  C   UNL A   1      43.714  29.294  34.973  1.00  0.00     0.031 C 
ATOM     56  C   UNL A   1      44.309  27.748  33.127  1.00  0.00     0.034 A 
BRANCH  43  57
ATOM     57  C   UNL A   1      42.573  25.904  27.458  1.00  0.00     0.023 A 
ATOM     58  C   UNL A   1      42.061  24.596  27.402  1.00  0.00     0.031 A 
ATOM     59  C   UNL A   1      43.362  26.349  26.382  1.00  0.00     0.131 A 
ATOM     60  C   UNL A   1      42.403  23.756  26.330  1.00  0.00     0.055 A 
ATOM     61  C   UNL A   1      43.636  25.533  25.282  1.00  0.00     0.041 A 
ATOM     62  F   UNL A   1      43.898  27.580  26.390  1.00  0.00    -0.206 F 
ATOM     63  C   UNL A   1      43.167  24.224  25.258  1.00  0.00     0.022 A 
BRANCH  60  64
ATOM     64  S   UNL A   1      41.953  22.001  26.423  1.00  0.00     0.124 S 
ATOM     65  O   UNL A   1      42.357  21.665  27.786  1.00  0.00    -0.237 OA
ATOM     66  O   UNL A   1      40.518  22.029  26.168  1.00  0.00    -0.237 OA
ATOM     67  O   UNL A   1      42.762  21.383  25.373  1.00  0.00    -0.744 OA
ENDBRANCH  60  64
ENDBRANCH  43  57
BRANCH  44  68
ATOM     68  C   UNL A   1      40.427  31.937  35.167  1.00  0.00     0.023 A 
ATOM     69  C   UNL A   1      39.415  31.556  36.060  1.00  0.00     0.031 A 
ATOM     70  C   UNL A   1      41.081  33.162  35.392  1.00  0.00     0.131 A 
ATOM     71  C   UNL A   1      39.059  32.409  37.117  1.00  0.00     0.055 A 
ATOM     72  C   UNL A   1      40.757  33.985  36.471  1.00  0.00     0.041 A 
ATOM     73  F   UNL A   1      42.056  33.574  34.566  1.00  0.00    -0.206 F 
ATOM     74  C   UNL A   1      39.732  33.614  37.336  1.00  0.00     0.022 A 
BRANCH  71  75
ATOM     75  S   UNL A   1      37.651  31.952  38.165  1.00  0.00     0.124 S 
ATOM     76  O   UNL A   1      37.389  30.584  37.731  1.00  0.00    -0.237 OA
ATOM     77  O   UNL A   1      38.208  32.104  39.504  1.00  0.00    -0.237 OA
ATOM     78  O   UNL A   1      36.626  32.929  37.803  1.00  0.00    -0.744 OA
ENDBRANCH  71  75
ENDBRANCH  44  68
BRANCH  56  79
ATOM     79  C   UNL A   1      45.504  27.321  33.945  1.00  0.00     0.023 A 
ATOM     80  C   UNL A   1      45.452  26.208  34.804  1.00  0.00     0.031 A 
ATOM     81  C   UNL A   1      46.702  28.052  33.877  1.00  0.00     0.131 A 
ATOM     82  C   UNL A   1      46.563  25.889  35.599  1.00  0.00     0.055 A 
ATOM     83  C   UNL A   1      47.822  27.697  34.631  1.00  0.00     0.041 A 
ATOM     84  F   UNL A   1      46.804  29.124  33.076  1.00  0.00    -0.206 F 
ATOM     85  C   UNL A   1      47.751  26.618  35.507  1.00  0.00     0.022 A 
BRANCH  82  86
ATOM     86  S   UNL A   1      46.408  24.557  36.821  1.00  0.00     0.124 S 
ATOM     87  O   UNL A   1      47.140  25.102  37.959  1.00  0.00    -0.237 OA
ATOM     88  O   UNL A   1      44.961  24.451  36.985  1.00  0.00    -0.237 OA
ATOM     89  O   UNL A   1      47.041  23.415  36.166  1.00  0.00    -0.744 OA
ENDBRANCH  82  86
ENDBRANCH  56  79
ENDBRANCH  30  31
ENDBRANCH  23  25
ENDBRANCH  22  23
ENDBRANCH  21  22
ENDBRANCH   1  21
TORSDOF 17
ENDMDL
