MODEL 1
REMARK VINA RESULT:     -14.0      0.000      0.000
REMARK SMILES Cc1ccc(-c2cc(C(=O)OCCOC(=O)c3ccc(-c4c5nc(c(-c6cc(S(=O)(=O)[O-])ccc6F)c6ccc([nH]6)c(-c6cc(S(=O)(=O)[O-])ccc6F)c6nc(c(-c7cc(S(=O)(=O)[O-])ccc7F)c7ccc4[nH]7)C=C6)C=C5)cc3)c3c(-c4cccc([N+](=O)[O-])c4)[nH]nc3n2)cc1
REMARK SMILES IDX 13 1 12 2 11 3 9 4 10 5 8 6 6 7 7 8 94 9 93 10 80 11 92 12
REMARK SMILES IDX 81 13 91 14 5 16 1 17 2 18 3 19 96 20 4 21 95 22 82 23 83 24
REMARK SMILES IDX 90 25 84 26 86 27 85 28 87 29 88 30 89 31 14 32 15 33 16 34
REMARK SMILES IDX 17 35 18 36 79 37 19 38 78 39 20 40 21 41 22 42 72 43 23 44
REMARK SMILES IDX 77 45 71 46 73 47 24 48 76 49 70 50 69 51 25 53 57 54 37 55
REMARK SMILES IDX 56 56 38 57 41 58 55 59 74 60 39 61 40 62 54 64 75 65 42 66
REMARK SMILES IDX 26 67 27 68 35 69 28 70 34 71 36 72 33 73 29 74 30 75 31 76
REMARK SMILES IDX 32 77 58 78 59 79 67 80 60 81 66 82 68 83 65 84 61 85 62 86
REMARK SMILES IDX 63 87 64 88 43 89 44 90 52 91 45 92 51 93 53 94 50 95 46 96
REMARK SMILES IDX 47 97 48 98 49 99
REMARK H PARENT 91 15 73 52 41 63
REMARK Flexibility Score: inf
ROOT
ATOM      1  C   UNL A   1      33.268  29.493  26.938  1.00  0.00     0.275 C 
ENDROOT
BRANCH   1   2
ATOM      2  C   UNL A   1      31.996  28.700  27.322  1.00  0.00     0.275 C 
BRANCH   2   3
ATOM      3  O   UNL A   1      32.181  27.257  27.325  1.00  0.00    -0.458 OA
BRANCH   3   4
ATOM      4  C   UNL A   1      31.571  26.597  26.297  1.00  0.00     0.339 C 
ATOM      5  O   UNL A   1      30.759  25.691  26.441  1.00  0.00    -0.246 OA
BRANCH   4   6
ATOM      6  C   UNL A   1      32.288  26.691  25.018  1.00  0.00     0.075 A 
ATOM      7  C   UNL A   1      34.055  25.171  24.186  1.00  0.00     0.074 A 
ATOM      8  C   UNL A   1      33.474  25.947  25.198  1.00  0.00     0.045 A 
ATOM      9  N   UNL A   1      33.682  25.148  22.896  1.00  0.00    -0.226 NA
ATOM     10  C   UNL A   1      32.592  25.907  22.641  1.00  0.00     0.182 A 
ATOM     11  C   UNL A   1      31.851  26.675  23.651  1.00  0.00     0.061 A 
ATOM     12  N   UNL A   1      32.073  26.010  21.428  1.00  0.00    -0.154 NA
ATOM     13  C   UNL A   1      30.822  27.279  22.896  1.00  0.00     0.076 A 
ATOM     14  N   UNL A   1      31.022  26.787  21.613  1.00  0.00    -0.275 N 
ATOM     15  H   UNL A   1      30.408  27.007  20.875  1.00  0.00     0.190 HD
BRANCH   7  16
ATOM     16  C   UNL A   1      35.075  24.209  24.590  1.00  0.00     0.000 A 
ATOM     17  C   UNL A   1      38.655  22.008  25.499  1.00  0.00     0.044 C 
ATOM     18  C   UNL A   1      37.367  22.721  25.223  1.00  0.00    -0.051 A 
ATOM     19  C   UNL A   1      36.771  22.607  23.960  1.00  0.00     0.004 A 
ATOM     20  C   UNL A   1      36.774  23.533  26.194  1.00  0.00     0.004 A 
ATOM     21  C   UNL A   1      35.629  23.341  23.648  1.00  0.00     0.010 A 
ATOM     22  C   UNL A   1      35.633  24.270  25.880  1.00  0.00     0.010 A 
ENDBRANCH   7  16
BRANCH  13  23
ATOM     23  C   UNL A   1      29.719  28.269  22.979  1.00  0.00     0.007 A 
ATOM     24  C   UNL A   1      28.384  27.806  23.134  1.00  0.00     0.011 A 
ATOM     25  C   UNL A   1      29.890  29.642  22.812  1.00  0.00     0.096 A 
ATOM     26  C   UNL A   1      27.277  28.671  23.169  1.00  0.00     0.008 A 
ATOM     27  C   UNL A   1      28.781  30.506  22.953  1.00  0.00     0.270 A 
ATOM     28  C   UNL A   1      27.477  30.042  23.121  1.00  0.00     0.085 A 
BRANCH  27  29
ATOM     29  N   UNL A   1      28.991  31.943  22.980  1.00  0.00     0.062 N 
ATOM     30  O   UNL A   1      28.727  32.576  21.952  1.00  0.00    -0.258 OA
ATOM     31  O   UNL A   1      29.439  32.417  24.034  1.00  0.00    -0.258 OA
ENDBRANCH  27  29
ENDBRANCH  13  23
ENDBRANCH   4   6
ENDBRANCH   3   4
ENDBRANCH   2   3
ENDBRANCH   1   2
BRANCH   1  32
ATOM     32  O   UNL A   1      34.471  29.316  27.713  1.00  0.00    -0.458 OA
BRANCH  32  33
ATOM     33  C   UNL A   1      35.205  30.419  27.922  1.00  0.00     0.338 C 
ATOM     34  O   UNL A   1      34.706  31.526  28.151  1.00  0.00    -0.246 OA
BRANCH  33  35
ATOM     35  C   UNL A   1      36.610  30.052  28.180  1.00  0.00     0.060 A 
ATOM     36  C   UNL A   1      36.930  29.384  29.369  1.00  0.00     0.016 A 
ATOM     37  C   UNL A   1      37.511  30.081  27.120  1.00  0.00     0.016 A 
ATOM     38  C   UNL A   1      38.103  28.659  29.490  1.00  0.00     0.010 A 
ATOM     39  C   UNL A   1      38.643  29.316  27.203  1.00  0.00     0.010 A 
ATOM     40  C   UNL A   1      38.937  28.633  28.388  1.00  0.00    -0.014 A 
BRANCH  40  41
ATOM     41  C   UNL A   1      40.260  28.066  28.446  1.00  0.00     0.031 A 
ATOM     42  C   UNL A   1      40.428  26.611  28.273  1.00  0.00     0.074 A 
ATOM     43  C   UNL A   1      41.207  29.023  28.568  1.00  0.00     0.049 A 
ATOM     44  N   UNL A   1      41.334  25.905  28.851  1.00  0.00    -0.248 NA
ATOM     45  C   UNL A   1      39.509  25.780  27.479  1.00  0.00     0.031 C 
ATOM     46  C   UNL A   1      42.638  28.955  28.381  1.00  0.00     0.029 A 
ATOM     47  N   UNL A   1      41.015  30.338  29.025  1.00  0.00    -0.354 N 
ATOM     48  C   UNL A   1      41.412  24.724  28.134  1.00  0.00     0.074 A 
ATOM     49  C   UNL A   1      40.140  24.598  27.471  1.00  0.00     0.031 C 
ATOM     50  C   UNL A   1      43.203  29.998  29.024  1.00  0.00     0.029 A 
ATOM     51  C   UNL A   1      42.150  30.691  29.755  1.00  0.00     0.049 A 
ATOM     52  H   UNL A   1      40.226  30.905  28.862  1.00  0.00     0.167 HD
ATOM     53  C   UNL A   1      42.641  24.164  27.935  1.00  0.00     0.034 A 
ATOM     54  C   UNL A   1      42.112  30.876  31.111  1.00  0.00     0.034 A 
ATOM     55  C   UNL A   1      43.658  24.992  28.582  1.00  0.00     0.049 A 
ATOM     56  C   UNL A   1      42.856  29.752  31.805  1.00  0.00     0.074 A 
ATOM     57  C   UNL A   1      44.490  25.975  28.074  1.00  0.00     0.029 A 
ATOM     58  N   UNL A   1      43.634  25.161  29.958  1.00  0.00    -0.354 N 
ATOM     59  N   UNL A   1      43.066  28.572  31.282  1.00  0.00    -0.248 NA
ATOM     60  C   UNL A   1      43.458  29.901  33.121  1.00  0.00     0.031 C 
ATOM     61  C   UNL A   1      44.915  26.785  29.158  1.00  0.00     0.029 A 
ATOM     62  C   UNL A   1      44.336  26.296  30.315  1.00  0.00     0.049 A 
ATOM     63  H   UNL A   1      43.182  24.558  30.591  1.00  0.00     0.167 HD
ATOM     64  C   UNL A   1      43.932  27.869  32.081  1.00  0.00     0.074 A 
ATOM     65  C   UNL A   1      44.126  28.741  33.231  1.00  0.00     0.031 C 
ATOM     66  C   UNL A   1      44.466  26.661  31.713  1.00  0.00     0.034 A 
BRANCH  53  67
ATOM     67  C   UNL A   1      42.996  23.157  26.860  1.00  0.00     0.023 A 
ATOM     68  C   UNL A   1      42.534  21.829  27.009  1.00  0.00     0.031 A 
ATOM     69  C   UNL A   1      43.761  23.399  25.707  1.00  0.00     0.131 A 
ATOM     70  C   UNL A   1      42.888  20.806  26.115  1.00  0.00     0.055 A 
ATOM     71  C   UNL A   1      44.130  22.374  24.816  1.00  0.00     0.041 A 
ATOM     72  F   UNL A   1      44.154  24.636  25.372  1.00  0.00    -0.206 F 
ATOM     73  C   UNL A   1      43.702  21.067  25.023  1.00  0.00     0.022 A 
BRANCH  70  74
ATOM     74  S   UNL A   1      42.256  19.132  26.420  1.00  0.00     0.124 S 
ATOM     75  O   UNL A   1      43.262  18.301  25.767  1.00  0.00    -0.237 OA
ATOM     76  O   UNL A   1      42.218  19.074  27.877  1.00  0.00    -0.237 OA
ATOM     77  O   UNL A   1      40.947  19.142  25.770  1.00  0.00    -0.744 OA
ENDBRANCH  70  74
ENDBRANCH  53  67
BRANCH  54  78
ATOM     78  C   UNL A   1      40.834  31.469  31.609  1.00  0.00     0.023 A 
ATOM     79  C   UNL A   1      40.053  30.714  32.519  1.00  0.00     0.031 A 
ATOM     80  C   UNL A   1      40.725  32.859  31.640  1.00  0.00     0.131 A 
ATOM     81  C   UNL A   1      39.436  31.360  33.600  1.00  0.00     0.055 A 
ATOM     82  C   UNL A   1      40.132  33.474  32.730  1.00  0.00     0.041 A 
ATOM     83  F   UNL A   1      41.359  33.638  30.754  1.00  0.00    -0.206 F 
ATOM     84  C   UNL A   1      39.551  32.732  33.752  1.00  0.00     0.022 A 
BRANCH  81  85
ATOM     85  S   UNL A   1      38.540  30.447  34.881  1.00  0.00     0.124 S 
ATOM     86  O   UNL A   1      39.602  30.023  35.786  1.00  0.00    -0.237 OA
ATOM     87  O   UNL A   1      37.631  31.467  35.392  1.00  0.00    -0.237 OA
ATOM     88  O   UNL A   1      37.920  29.367  34.114  1.00  0.00    -0.744 OA
ENDBRANCH  81  85
ENDBRANCH  54  78
BRANCH  66  89
ATOM     89  C   UNL A   1      45.305  25.754  32.583  1.00  0.00     0.023 A 
ATOM     90  C   UNL A   1      44.756  24.710  33.325  1.00  0.00     0.031 A 
ATOM     91  C   UNL A   1      46.716  25.890  32.666  1.00  0.00     0.131 A 
ATOM     92  C   UNL A   1      45.542  23.969  34.216  1.00  0.00     0.055 A 
ATOM     93  C   UNL A   1      47.516  25.061  33.454  1.00  0.00     0.041 A 
ATOM     94  F   UNL A   1      47.392  26.829  31.989  1.00  0.00    -0.206 F 
ATOM     95  C   UNL A   1      46.924  24.112  34.267  1.00  0.00     0.022 A 
BRANCH  92  96
ATOM     96  S   UNL A   1      44.672  22.916  35.398  1.00  0.00     0.124 S 
ATOM     97  O   UNL A   1      45.359  21.639  35.216  1.00  0.00    -0.237 OA
ATOM     98  O   UNL A   1      44.925  23.592  36.666  1.00  0.00    -0.237 OA
ATOM     99  O   UNL A   1      43.288  22.952  34.933  1.00  0.00    -0.744 OA
ENDBRANCH  92  96
ENDBRANCH  66  89
ENDBRANCH  40  41
ENDBRANCH  33  35
ENDBRANCH  32  33
ENDBRANCH   1  32
TORSDOF 17
ENDMDL
MODEL 2
REMARK VINA RESULT:     -13.8      3.799      9.691
REMARK SMILES Cc1ccc(-c2cc(C(=O)OCCOC(=O)c3ccc(-c4c5nc(c(-c6cc(S(=O)(=O)[O-])ccc6F)c6ccc([nH]6)c(-c6cc(S(=O)(=O)[O-])ccc6F)c6nc(c(-c7cc(S(=O)(=O)[O-])ccc7F)c7ccc4[nH]7)C=C6)C=C5)cc3)c3c(-c4cccc([N+](=O)[O-])c4)[nH]nc3n2)cc1
REMARK SMILES IDX 13 1 12 2 11 3 9 4 10 5 8 6 6 7 7 8 94 9 93 10 80 11 92 12
REMARK SMILES IDX 81 13 91 14 5 16 1 17 2 18 3 19 96 20 4 21 95 22 82 23 83 24
REMARK SMILES IDX 90 25 84 26 86 27 85 28 87 29 88 30 89 31 14 32 15 33 16 34
REMARK SMILES IDX 17 35 18 36 79 37 19 38 78 39 20 40 21 41 22 42 72 43 23 44
REMARK SMILES IDX 77 45 71 46 73 47 24 48 76 49 70 50 69 51 25 53 57 54 37 55
REMARK SMILES IDX 56 56 38 57 41 58 55 59 74 60 39 61 40 62 54 64 75 65 42 66
REMARK SMILES IDX 26 67 27 68 35 69 28 70 34 71 36 72 33 73 29 74 30 75 31 76
REMARK SMILES IDX 32 77 58 78 59 79 67 80 60 81 66 82 68 83 65 84 61 85 62 86
REMARK SMILES IDX 63 87 64 88 43 89 44 90 52 91 45 92 51 93 53 94 50 95 46 96
REMARK SMILES IDX 47 97 48 98 49 99
REMARK H PARENT 91 15 73 52 41 63
REMARK Flexibility Score: inf
ROOT
ATOM      1  C   UNL A   1      36.855  21.026  24.613  1.00  0.00     0.275 C 
ENDROOT
BRANCH   1   2
ATOM      2  C   UNL A   1      35.812  21.072  25.755  1.00  0.00     0.275 C 
BRANCH   2   3
ATOM      3  O   UNL A   1      35.295  22.404  26.026  1.00  0.00    -0.458 OA
BRANCH   3   4
ATOM      4  C   UNL A   1      34.129  22.436  26.734  1.00  0.00     0.339 C 
ATOM      5  O   UNL A   1      33.882  21.719  27.697  1.00  0.00    -0.246 OA
BRANCH   4   6
ATOM      6  C   UNL A   1      33.000  23.027  26.002  1.00  0.00     0.075 A 
ATOM      7  C   UNL A   1      32.474  25.435  25.769  1.00  0.00     0.074 A 
ATOM      8  C   UNL A   1      32.844  24.323  26.538  1.00  0.00     0.045 A 
ATOM      9  N   UNL A   1      32.065  25.407  24.490  1.00  0.00    -0.226 NA
ATOM     10  C   UNL A   1      32.117  24.174  23.937  1.00  0.00     0.182 A 
ATOM     11  C   UNL A   1      32.587  22.966  24.629  1.00  0.00     0.061 A 
ATOM     12  N   UNL A   1      31.756  23.946  22.684  1.00  0.00    -0.154 NA
ATOM     13  C   UNL A   1      32.448  21.964  23.644  1.00  0.00     0.076 A 
ATOM     14  N   UNL A   1      31.994  22.656  22.530  1.00  0.00    -0.275 N 
ATOM     15  H   UNL A   1      31.855  22.207  21.665  1.00  0.00     0.190 HD
BRANCH   7  16
ATOM     16  C   UNL A   1      32.665  26.751  26.367  1.00  0.00     0.000 A 
ATOM     17  C   UNL A   1      32.959  30.932  27.327  1.00  0.00     0.044 C 
ATOM     18  C   UNL A   1      32.866  29.459  27.069  1.00  0.00    -0.051 A 
ATOM     19  C   UNL A   1      33.964  28.783  26.518  1.00  0.00     0.004 A 
ATOM     20  C   UNL A   1      31.686  28.758  27.329  1.00  0.00     0.004 A 
ATOM     21  C   UNL A   1      33.866  27.437  26.176  1.00  0.00     0.010 A 
ATOM     22  C   UNL A   1      31.587  27.411  26.984  1.00  0.00     0.010 A 
ENDBRANCH   7  16
BRANCH  13  23
ATOM     23  C   UNL A   1      32.532  20.497  23.427  1.00  0.00     0.007 A 
ATOM     24  C   UNL A   1      32.127  19.959  22.175  1.00  0.00     0.011 A 
ATOM     25  C   UNL A   1      32.893  19.583  24.415  1.00  0.00     0.096 A 
ATOM     26  C   UNL A   1      32.125  18.579  21.905  1.00  0.00     0.008 A 
ATOM     27  C   UNL A   1      32.986  18.209  24.095  1.00  0.00     0.270 A 
ATOM     28  C   UNL A   1      32.600  17.693  22.859  1.00  0.00     0.085 A 
BRANCH  27  29
ATOM     29  N   UNL A   1      33.552  17.285  25.061  1.00  0.00     0.062 N 
ATOM     30  O   UNL A   1      34.718  16.917  24.883  1.00  0.00    -0.258 OA
ATOM     31  O   UNL A   1      32.806  16.924  25.983  1.00  0.00    -0.258 OA
ENDBRANCH  27  29
ENDBRANCH  13  23
ENDBRANCH   4   6
ENDBRANCH   3   4
ENDBRANCH   2   3
ENDBRANCH   1   2
BRANCH   1  32
ATOM     32  O   UNL A   1      38.160  21.601  24.824  1.00  0.00    -0.458 OA
BRANCH  32  33
ATOM     33  C   UNL A   1      38.938  20.983  25.726  1.00  0.00     0.338 C 
ATOM     34  O   UNL A   1      39.278  19.800  25.621  1.00  0.00    -0.246 OA
BRANCH  33  35
ATOM     35  C   UNL A   1      39.577  21.976  26.609  1.00  0.00     0.060 A 
ATOM     36  C   UNL A   1      40.586  21.556  27.485  1.00  0.00     0.016 A 
ATOM     37  C   UNL A   1      39.398  23.327  26.331  1.00  0.00     0.016 A 
ATOM     38  C   UNL A   1      41.490  22.457  28.020  1.00  0.00     0.010 A 
ATOM     39  C   UNL A   1      40.323  24.220  26.802  1.00  0.00     0.010 A 
ATOM     40  C   UNL A   1      41.343  23.782  27.654  1.00  0.00    -0.014 A 
BRANCH  40  41
ATOM     41  C   UNL A   1      42.102  24.835  28.277  1.00  0.00     0.031 A 
ATOM     42  C   UNL A   1      41.422  26.090  28.650  1.00  0.00     0.074 A 
ATOM     43  C   UNL A   1      43.377  24.454  28.520  1.00  0.00     0.049 A 
ATOM     44  N   UNL A   1      41.972  27.252  28.636  1.00  0.00    -0.248 NA
ATOM     45  C   UNL A   1      39.995  26.162  28.999  1.00  0.00     0.031 C 
ATOM     46  C   UNL A   1      44.389  25.050  29.361  1.00  0.00     0.029 A 
ATOM     47  N   UNL A   1      44.068  23.398  27.900  1.00  0.00    -0.354 N 
ATOM     48  C   UNL A   1      41.168  28.063  29.417  1.00  0.00     0.074 A 
ATOM     49  C   UNL A   1      39.875  27.430  29.416  1.00  0.00     0.031 C 
ATOM     50  C   UNL A   1      45.597  24.600  28.958  1.00  0.00     0.029 A 
ATOM     51  C   UNL A   1      45.394  23.803  27.755  1.00  0.00     0.049 A 
ATOM     52  H   UNL A   1      43.686  22.535  27.619  1.00  0.00     0.167 HD
ATOM     53  C   UNL A   1      41.766  28.990  30.222  1.00  0.00     0.034 A 
ATOM     54  C   UNL A   1      45.945  24.060  26.528  1.00  0.00     0.034 A 
ATOM     55  C   UNL A   1      43.215  28.914  30.049  1.00  0.00     0.049 A 
ATOM     56  C   UNL A   1      46.194  25.547  26.377  1.00  0.00     0.074 A 
ATOM     57  C   UNL A   1      44.188  28.263  30.788  1.00  0.00     0.029 A 
ATOM     58  N   UNL A   1      43.776  29.196  28.813  1.00  0.00    -0.354 N 
ATOM     59  N   UNL A   1      45.563  26.474  27.050  1.00  0.00    -0.248 NA
ATOM     60  C   UNL A   1      47.212  26.088  25.489  1.00  0.00     0.031 C 
ATOM     61  C   UNL A   1      45.324  28.094  29.956  1.00  0.00     0.029 A 
ATOM     62  C   UNL A   1      45.035  28.636  28.716  1.00  0.00     0.049 A 
ATOM     63  H   UNL A   1      43.340  29.722  28.103  1.00  0.00     0.167 HD
ATOM     64  C   UNL A   1      46.162  27.687  26.822  1.00  0.00     0.074 A 
ATOM     65  C   UNL A   1      47.174  27.390  25.818  1.00  0.00     0.031 C 
ATOM     66  C   UNL A   1      45.825  28.823  27.513  1.00  0.00     0.034 A 
BRANCH  53  67
ATOM     67  C   UNL A   1      41.139  29.655  31.430  1.00  0.00     0.023 A 
ATOM     68  C   UNL A   1      41.469  29.160  32.713  1.00  0.00     0.031 A 
ATOM     69  C   UNL A   1      40.235  30.731  31.418  1.00  0.00     0.131 A 
ATOM     70  C   UNL A   1      40.869  29.649  33.884  1.00  0.00     0.055 A 
ATOM     71  C   UNL A   1      39.620  31.215  32.588  1.00  0.00     0.041 A 
ATOM     72  F   UNL A   1      39.933  31.382  30.285  1.00  0.00    -0.206 F 
ATOM     73  C   UNL A   1      39.928  30.667  33.829  1.00  0.00     0.022 A 
BRANCH  70  74
ATOM     74  S   UNL A   1      41.352  28.920  35.474  1.00  0.00     0.124 S 
ATOM     75  O   UNL A   1      42.605  29.612  35.761  1.00  0.00    -0.237 OA
ATOM     76  O   UNL A   1      40.219  29.255  36.328  1.00  0.00    -0.237 OA
ATOM     77  O   UNL A   1      41.491  27.498  35.165  1.00  0.00    -0.744 OA
ENDBRANCH  70  74
ENDBRANCH  53  67
BRANCH  54  78
ATOM     78  C   UNL A   1      45.433  23.179  25.435  1.00  0.00     0.023 A 
ATOM     79  C   UNL A   1      45.963  21.870  25.323  1.00  0.00     0.031 A 
ATOM     80  C   UNL A   1      44.143  23.413  24.956  1.00  0.00     0.131 A 
ATOM     81  C   UNL A   1      45.106  20.802  25.022  1.00  0.00     0.055 A 
ATOM     82  C   UNL A   1      43.309  22.340  24.688  1.00  0.00     0.041 A 
ATOM     83  F   UNL A   1      43.605  24.639  24.943  1.00  0.00    -0.206 F 
ATOM     84  C   UNL A   1      43.759  21.029  24.791  1.00  0.00     0.022 A 
BRANCH  81  85
ATOM     85  S   UNL A   1      45.682  19.086  24.999  1.00  0.00     0.124 S 
ATOM     86  O   UNL A   1      46.988  19.168  25.645  1.00  0.00    -0.237 OA
ATOM     87  O   UNL A   1      44.634  18.409  25.756  1.00  0.00    -0.237 OA
ATOM     88  O   UNL A   1      45.724  18.793  23.567  1.00  0.00    -0.744 OA
ENDBRANCH  81  85
ENDBRANCH  54  78
BRANCH  66  89
ATOM     89  C   UNL A   1      46.323  30.220  27.230  1.00  0.00     0.023 A 
ATOM     90  C   UNL A   1      45.471  31.258  26.858  1.00  0.00     0.031 A 
ATOM     91  C   UNL A   1      47.692  30.571  27.365  1.00  0.00     0.131 A 
ATOM     92  C   UNL A   1      45.979  32.508  26.483  1.00  0.00     0.055 A 
ATOM     93  C   UNL A   1      48.178  31.856  27.120  1.00  0.00     0.041 A 
ATOM     94  F   UNL A   1      48.628  29.689  27.743  1.00  0.00    -0.206 F 
ATOM     95  C   UNL A   1      47.322  32.829  26.638  1.00  0.00     0.022 A 
BRANCH  92  96
ATOM     96  S   UNL A   1      44.841  33.642  25.656  1.00  0.00     0.124 S 
ATOM     97  O   UNL A   1      45.730  34.311  24.708  1.00  0.00    -0.237 OA
ATOM     98  O   UNL A   1      43.863  32.733  25.068  1.00  0.00    -0.237 OA
ATOM     99  O   UNL A   1      44.343  34.480  26.743  1.00  0.00    -0.744 OA
ENDBRANCH  92  96
ENDBRANCH  66  89
ENDBRANCH  40  41
ENDBRANCH  33  35
ENDBRANCH  32  33
ENDBRANCH   1  32
TORSDOF 17
ENDMDL
MODEL 3
REMARK VINA RESULT:     -13.8      3.274      4.975
REMARK SMILES Cc1ccc(-c2cc(C(=O)OCCOC(=O)c3ccc(-c4c5nc(c(-c6cc(S(=O)(=O)[O-])ccc6F)c6ccc([nH]6)c(-c6cc(S(=O)(=O)[O-])ccc6F)c6nc(c(-c7cc(S(=O)(=O)[O-])ccc7F)c7ccc4[nH]7)C=C6)C=C5)cc3)c3c(-c4cccc([N+](=O)[O-])c4)[nH]nc3n2)cc1
REMARK SMILES IDX 13 1 12 2 11 3 9 4 10 5 8 6 6 7 7 8 94 9 93 10 80 11 92 12
REMARK SMILES IDX 81 13 91 14 5 16 1 17 2 18 3 19 96 20 4 21 95 22 82 23 83 24
REMARK SMILES IDX 90 25 84 26 86 27 85 28 87 29 88 30 89 31 14 32 15 33 16 34
REMARK SMILES IDX 17 35 18 36 79 37 19 38 78 39 20 40 21 41 22 42 72 43 23 44
REMARK SMILES IDX 77 45 71 46 73 47 24 48 76 49 70 50 69 51 25 53 57 54 37 55
REMARK SMILES IDX 56 56 38 57 41 58 55 59 74 60 39 61 40 62 54 64 75 65 42 66
REMARK SMILES IDX 26 67 27 68 35 69 28 70 34 71 36 72 33 73 29 74 30 75 31 76
REMARK SMILES IDX 32 77 58 78 59 79 67 80 60 81 66 82 68 83 65 84 61 85 62 86
REMARK SMILES IDX 63 87 64 88 43 89 44 90 52 91 45 92 51 93 53 94 50 95 46 96
REMARK SMILES IDX 47 97 48 98 49 99
REMARK H PARENT 91 15 73 52 41 63
REMARK Flexibility Score: inf
ROOT
ATOM      1  C   UNL A   1      31.737  29.751  26.279  1.00  0.00     0.275 C 
ENDROOT
BRANCH   1   2
ATOM      2  C   UNL A   1      32.587  29.649  24.990  1.00  0.00     0.275 C 
BRANCH   2   3
ATOM      3  O   UNL A   1      33.318  28.398  24.865  1.00  0.00    -0.458 OA
BRANCH   3   4
ATOM      4  C   UNL A   1      33.420  27.915  23.593  1.00  0.00     0.339 C 
ATOM      5  O   UNL A   1      33.523  28.615  22.592  1.00  0.00    -0.246 OA
BRANCH   4   6
ATOM      6  C   UNL A   1      32.921  26.543  23.431  1.00  0.00     0.075 A 
ATOM      7  C   UNL A   1      34.069  24.453  24.096  1.00  0.00     0.074 A 
ATOM      8  C   UNL A   1      34.065  25.719  23.494  1.00  0.00     0.045 A 
ATOM      9  N   UNL A   1      32.990  23.788  24.539  1.00  0.00    -0.226 NA
ATOM     10  C   UNL A   1      31.843  24.496  24.434  1.00  0.00     0.182 A 
ATOM     11  C   UNL A   1      31.750  25.867  23.913  1.00  0.00     0.061 A 
ATOM     12  N   UNL A   1      30.675  24.009  24.821  1.00  0.00    -0.154 NA
ATOM     13  C   UNL A   1      30.370  26.149  24.011  1.00  0.00     0.076 A 
ATOM     14  N   UNL A   1      29.840  25.007  24.596  1.00  0.00    -0.275 N 
ATOM     15  H   UNL A   1      28.886  24.944  24.832  1.00  0.00     0.190 HD
BRANCH   7  16
ATOM     16  C   UNL A   1      35.369  23.857  24.381  1.00  0.00     0.000 A 
ATOM     17  C   UNL A   1      38.715  21.455  25.616  1.00  0.00     0.044 C 
ATOM     18  C   UNL A   1      37.599  22.334  25.141  1.00  0.00    -0.051 A 
ATOM     19  C   UNL A   1      37.094  23.330  25.989  1.00  0.00     0.004 A 
ATOM     20  C   UNL A   1      37.024  22.146  23.881  1.00  0.00     0.004 A 
ATOM     21  C   UNL A   1      35.992  24.090  25.608  1.00  0.00     0.010 A 
ATOM     22  C   UNL A   1      35.918  22.906  23.501  1.00  0.00     0.010 A 
ENDBRANCH   7  16
BRANCH  13  23
ATOM     23  C   UNL A   1      29.339  27.153  23.645  1.00  0.00     0.007 A 
ATOM     24  C   UNL A   1      27.980  26.901  23.981  1.00  0.00     0.011 A 
ATOM     25  C   UNL A   1      29.597  28.298  22.896  1.00  0.00     0.096 A 
ATOM     26  C   UNL A   1      26.935  27.772  23.627  1.00  0.00     0.008 A 
ATOM     27  C   UNL A   1      28.552  29.215  22.637  1.00  0.00     0.270 A 
ATOM     28  C   UNL A   1      27.226  28.965  22.984  1.00  0.00     0.085 A 
BRANCH  27  29
ATOM     29  N   UNL A   1      28.859  30.498  22.033  1.00  0.00     0.062 N 
ATOM     30  O   UNL A   1      29.039  30.524  20.810  1.00  0.00    -0.258 OA
ATOM     31  O   UNL A   1      28.934  31.468  22.802  1.00  0.00    -0.258 OA
ENDBRANCH  27  29
ENDBRANCH  13  23
ENDBRANCH   4   6
ENDBRANCH   3   4
ENDBRANCH   2   3
ENDBRANCH   1   2
BRANCH   1  32
ATOM     32  O   UNL A   1      32.290  30.401  27.440  1.00  0.00    -0.458 OA
BRANCH  32  33
ATOM     33  C   UNL A   1      32.822  31.617  27.239  1.00  0.00     0.338 C 
ATOM     34  O   UNL A   1      32.139  32.641  27.138  1.00  0.00    -0.246 OA
BRANCH  33  35
ATOM     35  C   UNL A   1      34.272  31.585  27.506  1.00  0.00     0.060 A 
ATOM     36  C   UNL A   1      34.972  32.795  27.600  1.00  0.00     0.016 A 
ATOM     37  C   UNL A   1      34.839  30.402  27.970  1.00  0.00     0.016 A 
ATOM     38  C   UNL A   1      36.197  32.866  28.239  1.00  0.00     0.010 A 
ATOM     39  C   UNL A   1      36.019  30.469  28.660  1.00  0.00     0.010 A 
ATOM     40  C   UNL A   1      36.694  31.690  28.770  1.00  0.00    -0.014 A 
BRANCH  40  41
ATOM     41  C   UNL A   1      38.030  31.596  29.299  1.00  0.00     0.031 A 
ATOM     42  C   UNL A   1      38.829  30.387  29.024  1.00  0.00     0.074 A 
ATOM     43  C   UNL A   1      38.399  32.736  29.926  1.00  0.00     0.049 A 
ATOM     44  N   UNL A   1      39.696  29.885  29.830  1.00  0.00    -0.248 NA
ATOM     45  C   UNL A   1      38.655  29.560  27.821  1.00  0.00     0.031 C 
ATOM     46  C   UNL A   1      39.704  33.195  30.343  1.00  0.00     0.029 A 
ATOM     47  N   UNL A   1      37.543  33.731  30.428  1.00  0.00    -0.354 N 
ATOM     48  C   UNL A   1      40.487  29.047  29.065  1.00  0.00     0.074 A 
ATOM     49  C   UNL A   1      39.680  28.702  27.923  1.00  0.00     0.031 C 
ATOM     50  C   UNL A   1      39.539  34.141  31.292  1.00  0.00     0.029 A 
ATOM     51  C   UNL A   1      38.117  34.215  31.602  1.00  0.00     0.049 A 
ATOM     52  H   UNL A   1      36.695  34.029  30.026  1.00  0.00     0.167 HD
ATOM     53  C   UNL A   1      41.827  29.000  29.324  1.00  0.00     0.034 A 
ATOM     54  C   UNL A   1      37.558  33.989  32.831  1.00  0.00     0.034 A 
ATOM     55  C   UNL A   1      42.133  29.898  30.436  1.00  0.00     0.049 A 
ATOM     56  C   UNL A   1      38.421  33.024  33.619  1.00  0.00     0.074 A 
ATOM     57  C   UNL A   1      42.604  31.201  30.451  1.00  0.00     0.029 A 
ATOM     58  N   UNL A   1      41.586  29.657  31.686  1.00  0.00    -0.354 N 
ATOM     59  N   UNL A   1      39.259  32.175  33.084  1.00  0.00    -0.248 NA
ATOM     60  C   UNL A   1      38.433  32.987  35.074  1.00  0.00     0.031 C 
ATOM     61  C   UNL A   1      42.271  31.766  31.709  1.00  0.00     0.029 A 
ATOM     62  C   UNL A   1      41.596  30.810  32.446  1.00  0.00     0.049 A 
ATOM     63  H   UNL A   1      41.240  28.787  31.990  1.00  0.00     0.167 HD
ATOM     64  C   UNL A   1      40.017  31.601  34.072  1.00  0.00     0.074 A 
ATOM     65  C   UNL A   1      39.441  32.128  35.301  1.00  0.00     0.031 C 
ATOM     66  C   UNL A   1      41.091  30.789  33.807  1.00  0.00     0.034 A 
BRANCH  53  67
ATOM     67  C   UNL A   1      42.900  28.509  28.373  1.00  0.00     0.023 A 
ATOM     68  C   UNL A   1      43.221  27.132  28.380  1.00  0.00     0.031 A 
ATOM     69  C   UNL A   1      43.638  29.292  27.469  1.00  0.00     0.131 A 
ATOM     70  C   UNL A   1      44.263  26.601  27.604  1.00  0.00     0.055 A 
ATOM     71  C   UNL A   1      44.692  28.766  26.699  1.00  0.00     0.041 A 
ATOM     72  F   UNL A   1      43.351  30.586  27.264  1.00  0.00    -0.206 F 
ATOM     73  C   UNL A   1      45.017  27.415  26.771  1.00  0.00     0.022 A 
BRANCH  70  74
ATOM     74  S   UNL A   1      44.602  24.821  27.712  1.00  0.00     0.124 S 
ATOM     75  O   UNL A   1      43.874  24.299  26.560  1.00  0.00    -0.237 OA
ATOM     76  O   UNL A   1      46.057  24.775  27.632  1.00  0.00    -0.237 OA
ATOM     77  O   UNL A   1      44.046  24.450  29.012  1.00  0.00    -0.744 OA
ENDBRANCH  70  74
ENDBRANCH  53  67
BRANCH  54  78
ATOM     78  C   UNL A   1      36.064  33.965  32.825  1.00  0.00     0.023 A 
ATOM     79  C   UNL A   1      35.372  35.199  32.908  1.00  0.00     0.031 A 
ATOM     80  C   UNL A   1      35.429  32.893  32.197  1.00  0.00     0.131 A 
ATOM     81  C   UNL A   1      34.229  35.404  32.123  1.00  0.00     0.055 A 
ATOM     82  C   UNL A   1      34.314  33.125  31.408  1.00  0.00     0.041 A 
ATOM     83  F   UNL A   1      35.977  31.671  32.157  1.00  0.00    -0.206 F 
ATOM     84  C   UNL A   1      33.752  34.392  31.305  1.00  0.00     0.022 A 
BRANCH  81  85
ATOM     85  S   UNL A   1      33.373  36.998  32.070  1.00  0.00     0.124 S 
ATOM     86  O   UNL A   1      32.188  36.763  32.888  1.00  0.00    -0.237 OA
ATOM     87  O   UNL A   1      34.376  37.894  32.637  1.00  0.00    -0.237 OA
ATOM     88  O   UNL A   1      33.109  37.160  30.641  1.00  0.00    -0.744 OA
ENDBRANCH  81  85
ENDBRANCH  54  78
BRANCH  66  89
ATOM     89  C   UNL A   1      41.886  30.002  34.821  1.00  0.00     0.023 A 
ATOM     90  C   UNL A   1      41.666  28.647  35.057  1.00  0.00     0.031 A 
ATOM     91  C   UNL A   1      42.938  30.591  35.571  1.00  0.00     0.131 A 
ATOM     92  C   UNL A   1      42.335  27.977  36.090  1.00  0.00     0.055 A 
ATOM     93  C   UNL A   1      43.695  29.886  36.508  1.00  0.00     0.041 A 
ATOM     94  F   UNL A   1      43.287  31.878  35.435  1.00  0.00    -0.206 F 
ATOM     95  C   UNL A   1      43.370  28.574  36.799  1.00  0.00     0.022 A 
BRANCH  92  96
ATOM     96  S   UNL A   1      41.702  26.352  36.559  1.00  0.00     0.124 S 
ATOM     97  O   UNL A   1      40.721  26.702  37.585  1.00  0.00    -0.237 OA
ATOM     98  O   UNL A   1      41.150  25.855  35.303  1.00  0.00    -0.237 OA
ATOM     99  O   UNL A   1      42.887  25.650  37.043  1.00  0.00    -0.744 OA
ENDBRANCH  92  96
ENDBRANCH  66  89
ENDBRANCH  40  41
ENDBRANCH  33  35
ENDBRANCH  32  33
ENDBRANCH   1  32
TORSDOF 17
ENDMDL
