MODEL 1
REMARK VINA RESULT:     -12.7      0.000      0.000
REMARK SMILES CCCC(=O)N(c1cc2sc(=O)oc2c2ccccc12)S(=O)(=O)c1ccc(C(=O)OCCOC(=O)c2ccc(-c3c4nc(c(-c5cc(S(=O)(=O)[O-])ccc5F)c5ccc([nH]5)c(-c5cc(S(=O)(=O)[O-])ccc5F)c5nc(c(-c6cc(S(=O)(=O)[O-])ccc6F)c6ccc3[nH]6)C=C5)C=C4)cc2)cc1
REMARK SMILES IDX 31 1 30 2 28 3 29 4 27 5 24 6 25 7 100 8 26 9 99 10 21 11
REMARK SMILES IDX 22 12 23 13 6 14 4 15 5 16 3 17 2 18 1 19 7 20 8 21 20 22
REMARK SMILES IDX 9 23 15 24 19 25 10 26 14 27 16 28 18 29 11 30 13 31 17 32
REMARK SMILES IDX 12 33 32 34 33 35 34 36 35 37 36 38 37 39 98 40 38 41 97 42
REMARK SMILES IDX 39 43 40 44 41 45 91 46 42 47 96 48 90 49 92 50 43 51 95 52
REMARK SMILES IDX 89 53 88 54 44 56 76 57 56 58 75 59 57 60 60 61 74 62 93 63
REMARK SMILES IDX 58 64 59 65 73 67 94 68 61 69 45 70 46 71 54 72 47 73 53 74
REMARK SMILES IDX 55 75 52 76 48 77 49 78 50 79 51 80 77 81 78 82 86 83 79 84
REMARK SMILES IDX 85 85 87 86 84 87 80 88 81 89 82 90 83 91 62 92 63 93 71 94
REMARK SMILES IDX 64 95 70 96 72 97 69 98 65 99 66 100 67 101 68 102
REMARK H PARENT 92 55 60 66
REMARK Flexibility Score: inf
ROOT
ATOM      1  C   UNL A   1      37.694  22.459  25.928  1.00  0.00     0.275 C 
ENDROOT
BRANCH   1   2
ATOM      2  O   UNL A   1      36.806  22.126  24.849  1.00  0.00    -0.458 OA
BRANCH   2   3
ATOM      3  C   UNL A   1      35.490  21.974  25.136  1.00  0.00     0.338 C 
ATOM      4  O   UNL A   1      35.004  21.151  25.891  1.00  0.00    -0.246 OA
BRANCH   3   5
ATOM      5  C   UNL A   1      34.732  23.055  24.456  1.00  0.00     0.060 A 
ATOM      6  C   UNL A   1      33.328  25.065  23.071  1.00  0.00     0.088 A 
ATOM      7  C   UNL A   1      34.103  25.392  24.193  1.00  0.00     0.023 A 
ATOM      8  C   UNL A   1      33.355  23.755  22.602  1.00  0.00     0.023 A 
ATOM      9  C   UNL A   1      34.818  24.390  24.875  1.00  0.00     0.017 A 
ATOM     10  C   UNL A   1      33.977  22.746  23.327  1.00  0.00     0.017 A 
BRANCH   6  11
ATOM     11  S   UNL A   1      32.412  26.368  22.236  1.00  0.00     0.270 S 
ATOM     12  O   UNL A   1      32.149  25.849  20.910  1.00  0.00    -0.201 OA
ATOM     13  O   UNL A   1      33.189  27.572  22.460  1.00  0.00    -0.201 OA
BRANCH  11  14
ATOM     14  N   UNL A   1      30.914  26.685  23.003  1.00  0.00    -0.202 N 
BRANCH  14  15
ATOM     15  C   UNL A   1      30.279  25.621  23.729  1.00  0.00     0.241 C 
ATOM     16  O   UNL A   1      29.974  24.553  23.205  1.00  0.00    -0.273 OA
BRANCH  15  17
ATOM     17  C   UNL A   1      29.938  25.830  25.203  1.00  0.00     0.101 C 
BRANCH  17  18
ATOM     18  C   UNL A   1      30.959  25.231  26.174  1.00  0.00     0.006 C 
ATOM     19  C   UNL A   1      30.878  23.711  26.242  1.00  0.00     0.004 C 
ENDBRANCH  17  18
ENDBRANCH  15  17
ENDBRANCH  14  15
BRANCH  14  20
ATOM     20  C   UNL A   1      30.510  28.022  23.304  1.00  0.00     0.070 A 
ATOM     21  C   UNL A   1      29.565  28.587  22.431  1.00  0.00     0.051 A 
ATOM     22  C   UNL A   1      31.072  28.776  24.390  1.00  0.00     0.010 A 
ATOM     23  C   UNL A   1      29.226  29.916  22.594  1.00  0.00     0.080 A 
ATOM     24  C   UNL A   1      30.616  30.106  24.596  1.00  0.00     0.028 A 
ATOM     25  C   UNL A   1      32.059  28.283  25.276  1.00  0.00     0.011 A 
ATOM     26  S   UNL A   1      28.225  30.904  21.551  1.00  0.00    -0.052 S 
ATOM     27  C   UNL A   1      29.740  30.659  23.651  1.00  0.00     0.157 A 
ATOM     28  C   UNL A   1      31.043  30.828  25.730  1.00  0.00     0.013 A 
ATOM     29  C   UNL A   1      32.457  29.006  26.405  1.00  0.00     0.001 A 
ATOM     30  C   UNL A   1      28.610  32.292  22.570  1.00  0.00     0.396 A 
ATOM     31  O   UNL A   1      29.379  32.012  23.697  1.00  0.00    -0.413 OA
ATOM     32  C   UNL A   1      31.926  30.264  26.648  1.00  0.00     0.001 A 
ATOM     33  O   UNL A   1      28.214  33.421  22.314  1.00  0.00    -0.233 OA
ENDBRANCH  14  20
ENDBRANCH  11  14
ENDBRANCH   6  11
ENDBRANCH   3   5
ENDBRANCH   2   3
ENDBRANCH   1   2
BRANCH   1  34
ATOM     34  C   UNL A   1      38.931  21.563  25.839  1.00  0.00     0.275 C 
BRANCH  34  35
ATOM     35  O   UNL A   1      39.900  21.965  26.818  1.00  0.00    -0.458 OA
BRANCH  35  36
ATOM     36  C   UNL A   1      41.181  22.067  26.392  1.00  0.00     0.338 C 
ATOM     37  O   UNL A   1      41.859  21.223  25.839  1.00  0.00    -0.246 OA
BRANCH  36  38
ATOM     38  C   UNL A   1      41.577  23.458  26.628  1.00  0.00     0.060 A 
ATOM     39  C   UNL A   1      42.609  24.044  25.898  1.00  0.00     0.016 A 
ATOM     40  C   UNL A   1      40.935  24.158  27.648  1.00  0.00     0.016 A 
ATOM     41  C   UNL A   1      42.988  25.352  26.198  1.00  0.00     0.010 A 
ATOM     42  C   UNL A   1      41.326  25.447  27.961  1.00  0.00     0.010 A 
ATOM     43  C   UNL A   1      42.336  26.060  27.221  1.00  0.00    -0.014 A 
BRANCH  43  44
ATOM     44  C   UNL A   1      42.649  27.486  27.423  1.00  0.00     0.031 A 
ATOM     45  C   UNL A   1      41.415  28.340  27.601  1.00  0.00     0.074 A 
ATOM     46  C   UNL A   1      43.807  27.836  28.025  1.00  0.00     0.049 A 
ATOM     47  N   UNL A   1      40.737  28.403  28.713  1.00  0.00    -0.248 NA
ATOM     48  C   UNL A   1      40.698  28.906  26.456  1.00  0.00     0.031 C 
ATOM     49  C   UNL A   1      44.437  27.052  29.100  1.00  0.00     0.029 A 
ATOM     50  N   UNL A   1      44.528  29.009  27.997  1.00  0.00    -0.354 N 
ATOM     51  C   UNL A   1      39.507  28.989  28.430  1.00  0.00     0.074 A 
ATOM     52  C   UNL A   1      39.536  29.285  27.014  1.00  0.00     0.031 C 
ATOM     53  C   UNL A   1      45.321  27.836  29.748  1.00  0.00     0.029 A 
ATOM     54  C   UNL A   1      45.415  29.127  29.070  1.00  0.00     0.049 A 
ATOM     55  H   UNL A   1      44.427  29.693  27.296  1.00  0.00     0.167 HD
ATOM     56  C   UNL A   1      38.544  29.200  29.373  1.00  0.00     0.034 A 
ATOM     57  C   UNL A   1      45.715  30.309  29.682  1.00  0.00     0.034 A 
ATOM     58  C   UNL A   1      38.897  28.779  30.701  1.00  0.00     0.049 A 
ATOM     59  C   UNL A   1      44.453  30.510  30.499  1.00  0.00     0.074 A 
ATOM     60  C   UNL A   1      38.596  27.759  31.576  1.00  0.00     0.029 A 
ATOM     61  N   UNL A   1      39.781  29.566  31.401  1.00  0.00    -0.354 N 
ATOM     62  N   UNL A   1      44.131  29.887  31.606  1.00  0.00    -0.248 NA
ATOM     63  C   UNL A   1      43.334  31.164  29.820  1.00  0.00     0.031 C 
ATOM     64  C   UNL A   1      39.667  27.745  32.530  1.00  0.00     0.029 A 
ATOM     65  C   UNL A   1      40.570  28.743  32.160  1.00  0.00     0.049 A 
ATOM     66  H   UNL A   1      39.837  30.548  31.363  1.00  0.00     0.167 HD
ATOM     67  C   UNL A   1      42.732  29.831  31.609  1.00  0.00     0.074 A 
ATOM     68  C   UNL A   1      42.314  30.636  30.478  1.00  0.00     0.031 C 
ATOM     69  C   UNL A   1      41.979  29.008  32.404  1.00  0.00     0.034 A 
BRANCH  56  70
ATOM     70  C   UNL A   1      37.313  30.020  29.183  1.00  0.00     0.023 A 
ATOM     71  C   UNL A   1      37.076  31.268  29.779  1.00  0.00     0.031 A 
ATOM     72  C   UNL A   1      36.413  29.575  28.190  1.00  0.00     0.131 A 
ATOM     73  C   UNL A   1      35.970  32.032  29.349  1.00  0.00     0.055 A 
ATOM     74  C   UNL A   1      35.340  30.346  27.753  1.00  0.00     0.041 A 
ATOM     75  F   UNL A   1      36.593  28.380  27.601  1.00  0.00    -0.206 F 
ATOM     76  C   UNL A   1      35.118  31.585  28.330  1.00  0.00     0.022 A 
BRANCH  73  77
ATOM     77  S   UNL A   1      35.579  33.657  30.065  1.00  0.00     0.124 S 
ATOM     78  O   UNL A   1      34.434  33.351  30.919  1.00  0.00    -0.237 OA
ATOM     79  O   UNL A   1      36.815  33.978  30.774  1.00  0.00    -0.237 OA
ATOM     80  O   UNL A   1      35.294  34.488  28.900  1.00  0.00    -0.744 OA
ENDBRANCH  73  77
ENDBRANCH  56  70
BRANCH  57  81
ATOM     81  C   UNL A   1      46.293  31.352  28.766  1.00  0.00     0.023 A 
ATOM     82  C   UNL A   1      45.571  32.400  28.177  1.00  0.00     0.031 A 
ATOM     83  C   UNL A   1      47.652  31.234  28.395  1.00  0.00     0.131 A 
ATOM     84  C   UNL A   1      46.125  33.124  27.108  1.00  0.00     0.055 A 
ATOM     85  C   UNL A   1      48.226  32.008  27.382  1.00  0.00     0.041 A 
ATOM     86  F   UNL A   1      48.445  30.333  28.999  1.00  0.00    -0.206 F 
ATOM     87  C   UNL A   1      47.446  32.930  26.701  1.00  0.00     0.022 A 
BRANCH  84  88
ATOM     88  S   UNL A   1      45.097  34.258  26.132  1.00  0.00     0.124 S 
ATOM     89  O   UNL A   1      44.946  33.534  24.873  1.00  0.00    -0.237 OA
ATOM     90  O   UNL A   1      43.899  34.340  26.962  1.00  0.00    -0.237 OA
ATOM     91  O   UNL A   1      45.901  35.472  26.067  1.00  0.00    -0.744 OA
ENDBRANCH  84  88
ENDBRANCH  57  81
BRANCH  69  92
ATOM     92  C   UNL A   1      42.698  28.219  33.461  1.00  0.00     0.023 A 
ATOM     93  C   UNL A   1      43.252  26.952  33.175  1.00  0.00     0.031 A 
ATOM     94  C   UNL A   1      42.711  28.658  34.793  1.00  0.00     0.131 A 
ATOM     95  C   UNL A   1      43.713  26.138  34.218  1.00  0.00     0.055 A 
ATOM     96  C   UNL A   1      43.238  27.870  35.819  1.00  0.00     0.041 A 
ATOM     97  F   UNL A   1      42.155  29.831  35.136  1.00  0.00    -0.206 F 
ATOM     98  C   UNL A   1      43.724  26.596  35.537  1.00  0.00     0.022 A 
BRANCH  95  99
ATOM     99  S   UNL A   1      44.218  24.420  33.920  1.00  0.00     0.124 S 
ATOM    100  O   UNL A   1      44.318  24.368  32.462  1.00  0.00    -0.237 OA
ATOM    101  O   UNL A   1      45.494  24.355  34.631  1.00  0.00    -0.237 OA
ATOM    102  O   UNL A   1      43.140  23.627  34.499  1.00  0.00    -0.744 OA
ENDBRANCH  95  99
ENDBRANCH  69  92
ENDBRANCH  43  44
ENDBRANCH  36  38
ENDBRANCH  35  36
ENDBRANCH  34  35
ENDBRANCH   1  34
TORSDOF 20
ENDMDL
MODEL 2
REMARK VINA RESULT:     -12.0      2.685      9.226
REMARK SMILES CCCC(=O)N(c1cc2sc(=O)oc2c2ccccc12)S(=O)(=O)c1ccc(C(=O)OCCOC(=O)c2ccc(-c3c4nc(c(-c5cc(S(=O)(=O)[O-])ccc5F)c5ccc([nH]5)c(-c5cc(S(=O)(=O)[O-])ccc5F)c5nc(c(-c6cc(S(=O)(=O)[O-])ccc6F)c6ccc3[nH]6)C=C5)C=C4)cc2)cc1
REMARK SMILES IDX 31 1 30 2 28 3 29 4 27 5 24 6 25 7 100 8 26 9 99 10 21 11
REMARK SMILES IDX 22 12 23 13 6 14 4 15 5 16 3 17 2 18 1 19 7 20 8 21 20 22
REMARK SMILES IDX 9 23 15 24 19 25 10 26 14 27 16 28 18 29 11 30 13 31 17 32
REMARK SMILES IDX 12 33 32 34 33 35 34 36 35 37 36 38 37 39 98 40 38 41 97 42
REMARK SMILES IDX 39 43 40 44 41 45 91 46 42 47 96 48 90 49 92 50 43 51 95 52
REMARK SMILES IDX 89 53 88 54 44 56 76 57 56 58 75 59 57 60 60 61 74 62 93 63
REMARK SMILES IDX 58 64 59 65 73 67 94 68 61 69 45 70 46 71 54 72 47 73 53 74
REMARK SMILES IDX 55 75 52 76 48 77 49 78 50 79 51 80 77 81 78 82 86 83 79 84
REMARK SMILES IDX 85 85 87 86 84 87 80 88 81 89 82 90 83 91 62 92 63 93 71 94
REMARK SMILES IDX 64 95 70 96 72 97 69 98 65 99 66 100 67 101 68 102
REMARK H PARENT 92 55 60 66
REMARK Flexibility Score: inf
ROOT
ATOM      1  C   UNL A   1      32.069  30.653  26.963  1.00  0.00     0.275 C 
ENDROOT
BRANCH   1   2
ATOM      2  O   UNL A   1      32.635  29.858  25.909  1.00  0.00    -0.458 OA
BRANCH   2   3
ATOM      3  C   UNL A   1      31.805  29.040  25.217  1.00  0.00     0.338 C 
ATOM      4  O   UNL A   1      30.897  29.385  24.482  1.00  0.00    -0.246 OA
BRANCH   3   5
ATOM      5  C   UNL A   1      32.250  27.637  25.417  1.00  0.00     0.060 A 
ATOM      6  C   UNL A   1      33.038  24.975  25.889  1.00  0.00     0.088 A 
ATOM      7  C   UNL A   1      33.980  25.927  25.473  1.00  0.00     0.023 A 
ATOM      8  C   UNL A   1      31.741  25.399  26.161  1.00  0.00     0.023 A 
ATOM      9  C   UNL A   1      33.590  27.260  25.253  1.00  0.00     0.017 A 
ATOM     10  C   UNL A   1      31.327  26.689  25.852  1.00  0.00     0.017 A 
BRANCH   6  11
ATOM     11  S   UNL A   1      33.569  23.276  26.140  1.00  0.00     0.270 S 
ATOM     12  O   UNL A   1      32.512  22.667  26.921  1.00  0.00    -0.201 OA
ATOM     13  O   UNL A   1      34.932  23.379  26.623  1.00  0.00    -0.201 OA
BRANCH  11  14
ATOM     14  N   UNL A   1      33.708  22.426  24.659  1.00  0.00    -0.202 N 
BRANCH  14  15
ATOM     15  C   UNL A   1      33.890  23.183  23.452  1.00  0.00     0.241 C 
ATOM     16  O   UNL A   1      34.974  23.662  23.130  1.00  0.00    -0.273 OA
BRANCH  15  17
ATOM     17  C   UNL A   1      32.686  23.432  22.546  1.00  0.00     0.101 C 
BRANCH  17  18
ATOM     18  C   UNL A   1      31.334  23.180  23.218  1.00  0.00     0.006 C 
ATOM     19  C   UNL A   1      30.403  24.383  23.128  1.00  0.00     0.004 C 
ENDBRANCH  17  18
ENDBRANCH  15  17
ENDBRANCH  14  15
BRANCH  14  20
ATOM     20  C   UNL A   1      34.077  21.046  24.636  1.00  0.00     0.070 A 
ATOM     21  C   UNL A   1      33.020  20.132  24.493  1.00  0.00     0.051 A 
ATOM     22  C   UNL A   1      35.433  20.602  24.808  1.00  0.00     0.010 A 
ATOM     23  C   UNL A   1      33.295  18.782  24.586  1.00  0.00     0.080 A 
ATOM     24  C   UNL A   1      35.695  19.206  24.786  1.00  0.00     0.028 A 
ATOM     25  C   UNL A   1      36.536  21.466  25.002  1.00  0.00     0.011 A 
ATOM     26  S   UNL A   1      32.154  17.454  24.624  1.00  0.00    -0.052 S 
ATOM     27  C   UNL A   1      34.601  18.329  24.731  1.00  0.00     0.157 A 
ATOM     28  C   UNL A   1      37.025  18.739  24.815  1.00  0.00     0.013 A 
ATOM     29  C   UNL A   1      37.849  20.988  25.010  1.00  0.00     0.001 A 
ATOM     30  C   UNL A   1      33.508  16.357  24.899  1.00  0.00     0.396 A 
ATOM     31  O   UNL A   1      34.770  16.946  24.871  1.00  0.00    -0.413 OA
ATOM     32  C   UNL A   1      38.095  19.628  24.886  1.00  0.00     0.001 A 
ATOM     33  O   UNL A   1      33.350  15.158  25.085  1.00  0.00    -0.233 OA
ENDBRANCH  14  20
ENDBRANCH  11  14
ENDBRANCH   6  11
ENDBRANCH   3   5
ENDBRANCH   2   3
ENDBRANCH   1   2
BRANCH   1  34
ATOM     34  C   UNL A   1      32.954  31.882  27.177  1.00  0.00     0.275 C 
BRANCH  34  35
ATOM     35  O   UNL A   1      34.217  31.487  27.733  1.00  0.00    -0.458 OA
BRANCH  35  36
ATOM     36  C   UNL A   1      34.970  32.470  28.279  1.00  0.00     0.338 C 
ATOM     37  O   UNL A   1      34.750  33.666  28.295  1.00  0.00    -0.246 OA
BRANCH  36  38
ATOM     38  C   UNL A   1      36.077  31.799  28.966  1.00  0.00     0.060 A 
ATOM     39  C   UNL A   1      36.328  32.029  30.317  1.00  0.00     0.016 A 
ATOM     40  C   UNL A   1      36.911  30.975  28.212  1.00  0.00     0.016 A 
ATOM     41  C   UNL A   1      37.428  31.411  30.912  1.00  0.00     0.010 A 
ATOM     42  C   UNL A   1      38.014  30.380  28.797  1.00  0.00     0.010 A 
ATOM     43  C   UNL A   1      38.264  30.574  30.155  1.00  0.00    -0.014 A 
BRANCH  43  44
ATOM     44  C   UNL A   1      39.330  29.816  30.833  1.00  0.00     0.031 A 
ATOM     45  C   UNL A   1      39.636  28.499  30.158  1.00  0.00     0.074 A 
ATOM     46  C   UNL A   1      40.304  30.481  31.495  1.00  0.00     0.049 A 
ATOM     47  N   UNL A   1      40.350  28.394  29.073  1.00  0.00    -0.248 NA
ATOM     48  C   UNL A   1      38.894  27.278  30.480  1.00  0.00     0.031 C 
ATOM     49  C   UNL A   1      40.842  31.780  31.062  1.00  0.00     0.029 A 
ATOM     50  N   UNL A   1      41.154  30.081  32.501  1.00  0.00    -0.354 N 
ATOM     51  C   UNL A   1      40.146  27.121  28.550  1.00  0.00     0.074 A 
ATOM     52  C   UNL A   1      39.236  26.467  29.464  1.00  0.00     0.031 C 
ATOM     53  C   UNL A   1      42.031  31.980  31.666  1.00  0.00     0.029 A 
ATOM     54  C   UNL A   1      42.283  30.897  32.613  1.00  0.00     0.049 A 
ATOM     55  H   UNL A   1      40.985  29.303  33.081  1.00  0.00     0.167 HD
ATOM     56  C   UNL A   1      40.741  26.680  27.403  1.00  0.00     0.034 A 
ATOM     57  C   UNL A   1      43.520  30.438  32.962  1.00  0.00     0.034 A 
ATOM     58  C   UNL A   1      41.612  27.631  26.769  1.00  0.00     0.049 A 
ATOM     59  C   UNL A   1      43.932  29.777  31.660  1.00  0.00     0.074 A 
ATOM     60  C   UNL A   1      41.613  28.457  25.668  1.00  0.00     0.029 A 
ATOM     61  N   UNL A   1      42.841  27.845  27.346  1.00  0.00    -0.354 N 
ATOM     62  N   UNL A   1      44.337  30.381  30.571  1.00  0.00    -0.248 NA
ATOM     63  C   UNL A   1      43.493  28.395  31.463  1.00  0.00     0.031 C 
ATOM     64  C   UNL A   1      42.624  29.440  25.929  1.00  0.00     0.029 A 
ATOM     65  C   UNL A   1      43.157  29.169  27.189  1.00  0.00     0.049 A 
ATOM     66  H   UNL A   1      43.397  27.166  27.793  1.00  0.00     0.167 HD
ATOM     67  C   UNL A   1      43.937  29.554  29.514  1.00  0.00     0.074 A 
ATOM     68  C   UNL A   1      43.423  28.353  30.141  1.00  0.00     0.031 C 
ATOM     69  C   UNL A   1      43.871  29.933  28.199  1.00  0.00     0.034 A 
BRANCH  56  70
ATOM     70  C   UNL A   1      40.744  25.269  26.920  1.00  0.00     0.023 A 
ATOM     71  C   UNL A   1      41.895  24.510  26.656  1.00  0.00     0.031 A 
ATOM     72  C   UNL A   1      39.495  24.611  26.903  1.00  0.00     0.131 A 
ATOM     73  C   UNL A   1      41.761  23.127  26.411  1.00  0.00     0.055 A 
ATOM     74  C   UNL A   1      39.373  23.242  26.685  1.00  0.00     0.041 A 
ATOM     75  F   UNL A   1      38.365  25.301  27.136  1.00  0.00    -0.206 F 
ATOM     76  C   UNL A   1      40.512  22.491  26.444  1.00  0.00     0.022 A 
BRANCH  73  77
ATOM     77  S   UNL A   1      43.191  22.063  26.055  1.00  0.00     0.124 S 
ATOM     78  O   UNL A   1      42.683  20.737  26.394  1.00  0.00    -0.237 OA
ATOM     79  O   UNL A   1      43.398  22.305  24.629  1.00  0.00    -0.237 OA
ATOM     80  O   UNL A   1      44.235  22.583  26.933  1.00  0.00    -0.744 OA
ENDBRANCH  73  77
ENDBRANCH  56  70
BRANCH  57  81
ATOM     81  C   UNL A   1      43.574  29.754  34.301  1.00  0.00     0.023 A 
ATOM     82  C   UNL A   1      43.027  28.495  34.587  1.00  0.00     0.031 A 
ATOM     83  C   UNL A   1      44.144  30.457  35.386  1.00  0.00     0.131 A 
ATOM     84  C   UNL A   1      42.858  28.087  35.921  1.00  0.00     0.055 A 
ATOM     85  C   UNL A   1      44.043  30.014  36.707  1.00  0.00     0.041 A 
ATOM     86  F   UNL A   1      44.792  31.616  35.178  1.00  0.00    -0.206 F 
ATOM     87  C   UNL A   1      43.355  28.842  36.984  1.00  0.00     0.022 A 
BRANCH  84  88
ATOM     88  S   UNL A   1      41.871  26.616  36.316  1.00  0.00     0.124 S 
ATOM     89  O   UNL A   1      41.223  26.325  35.040  1.00  0.00    -0.237 OA
ATOM     90  O   UNL A   1      42.912  25.677  36.725  1.00  0.00    -0.237 OA
ATOM     91  O   UNL A   1      40.987  27.077  37.380  1.00  0.00    -0.744 OA
ENDBRANCH  84  88
ENDBRANCH  57  81
BRANCH  69  92
ATOM     92  C   UNL A   1      44.418  31.286  27.841  1.00  0.00     0.023 A 
ATOM     93  C   UNL A   1      43.790  32.468  28.288  1.00  0.00     0.031 A 
ATOM     94  C   UNL A   1      45.481  31.408  26.934  1.00  0.00     0.131 A 
ATOM     95  C   UNL A   1      44.173  33.708  27.761  1.00  0.00     0.055 A 
ATOM     96  C   UNL A   1      45.906  32.654  26.467  1.00  0.00     0.041 A 
ATOM     97  F   UNL A   1      46.087  30.319  26.434  1.00  0.00    -0.206 F 
ATOM     98  C   UNL A   1      45.239  33.809  26.865  1.00  0.00     0.022 A 
BRANCH  95  99
ATOM     99  S   UNL A   1      43.242  35.221  28.136  1.00  0.00     0.124 S 
ATOM    100  O   UNL A   1      44.150  35.937  29.030  1.00  0.00    -0.237 OA
ATOM    101  O   UNL A   1      43.085  35.812  26.808  1.00  0.00    -0.237 OA
ATOM    102  O   UNL A   1      42.013  34.737  28.754  1.00  0.00    -0.744 OA
ENDBRANCH  95  99
ENDBRANCH  69  92
ENDBRANCH  43  44
ENDBRANCH  36  38
ENDBRANCH  35  36
ENDBRANCH  34  35
ENDBRANCH   1  34
TORSDOF 20
ENDMDL
MODEL 3
REMARK VINA RESULT:     -11.8      1.880      2.566
REMARK SMILES CCCC(=O)N(c1cc2sc(=O)oc2c2ccccc12)S(=O)(=O)c1ccc(C(=O)OCCOC(=O)c2ccc(-c3c4nc(c(-c5cc(S(=O)(=O)[O-])ccc5F)c5ccc([nH]5)c(-c5cc(S(=O)(=O)[O-])ccc5F)c5nc(c(-c6cc(S(=O)(=O)[O-])ccc6F)c6ccc3[nH]6)C=C5)C=C4)cc2)cc1
REMARK SMILES IDX 31 1 30 2 28 3 29 4 27 5 24 6 25 7 100 8 26 9 99 10 21 11
REMARK SMILES IDX 22 12 23 13 6 14 4 15 5 16 3 17 2 18 1 19 7 20 8 21 20 22
REMARK SMILES IDX 9 23 15 24 19 25 10 26 14 27 16 28 18 29 11 30 13 31 17 32
REMARK SMILES IDX 12 33 32 34 33 35 34 36 35 37 36 38 37 39 98 40 38 41 97 42
REMARK SMILES IDX 39 43 40 44 41 45 91 46 42 47 96 48 90 49 92 50 43 51 95 52
REMARK SMILES IDX 89 53 88 54 44 56 76 57 56 58 75 59 57 60 60 61 74 62 93 63
REMARK SMILES IDX 58 64 59 65 73 67 94 68 61 69 45 70 46 71 54 72 47 73 53 74
REMARK SMILES IDX 55 75 52 76 48 77 49 78 50 79 51 80 77 81 78 82 86 83 79 84
REMARK SMILES IDX 85 85 87 86 84 87 80 88 81 89 82 90 83 91 62 92 63 93 71 94
REMARK SMILES IDX 64 95 70 96 72 97 69 98 65 99 66 100 67 101 68 102
REMARK H PARENT 92 55 60 66
REMARK Flexibility Score: inf
ROOT
ATOM      1  C   UNL A   1      36.760  21.076  25.151  1.00  0.00     0.275 C 
ENDROOT
BRANCH   1   2
ATOM      2  O   UNL A   1      35.646  21.961  24.950  1.00  0.00    -0.458 OA
BRANCH   2   3
ATOM      3  C   UNL A   1      34.404  21.486  25.214  1.00  0.00     0.338 C 
ATOM      4  O   UNL A   1      34.127  20.369  25.612  1.00  0.00    -0.246 OA
BRANCH   3   5
ATOM      5  C   UNL A   1      33.429  22.592  25.040  1.00  0.00     0.060 A 
ATOM      6  C   UNL A   1      31.587  24.711  24.816  1.00  0.00     0.088 A 
ATOM      7  C   UNL A   1      31.327  23.481  24.193  1.00  0.00     0.023 A 
ATOM      8  C   UNL A   1      32.714  24.822  25.625  1.00  0.00     0.023 A 
ATOM      9  C   UNL A   1      32.239  22.417  24.319  1.00  0.00     0.017 A 
ATOM     10  C   UNL A   1      33.666  23.810  25.672  1.00  0.00     0.017 A 
BRANCH   6  11
ATOM     11  S   UNL A   1      30.408  26.054  24.616  1.00  0.00     0.270 S 
ATOM     12  O   UNL A   1      30.287  26.642  25.934  1.00  0.00    -0.201 OA
ATOM     13  O   UNL A   1      29.282  25.461  23.923  1.00  0.00    -0.201 OA
BRANCH  11  14
ATOM     14  N   UNL A   1      30.985  27.253  23.537  1.00  0.00    -0.202 N 
BRANCH  14  15
ATOM     15  C   UNL A   1      31.698  26.830  22.365  1.00  0.00     0.241 C 
ATOM     16  O   UNL A   1      31.277  25.953  21.615  1.00  0.00    -0.273 OA
BRANCH  15  17
ATOM     17  C   UNL A   1      33.050  27.468  22.049  1.00  0.00     0.101 C 
BRANCH  17  18
ATOM     18  C   UNL A   1      33.946  27.674  23.273  1.00  0.00     0.006 C 
ATOM     19  C   UNL A   1      34.613  29.044  23.285  1.00  0.00     0.004 C 
ENDBRANCH  17  18
ENDBRANCH  15  17
ENDBRANCH  14  15
BRANCH  14  20
ATOM     20  C   UNL A   1      30.426  28.567  23.532  1.00  0.00     0.070 A 
ATOM     21  C   UNL A   1      29.527  28.847  22.490  1.00  0.00     0.051 A 
ATOM     22  C   UNL A   1      30.799  29.572  24.490  1.00  0.00     0.010 A 
ATOM     23  C   UNL A   1      29.047  30.135  22.357  1.00  0.00     0.080 A 
ATOM     24  C   UNL A   1      30.199  30.857  24.390  1.00  0.00     0.028 A 
ATOM     25  C   UNL A   1      31.731  29.371  25.535  1.00  0.00     0.011 A 
ATOM     26  S   UNL A   1      28.069  30.787  21.060  1.00  0.00    -0.052 S 
ATOM     27  C   UNL A   1      29.376  31.117  23.284  1.00  0.00     0.157 A 
ATOM     28  C   UNL A   1      30.435  31.823  25.389  1.00  0.00     0.013 A 
ATOM     29  C   UNL A   1      31.940  30.334  26.526  1.00  0.00     0.001 A 
ATOM     30  C   UNL A   1      28.212  32.377  21.811  1.00  0.00     0.396 A 
ATOM     31  O   UNL A   1      28.884  32.404  23.031  1.00  0.00    -0.413 OA
ATOM     32  C   UNL A   1      31.269  31.547  26.470  1.00  0.00     0.001 A 
ATOM     33  O   UNL A   1      27.739  33.385  21.304  1.00  0.00    -0.233 OA
ENDBRANCH  14  20
ENDBRANCH  11  14
ENDBRANCH   6  11
ENDBRANCH   3   5
ENDBRANCH   2   3
ENDBRANCH   1   2
BRANCH   1  34
ATOM     34  C   UNL A   1      38.053  21.881  25.020  1.00  0.00     0.275 C 
BRANCH  34  35
ATOM     35  O   UNL A   1      38.491  22.321  26.314  1.00  0.00    -0.458 OA
BRANCH  35  36
ATOM     36  C   UNL A   1      39.664  21.813  26.760  1.00  0.00     0.338 C 
ATOM     37  O   UNL A   1      40.000  20.646  26.831  1.00  0.00    -0.246 OA
BRANCH  36  38
ATOM     38  C   UNL A   1      40.523  22.965  27.046  1.00  0.00     0.060 A 
ATOM     39  C   UNL A   1      41.911  22.851  27.013  1.00  0.00     0.016 A 
ATOM     40  C   UNL A   1      39.911  24.161  27.415  1.00  0.00     0.016 A 
ATOM     41  C   UNL A   1      42.687  23.961  27.348  1.00  0.00     0.010 A 
ATOM     42  C   UNL A   1      40.679  25.256  27.770  1.00  0.00     0.010 A 
ATOM     43  C   UNL A   1      42.070  25.170  27.713  1.00  0.00    -0.014 A 
BRANCH  43  44
ATOM     44  C   UNL A   1      42.901  26.369  27.919  1.00  0.00     0.031 A 
ATOM     45  C   UNL A   1      42.087  27.637  28.030  1.00  0.00     0.074 A 
ATOM     46  C   UNL A   1      44.078  26.260  28.575  1.00  0.00     0.049 A 
ATOM     47  N   UNL A   1      41.440  27.986  29.107  1.00  0.00    -0.248 NA
ATOM     48  C   UNL A   1      41.694  28.406  26.848  1.00  0.00     0.031 C 
ATOM     49  C   UNL A   1      44.309  25.322  29.685  1.00  0.00     0.029 A 
ATOM     50  N   UNL A   1      45.197  27.063  28.574  1.00  0.00    -0.354 N 
ATOM     51  C   UNL A   1      40.546  28.993  28.759  1.00  0.00     0.074 A 
ATOM     52  C   UNL A   1      40.747  29.219  27.344  1.00  0.00     0.031 C 
ATOM     53  C   UNL A   1      45.400  25.720  30.370  1.00  0.00     0.029 A 
ATOM     54  C   UNL A   1      46.014  26.856  29.688  1.00  0.00     0.049 A 
ATOM     55  H   UNL A   1      45.399  27.714  27.863  1.00  0.00     0.167 HD
ATOM     56  C   UNL A   1      39.700  29.584  29.653  1.00  0.00     0.034 A 
ATOM     57  C   UNL A   1      46.722  27.847  30.305  1.00  0.00     0.034 A 
ATOM     58  C   UNL A   1      39.806  29.094  31.000  1.00  0.00     0.049 A 
ATOM     59  C   UNL A   1      45.603  28.541  31.058  1.00  0.00     0.074 A 
ATOM     60  C   UNL A   1      39.097  28.292  31.866  1.00  0.00     0.029 A 
ATOM     61  N   UNL A   1      40.895  29.497  31.736  1.00  0.00    -0.354 N 
ATOM     62  N   UNL A   1      45.018  28.119  32.152  1.00  0.00    -0.248 NA
ATOM     63  C   UNL A   1      44.853  29.558  30.320  1.00  0.00     0.031 C 
ATOM     64  C   UNL A   1      40.038  27.891  32.872  1.00  0.00     0.029 A 
ATOM     65  C   UNL A   1      41.272  28.453  32.539  1.00  0.00     0.049 A 
ATOM     66  H   UNL A   1      41.328  30.380  31.693  1.00  0.00     0.167 HD
ATOM     67  C   UNL A   1      43.707  28.607  32.087  1.00  0.00     0.074 A 
ATOM     68  C   UNL A   1      43.681  29.482  30.931  1.00  0.00     0.031 C 
ATOM     69  C   UNL A   1      42.662  28.159  32.850  1.00  0.00     0.034 A 
BRANCH  56  70
ATOM     70  C   UNL A   1      38.892  30.810  29.396  1.00  0.00     0.023 A 
ATOM     71  C   UNL A   1      37.577  30.820  28.904  1.00  0.00     0.031 A 
ATOM     72  C   UNL A   1      39.440  32.029  29.852  1.00  0.00     0.131 A 
ATOM     73  C   UNL A   1      36.854  32.033  28.909  1.00  0.00     0.055 A 
ATOM     74  C   UNL A   1      38.713  33.214  29.877  1.00  0.00     0.041 A 
ATOM     75  F   UNL A   1      40.701  32.069  30.319  1.00  0.00    -0.206 F 
ATOM     76  C   UNL A   1      37.409  33.218  29.409  1.00  0.00     0.022 A 
BRANCH  73  77
ATOM     77  S   UNL A   1      35.149  32.146  28.288  1.00  0.00     0.124 S 
ATOM     78  O   UNL A   1      35.018  30.913  27.517  1.00  0.00    -0.237 OA
ATOM     79  O   UNL A   1      34.380  32.187  29.530  1.00  0.00    -0.237 OA
ATOM     80  O   UNL A   1      35.146  33.381  27.511  1.00  0.00    -0.744 OA
ENDBRANCH  73  77
ENDBRANCH  56  70
BRANCH  57  81
ATOM     81  C   UNL A   1      47.697  28.562  29.411  1.00  0.00     0.023 A 
ATOM     82  C   UNL A   1      47.543  29.870  28.930  1.00  0.00     0.031 A 
ATOM     83  C   UNL A   1      48.821  27.845  28.942  1.00  0.00     0.131 A 
ATOM     84  C   UNL A   1      48.340  30.330  27.868  1.00  0.00     0.055 A 
ATOM     85  C   UNL A   1      49.661  28.333  27.937  1.00  0.00     0.041 A 
ATOM     86  F   UNL A   1      49.108  26.630  29.441  1.00  0.00    -0.206 F 
ATOM     87  C   UNL A   1      49.393  29.567  27.362  1.00  0.00     0.022 A 
BRANCH  84  88
ATOM     88  S   UNL A   1      47.945  31.889  27.028  1.00  0.00     0.124 S 
ATOM     89  O   UNL A   1      47.482  32.727  28.130  1.00  0.00    -0.237 OA
ATOM     90  O   UNL A   1      49.245  32.245  26.465  1.00  0.00    -0.237 OA
ATOM     91  O   UNL A   1      46.925  31.503  26.060  1.00  0.00    -0.744 OA
ENDBRANCH  84  88
ENDBRANCH  57  81
BRANCH  69  92
ATOM     92  C   UNL A   1      42.974  27.182  33.947  1.00  0.00     0.023 A 
ATOM     93  C   UNL A   1      43.624  25.959  33.671  1.00  0.00     0.031 A 
ATOM     94  C   UNL A   1      42.500  27.396  35.250  1.00  0.00     0.131 A 
ATOM     95  C   UNL A   1      43.701  24.968  34.658  1.00  0.00     0.055 A 
ATOM     96  C   UNL A   1      42.644  26.432  36.249  1.00  0.00     0.041 A 
ATOM     97  F   UNL A   1      41.830  28.518  35.562  1.00  0.00    -0.206 F 
ATOM     98  C   UNL A   1      43.229  25.204  35.951  1.00  0.00     0.022 A 
BRANCH  95  99
ATOM     99  S   UNL A   1      44.320  23.305  34.279  1.00  0.00     0.124 S 
ATOM    100  O   UNL A   1      45.675  23.573  33.800  1.00  0.00    -0.237 OA
ATOM    101  O   UNL A   1      44.242  22.651  35.584  1.00  0.00    -0.237 OA
ATOM    102  O   UNL A   1      43.392  22.802  33.271  1.00  0.00    -0.744 OA
ENDBRANCH  95  99
ENDBRANCH  69  92
ENDBRANCH  43  44
ENDBRANCH  36  38
ENDBRANCH  35  36
ENDBRANCH  34  35
ENDBRANCH   1  34
TORSDOF 20
ENDMDL
