MODEL 1
REMARK VINA RESULT:     -10.7      0.000      0.000
REMARK SMILES CC(=O)N[C@H](C(=O)NC1(CC(=O)OCCOC(=O)c2ccc(-c3c4nc(c(-c5cc(S(=O)(=O)[O-])ccc5F)c5ccc([nH]5)c(-c5cc(S(=O)(=O)[O-])ccc5F)c5nc(c(-c6cc(S(=O)(=O)[O-])ccc6F)c6ccc3[nH]6)C=C5)C=C4)cc2)CCC1)C(C)C
REMARK SMILES IDX 14 1 13 2 11 3 12 4 10 5 9 6 82 7 84 8 83 9 8 10 6 11 7 12
REMARK SMILES IDX 5 14 4 15 1 16 2 17 3 18 85 20 86 21 87 22 15 23 16 24 17 25
REMARK SMILES IDX 18 26 19 27 20 28 81 29 21 30 80 31 22 32 23 33 24 34 74 35
REMARK SMILES IDX 25 36 79 37 73 38 75 39 26 40 78 41 72 42 71 43 27 45 59 46
REMARK SMILES IDX 39 47 58 48 40 49 43 50 57 51 76 52 41 53 42 54 56 56 77 57
REMARK SMILES IDX 44 58 28 59 29 60 37 61 30 62 36 63 38 64 35 65 31 66 32 67
REMARK SMILES IDX 33 68 34 69 60 70 61 71 69 72 62 73 68 74 70 75 67 76 63 77
REMARK SMILES IDX 64 78 65 79 66 80 45 81 46 82 54 83 47 84 53 85 55 86 52 87
REMARK SMILES IDX 48 88 49 89 50 90 51 91
REMARK H PARENT 8 13 4 19 75 44 43 55
REMARK Flexibility Score: inf
ROOT
ATOM      1  C   UNL A   1      31.605  28.978  25.203  1.00  0.00     0.274 C 
ENDROOT
BRANCH   1   2
ATOM      2  O   UNL A   1      32.335  28.846  23.965  1.00  0.00    -0.462 OA
BRANCH   2   3
ATOM      3  C   UNL A   1      33.104  27.740  23.818  1.00  0.00     0.308 C 
ATOM      4  O   UNL A   1      33.945  27.598  22.939  1.00  0.00    -0.252 OA
BRANCH   3   5
ATOM      5  C   UNL A   1      32.776  26.630  24.791  1.00  0.00     0.151 C 
BRANCH   5   6
ATOM      6  C   UNL A   1      31.932  25.436  24.318  1.00  0.00     0.051 C 
ATOM      7  C   UNL A   1      30.391  25.701  24.181  1.00  0.00     0.029 C 
ATOM      8  C   UNL A   1      31.500  24.402  25.426  1.00  0.00     0.029 C 
ATOM      9  C   UNL A   1      30.230  25.242  25.637  1.00  0.00     0.005 C 
BRANCH   6  10
ATOM     10  N   UNL A   1      32.577  24.783  23.155  1.00  0.00    -0.348 N 
ATOM     11  C   UNL A   1      33.491  23.770  23.028  1.00  0.00     0.243 C 
ATOM     12  O   UNL A   1      33.643  23.289  21.900  1.00  0.00    -0.273 OA
ATOM     13  H   UNL A   1      32.287  25.155  22.291  1.00  0.00     0.164 HD
BRANCH  11  14
ATOM     14  C   UNL A   1      34.233  23.161  24.233  1.00  0.00     0.173 C 
BRANCH  14  15
ATOM     15  N   UNL A   1      34.279  21.715  23.985  1.00  0.00    -0.344 N 
ATOM     16  C   UNL A   1      33.536  20.935  26.208  1.00  0.00     0.114 C 
ATOM     17  C   UNL A   1      33.940  20.671  24.785  1.00  0.00     0.217 C 
ATOM     18  O   UNL A   1      33.935  19.531  24.326  1.00  0.00    -0.275 OA
ATOM     19  H   UNL A   1      34.609  21.460  23.093  1.00  0.00     0.164 HD
ENDBRANCH  14  15
BRANCH  14  20
ATOM     20  C   UNL A   1      35.679  23.728  24.309  1.00  0.00     0.015 C 
ATOM     21  C   UNL A   1      36.195  23.845  25.750  1.00  0.00     0.010 C 
ATOM     22  C   UNL A   1      36.658  22.868  23.504  1.00  0.00     0.010 C 
ENDBRANCH  14  20
ENDBRANCH  11  14
ENDBRANCH   6  10
ENDBRANCH   5   6
ENDBRANCH   3   5
ENDBRANCH   2   3
ENDBRANCH   1   2
BRANCH   1  23
ATOM     23  C   UNL A   1      31.664  30.410  25.733  1.00  0.00     0.275 C 
BRANCH  23  24
ATOM     24  O   UNL A   1      32.323  30.457  27.009  1.00  0.00    -0.458 OA
BRANCH  24  25
ATOM     25  C   UNL A   1      32.990  31.610  27.249  1.00  0.00     0.338 C 
ATOM     26  O   UNL A   1      32.564  32.743  27.074  1.00  0.00    -0.246 OA
BRANCH  25  27
ATOM     27  C   UNL A   1      34.291  31.295  27.851  1.00  0.00     0.060 A 
ATOM     28  C   UNL A   1      34.656  29.955  28.024  1.00  0.00     0.016 A 
ATOM     29  C   UNL A   1      35.112  32.322  28.313  1.00  0.00     0.016 A 
ATOM     30  C   UNL A   1      35.833  29.640  28.701  1.00  0.00     0.010 A 
ATOM     31  C   UNL A   1      36.310  32.002  28.957  1.00  0.00     0.010 A 
ATOM     32  C   UNL A   1      36.671  30.659  29.174  1.00  0.00    -0.014 A 
BRANCH  32  33
ATOM     33  C   UNL A   1      37.918  30.335  29.913  1.00  0.00     0.031 A 
ATOM     34  C   UNL A   1      38.925  29.392  29.314  1.00  0.00     0.074 A 
ATOM     35  C   UNL A   1      38.131  30.864  31.133  1.00  0.00     0.049 A 
ATOM     36  N   UNL A   1      39.998  28.871  29.854  1.00  0.00    -0.248 NA
ATOM     37  C   UNL A   1      38.682  28.972  27.926  1.00  0.00     0.031 C 
ATOM     38  C   UNL A   1      37.244  31.814  31.806  1.00  0.00     0.029 A 
ATOM     39  N   UNL A   1      39.152  30.669  32.028  1.00  0.00    -0.354 N 
ATOM     40  C   UNL A   1      40.548  28.041  28.882  1.00  0.00     0.074 A 
ATOM     41  C   UNL A   1      39.671  28.110  27.731  1.00  0.00     0.031 C 
ATOM     42  C   UNL A   1      37.760  32.118  33.007  1.00  0.00     0.029 A 
ATOM     43  C   UNL A   1      38.981  31.345  33.212  1.00  0.00     0.049 A 
ATOM     44  H   UNL A   1      39.932  30.098  31.840  1.00  0.00     0.167 HD
ATOM     45  C   UNL A   1      41.680  27.296  28.948  1.00  0.00     0.034 A 
ATOM     46  C   UNL A   1      39.704  31.319  34.349  1.00  0.00     0.034 A 
ATOM     47  C   UNL A   1      42.548  27.246  30.102  1.00  0.00     0.049 A 
ATOM     48  C   UNL A   1      40.925  30.442  34.419  1.00  0.00     0.074 A 
ATOM     49  C   UNL A   1      43.730  26.544  30.265  1.00  0.00     0.029 A 
ATOM     50  N   UNL A   1      42.327  27.926  31.294  1.00  0.00    -0.354 N 
ATOM     51  N   UNL A   1      41.422  29.643  33.504  1.00  0.00    -0.248 NA
ATOM     52  C   UNL A   1      41.680  30.461  35.679  1.00  0.00     0.031 C 
ATOM     53  C   UNL A   1      44.191  26.751  31.572  1.00  0.00     0.029 A 
ATOM     54  C   UNL A   1      43.334  27.637  32.205  1.00  0.00     0.049 A 
ATOM     55  H   UNL A   1      41.566  28.526  31.468  1.00  0.00     0.167 HD
ATOM     56  C   UNL A   1      42.561  29.080  34.071  1.00  0.00     0.074 A 
ATOM     57  C   UNL A   1      42.683  29.640  35.402  1.00  0.00     0.031 C 
ATOM     58  C   UNL A   1      43.431  28.185  33.537  1.00  0.00     0.034 A 
BRANCH  45  59
ATOM     59  C   UNL A   1      42.009  26.431  27.753  1.00  0.00     0.023 A 
ATOM     60  C   UNL A   1      41.637  25.077  27.690  1.00  0.00     0.031 A 
ATOM     61  C   UNL A   1      42.735  26.966  26.675  1.00  0.00     0.131 A 
ATOM     62  C   UNL A   1      42.050  24.287  26.605  1.00  0.00     0.055 A 
ATOM     63  C   UNL A   1      43.080  26.194  25.563  1.00  0.00     0.041 A 
ATOM     64  F   UNL A   1      43.134  28.247  26.686  1.00  0.00    -0.206 F 
ATOM     65  C   UNL A   1      42.750  24.842  25.531  1.00  0.00     0.022 A 
BRANCH  62  66
ATOM     66  S   UNL A   1      41.776  22.494  26.677  1.00  0.00     0.124 S 
ATOM     67  O   UNL A   1      40.339  22.421  26.926  1.00  0.00    -0.237 OA
ATOM     68  O   UNL A   1      42.219  22.054  25.359  1.00  0.00    -0.237 OA
ATOM     69  O   UNL A   1      42.616  22.064  27.793  1.00  0.00    -0.744 OA
ENDBRANCH  62  66
ENDBRANCH  45  59
BRANCH  46  70
ATOM     70  C   UNL A   1      39.264  32.108  35.533  1.00  0.00     0.023 A 
ATOM     71  C   UNL A   1      38.545  31.511  36.579  1.00  0.00     0.031 A 
ATOM     72  C   UNL A   1      39.535  33.486  35.618  1.00  0.00     0.131 A 
ATOM     73  C   UNL A   1      38.089  32.295  37.650  1.00  0.00     0.055 A 
ATOM     74  C   UNL A   1      39.122  34.252  36.708  1.00  0.00     0.041 A 
ATOM     75  F   UNL A   1      40.222  34.104  34.644  1.00  0.00    -0.206 F 
ATOM     76  C   UNL A   1      38.384  33.658  37.727  1.00  0.00     0.022 A 
BRANCH  73  77
ATOM     77  S   UNL A   1      37.044  31.520  38.914  1.00  0.00     0.124 S 
ATOM     78  O   UNL A   1      36.900  30.165  38.392  1.00  0.00    -0.237 OA
ATOM     79  O   UNL A   1      37.860  31.662  40.114  1.00  0.00    -0.237 OA
ATOM     80  O   UNL A   1      35.827  32.330  38.891  1.00  0.00    -0.744 OA
ENDBRANCH  73  77
ENDBRANCH  46  70
BRANCH  58  81
ATOM     81  C   UNL A   1      44.612  27.796  34.392  1.00  0.00     0.023 A 
ATOM     82  C   UNL A   1      44.572  26.675  35.241  1.00  0.00     0.031 A 
ATOM     83  C   UNL A   1      45.782  28.574  34.375  1.00  0.00     0.131 A 
ATOM     84  C   UNL A   1      45.664  26.394  36.077  1.00  0.00     0.055 A 
ATOM     85  C   UNL A   1      46.883  28.260  35.171  1.00  0.00     0.041 A 
ATOM     86  F   UNL A   1      45.871  29.655  33.583  1.00  0.00    -0.206 F 
ATOM     87  C   UNL A   1      46.824  27.173  36.038  1.00  0.00     0.022 A 
BRANCH  84  88
ATOM     88  S   UNL A   1      45.520  25.044  37.280  1.00  0.00     0.124 S 
ATOM     89  O   UNL A   1      46.051  25.658  38.493  1.00  0.00    -0.237 OA
ATOM     90  O   UNL A   1      44.085  24.775  37.278  1.00  0.00    -0.237 OA
ATOM     91  O   UNL A   1      46.348  23.984  36.709  1.00  0.00    -0.744 OA
ENDBRANCH  84  88
ENDBRANCH  58  81
ENDBRANCH  32  33
ENDBRANCH  25  27
ENDBRANCH  24  25
ENDBRANCH  23  24
ENDBRANCH   1  23
TORSDOF 19
ENDMDL
MODEL 2
REMARK VINA RESULT:     -10.7      5.378     10.338
REMARK SMILES CC(=O)N[C@H](C(=O)NC1(CC(=O)OCCOC(=O)c2ccc(-c3c4nc(c(-c5cc(S(=O)(=O)[O-])ccc5F)c5ccc([nH]5)c(-c5cc(S(=O)(=O)[O-])ccc5F)c5nc(c(-c6cc(S(=O)(=O)[O-])ccc6F)c6ccc3[nH]6)C=C5)C=C4)cc2)CCC1)C(C)C
REMARK SMILES IDX 14 1 13 2 11 3 12 4 10 5 9 6 82 7 84 8 83 9 8 10 6 11 7 12
REMARK SMILES IDX 5 14 4 15 1 16 2 17 3 18 85 20 86 21 87 22 15 23 16 24 17 25
REMARK SMILES IDX 18 26 19 27 20 28 81 29 21 30 80 31 22 32 23 33 24 34 74 35
REMARK SMILES IDX 25 36 79 37 73 38 75 39 26 40 78 41 72 42 71 43 27 45 59 46
REMARK SMILES IDX 39 47 58 48 40 49 43 50 57 51 76 52 41 53 42 54 56 56 77 57
REMARK SMILES IDX 44 58 28 59 29 60 37 61 30 62 36 63 38 64 35 65 31 66 32 67
REMARK SMILES IDX 33 68 34 69 60 70 61 71 69 72 62 73 68 74 70 75 67 76 63 77
REMARK SMILES IDX 64 78 65 79 66 80 45 81 46 82 54 83 47 84 53 85 55 86 52 87
REMARK SMILES IDX 48 88 49 89 50 90 51 91
REMARK H PARENT 8 13 4 19 75 44 43 55
REMARK Flexibility Score: inf
ROOT
ATOM      1  C   UNL A   1      35.998  21.363  24.271  1.00  0.00     0.274 C 
ENDROOT
BRANCH   1   2
ATOM      2  O   UNL A   1      35.356  22.195  25.261  1.00  0.00    -0.462 OA
BRANCH   2   3
ATOM      3  C   UNL A   1      35.036  23.458  24.890  1.00  0.00     0.308 C 
ATOM      4  O   UNL A   1      35.576  24.464  25.334  1.00  0.00    -0.252 OA
BRANCH   3   5
ATOM      5  C   UNL A   1      33.871  23.540  23.930  1.00  0.00     0.151 C 
BRANCH   5   6
ATOM      6  C   UNL A   1      32.582  22.762  24.239  1.00  0.00     0.051 C 
ATOM      7  C   UNL A   1      32.597  21.239  23.864  1.00  0.00     0.029 C 
ATOM      8  C   UNL A   1      31.433  22.858  23.164  1.00  0.00     0.029 C 
ATOM      9  C   UNL A   1      32.040  21.620  22.485  1.00  0.00     0.005 C 
BRANCH   6  10
ATOM     10  N   UNL A   1      32.106  23.083  25.604  1.00  0.00    -0.348 N 
ATOM     11  C   UNL A   1      31.667  24.233  26.206  1.00  0.00     0.243 C 
ATOM     12  O   UNL A   1      31.104  24.115  27.300  1.00  0.00    -0.273 OA
ATOM     13  H   UNL A   1      32.105  22.304  26.207  1.00  0.00     0.164 HD
BRANCH  11  14
ATOM     14  C   UNL A   1      31.756  25.614  25.530  1.00  0.00     0.173 C 
BRANCH  14  15
ATOM     15  N   UNL A   1      30.372  26.005  25.235  1.00  0.00    -0.344 N 
ATOM     16  C   UNL A   1      30.716  26.891  22.955  1.00  0.00     0.114 C 
ATOM     17  C   UNL A   1      29.824  26.528  24.108  1.00  0.00     0.217 C 
ATOM     18  O   UNL A   1      28.604  26.661  24.032  1.00  0.00    -0.275 OA
ATOM     19  H   UNL A   1      29.738  25.866  25.976  1.00  0.00     0.164 HD
ENDBRANCH  14  15
BRANCH  14  20
ATOM     20  C   UNL A   1      32.398  26.642  26.504  1.00  0.00     0.015 C 
ATOM     21  C   UNL A   1      33.637  27.327  25.911  1.00  0.00     0.010 C 
ATOM     22  C   UNL A   1      31.392  27.720  26.918  1.00  0.00     0.010 C 
ENDBRANCH  14  20
ENDBRANCH  11  14
ENDBRANCH   6  10
ENDBRANCH   5   6
ENDBRANCH   3   5
ENDBRANCH   2   3
ENDBRANCH   1   2
BRANCH   1  23
ATOM     23  C   UNL A   1      37.329  20.816  24.784  1.00  0.00     0.275 C 
BRANCH  23  24
ATOM     24  O   UNL A   1      37.801  21.584  25.903  1.00  0.00    -0.458 OA
BRANCH  24  25
ATOM     25  C   UNL A   1      39.086  21.337  26.246  1.00  0.00     0.338 C 
ATOM     26  O   UNL A   1      39.676  20.272  26.128  1.00  0.00    -0.246 OA
BRANCH  25  27
ATOM     27  C   UNL A   1      39.708  22.585  26.704  1.00  0.00     0.060 A 
ATOM     28  C   UNL A   1      39.261  23.802  26.180  1.00  0.00     0.016 A 
ATOM     29  C   UNL A   1      40.783  22.543  27.590  1.00  0.00     0.016 A 
ATOM     30  C   UNL A   1      39.919  24.985  26.513  1.00  0.00     0.010 A 
ATOM     31  C   UNL A   1      41.417  23.735  27.953  1.00  0.00     0.010 A 
ATOM     32  C   UNL A   1      41.003  24.962  27.403  1.00  0.00    -0.014 A 
BRANCH  32  33
ATOM     33  C   UNL A   1      41.724  26.213  27.751  1.00  0.00     0.031 A 
ATOM     34  C   UNL A   1      41.037  27.279  28.560  1.00  0.00     0.074 A 
ATOM     35  C   UNL A   1      42.984  26.404  27.316  1.00  0.00     0.049 A 
ATOM     36  N   UNL A   1      41.437  28.493  28.845  1.00  0.00    -0.248 NA
ATOM     37  C   UNL A   1      39.719  26.933  29.111  1.00  0.00     0.031 C 
ATOM     38  C   UNL A   1      43.768  25.433  26.551  1.00  0.00     0.029 A 
ATOM     39  N   UNL A   1      43.823  27.482  27.444  1.00  0.00    -0.354 N 
ATOM     40  C   UNL A   1      40.411  29.067  29.587  1.00  0.00     0.074 A 
ATOM     41  C   UNL A   1      39.360  28.075  29.683  1.00  0.00     0.031 C 
ATOM     42  C   UNL A   1      44.971  25.960  26.278  1.00  0.00     0.029 A 
ATOM     43  C   UNL A   1      45.026  27.322  26.798  1.00  0.00     0.049 A 
ATOM     44  H   UNL A   1      43.585  28.293  27.950  1.00  0.00     0.167 HD
ATOM     45  C   UNL A   1      40.356  30.306  30.137  1.00  0.00     0.034 A 
ATOM     46  C   UNL A   1      46.043  28.186  26.613  1.00  0.00     0.034 A 
ATOM     47  C   UNL A   1      41.418  31.281  30.041  1.00  0.00     0.049 A 
ATOM     48  C   UNL A   1      45.937  29.574  27.185  1.00  0.00     0.074 A 
ATOM     49  C   UNL A   1      41.475  32.555  30.580  1.00  0.00     0.029 A 
ATOM     50  N   UNL A   1      42.612  31.091  29.354  1.00  0.00    -0.354 N 
ATOM     51  N   UNL A   1      44.952  30.115  27.863  1.00  0.00    -0.248 NA
ATOM     52  C   UNL A   1      47.080  30.470  26.961  1.00  0.00     0.031 C 
ATOM     53  C   UNL A   1      42.674  33.155  30.172  1.00  0.00     0.029 A 
ATOM     54  C   UNL A   1      43.398  32.233  29.433  1.00  0.00     0.049 A 
ATOM     55  H   UNL A   1      42.865  30.267  28.880  1.00  0.00     0.167 HD
ATOM     56  C   UNL A   1      45.367  31.409  28.166  1.00  0.00     0.074 A 
ATOM     57  C   UNL A   1      46.694  31.561  27.607  1.00  0.00     0.031 C 
ATOM     58  C   UNL A   1      44.711  32.380  28.851  1.00  0.00     0.034 A 
BRANCH  45  59
ATOM     59  C   UNL A   1      39.079  30.692  30.847  1.00  0.00     0.023 A 
ATOM     60  C   UNL A   1      37.982  31.242  30.160  1.00  0.00     0.031 A 
ATOM     61  C   UNL A   1      38.971  30.535  32.240  1.00  0.00     0.131 A 
ATOM     62  C   UNL A   1      36.854  31.676  30.873  1.00  0.00     0.055 A 
ATOM     63  C   UNL A   1      37.817  30.901  32.936  1.00  0.00     0.041 A 
ATOM     64  F   UNL A   1      39.991  30.033  32.953  1.00  0.00    -0.206 F 
ATOM     65  C   UNL A   1      36.756  31.490  32.254  1.00  0.00     0.022 A 
BRANCH  62  66
ATOM     66  S   UNL A   1      35.572  32.611  29.992  1.00  0.00     0.124 S 
ATOM     67  O   UNL A   1      36.192  33.927  29.870  1.00  0.00    -0.237 OA
ATOM     68  O   UNL A   1      35.427  31.856  28.753  1.00  0.00    -0.237 OA
ATOM     69  O   UNL A   1      34.424  32.554  30.895  1.00  0.00    -0.744 OA
ENDBRANCH  62  66
ENDBRANCH  45  59
BRANCH  46  70
ATOM     70  C   UNL A   1      47.229  27.783  25.807  1.00  0.00     0.023 A 
ATOM     71  C   UNL A   1      47.282  28.016  24.424  1.00  0.00     0.031 A 
ATOM     72  C   UNL A   1      48.318  27.130  26.410  1.00  0.00     0.131 A 
ATOM     73  C   UNL A   1      48.385  27.567  23.682  1.00  0.00     0.055 A 
ATOM     74  C   UNL A   1      49.434  26.727  25.677  1.00  0.00     0.041 A 
ATOM     75  F   UNL A   1      48.317  26.885  27.730  1.00  0.00    -0.206 F 
ATOM     76  C   UNL A   1      49.467  26.937  24.302  1.00  0.00     0.022 A 
BRANCH  73  77
ATOM     77  S   UNL A   1      48.358  27.759  21.879  1.00  0.00     0.124 S 
ATOM     78  O   UNL A   1      49.472  28.676  21.660  1.00  0.00    -0.237 OA
ATOM     79  O   UNL A   1      48.557  26.387  21.424  1.00  0.00    -0.237 OA
ATOM     80  O   UNL A   1      47.032  28.314  21.615  1.00  0.00    -0.744 OA
ENDBRANCH  73  77
ENDBRANCH  46  70
BRANCH  58  81
ATOM     81  C   UNL A   1      45.450  33.678  29.060  1.00  0.00     0.023 A 
ATOM     82  C   UNL A   1      45.329  34.752  28.159  1.00  0.00     0.031 A 
ATOM     83  C   UNL A   1      46.308  33.831  30.162  1.00  0.00     0.131 A 
ATOM     84  C   UNL A   1      46.094  35.913  28.349  1.00  0.00     0.055 A 
ATOM     85  C   UNL A   1      47.029  35.007  30.373  1.00  0.00     0.041 A 
ATOM     86  F   UNL A   1      46.462  32.837  31.051  1.00  0.00    -0.206 F 
ATOM     87  C   UNL A   1      46.934  36.051  29.458  1.00  0.00     0.022 A 
BRANCH  84  88
ATOM     88  S   UNL A   1      46.043  37.211  27.083  1.00  0.00     0.124 S 
ATOM     89  O   UNL A   1      46.611  36.530  25.924  1.00  0.00    -0.237 OA
ATOM     90  O   UNL A   1      44.618  37.518  27.007  1.00  0.00    -0.237 OA
ATOM     91  O   UNL A   1      46.875  38.273  27.645  1.00  0.00    -0.744 OA
ENDBRANCH  84  88
ENDBRANCH  58  81
ENDBRANCH  32  33
ENDBRANCH  25  27
ENDBRANCH  24  25
ENDBRANCH  23  24
ENDBRANCH   1  23
TORSDOF 19
ENDMDL
MODEL 3
REMARK VINA RESULT:     -10.6      5.160      8.143
REMARK SMILES CC(=O)N[C@H](C(=O)NC1(CC(=O)OCCOC(=O)c2ccc(-c3c4nc(c(-c5cc(S(=O)(=O)[O-])ccc5F)c5ccc([nH]5)c(-c5cc(S(=O)(=O)[O-])ccc5F)c5nc(c(-c6cc(S(=O)(=O)[O-])ccc6F)c6ccc3[nH]6)C=C5)C=C4)cc2)CCC1)C(C)C
REMARK SMILES IDX 14 1 13 2 11 3 12 4 10 5 9 6 82 7 84 8 83 9 8 10 6 11 7 12
REMARK SMILES IDX 5 14 4 15 1 16 2 17 3 18 85 20 86 21 87 22 15 23 16 24 17 25
REMARK SMILES IDX 18 26 19 27 20 28 81 29 21 30 80 31 22 32 23 33 24 34 74 35
REMARK SMILES IDX 25 36 79 37 73 38 75 39 26 40 78 41 72 42 71 43 27 45 59 46
REMARK SMILES IDX 39 47 58 48 40 49 43 50 57 51 76 52 41 53 42 54 56 56 77 57
REMARK SMILES IDX 44 58 28 59 29 60 37 61 30 62 36 63 38 64 35 65 31 66 32 67
REMARK SMILES IDX 33 68 34 69 60 70 61 71 69 72 62 73 68 74 70 75 67 76 63 77
REMARK SMILES IDX 64 78 65 79 66 80 45 81 46 82 54 83 47 84 53 85 55 86 52 87
REMARK SMILES IDX 48 88 49 89 50 90 51 91
REMARK H PARENT 8 13 4 19 75 44 43 55
REMARK Flexibility Score: inf
ROOT
ATOM      1  C   UNL A   1      38.114  19.575  24.938  1.00  0.00     0.274 C 
ENDROOT
BRANCH   1   2
ATOM      2  O   UNL A   1      37.883  20.995  25.047  1.00  0.00    -0.462 OA
BRANCH   2   3
ATOM      3  C   UNL A   1      36.689  21.461  24.607  1.00  0.00     0.308 C 
ATOM      4  O   UNL A   1      36.559  22.284  23.709  1.00  0.00    -0.252 OA
BRANCH   3   5
ATOM      5  C   UNL A   1      35.502  20.942  25.387  1.00  0.00     0.151 C 
BRANCH   5   6
ATOM      6  C   UNL A   1      34.212  21.776  25.441  1.00  0.00     0.051 C 
ATOM      7  C   UNL A   1      34.383  23.272  25.881  1.00  0.00     0.029 C 
ATOM      8  C   UNL A   1      33.351  21.647  26.756  1.00  0.00     0.029 C 
ATOM      9  C   UNL A   1      34.157  22.822  27.332  1.00  0.00     0.005 C 
BRANCH   6  10
ATOM     10  N   UNL A   1      33.409  21.554  24.216  1.00  0.00    -0.348 N 
ATOM     11  C   UNL A   1      32.675  22.380  23.406  1.00  0.00     0.243 C 
ATOM     12  O   UNL A   1      32.321  21.925  22.312  1.00  0.00    -0.273 OA
ATOM     13  H   UNL A   1      33.401  20.615  23.922  1.00  0.00     0.164 HD
BRANCH  11  14
ATOM     14  C   UNL A   1      32.380  23.850  23.760  1.00  0.00     0.173 C 
BRANCH  14  15
ATOM     15  N   UNL A   1      32.608  24.613  22.528  1.00  0.00    -0.344 N 
ATOM     16  C   UNL A   1      33.862  26.510  23.493  1.00  0.00     0.114 C 
ATOM     17  C   UNL A   1      33.293  25.767  22.318  1.00  0.00     0.217 C 
ATOM     18  O   UNL A   1      33.469  26.168  21.169  1.00  0.00    -0.275 OA
ATOM     19  H   UNL A   1      32.198  24.225  21.721  1.00  0.00     0.164 HD
ENDBRANCH  14  15
BRANCH  14  20
ATOM     20  C   UNL A   1      30.899  24.002  24.208  1.00  0.00     0.015 C 
ATOM     21  C   UNL A   1      30.748  24.124  25.731  1.00  0.00     0.010 C 
ATOM     22  C   UNL A   1      30.240  25.218  23.549  1.00  0.00     0.010 C 
ENDBRANCH  14  20
ENDBRANCH  11  14
ENDBRANCH   6  10
ENDBRANCH   5   6
ENDBRANCH   3   5
ENDBRANCH   2   3
ENDBRANCH   1   2
BRANCH   1  23
ATOM     23  C   UNL A   1      39.305  19.139  25.791  1.00  0.00     0.275 C 
BRANCH  23  24
ATOM     24  O   UNL A   1      40.245  20.214  25.945  1.00  0.00    -0.458 OA
BRANCH  24  25
ATOM     25  C   UNL A   1      40.690  20.388  27.211  1.00  0.00     0.338 C 
ATOM     26  O   UNL A   1      40.929  19.505  28.023  1.00  0.00    -0.246 OA
BRANCH  25  27
ATOM     27  C   UNL A   1      40.939  21.816  27.440  1.00  0.00     0.060 A 
ATOM     28  C   UNL A   1      40.380  22.754  26.566  1.00  0.00     0.016 A 
ATOM     29  C   UNL A   1      41.786  22.219  28.472  1.00  0.00     0.016 A 
ATOM     30  C   UNL A   1      40.704  24.104  26.699  1.00  0.00     0.010 A 
ATOM     31  C   UNL A   1      42.077  23.577  28.626  1.00  0.00     0.010 A 
ATOM     32  C   UNL A   1      41.555  24.528  27.730  1.00  0.00    -0.014 A 
BRANCH  32  33
ATOM     33  C   UNL A   1      41.921  25.961  27.869  1.00  0.00     0.031 A 
ATOM     34  C   UNL A   1      43.239  26.457  27.342  1.00  0.00     0.074 A 
ATOM     35  C   UNL A   1      41.083  26.809  28.495  1.00  0.00     0.049 A 
ATOM     36  N   UNL A   1      43.806  27.627  27.490  1.00  0.00    -0.248 NA
ATOM     37  C   UNL A   1      44.029  25.500  26.552  1.00  0.00     0.031 C 
ATOM     38  C   UNL A   1      39.764  26.455  29.022  1.00  0.00     0.029 A 
ATOM     39  N   UNL A   1      41.220  28.138  28.806  1.00  0.00    -0.354 N 
ATOM     40  C   UNL A   1      45.030  27.544  26.835  1.00  0.00     0.074 A 
ATOM     41  C   UNL A   1      45.131  26.196  26.312  1.00  0.00     0.031 C 
ATOM     42  C   UNL A   1      39.214  27.540  29.590  1.00  0.00     0.029 A 
ATOM     43  C   UNL A   1      40.161  28.648  29.518  1.00  0.00     0.049 A 
ATOM     44  H   UNL A   1      42.003  28.675  28.544  1.00  0.00     0.167 HD
ATOM     45  C   UNL A   1      45.975  28.505  26.683  1.00  0.00     0.034 A 
ATOM     46  C   UNL A   1      39.985  29.860  30.081  1.00  0.00     0.034 A 
ATOM     47  C   UNL A   1      45.853  29.848  27.202  1.00  0.00     0.049 A 
ATOM     48  C   UNL A   1      41.072  30.893  29.948  1.00  0.00     0.074 A 
ATOM     49  C   UNL A   1      46.740  30.904  27.085  1.00  0.00     0.029 A 
ATOM     50  N   UNL A   1      44.775  30.320  27.943  1.00  0.00    -0.354 N 
ATOM     51  N   UNL A   1      42.236  30.795  29.348  1.00  0.00    -0.248 NA
ATOM     52  C   UNL A   1      40.822  32.198  30.572  1.00  0.00     0.031 C 
ATOM     53  C   UNL A   1      46.228  31.994  27.802  1.00  0.00     0.029 A 
ATOM     54  C   UNL A   1      44.988  31.641  28.312  1.00  0.00     0.049 A 
ATOM     55  H   UNL A   1      43.976  29.793  28.172  1.00  0.00     0.167 HD
ATOM     56  C   UNL A   1      42.848  32.035  29.505  1.00  0.00     0.074 A 
ATOM     57  C   UNL A   1      41.920  32.866  30.245  1.00  0.00     0.031 C 
ATOM     58  C   UNL A   1      44.064  32.451  29.070  1.00  0.00     0.034 A 
BRANCH  45  59
ATOM     59  C   UNL A   1      47.249  28.115  25.970  1.00  0.00     0.023 A 
ATOM     60  C   UNL A   1      47.357  28.147  24.568  1.00  0.00     0.031 A 
ATOM     61  C   UNL A   1      48.363  27.674  26.706  1.00  0.00     0.131 A 
ATOM     62  C   UNL A   1      48.526  27.683  23.945  1.00  0.00     0.055 A 
ATOM     63  C   UNL A   1      49.550  27.282  26.083  1.00  0.00     0.041 A 
ATOM     64  F   UNL A   1      48.314  27.603  28.046  1.00  0.00    -0.206 F 
ATOM     65  C   UNL A   1      49.631  27.271  24.694  1.00  0.00     0.022 A 
BRANCH  62  66
ATOM     66  S   UNL A   1      48.536  27.497  22.139  1.00  0.00     0.124 S 
ATOM     67  O   UNL A   1      48.635  26.048  21.988  1.00  0.00    -0.237 OA
ATOM     68  O   UNL A   1      47.262  28.094  21.754  1.00  0.00    -0.237 OA
ATOM     69  O   UNL A   1      49.724  28.241  21.724  1.00  0.00    -0.744 OA
ENDBRANCH  62  66
ENDBRANCH  45  59
BRANCH  46  70
ATOM     70  C   UNL A   1      38.755  30.147  30.869  1.00  0.00     0.023 A 
ATOM     71  C   UNL A   1      37.712  30.918  30.333  1.00  0.00     0.031 A 
ATOM     72  C   UNL A   1      38.619  29.674  32.186  1.00  0.00     0.131 A 
ATOM     73  C   UNL A   1      36.593  31.225  31.123  1.00  0.00     0.055 A 
ATOM     74  C   UNL A   1      37.484  29.941  32.952  1.00  0.00     0.041 A 
ATOM     75  F   UNL A   1      39.587  28.930  32.744  1.00  0.00    -0.206 F 
ATOM     76  C   UNL A   1      36.467  30.730  32.423  1.00  0.00     0.022 A 
BRANCH  73  77
ATOM     77  S   UNL A   1      35.330  32.339  30.450  1.00  0.00     0.124 S 
ATOM     78  O   UNL A   1      34.861  31.591  29.288  1.00  0.00    -0.237 OA
ATOM     79  O   UNL A   1      34.395  32.447  31.564  1.00  0.00    -0.237 OA
ATOM     80  O   UNL A   1      36.078  33.557  30.146  1.00  0.00    -0.744 OA
ENDBRANCH  73  77
ENDBRANCH  46  70
BRANCH  58  81
ATOM     81  C   UNL A   1      44.433  33.885  29.358  1.00  0.00     0.023 A 
ATOM     82  C   UNL A   1      44.230  34.905  28.412  1.00  0.00     0.031 A 
ATOM     83  C   UNL A   1      45.022  34.228  30.587  1.00  0.00     0.131 A 
ATOM     84  C   UNL A   1      44.660  36.212  28.691  1.00  0.00     0.055 A 
ATOM     85  C   UNL A   1      45.401  35.538  30.879  1.00  0.00     0.041 A 
ATOM     86  F   UNL A   1      45.240  33.291  31.524  1.00  0.00    -0.206 F 
ATOM     87  C   UNL A   1      45.232  36.537  29.924  1.00  0.00     0.022 A 
BRANCH  84  88
ATOM     88  S   UNL A   1      44.536  37.470  27.391  1.00  0.00     0.124 S 
ATOM     89  O   UNL A   1      44.693  38.708  28.148  1.00  0.00    -0.237 OA
ATOM     90  O   UNL A   1      45.645  37.118  26.508  1.00  0.00    -0.237 OA
ATOM     91  O   UNL A   1      43.205  37.254  26.827  1.00  0.00    -0.744 OA
ENDBRANCH  84  88
ENDBRANCH  58  81
ENDBRANCH  32  33
ENDBRANCH  25  27
ENDBRANCH  24  25
ENDBRANCH  23  24
ENDBRANCH   1  23
TORSDOF 19
ENDMDL
