MODEL 1
REMARK VINA RESULT:     -12.1      0.000      0.000
REMARK SMILES Cc1noc(C)c1[C@H](C)NC(=O)NC[C@@](C)(O)C(=O)OCCOC(=O)c1ccc(-c2c3nc(c(-c4cc(S(=O)(=O)[O-])ccc4F)c4ccc([nH]4)c(-c4cc(S(=O)(=O)[O-])ccc4F)c4nc(c(-c5cc(S(=O)(=O)[O-])ccc5F)c5ccc2[nH]5)C=C4)C=C3)cc1
REMARK SMILES IDX 21 1 20 2 18 3 19 4 15 5 16 6 14 7 13 8 10 9 11 10 12 12
REMARK SMILES IDX 8 14 9 15 7 16 1 17 2 18 3 19 4 20 5 21 6 22 17 23 22 25
REMARK SMILES IDX 23 26 24 27 25 28 26 29 27 30 88 31 28 32 87 33 29 34 30 35
REMARK SMILES IDX 31 36 81 37 32 38 86 39 80 40 82 41 33 42 85 43 79 44 78 45
REMARK SMILES IDX 34 47 66 48 46 49 65 50 47 51 50 52 64 53 83 54 48 55 49 56
REMARK SMILES IDX 63 58 84 59 51 60 35 61 36 62 44 63 37 64 43 65 45 66 42 67
REMARK SMILES IDX 38 68 39 69 40 70 41 71 67 72 68 73 76 74 69 75 75 76 77 77
REMARK SMILES IDX 74 78 70 79 71 80 72 81 73 82 52 83 53 84 61 85 54 86 60 87
REMARK SMILES IDX 62 88 59 89 55 90 56 91 57 92 58 93
REMARK H PARENT 10 11 13 13 17 24 82 46 50 57
REMARK Flexibility Score: inf
ROOT
ATOM      1  C   UNL A   1      32.332  30.102  25.659  1.00  0.00     0.274 C 
ENDROOT
BRANCH   1   2
ATOM      2  O   UNL A   1      31.283  29.123  25.474  1.00  0.00    -0.460 OA
BRANCH   2   3
ATOM      3  C   UNL A   1      30.786  28.963  24.205  1.00  0.00     0.339 C 
ATOM      4  O   UNL A   1      29.947  29.698  23.703  1.00  0.00    -0.249 OA
BRANCH   3   5
ATOM      5  C   UNL A   1      31.428  27.716  23.529  1.00  0.00     0.176 C 
ATOM      6  C   UNL A   1      30.264  27.045  22.792  1.00  0.00     0.057 C 
BRANCH   5   7
ATOM      7  C   UNL A   1      32.598  28.009  22.533  1.00  0.00     0.164 C 
BRANCH   7   8
ATOM      8  N   UNL A   1      33.002  26.965  21.586  1.00  0.00    -0.335 N 
ATOM      9  N   UNL A   1      33.578  24.667  22.371  1.00  0.00    -0.331 N 
ATOM     10  C   UNL A   1      33.171  25.654  21.484  1.00  0.00     0.315 C 
ATOM     11  H   UNL A   1      33.256  23.856  21.916  1.00  0.00     0.165 HD
ATOM     12  O   UNL A   1      33.019  25.244  20.319  1.00  0.00    -0.249 OA
ATOM     13  H   UNL A   1      33.227  27.385  20.724  1.00  0.00     0.165 HD
BRANCH   9  14
ATOM     14  C   UNL A   1      34.459  23.845  24.086  1.00  0.00     0.116 C 
ATOM     15  C   UNL A   1      34.931  24.737  25.504  1.00  0.00     0.036 C 
BRANCH  14  16
ATOM     16  C   UNL A   1      34.628  22.067  24.600  1.00  0.00     0.040 A 
ATOM     17  C   UNL A   1      32.253  20.475  24.603  1.00  0.00     0.071 C 
ATOM     18  C   UNL A   1      33.709  20.844  24.607  1.00  0.00     0.086 A 
ATOM     19  N   UNL A   1      34.414  19.715  24.724  1.00  0.00    -0.085 NA
ATOM     20  O   UNL A   1      35.692  20.061  24.880  1.00  0.00    -0.361 OA
ATOM     21  C   UNL A   1      35.857  21.401  24.861  1.00  0.00     0.139 A 
ATOM     22  C   UNL A   1      37.298  21.665  25.097  1.00  0.00     0.091 C 
ENDBRANCH  14  16
ENDBRANCH   9  14
ENDBRANCH   7   8
ENDBRANCH   5   7
BRANCH   5  23
ATOM     23  O   UNL A   1      31.881  26.715  24.455  1.00  0.00    -0.377 OA
ATOM     24  H   UNL A   1      31.354  25.908  24.343  1.00  0.00     0.212 HD
ENDBRANCH   5  23
ENDBRANCH   3   5
ENDBRANCH   2   3
ENDBRANCH   1   2
BRANCH   1  25
ATOM     25  C   UNL A   1      31.774  31.330  26.377  1.00  0.00     0.275 C 
BRANCH  25  26
ATOM     26  O   UNL A   1      32.473  31.451  27.622  1.00  0.00    -0.458 OA
BRANCH  26  27
ATOM     27  C   UNL A   1      33.375  32.439  27.635  1.00  0.00     0.338 C 
ATOM     28  O   UNL A   1      33.141  33.640  27.641  1.00  0.00    -0.246 OA
BRANCH  27  29
ATOM     29  C   UNL A   1      34.757  31.969  27.738  1.00  0.00     0.060 A 
ATOM     30  C   UNL A   1      34.857  30.230  28.314  1.00  0.00     0.016 A 
ATOM     31  C   UNL A   1      36.225  33.035  27.953  1.00  0.00     0.016 A 
ATOM     32  C   UNL A   1      36.397  29.597  29.021  1.00  0.00     0.010 A 
ATOM     33  C   UNL A   1      37.677  32.438  28.865  1.00  0.00     0.010 A 
ATOM     34  C   UNL A   1      37.768  30.712  29.367  1.00  0.00    -0.014 A 
BRANCH  34  35
ATOM     35  C   UNL A   1      39.038  30.137  29.912  1.00  0.00     0.031 A 
ATOM     36  C   UNL A   1      39.574  30.611  31.230  1.00  0.00     0.074 A 
ATOM     37  C   UNL A   1      39.716  29.172  29.267  1.00  0.00     0.049 A 
ATOM     38  N   UNL A   1      40.334  30.012  32.105  1.00  0.00    -0.248 NA
ATOM     39  C   UNL A   1      39.151  31.948  31.633  1.00  0.00     0.031 C 
ATOM     40  C   UNL A   1      39.394  28.632  27.954  1.00  0.00     0.029 A 
ATOM     41  N   UNL A   1      40.845  28.483  29.635  1.00  0.00    -0.354 N 
ATOM     42  C   UNL A   1      40.336  30.840  33.226  1.00  0.00     0.074 A 
ATOM     43  C   UNL A   1      39.532  31.996  32.902  1.00  0.00     0.031 C 
ATOM     44  C   UNL A   1      40.315  27.721  27.605  1.00  0.00     0.029 A 
ATOM     45  C   UNL A   1      41.287  27.597  28.682  1.00  0.00     0.049 A 
ATOM     46  H   UNL A   1      41.296  28.611  30.501  1.00  0.00     0.167 HD
ATOM     47  C   UNL A   1      40.982  30.668  34.404  1.00  0.00     0.034 A 
ATOM     48  C   UNL A   1      42.352  26.772  28.680  1.00  0.00     0.034 A 
ATOM     49  C   UNL A   1      42.024  29.688  34.575  1.00  0.00     0.049 A 
ATOM     50  C   UNL A   1      43.176  26.676  29.937  1.00  0.00     0.074 A 
ATOM     51  C   UNL A   1      42.831  29.456  35.675  1.00  0.00     0.029 A 
ATOM     52  N   UNL A   1      42.475  28.843  33.567  1.00  0.00    -0.354 N 
ATOM     53  N   UNL A   1      43.030  27.322  31.074  1.00  0.00    -0.248 NA
ATOM     54  C   UNL A   1      44.276  25.707  29.929  1.00  0.00     0.031 C 
ATOM     55  C   UNL A   1      43.832  28.554  35.295  1.00  0.00     0.029 A 
ATOM     56  C   UNL A   1      43.585  28.137  33.995  1.00  0.00     0.049 A 
ATOM     57  H   UNL A   1      42.063  28.761  32.676  1.00  0.00     0.167 HD
ATOM     58  C   UNL A   1      44.005  26.813  31.927  1.00  0.00     0.074 A 
ATOM     59  C   UNL A   1      44.707  25.788  31.178  1.00  0.00     0.031 C 
ATOM     60  C   UNL A   1      44.295  27.153  33.212  1.00  0.00     0.034 A 
BRANCH  47  61
ATOM     61  C   UNL A   1      40.645  31.615  35.531  1.00  0.00     0.023 A 
ATOM     62  C   UNL A   1      39.517  31.395  36.346  1.00  0.00     0.031 A 
ATOM     63  C   UNL A   1      41.441  32.739  35.805  1.00  0.00     0.131 A 
ATOM     64  C   UNL A   1      39.202  32.300  37.373  1.00  0.00     0.055 A 
ATOM     65  C   UNL A   1      41.155  33.605  36.865  1.00  0.00     0.041 A 
ATOM     66  F   UNL A   1      42.506  33.024  35.040  1.00  0.00    -0.206 F 
ATOM     67  C   UNL A   1      40.027  33.392  37.653  1.00  0.00     0.022 A 
BRANCH  64  68
ATOM     68  S   UNL A   1      37.639  32.094  38.273  1.00  0.00     0.124 S 
ATOM     69  O   UNL A   1      38.064  32.304  39.655  1.00  0.00    -0.237 OA
ATOM     70  O   UNL A   1      36.802  33.139  37.696  1.00  0.00    -0.237 OA
ATOM     71  O   UNL A   1      37.237  30.726  37.954  1.00  0.00    -0.744 OA
ENDBRANCH  64  68
ENDBRANCH  47  61
BRANCH  48  72
ATOM     72  C   UNL A   1      42.678  25.975  27.461  1.00  0.00     0.023 A 
ATOM     73  C   UNL A   1      42.286  24.635  27.329  1.00  0.00     0.031 A 
ATOM     74  C   UNL A   1      43.406  26.553  26.404  1.00  0.00     0.131 A 
ATOM     75  C   UNL A   1      42.653  23.906  26.186  1.00  0.00     0.055 A 
ATOM     76  C   UNL A   1      43.721  25.842  25.245  1.00  0.00     0.041 A 
ATOM     77  F   UNL A   1      43.809  27.832  26.476  1.00  0.00    -0.206 F 
ATOM     78  C   UNL A   1      43.354  24.505  25.135  1.00  0.00     0.022 A 
BRANCH  75  79
ATOM     79  S   UNL A   1      42.280  22.131  26.128  1.00  0.00     0.124 S 
ATOM     80  O   UNL A   1      40.832  22.137  25.944  1.00  0.00    -0.237 OA
ATOM     81  O   UNL A   1      43.070  21.694  24.982  1.00  0.00    -0.237 OA
ATOM     82  O   UNL A   1      42.742  21.643  27.426  1.00  0.00    -0.744 OA
ENDBRANCH  75  79
ENDBRANCH  48  72
BRANCH  60  83
ATOM     83  C   UNL A   1      45.415  26.392  33.874  1.00  0.00     0.023 A 
ATOM     84  C   UNL A   1      45.185  25.175  34.536  1.00  0.00     0.031 A 
ATOM     85  C   UNL A   1      46.720  26.915  33.885  1.00  0.00     0.131 A 
ATOM     86  C   UNL A   1      46.217  24.574  35.269  1.00  0.00     0.055 A 
ATOM     87  C   UNL A   1      47.766  26.265  34.540  1.00  0.00     0.041 A 
ATOM     88  F   UNL A   1      46.999  28.075  33.268  1.00  0.00    -0.206 F 
ATOM     89  C   UNL A   1      47.511  25.099  35.257  1.00  0.00     0.022 A 
BRANCH  86  90
ATOM     90  S   UNL A   1      45.803  23.191  36.364  1.00  0.00     0.124 S 
ATOM     91  O   UNL A   1      47.055  22.441  36.387  1.00  0.00    -0.237 OA
ATOM     92  O   UNL A   1      45.445  23.871  37.604  1.00  0.00    -0.237 OA
ATOM     93  O   UNL A   1      44.695  22.529  35.675  1.00  0.00    -0.744 OA
ENDBRANCH  86  90
ENDBRANCH  60  83
ENDBRANCH  34  35
ENDBRANCH  27  29
ENDBRANCH  26  27
ENDBRANCH  25  26
ENDBRANCH   1  25
TORSDOF 19
ENDMDL
MODEL 2
REMARK VINA RESULT:     -12.0      1.036      1.618
REMARK SMILES Cc1noc(C)c1[C@H](C)NC(=O)NC[C@@](C)(O)C(=O)OCCOC(=O)c1ccc(-c2c3nc(c(-c4cc(S(=O)(=O)[O-])ccc4F)c4ccc([nH]4)c(-c4cc(S(=O)(=O)[O-])ccc4F)c4nc(c(-c5cc(S(=O)(=O)[O-])ccc5F)c5ccc2[nH]5)C=C4)C=C3)cc1
REMARK SMILES IDX 21 1 20 2 18 3 19 4 15 5 16 6 14 7 13 8 10 9 11 10 12 12
REMARK SMILES IDX 8 14 9 15 7 16 1 17 2 18 3 19 4 20 5 21 6 22 17 23 22 25
REMARK SMILES IDX 23 26 24 27 25 28 26 29 27 30 88 31 28 32 87 33 29 34 30 35
REMARK SMILES IDX 31 36 81 37 32 38 86 39 80 40 82 41 33 42 85 43 79 44 78 45
REMARK SMILES IDX 34 47 66 48 46 49 65 50 47 51 50 52 64 53 83 54 48 55 49 56
REMARK SMILES IDX 63 58 84 59 51 60 35 61 36 62 44 63 37 64 43 65 45 66 42 67
REMARK SMILES IDX 38 68 39 69 40 70 41 71 67 72 68 73 76 74 69 75 75 76 77 77
REMARK SMILES IDX 74 78 70 79 71 80 72 81 73 82 52 83 53 84 61 85 54 86 60 87
REMARK SMILES IDX 62 88 59 89 55 90 56 91 57 92 58 93
REMARK H PARENT 10 11 13 13 17 24 82 46 50 57
REMARK Flexibility Score: inf
ROOT
ATOM      1  C   UNL A   1      31.823  30.859  26.995  1.00  0.00     0.274 C 
ENDROOT
BRANCH   1   2
ATOM      2  O   UNL A   1      32.496  30.463  25.777  1.00  0.00    -0.460 OA
BRANCH   2   3
ATOM      3  C   UNL A   1      31.739  29.850  24.809  1.00  0.00     0.339 C 
ATOM      4  O   UNL A   1      30.563  30.111  24.597  1.00  0.00    -0.249 OA
BRANCH   3   5
ATOM      5  C   UNL A   1      32.588  28.782  24.058  1.00  0.00     0.176 C 
ATOM      6  C   UNL A   1      33.149  27.894  25.174  1.00  0.00     0.057 C 
BRANCH   5   7
ATOM      7  C   UNL A   1      31.815  27.911  23.014  1.00  0.00     0.164 C 
BRANCH   7   8
ATOM      8  N   UNL A   1      32.571  27.240  21.952  1.00  0.00    -0.335 N 
ATOM      9  N   UNL A   1      33.595  24.993  22.323  1.00  0.00    -0.331 N 
ATOM     10  C   UNL A   1      33.066  26.059  21.607  1.00  0.00     0.315 C 
ATOM     11  H   UNL A   1      33.537  24.270  21.658  1.00  0.00     0.165 HD
ATOM     12  O   UNL A   1      33.158  25.923  20.373  1.00  0.00    -0.249 OA
ATOM     13  H   UNL A   1      32.787  27.895  21.249  1.00  0.00     0.165 HD
BRANCH   9  14
ATOM     14  C   UNL A   1      34.441  23.982  23.950  1.00  0.00     0.116 C 
ATOM     15  C   UNL A   1      34.745  24.671  25.520  1.00  0.00     0.036 C 
BRANCH  14  16
ATOM     16  C   UNL A   1      34.739  22.163  24.197  1.00  0.00     0.040 A 
ATOM     17  C   UNL A   1      37.416  21.341  24.772  1.00  0.00     0.071 C 
ATOM     18  C   UNL A   1      35.918  21.305  24.657  1.00  0.00     0.086 A 
ATOM     19  N   UNL A   1      35.512  20.087  25.022  1.00  0.00    -0.085 NA
ATOM     20  O   UNL A   1      34.204  20.015  24.773  1.00  0.00    -0.361 OA
ATOM     21  C   UNL A   1      33.725  21.167  24.257  1.00  0.00     0.139 A 
ATOM     22  C   UNL A   1      32.286  20.951  23.971  1.00  0.00     0.091 C 
ENDBRANCH  14  16
ENDBRANCH   9  14
ENDBRANCH   7   8
ENDBRANCH   5   7
BRANCH   5  23
ATOM     23  O   UNL A   1      33.756  29.311  23.410  1.00  0.00    -0.377 OA
ATOM     24  H   UNL A   1      34.551  28.993  23.865  1.00  0.00     0.212 HD
ENDBRANCH   5  23
ENDBRANCH   3   5
ENDBRANCH   2   3
ENDBRANCH   1   2
BRANCH   1  25
ATOM     25  C   UNL A   1      31.826  32.383  27.115  1.00  0.00     0.275 C 
BRANCH  25  26
ATOM     26  O   UNL A   1      33.192  32.799  27.235  1.00  0.00    -0.458 OA
BRANCH  26  27
ATOM     27  C   UNL A   1      33.405  33.645  28.249  1.00  0.00     0.338 C 
ATOM     28  O   UNL A   1      32.698  34.590  28.572  1.00  0.00    -0.246 OA
BRANCH  27  29
ATOM     29  C   UNL A   1      34.569  33.298  29.067  1.00  0.00     0.060 A 
ATOM     30  C   UNL A   1      36.148  33.540  28.163  1.00  0.00     0.016 A 
ATOM     31  C   UNL A   1      34.559  32.162  30.495  1.00  0.00     0.016 A 
ATOM     32  C   UNL A   1      37.651  32.707  28.726  1.00  0.00     0.010 A 
ATOM     33  C   UNL A   1      36.026  31.171  30.901  1.00  0.00     0.010 A 
ATOM     34  C   UNL A   1      37.574  31.471  30.034  1.00  0.00    -0.014 A 
BRANCH  34  35
ATOM     35  C   UNL A   1      38.849  30.839  30.498  1.00  0.00     0.031 A 
ATOM     36  C   UNL A   1      39.502  31.304  31.764  1.00  0.00     0.074 A 
ATOM     37  C   UNL A   1      39.428  29.831  29.823  1.00  0.00     0.049 A 
ATOM     38  N   UNL A   1      40.292  30.680  32.594  1.00  0.00    -0.248 NA
ATOM     39  C   UNL A   1      39.178  32.667  32.173  1.00  0.00     0.031 C 
ATOM     40  C   UNL A   1      38.985  29.289  28.547  1.00  0.00     0.029 A 
ATOM     41  N   UNL A   1      40.545  29.089  30.123  1.00  0.00    -0.354 N 
ATOM     42  C   UNL A   1      40.417  31.522  33.696  1.00  0.00     0.074 A 
ATOM     43  C   UNL A   1      39.651  32.713  33.410  1.00  0.00     0.031 C 
ATOM     44  C   UNL A   1      39.831  28.326  28.150  1.00  0.00     0.029 A 
ATOM     45  C   UNL A   1      40.871  28.167  29.156  1.00  0.00     0.049 A 
ATOM     46  H   UNL A   1      41.063  29.207  30.951  1.00  0.00     0.167 HD
ATOM     47  C   UNL A   1      41.136  31.335  34.828  1.00  0.00     0.034 A 
ATOM     48  C   UNL A   1      41.890  27.289  29.094  1.00  0.00     0.034 A 
ATOM     49  C   UNL A   1      42.137  30.304  34.943  1.00  0.00     0.049 A 
ATOM     50  C   UNL A   1      42.796  27.169  30.290  1.00  0.00     0.074 A 
ATOM     51  C   UNL A   1      43.009  30.047  35.986  1.00  0.00     0.029 A 
ATOM     52  N   UNL A   1      42.471  29.423  33.921  1.00  0.00    -0.354 N 
ATOM     53  N   UNL A   1      42.766  27.838  31.422  1.00  0.00    -0.248 NA
ATOM     54  C   UNL A   1      43.843  26.144  30.222  1.00  0.00     0.031 C 
ATOM     55  C   UNL A   1      43.933  29.089  35.552  1.00  0.00     0.029 A 
ATOM     56  C   UNL A   1      43.572  28.666  34.281  1.00  0.00     0.049 A 
ATOM     57  H   UNL A   1      41.992  29.349  33.063  1.00  0.00     0.167 HD
ATOM     58  C   UNL A   1      43.773  27.292  32.213  1.00  0.00     0.074 A 
ATOM     59  C   UNL A   1      44.367  26.221  31.435  1.00  0.00     0.031 C 
ATOM     60  C   UNL A   1      44.172  27.636  33.467  1.00  0.00     0.034 A 
BRANCH  47  61
ATOM     61  C   UNL A   1      40.931  32.315  35.959  1.00  0.00     0.023 A 
ATOM     62  C   UNL A   1      39.828  32.194  36.828  1.00  0.00     0.031 A 
ATOM     63  C   UNL A   1      41.827  33.372  36.184  1.00  0.00     0.131 A 
ATOM     64  C   UNL A   1      39.636  33.129  37.857  1.00  0.00     0.055 A 
ATOM     65  C   UNL A   1      41.662  34.266  37.246  1.00  0.00     0.041 A 
ATOM     66  F   UNL A   1      42.876  33.563  35.368  1.00  0.00    -0.206 F 
ATOM     67  C   UNL A   1      40.559  34.151  38.087  1.00  0.00     0.022 A 
BRANCH  64  68
ATOM     68  S   UNL A   1      38.104  33.057  38.830  1.00  0.00     0.124 S 
ATOM     69  O   UNL A   1      38.080  34.385  39.439  1.00  0.00    -0.237 OA
ATOM     70  O   UNL A   1      37.093  32.804  37.810  1.00  0.00    -0.237 OA
ATOM     71  O   UNL A   1      38.340  31.957  39.762  1.00  0.00    -0.744 OA
ENDBRANCH  64  68
ENDBRANCH  47  61
BRANCH  48  72
ATOM     72  C   UNL A   1      42.086  26.458  27.870  1.00  0.00     0.023 A 
ATOM     73  C   UNL A   1      41.638  25.131  27.799  1.00  0.00     0.031 A 
ATOM     74  C   UNL A   1      42.744  26.989  26.744  1.00  0.00     0.131 A 
ATOM     75  C   UNL A   1      41.884  24.368  26.646  1.00  0.00     0.055 A 
ATOM     76  C   UNL A   1      42.937  26.246  25.579  1.00  0.00     0.041 A 
ATOM     77  F   UNL A   1      43.196  28.254  26.756  1.00  0.00    -0.206 F 
ATOM     78  C   UNL A   1      42.516  24.921  25.528  1.00  0.00     0.022 A 
BRANCH  75  79
ATOM     79  S   UNL A   1      41.445  22.607  26.656  1.00  0.00     0.124 S 
ATOM     80  O   UNL A   1      42.177  22.125  27.823  1.00  0.00    -0.237 OA
ATOM     81  O   UNL A   1      39.993  22.659  26.786  1.00  0.00    -0.237 OA
ATOM     82  O   UNL A   1      41.939  22.126  25.367  1.00  0.00    -0.744 OA
ENDBRANCH  75  79
ENDBRANCH  48  72
BRANCH  60  83
ATOM     83  C   UNL A   1      45.298  26.827  34.061  1.00  0.00     0.023 A 
ATOM     84  C   UNL A   1      45.064  25.589  34.681  1.00  0.00     0.031 A 
ATOM     85  C   UNL A   1      46.613  27.325  34.052  1.00  0.00     0.131 A 
ATOM     86  C   UNL A   1      46.107  24.939  35.355  1.00  0.00     0.055 A 
ATOM     87  C   UNL A   1      47.665  26.628  34.646  1.00  0.00     0.041 A 
ATOM     88  F   UNL A   1      46.895  28.503  33.474  1.00  0.00    -0.206 F 
ATOM     89  C   UNL A   1      47.410  25.440  35.323  1.00  0.00     0.022 A 
BRANCH  86  90
ATOM     90  S   UNL A   1      45.699  23.520  36.406  1.00  0.00     0.124 S 
ATOM     91  O   UNL A   1      46.645  22.514  35.933  1.00  0.00    -0.237 OA
ATOM     92  O   UNL A   1      45.944  24.043  37.746  1.00  0.00    -0.237 OA
ATOM     93  O   UNL A   1      44.297  23.251  36.090  1.00  0.00    -0.744 OA
ENDBRANCH  86  90
ENDBRANCH  60  83
ENDBRANCH  34  35
ENDBRANCH  27  29
ENDBRANCH  26  27
ENDBRANCH  25  26
ENDBRANCH   1  25
TORSDOF 19
ENDMDL
MODEL 3
REMARK VINA RESULT:     -12.0      4.739     10.237
REMARK SMILES Cc1noc(C)c1[C@H](C)NC(=O)NC[C@@](C)(O)C(=O)OCCOC(=O)c1ccc(-c2c3nc(c(-c4cc(S(=O)(=O)[O-])ccc4F)c4ccc([nH]4)c(-c4cc(S(=O)(=O)[O-])ccc4F)c4nc(c(-c5cc(S(=O)(=O)[O-])ccc5F)c5ccc2[nH]5)C=C4)C=C3)cc1
REMARK SMILES IDX 21 1 20 2 18 3 19 4 15 5 16 6 14 7 13 8 10 9 11 10 12 12
REMARK SMILES IDX 8 14 9 15 7 16 1 17 2 18 3 19 4 20 5 21 6 22 17 23 22 25
REMARK SMILES IDX 23 26 24 27 25 28 26 29 27 30 88 31 28 32 87 33 29 34 30 35
REMARK SMILES IDX 31 36 81 37 32 38 86 39 80 40 82 41 33 42 85 43 79 44 78 45
REMARK SMILES IDX 34 47 66 48 46 49 65 50 47 51 50 52 64 53 83 54 48 55 49 56
REMARK SMILES IDX 63 58 84 59 51 60 35 61 36 62 44 63 37 64 43 65 45 66 42 67
REMARK SMILES IDX 38 68 39 69 40 70 41 71 67 72 68 73 76 74 69 75 75 76 77 77
REMARK SMILES IDX 74 78 70 79 71 80 72 81 73 82 52 83 53 84 61 85 54 86 60 87
REMARK SMILES IDX 62 88 59 89 55 90 56 91 57 92 58 93
REMARK H PARENT 10 11 13 13 17 24 82 46 50 57
REMARK Flexibility Score: inf
ROOT
ATOM      1  C   UNL A   1      36.997  21.744  25.555  1.00  0.00     0.274 C 
ENDROOT
BRANCH   1   2
ATOM      2  O   UNL A   1      35.821  21.030  25.110  1.00  0.00    -0.460 OA
BRANCH   2   3
ATOM      3  C   UNL A   1      34.665  21.754  24.953  1.00  0.00     0.339 C 
ATOM      4  O   UNL A   1      34.553  22.703  24.190  1.00  0.00    -0.249 OA
BRANCH   3   5
ATOM      5  C   UNL A   1      33.553  21.203  25.893  1.00  0.00     0.176 C 
ATOM      6  C   UNL A   1      33.935  21.732  27.280  1.00  0.00     0.057 C 
BRANCH   5   7
ATOM      7  C   UNL A   1      32.090  21.628  25.539  1.00  0.00     0.164 C 
BRANCH   7   8
ATOM      8  N   UNL A   1      31.259  22.244  26.578  1.00  0.00    -0.335 N 
ATOM      9  N   UNL A   1      29.976  24.337  26.128  1.00  0.00    -0.331 N 
ATOM     10  C   UNL A   1      30.298  23.140  26.753  1.00  0.00     0.315 C 
ATOM     11  H   UNL A   1      29.042  24.457  26.415  1.00  0.00     0.165 HD
ATOM     12  O   UNL A   1      29.596  22.896  27.752  1.00  0.00    -0.249 OA
ATOM     13  H   UNL A   1      31.499  21.856  27.451  1.00  0.00     0.165 HD
BRANCH   9  14
ATOM     14  C   UNL A   1      30.259  26.045  24.948  1.00  0.00     0.116 C 
ATOM     15  C   UNL A   1      29.099  26.704  23.830  1.00  0.00     0.036 C 
BRANCH  14  16
ATOM     16  C   UNL A   1      31.576  27.354  25.047  1.00  0.00     0.040 A 
ATOM     17  C   UNL A   1      32.999  27.964  22.644  1.00  0.00     0.071 C 
ATOM     18  C   UNL A   1      32.451  28.096  24.037  1.00  0.00     0.086 A 
ATOM     19  N   UNL A   1      32.970  29.204  24.573  1.00  0.00    -0.085 NA
ATOM     20  O   UNL A   1      32.602  29.232  25.854  1.00  0.00    -0.361 OA
ATOM     21  C   UNL A   1      31.840  28.168  26.184  1.00  0.00     0.139 A 
ATOM     22  C   UNL A   1      31.540  28.278  27.632  1.00  0.00     0.091 C 
ENDBRANCH  14  16
ENDBRANCH   9  14
ENDBRANCH   7   8
ENDBRANCH   5   7
BRANCH   5  23
ATOM     23  O   UNL A   1      33.570  19.774  26.047  1.00  0.00    -0.377 OA
ATOM     24  H   UNL A   1      33.057  19.365  25.332  1.00  0.00     0.212 HD
ENDBRANCH   5  23
ENDBRANCH   3   5
ENDBRANCH   2   3
ENDBRANCH   1   2
BRANCH   1  25
ATOM     25  C   UNL A   1      38.251  20.935  25.223  1.00  0.00     0.275 C 
BRANCH  25  26
ATOM     26  O   UNL A   1      39.043  20.867  26.415  1.00  0.00    -0.458 OA
BRANCH  26  27
ATOM     27  C   UNL A   1      40.202  21.530  26.324  1.00  0.00     0.338 C 
ATOM     28  O   UNL A   1      41.122  21.288  25.554  1.00  0.00    -0.246 OA
BRANCH  27  29
ATOM     29  C   UNL A   1      40.278  22.701  27.199  1.00  0.00     0.060 A 
ATOM     30  C   UNL A   1      39.511  24.185  26.440  1.00  0.00     0.016 A 
ATOM     31  C   UNL A   1      41.499  22.948  28.533  1.00  0.00     0.016 A 
ATOM     32  C   UNL A   1      39.930  25.835  27.052  1.00  0.00     0.010 A 
ATOM     33  C   UNL A   1      42.064  24.617  28.975  1.00  0.00     0.010 A 
ATOM     34  C   UNL A   1      41.254  26.053  28.254  1.00  0.00    -0.014 A 
BRANCH  34  35
ATOM     35  C   UNL A   1      41.537  27.431  28.764  1.00  0.00     0.031 A 
ATOM     36  C   UNL A   1      42.952  27.894  28.936  1.00  0.00     0.074 A 
ATOM     37  C   UNL A   1      40.551  28.298  29.054  1.00  0.00     0.049 A 
ATOM     38  N   UNL A   1      43.464  29.094  28.913  1.00  0.00    -0.248 NA
ATOM     39  C   UNL A   1      43.939  26.835  29.121  1.00  0.00     0.031 C 
ATOM     40  C   UNL A   1      39.123  28.014  29.016  1.00  0.00     0.029 A 
ATOM     41  N   UNL A   1      40.612  29.608  29.463  1.00  0.00    -0.354 N 
ATOM     42  C   UNL A   1      44.845  28.910  28.914  1.00  0.00     0.074 A 
ATOM     43  C   UNL A   1      45.085  27.487  28.976  1.00  0.00     0.031 C 
ATOM     44  C   UNL A   1      38.439  29.097  29.415  1.00  0.00     0.029 A 
ATOM     45  C   UNL A   1      39.382  30.165  29.720  1.00  0.00     0.049 A 
ATOM     46  H   UNL A   1      41.458  30.101  29.562  1.00  0.00     0.167 HD
ATOM     47  C   UNL A   1      45.824  29.846  28.901  1.00  0.00     0.034 A 
ATOM     48  C   UNL A   1      39.052  31.399  30.147  1.00  0.00     0.034 A 
ATOM     49  C   UNL A   1      45.562  31.238  29.169  1.00  0.00     0.049 A 
ATOM     50  C   UNL A   1      40.152  32.418  30.283  1.00  0.00     0.074 A 
ATOM     51  C   UNL A   1      46.457  32.287  29.283  1.00  0.00     0.029 A 
ATOM     52  N   UNL A   1      44.307  31.751  29.474  1.00  0.00    -0.354 N 
ATOM     53  N   UNL A   1      41.442  32.278  30.071  1.00  0.00    -0.248 NA
ATOM     54  C   UNL A   1      39.746  33.774  30.668  1.00  0.00     0.031 C 
ATOM     55  C   UNL A   1      45.757  33.402  29.760  1.00  0.00     0.029 A 
ATOM     56  C   UNL A   1      44.410  33.083  29.838  1.00  0.00     0.049 A 
ATOM     57  H   UNL A   1      43.466  31.240  29.438  1.00  0.00     0.167 HD
ATOM     58  C   UNL A   1      41.999  33.538  30.270  1.00  0.00     0.074 A 
ATOM     59  C   UNL A   1      40.896  34.425  30.588  1.00  0.00     0.031 C 
ATOM     60  C   UNL A   1      43.298  33.933  30.194  1.00  0.00     0.034 A 
BRANCH  47  61
ATOM     61  C   UNL A   1      47.243  29.373  28.693  1.00  0.00     0.023 A 
ATOM     62  C   UNL A   1      47.718  29.062  27.403  1.00  0.00     0.031 A 
ATOM     63  C   UNL A   1      48.132  29.229  29.770  1.00  0.00     0.131 A 
ATOM     64  C   UNL A   1      49.032  28.597  27.230  1.00  0.00     0.055 A 
ATOM     65  C   UNL A   1      49.456  28.821  29.584  1.00  0.00     0.041 A 
ATOM     66  F   UNL A   1      47.727  29.473  31.027  1.00  0.00    -0.206 F 
ATOM     67  C   UNL A   1      49.912  28.496  28.310  1.00  0.00     0.022 A 
BRANCH  64  68
ATOM     68  S   UNL A   1      49.546  28.021  25.587  1.00  0.00     0.124 S 
ATOM     69  O   UNL A   1      48.292  28.099  24.841  1.00  0.00    -0.237 OA
ATOM     70  O   UNL A   1      50.570  28.992  25.217  1.00  0.00    -0.237 OA
ATOM     71  O   UNL A   1      50.032  26.666  25.834  1.00  0.00    -0.744 OA
ENDBRANCH  64  68
ENDBRANCH  47  61
BRANCH  48  72
ATOM     72  C   UNL A   1      37.630  31.727  30.455  1.00  0.00     0.023 A 
ATOM     73  C   UNL A   1      36.726  32.110  29.452  1.00  0.00     0.031 A 
ATOM     74  C   UNL A   1      37.154  31.670  31.779  1.00  0.00     0.131 A 
ATOM     75  C   UNL A   1      35.408  32.457  29.791  1.00  0.00     0.055 A 
ATOM     76  C   UNL A   1      35.828  31.960  32.104  1.00  0.00     0.041 A 
ATOM     77  F   UNL A   1      37.974  31.310  32.780  1.00  0.00    -0.206 F 
ATOM     78  C   UNL A   1      34.948  32.368  31.108  1.00  0.00     0.022 A 
BRANCH  75  79
ATOM     79  S   UNL A   1      34.320  33.114  28.496  1.00  0.00     0.124 S 
ATOM     80  O   UNL A   1      33.724  31.894  27.961  1.00  0.00    -0.237 OA
ATOM     81  O   UNL A   1      33.430  33.981  29.260  1.00  0.00    -0.237 OA
ATOM     82  O   UNL A   1      35.242  33.805  27.595  1.00  0.00    -0.744 OA
ENDBRANCH  75  79
ENDBRANCH  48  72
BRANCH  60  83
ATOM     83  C   UNL A   1      43.575  35.392  30.452  1.00  0.00     0.023 A 
ATOM     84  C   UNL A   1      43.664  35.903  31.757  1.00  0.00     0.031 A 
ATOM     85  C   UNL A   1      43.701  36.292  29.379  1.00  0.00     0.131 A 
ATOM     86  C   UNL A   1      43.769  37.286  31.959  1.00  0.00     0.055 A 
ATOM     87  C   UNL A   1      43.897  37.658  29.585  1.00  0.00     0.041 A 
ATOM     88  F   UNL A   1      43.624  35.861  28.109  1.00  0.00    -0.206 F 
ATOM     89  C   UNL A   1      43.908  38.165  30.882  1.00  0.00     0.022 A 
BRANCH  86  90
ATOM     90  S   UNL A   1      43.558  37.929  33.640  1.00  0.00     0.124 S 
ATOM     91  O   UNL A   1      43.033  39.267  33.385  1.00  0.00    -0.237 OA
ATOM     92  O   UNL A   1      42.618  36.977  34.222  1.00  0.00    -0.237 OA
ATOM     93  O   UNL A   1      44.910  37.887  34.194  1.00  0.00    -0.744 OA
ENDBRANCH  86  90
ENDBRANCH  60  83
ENDBRANCH  34  35
ENDBRANCH  27  29
ENDBRANCH  26  27
ENDBRANCH  25  26
ENDBRANCH   1  25
TORSDOF 19
ENDMDL
