MODEL 1
REMARK VINA RESULT:     -11.3      0.000      0.000
REMARK SMILES CC[C@](C)(NC(=O)[C@](C)([NH3+])c1ccccc1)C(=O)OCCOC(=O)c1ccc(-c2c3nc(c(-c4cc(S(=O)(=O)[O-])ccc4F)c4ccc([nH]4)c(-c4cc(S(=O)(=O)[O-])ccc4F)c4nc(c(-c5cc(S(=O)(=O)[O-])ccc5F)c5ccc2[nH]5)C=C4)C=C3)cc1
REMARK SMILES IDX 20 1 19 2 17 3 18 4 3 5 4 6 2 7 1 8 5 9 6 10 7 12 8 13 9 14
REMARK SMILES IDX 10 15 11 19 12 20 16 21 13 22 15 23 14 24 21 25 22 26 23 27
REMARK SMILES IDX 24 28 25 29 26 30 87 31 27 32 86 33 28 34 29 35 30 36 80 37
REMARK SMILES IDX 31 38 85 39 79 40 81 41 32 42 84 43 78 44 77 45 33 47 65 48
REMARK SMILES IDX 45 49 64 50 46 51 49 52 63 53 82 54 47 55 48 56 62 58 83 59
REMARK SMILES IDX 50 60 34 61 35 62 43 63 36 64 42 65 44 66 41 67 37 68 38 69
REMARK SMILES IDX 39 70 40 71 66 72 67 73 75 74 68 75 74 76 76 77 73 78 69 79
REMARK SMILES IDX 70 80 71 81 72 82 51 83 52 84 60 85 53 86 59 87 61 88 58 89
REMARK SMILES IDX 54 90 55 91 56 92 57 93
REMARK H PARENT 5 11 10 16 10 17 10 18 81 46 49 57
REMARK Flexibility Score: inf
ROOT
ATOM      1  C   UNL A   1      36.750  21.877  23.907  1.00  0.00     0.274 C 
ENDROOT
BRANCH   1   2
ATOM      2  O   UNL A   1      35.306  21.899  24.019  1.00  0.00    -0.460 OA
BRANCH   2   3
ATOM      3  C   UNL A   1      34.786  22.614  25.047  1.00  0.00     0.331 C 
ATOM      4  O   UNL A   1      35.382  23.554  25.565  1.00  0.00    -0.249 OA
BRANCH   3   5
ATOM      5  C   UNL A   1      33.456  22.022  25.642  1.00  0.00     0.135 C 
ATOM      6  C   UNL A   1      33.763  21.572  27.087  1.00  0.00     0.047 C 
BRANCH   5   7
ATOM      7  C   UNL A   1      33.288  20.760  24.723  1.00  0.00     0.037 C 
ATOM      8  C   UNL A   1      32.970  19.433  25.400  1.00  0.00     0.007 C 
ENDBRANCH   5   7
BRANCH   5   9
ATOM      9  N   UNL A   1      32.148  22.792  25.624  1.00  0.00    -0.335 N 
ATOM     10  C   UNL A   1      31.876  24.028  26.173  1.00  0.00     0.286 C 
ATOM     11  H   UNL A   1      31.399  22.353  25.161  1.00  0.00     0.164 HD
ATOM     12  O   UNL A   1      31.403  24.023  27.317  1.00  0.00    -0.267 OA
BRANCH  10  13
ATOM     13  C   UNL A   1      31.956  25.361  25.341  1.00  0.00     0.196 C 
ATOM     14  C   UNL A   1      30.605  25.699  24.750  1.00  0.00     0.096 C 
BRANCH  13  15
ATOM     15  N   UNL A   1      32.909  25.135  24.228  1.00  0.00    -0.341 N 
ATOM     16  H   UNL A   1      32.904  24.148  23.972  1.00  0.00     0.345 HD
ATOM     17  H   UNL A   1      33.847  25.406  24.524  1.00  0.00     0.345 HD
ATOM     18  H   UNL A   1      32.631  25.697  23.424  1.00  0.00     0.345 HD
ENDBRANCH  13  15
BRANCH  13  19
ATOM     19  C   UNL A   1      32.372  26.613  26.134  1.00  0.00     0.022 A 
ATOM     20  C   UNL A   1      33.653  27.165  25.888  1.00  0.00     0.011 A 
ATOM     21  C   UNL A   1      31.502  27.332  26.961  1.00  0.00     0.011 A 
ATOM     22  C   UNL A   1      34.014  28.422  26.366  1.00  0.00     0.001 A 
ATOM     23  C   UNL A   1      31.875  28.587  27.462  1.00  0.00     0.001 A 
ATOM     24  C   UNL A   1      33.115  29.141  27.143  1.00  0.00     0.000 A 
ENDBRANCH  13  19
ENDBRANCH  10  13
ENDBRANCH   5   9
ENDBRANCH   3   5
ENDBRANCH   2   3
ENDBRANCH   1   2
BRANCH   1  25
ATOM     25  C   UNL A   1      37.385  20.704  24.671  1.00  0.00     0.275 C 
BRANCH  25  26
ATOM     26  O   UNL A   1      37.895  21.157  25.938  1.00  0.00    -0.458 OA
BRANCH  26  27
ATOM     27  C   UNL A   1      39.227  21.081  26.148  1.00  0.00     0.338 C 
ATOM     28  O   UNL A   1      39.958  20.112  25.973  1.00  0.00    -0.246 OA
BRANCH  27  29
ATOM     29  C   UNL A   1      39.708  22.372  26.660  1.00  0.00     0.060 A 
ATOM     30  C   UNL A   1      40.738  22.410  27.599  1.00  0.00     0.016 A 
ATOM     31  C   UNL A   1      39.126  23.558  26.206  1.00  0.00     0.016 A 
ATOM     32  C   UNL A   1      41.206  23.626  28.077  1.00  0.00     0.010 A 
ATOM     33  C   UNL A   1      39.649  24.783  26.627  1.00  0.00     0.010 A 
ATOM     34  C   UNL A   1      40.708  24.823  27.548  1.00  0.00    -0.014 A 
BRANCH  34  35
ATOM     35  C   UNL A   1      41.385  26.096  27.888  1.00  0.00     0.031 A 
ATOM     36  C   UNL A   1      40.686  27.139  28.706  1.00  0.00     0.074 A 
ATOM     37  C   UNL A   1      42.646  26.281  27.451  1.00  0.00     0.049 A 
ATOM     38  N   UNL A   1      41.077  28.349  29.003  1.00  0.00    -0.248 NA
ATOM     39  C   UNL A   1      39.370  26.777  29.252  1.00  0.00     0.031 C 
ATOM     40  C   UNL A   1      43.415  25.306  26.668  1.00  0.00     0.029 A 
ATOM     41  N   UNL A   1      43.513  27.331  27.606  1.00  0.00    -0.354 N 
ATOM     42  C   UNL A   1      40.046  28.911  29.746  1.00  0.00     0.074 A 
ATOM     43  C   UNL A   1      39.007  27.905  29.848  1.00  0.00     0.031 C 
ATOM     44  C   UNL A   1      44.647  25.785  26.450  1.00  0.00     0.029 A 
ATOM     45  C   UNL A   1      44.733  27.131  26.998  1.00  0.00     0.049 A 
ATOM     46  H   UNL A   1      43.286  28.149  28.104  1.00  0.00     0.167 HD
ATOM     47  C   UNL A   1      39.978  30.156  30.279  1.00  0.00     0.034 A 
ATOM     48  C   UNL A   1      45.787  27.957  26.863  1.00  0.00     0.034 A 
ATOM     49  C   UNL A   1      41.035  31.134  30.150  1.00  0.00     0.049 A 
ATOM     50  C   UNL A   1      45.677  29.335  27.454  1.00  0.00     0.074 A 
ATOM     51  C   UNL A   1      41.070  32.440  30.607  1.00  0.00     0.029 A 
ATOM     52  N   UNL A   1      42.252  30.904  29.517  1.00  0.00    -0.354 N 
ATOM     53  N   UNL A   1      44.669  29.875  28.101  1.00  0.00    -0.248 NA
ATOM     54  C   UNL A   1      46.836  30.217  27.291  1.00  0.00     0.031 C 
ATOM     55  C   UNL A   1      42.287  33.012  30.211  1.00  0.00     0.029 A 
ATOM     56  C   UNL A   1      43.038  32.046  29.559  1.00  0.00     0.049 A 
ATOM     57  H   UNL A   1      42.517  30.054  29.098  1.00  0.00     0.167 HD
ATOM     58  C   UNL A   1      45.069  31.166  28.414  1.00  0.00     0.074 A 
ATOM     59  C   UNL A   1      46.429  31.305  27.927  1.00  0.00     0.031 C 
ATOM     60  C   UNL A   1      44.377  32.158  29.033  1.00  0.00     0.034 A 
BRANCH  47  61
ATOM     61  C   UNL A   1      38.697  30.543  30.977  1.00  0.00     0.023 A 
ATOM     62  C   UNL A   1      37.636  31.169  30.298  1.00  0.00     0.031 A 
ATOM     63  C   UNL A   1      38.548  30.310  32.356  1.00  0.00     0.131 A 
ATOM     64  C   UNL A   1      36.501  31.590  31.010  1.00  0.00     0.055 A 
ATOM     65  C   UNL A   1      37.388  30.672  33.046  1.00  0.00     0.041 A 
ATOM     66  F   UNL A   1      39.535  29.737  33.063  1.00  0.00    -0.206 F 
ATOM     67  C   UNL A   1      36.359  31.326  32.374  1.00  0.00     0.022 A 
BRANCH  64  68
ATOM     68  S   UNL A   1      35.253  32.590  30.151  1.00  0.00     0.124 S 
ATOM     69  O   UNL A   1      34.265  32.797  31.207  1.00  0.00    -0.237 OA
ATOM     70  O   UNL A   1      36.013  33.767  29.747  1.00  0.00    -0.237 OA
ATOM     71  O   UNL A   1      34.814  31.726  29.057  1.00  0.00    -0.744 OA
ENDBRANCH  64  68
ENDBRANCH  47  61
BRANCH  48  72
ATOM     72  C   UNL A   1      46.990  27.530  26.093  1.00  0.00     0.023 A 
ATOM     73  C   UNL A   1      47.132  27.837  24.731  1.00  0.00     0.031 A 
ATOM     74  C   UNL A   1      48.017  26.789  26.710  1.00  0.00     0.131 A 
ATOM     75  C   UNL A   1      48.258  27.383  24.024  1.00  0.00     0.055 A 
ATOM     76  C   UNL A   1      49.159  26.387  26.017  1.00  0.00     0.041 A 
ATOM     77  F   UNL A   1      47.934  26.466  28.011  1.00  0.00    -0.206 F 
ATOM     78  C   UNL A   1      49.279  26.674  24.662  1.00  0.00     0.022 A 
BRANCH  75  79
ATOM     79  S   UNL A   1      48.335  27.661  22.233  1.00  0.00     0.124 S 
ATOM     80  O   UNL A   1      49.489  28.546  22.115  1.00  0.00    -0.237 OA
ATOM     81  O   UNL A   1      48.512  26.306  21.725  1.00  0.00    -0.237 OA
ATOM     82  O   UNL A   1      47.045  28.276  21.929  1.00  0.00    -0.744 OA
ENDBRANCH  75  79
ENDBRANCH  48  72
BRANCH  60  83
ATOM     83  C   UNL A   1      45.111  33.462  29.202  1.00  0.00     0.023 A 
ATOM     84  C   UNL A   1      44.941  34.515  28.286  1.00  0.00     0.031 A 
ATOM     85  C   UNL A   1      46.036  33.627  30.246  1.00  0.00     0.131 A 
ATOM     86  C   UNL A   1      45.740  35.661  28.388  1.00  0.00     0.055 A 
ATOM     87  C   UNL A   1      46.788  34.795  30.376  1.00  0.00     0.041 A 
ATOM     88  F   UNL A   1      46.236  32.649  31.143  1.00  0.00    -0.206 F 
ATOM     89  C   UNL A   1      46.654  35.813  29.433  1.00  0.00     0.022 A 
BRANCH  86  90
ATOM     90  S   UNL A   1      45.652  36.899  27.066  1.00  0.00     0.124 S 
ATOM     91  O   UNL A   1      44.255  36.805  26.654  1.00  0.00    -0.237 OA
ATOM     92  O   UNL A   1      46.031  38.124  27.761  1.00  0.00    -0.237 OA
ATOM     93  O   UNL A   1      46.622  36.419  26.082  1.00  0.00    -0.744 OA
ENDBRANCH  86  90
ENDBRANCH  60  83
ENDBRANCH  34  35
ENDBRANCH  27  29
ENDBRANCH  26  27
ENDBRANCH  25  26
ENDBRANCH   1  25
TORSDOF 19
ENDMDL
MODEL 2
REMARK VINA RESULT:     -11.2      4.958     10.018
REMARK SMILES CC[C@](C)(NC(=O)[C@](C)([NH3+])c1ccccc1)C(=O)OCCOC(=O)c1ccc(-c2c3nc(c(-c4cc(S(=O)(=O)[O-])ccc4F)c4ccc([nH]4)c(-c4cc(S(=O)(=O)[O-])ccc4F)c4nc(c(-c5cc(S(=O)(=O)[O-])ccc5F)c5ccc2[nH]5)C=C4)C=C3)cc1
REMARK SMILES IDX 20 1 19 2 17 3 18 4 3 5 4 6 2 7 1 8 5 9 6 10 7 12 8 13 9 14
REMARK SMILES IDX 10 15 11 19 12 20 16 21 13 22 15 23 14 24 21 25 22 26 23 27
REMARK SMILES IDX 24 28 25 29 26 30 87 31 27 32 86 33 28 34 29 35 30 36 80 37
REMARK SMILES IDX 31 38 85 39 79 40 81 41 32 42 84 43 78 44 77 45 33 47 65 48
REMARK SMILES IDX 45 49 64 50 46 51 49 52 63 53 82 54 47 55 48 56 62 58 83 59
REMARK SMILES IDX 50 60 34 61 35 62 43 63 36 64 42 65 44 66 41 67 37 68 38 69
REMARK SMILES IDX 39 70 40 71 66 72 67 73 75 74 68 75 74 76 76 77 73 78 69 79
REMARK SMILES IDX 70 80 71 81 72 82 51 83 52 84 60 85 53 86 59 87 61 88 58 89
REMARK SMILES IDX 54 90 55 91 56 92 57 93
REMARK H PARENT 5 11 10 16 10 17 10 18 81 46 49 57
REMARK Flexibility Score: inf
ROOT
ATOM      1  C   UNL A   1      31.700  28.889  25.464  1.00  0.00     0.274 C 
ENDROOT
BRANCH   1   2
ATOM      2  O   UNL A   1      32.511  27.830  26.028  1.00  0.00    -0.460 OA
BRANCH   2   3
ATOM      3  C   UNL A   1      31.904  26.633  26.219  1.00  0.00     0.331 C 
ATOM      4  O   UNL A   1      30.864  26.518  26.861  1.00  0.00    -0.249 OA
BRANCH   3   5
ATOM      5  C   UNL A   1      32.737  25.395  25.724  1.00  0.00     0.135 C 
ATOM      6  C   UNL A   1      33.992  25.944  25.010  1.00  0.00     0.047 C 
BRANCH   5   7
ATOM      7  C   UNL A   1      31.741  24.810  24.660  1.00  0.00     0.037 C 
ATOM      8  C   UNL A   1      31.671  25.502  23.305  1.00  0.00     0.007 C 
ENDBRANCH   5   7
BRANCH   5   9
ATOM      9  N   UNL A   1      33.143  24.268  26.656  1.00  0.00    -0.335 N 
ATOM     10  C   UNL A   1      32.591  23.009  26.767  1.00  0.00     0.286 C 
ATOM     11  H   UNL A   1      33.897  24.461  27.258  1.00  0.00     0.164 HD
ATOM     12  O   UNL A   1      31.709  22.875  27.626  1.00  0.00    -0.267 OA
BRANCH  10  13
ATOM     13  C   UNL A   1      33.171  21.759  26.008  1.00  0.00     0.196 C 
ATOM     14  C   UNL A   1      32.162  21.228  25.013  1.00  0.00     0.096 C 
BRANCH  13  15
ATOM     15  N   UNL A   1      33.429  20.705  27.018  1.00  0.00    -0.341 N 
ATOM     16  H   UNL A   1      33.508  21.131  27.941  1.00  0.00     0.345 HD
ATOM     17  H   UNL A   1      34.299  20.222  26.790  1.00  0.00     0.345 HD
ATOM     18  H   UNL A   1      32.659  20.037  27.016  1.00  0.00     0.345 HD
ENDBRANCH  13  15
BRANCH  13  19
ATOM     19  C   UNL A   1      34.447  22.015  25.188  1.00  0.00     0.022 A 
ATOM     20  C   UNL A   1      34.306  22.465  23.853  1.00  0.00     0.011 A 
ATOM     21  C   UNL A   1      35.737  21.987  25.732  1.00  0.00     0.011 A 
ATOM     22  C   UNL A   1      35.388  22.957  23.127  1.00  0.00     0.001 A 
ATOM     23  C   UNL A   1      36.829  22.460  24.992  1.00  0.00     0.001 A 
ATOM     24  C   UNL A   1      36.651  22.968  23.704  1.00  0.00     0.000 A 
ENDBRANCH  13  19
ENDBRANCH  10  13
ENDBRANCH   5   9
ENDBRANCH   3   5
ENDBRANCH   2   3
ENDBRANCH   1   2
BRANCH   1  25
ATOM     25  C   UNL A   1      31.819  30.206  26.247  1.00  0.00     0.275 C 
BRANCH  25  26
ATOM     26  O   UNL A   1      33.178  30.677  26.221  1.00  0.00    -0.458 OA
BRANCH  26  27
ATOM     27  C   UNL A   1      33.573  31.527  27.193  1.00  0.00     0.338 C 
ATOM     28  O   UNL A   1      32.992  32.532  27.588  1.00  0.00    -0.246 OA
BRANCH  27  29
ATOM     29  C   UNL A   1      34.865  31.078  27.730  1.00  0.00     0.060 A 
ATOM     30  C   UNL A   1      35.863  32.010  28.014  1.00  0.00     0.016 A 
ATOM     31  C   UNL A   1      35.090  29.718  27.948  1.00  0.00     0.016 A 
ATOM     32  C   UNL A   1      37.082  31.595  28.533  1.00  0.00     0.010 A 
ATOM     33  C   UNL A   1      36.285  29.308  28.544  1.00  0.00     0.010 A 
ATOM     34  C   UNL A   1      37.279  30.248  28.860  1.00  0.00    -0.014 A 
BRANCH  34  35
ATOM     35  C   UNL A   1      38.483  29.865  29.634  1.00  0.00     0.031 A 
ATOM     36  C   UNL A   1      39.490  28.916  29.060  1.00  0.00     0.074 A 
ATOM     37  C   UNL A   1      38.649  30.403  30.859  1.00  0.00     0.049 A 
ATOM     38  N   UNL A   1      40.538  28.384  29.632  1.00  0.00    -0.248 NA
ATOM     39  C   UNL A   1      39.287  28.501  27.665  1.00  0.00     0.031 C 
ATOM     40  C   UNL A   1      37.729  31.358  31.488  1.00  0.00     0.029 A 
ATOM     41  N   UNL A   1      39.642  30.246  31.789  1.00  0.00    -0.354 N 
ATOM     42  C   UNL A   1      41.107  27.547  28.680  1.00  0.00     0.074 A 
ATOM     43  C   UNL A   1      40.280  27.639  27.494  1.00  0.00     0.031 C 
ATOM     44  C   UNL A   1      38.222  31.732  32.676  1.00  0.00     0.029 A 
ATOM     45  C   UNL A   1      39.443  30.983  32.935  1.00  0.00     0.049 A 
ATOM     46  H   UNL A   1      40.423  29.663  31.652  1.00  0.00     0.167 HD
ATOM     47  C   UNL A   1      42.211  26.768  28.801  1.00  0.00     0.034 A 
ATOM     48  C   UNL A   1      40.146  31.020  34.084  1.00  0.00     0.034 A 
ATOM     49  C   UNL A   1      43.007  26.700  30.005  1.00  0.00     0.049 A 
ATOM     50  C   UNL A   1      41.357  30.137  34.192  1.00  0.00     0.074 A 
ATOM     51  C   UNL A   1      44.121  25.921  30.267  1.00  0.00     0.029 A 
ATOM     52  N   UNL A   1      42.770  27.449  31.154  1.00  0.00    -0.354 N 
ATOM     53  N   UNL A   1      41.848  29.302  33.304  1.00  0.00    -0.248 NA
ATOM     54  C   UNL A   1      42.103  30.192  35.451  1.00  0.00     0.031 C 
ATOM     55  C   UNL A   1      44.528  26.166  31.586  1.00  0.00     0.029 A 
ATOM     56  C   UNL A   1      43.707  27.142  32.129  1.00  0.00     0.049 A 
ATOM     57  H   UNL A   1      42.042  28.103  31.259  1.00  0.00     0.167 HD
ATOM     58  C   UNL A   1      42.958  28.723  33.904  1.00  0.00     0.074 A 
ATOM     59  C   UNL A   1      43.090  29.342  35.210  1.00  0.00     0.031 C 
ATOM     60  C   UNL A   1      43.787  27.756  33.433  1.00  0.00     0.034 A 
BRANCH  47  61
ATOM     61  C   UNL A   1      42.568  25.884  27.630  1.00  0.00     0.023 A 
ATOM     62  C   UNL A   1      42.048  24.585  27.490  1.00  0.00     0.031 A 
ATOM     63  C   UNL A   1      43.472  26.340  26.653  1.00  0.00     0.131 A 
ATOM     64  C   UNL A   1      42.479  23.769  26.431  1.00  0.00     0.055 A 
ATOM     65  C   UNL A   1      43.846  25.547  25.565  1.00  0.00     0.041 A 
ATOM     66  F   UNL A   1      44.019  27.562  26.746  1.00  0.00    -0.206 F 
ATOM     67  C   UNL A   1      43.357  24.248  25.456  1.00  0.00     0.022 A 
BRANCH  64  68
ATOM     68  S   UNL A   1      41.963  22.029  26.403  1.00  0.00     0.124 S 
ATOM     69  O   UNL A   1      40.527  22.153  26.166  1.00  0.00    -0.237 OA
ATOM     70  O   UNL A   1      42.747  21.485  25.301  1.00  0.00    -0.237 OA
ATOM     71  O   UNL A   1      42.330  21.541  27.730  1.00  0.00    -0.744 OA
ENDBRANCH  64  68
ENDBRANCH  47  61
BRANCH  48  72
ATOM     72  C   UNL A   1      39.687  31.862  35.225  1.00  0.00     0.023 A 
ATOM     73  C   UNL A   1      40.217  33.143  35.447  1.00  0.00     0.031 A 
ATOM     74  C   UNL A   1      38.714  31.388  36.127  1.00  0.00     0.131 A 
ATOM     75  C   UNL A   1      39.794  33.893  36.557  1.00  0.00     0.055 A 
ATOM     76  C   UNL A   1      38.257  32.159  37.196  1.00  0.00     0.041 A 
ATOM     77  F   UNL A   1      38.173  30.170  35.963  1.00  0.00    -0.206 F 
ATOM     78  C   UNL A   1      38.807  33.416  37.423  1.00  0.00     0.022 A 
BRANCH  75  79
ATOM     79  S   UNL A   1      40.611  35.475  36.904  1.00  0.00     0.124 S 
ATOM     80  O   UNL A   1      40.781  35.415  38.352  1.00  0.00    -0.237 OA
ATOM     81  O   UNL A   1      41.831  35.364  36.111  1.00  0.00    -0.237 OA
ATOM     82  O   UNL A   1      39.649  36.466  36.429  1.00  0.00    -0.744 OA
ENDBRANCH  75  79
ENDBRANCH  48  72
BRANCH  60  83
ATOM     83  C   UNL A   1      44.898  27.337  34.359  1.00  0.00     0.023 A 
ATOM     84  C   UNL A   1      44.744  26.243  35.229  1.00  0.00     0.031 A 
ATOM     85  C   UNL A   1      46.090  28.076  34.420  1.00  0.00     0.131 A 
ATOM     86  C   UNL A   1      45.737  25.964  36.177  1.00  0.00     0.055 A 
ATOM     87  C   UNL A   1      47.101  27.757  35.327  1.00  0.00     0.041 A 
ATOM     88  F   UNL A   1      46.282  29.131  33.612  1.00  0.00    -0.206 F 
ATOM     89  C   UNL A   1      46.920  26.706  36.224  1.00  0.00     0.022 A 
BRANCH  86  90
ATOM     90  S   UNL A   1      45.409  24.690  37.425  1.00  0.00     0.124 S 
ATOM     91  O   UNL A   1      44.443  25.357  38.293  1.00  0.00    -0.237 OA
ATOM     92  O   UNL A   1      44.888  23.591  36.619  1.00  0.00    -0.237 OA
ATOM     93  O   UNL A   1      46.720  24.451  38.024  1.00  0.00    -0.744 OA
ENDBRANCH  86  90
ENDBRANCH  60  83
ENDBRANCH  34  35
ENDBRANCH  27  29
ENDBRANCH  26  27
ENDBRANCH  25  26
ENDBRANCH   1  25
TORSDOF 19
ENDMDL
MODEL 3
REMARK VINA RESULT:     -11.1      1.819      7.945
REMARK SMILES CC[C@](C)(NC(=O)[C@](C)([NH3+])c1ccccc1)C(=O)OCCOC(=O)c1ccc(-c2c3nc(c(-c4cc(S(=O)(=O)[O-])ccc4F)c4ccc([nH]4)c(-c4cc(S(=O)(=O)[O-])ccc4F)c4nc(c(-c5cc(S(=O)(=O)[O-])ccc5F)c5ccc2[nH]5)C=C4)C=C3)cc1
REMARK SMILES IDX 20 1 19 2 17 3 18 4 3 5 4 6 2 7 1 8 5 9 6 10 7 12 8 13 9 14
REMARK SMILES IDX 10 15 11 19 12 20 16 21 13 22 15 23 14 24 21 25 22 26 23 27
REMARK SMILES IDX 24 28 25 29 26 30 87 31 27 32 86 33 28 34 29 35 30 36 80 37
REMARK SMILES IDX 31 38 85 39 79 40 81 41 32 42 84 43 78 44 77 45 33 47 65 48
REMARK SMILES IDX 45 49 64 50 46 51 49 52 63 53 82 54 47 55 48 56 62 58 83 59
REMARK SMILES IDX 50 60 34 61 35 62 43 63 36 64 42 65 44 66 41 67 37 68 38 69
REMARK SMILES IDX 39 70 40 71 66 72 67 73 75 74 68 75 74 76 76 77 73 78 69 79
REMARK SMILES IDX 70 80 71 81 72 82 51 83 52 84 60 85 53 86 59 87 61 88 58 89
REMARK SMILES IDX 54 90 55 91 56 92 57 93
REMARK H PARENT 5 11 10 16 10 17 10 18 81 46 49 57
REMARK Flexibility Score: inf
ROOT
ATOM      1  C   UNL A   1      35.919  20.001  25.004  1.00  0.00     0.274 C 
ENDROOT
BRANCH   1   2
ATOM      2  O   UNL A   1      34.918  20.898  24.464  1.00  0.00    -0.460 OA
BRANCH   2   3
ATOM      3  C   UNL A   1      33.957  21.326  25.320  1.00  0.00     0.331 C 
ATOM      4  O   UNL A   1      33.490  20.607  26.198  1.00  0.00    -0.249 OA
BRANCH   3   5
ATOM      5  C   UNL A   1      33.360  22.738  24.972  1.00  0.00     0.135 C 
ATOM      6  C   UNL A   1      33.668  23.010  23.483  1.00  0.00     0.047 C 
BRANCH   5   7
ATOM      7  C   UNL A   1      34.272  23.645  25.872  1.00  0.00     0.037 C 
ATOM      8  C   UNL A   1      35.505  24.264  25.227  1.00  0.00     0.007 C 
ENDBRANCH   5   7
BRANCH   5   9
ATOM      9  N   UNL A   1      31.913  23.097  25.258  1.00  0.00    -0.335 N 
ATOM     10  C   UNL A   1      31.424  24.074  26.099  1.00  0.00     0.286 C 
ATOM     11  H   UNL A   1      31.237  22.563  24.782  1.00  0.00     0.164 HD
ATOM     12  O   UNL A   1      31.153  23.715  27.252  1.00  0.00    -0.267 OA
BRANCH  10  13
ATOM     13  C   UNL A   1      31.032  25.511  25.590  1.00  0.00     0.196 C 
ATOM     14  C   UNL A   1      31.526  26.567  26.554  1.00  0.00     0.096 C 
BRANCH  13  15
ATOM     15  N   UNL A   1      29.552  25.578  25.542  1.00  0.00    -0.341 N 
ATOM     16  H   UNL A   1      29.225  25.215  24.647  1.00  0.00     0.345 HD
ATOM     17  H   UNL A   1      29.252  26.547  25.647  1.00  0.00     0.345 HD
ATOM     18  H   UNL A   1      29.162  25.017  26.299  1.00  0.00     0.345 HD
ENDBRANCH  13  15
BRANCH  13  19
ATOM     19  C   UNL A   1      31.614  25.912  24.223  1.00  0.00     0.022 A 
ATOM     20  C   UNL A   1      32.856  26.591  24.198  1.00  0.00     0.011 A 
ATOM     21  C   UNL A   1      31.071  25.503  23.000  1.00  0.00     0.011 A 
ATOM     22  C   UNL A   1      33.571  26.768  23.016  1.00  0.00     0.001 A 
ATOM     23  C   UNL A   1      31.781  25.702  21.808  1.00  0.00     0.001 A 
ATOM     24  C   UNL A   1      33.038  26.308  21.819  1.00  0.00     0.000 A 
ENDBRANCH  13  19
ENDBRANCH  10  13
ENDBRANCH   5   9
ENDBRANCH   3   5
ENDBRANCH   2   3
ENDBRANCH   1   2
BRANCH   1  25
ATOM     25  C   UNL A   1      37.353  20.480  24.727  1.00  0.00     0.275 C 
BRANCH  25  26
ATOM     26  O   UNL A   1      37.847  21.236  25.848  1.00  0.00    -0.458 OA
BRANCH  26  27
ATOM     27  C   UNL A   1      39.164  21.153  26.136  1.00  0.00     0.338 C 
ATOM     28  O   UNL A   1      39.881  20.160  26.078  1.00  0.00    -0.246 OA
BRANCH  27  29
ATOM     29  C   UNL A   1      39.646  22.472  26.569  1.00  0.00     0.060 A 
ATOM     30  C   UNL A   1      40.748  22.566  27.419  1.00  0.00     0.016 A 
ATOM     31  C   UNL A   1      38.994  23.626  26.132  1.00  0.00     0.016 A 
ATOM     32  C   UNL A   1      41.216  23.809  27.823  1.00  0.00     0.010 A 
ATOM     33  C   UNL A   1      39.512  24.878  26.473  1.00  0.00     0.010 A 
ATOM     34  C   UNL A   1      40.641  24.975  27.303  1.00  0.00    -0.014 A 
BRANCH  34  35
ATOM     35  C   UNL A   1      41.305  26.277  27.550  1.00  0.00     0.031 A 
ATOM     36  C   UNL A   1      42.650  26.573  26.961  1.00  0.00     0.074 A 
ATOM     37  C   UNL A   1      40.658  27.185  28.307  1.00  0.00     0.049 A 
ATOM     38  N   UNL A   1      43.425  27.606  27.160  1.00  0.00    -0.248 NA
ATOM     39  C   UNL A   1      43.200  25.573  26.035  1.00  0.00     0.031 C 
ATOM     40  C   UNL A   1      39.330  26.990  28.903  1.00  0.00     0.029 A 
ATOM     41  N   UNL A   1      41.008  28.451  28.698  1.00  0.00    -0.354 N 
ATOM     42  C   UNL A   1      44.571  27.371  26.410  1.00  0.00     0.074 A 
ATOM     43  C   UNL A   1      44.388  26.091  25.756  1.00  0.00     0.031 C 
ATOM     44  C   UNL A   1      38.963  28.108  29.543  1.00  0.00     0.029 A 
ATOM     45  C   UNL A   1      40.057  29.066  29.482  1.00  0.00     0.049 A 
ATOM     46  H   UNL A   1      41.857  28.879  28.444  1.00  0.00     0.167 HD
ATOM     47  C   UNL A   1      45.673  28.154  26.295  1.00  0.00     0.034 A 
ATOM     48  C   UNL A   1      40.082  30.255  30.114  1.00  0.00     0.034 A 
ATOM     49  C   UNL A   1      45.819  29.424  26.970  1.00  0.00     0.049 A 
ATOM     50  C   UNL A   1      41.322  31.094  29.978  1.00  0.00     0.074 A 
ATOM     51  C   UNL A   1      46.899  30.289  26.968  1.00  0.00     0.029 A 
ATOM     52  N   UNL A   1      44.842  30.013  27.767  1.00  0.00    -0.354 N 
ATOM     53  N   UNL A   1      42.426  30.830  29.315  1.00  0.00    -0.248 NA
ATOM     54  C   UNL A   1      41.327  32.381  30.678  1.00  0.00     0.031 C 
ATOM     55  C   UNL A   1      46.594  31.375  27.799  1.00  0.00     0.029 A 
ATOM     56  C   UNL A   1      45.300  31.221  28.272  1.00  0.00     0.049 A 
ATOM     57  H   UNL A   1      43.955  29.628  27.948  1.00  0.00     0.167 HD
ATOM     58  C   UNL A   1      43.262  31.917  29.527  1.00  0.00     0.074 A 
ATOM     59  C   UNL A   1      42.515  32.860  30.339  1.00  0.00     0.031 C 
ATOM     60  C   UNL A   1      44.538  32.119  29.106  1.00  0.00     0.034 A 
BRANCH  47  61
ATOM     61  C   UNL A   1      46.821  27.619  25.473  1.00  0.00     0.023 A 
ATOM     62  C   UNL A   1      47.046  28.031  24.148  1.00  0.00     0.031 A 
ATOM     63  C   UNL A   1      47.687  26.653  26.018  1.00  0.00     0.131 A 
ATOM     64  C   UNL A   1      48.073  27.439  23.396  1.00  0.00     0.055 A 
ATOM     65  C   UNL A   1      48.749  26.116  25.285  1.00  0.00     0.041 A 
ATOM     66  F   UNL A   1      47.508  26.203  27.270  1.00  0.00    -0.206 F 
ATOM     67  C   UNL A   1      48.940  26.501  23.961  1.00  0.00     0.022 A 
BRANCH  64  68
ATOM     68  S   UNL A   1      48.197  27.829  21.627  1.00  0.00     0.124 S 
ATOM     69  O   UNL A   1      48.435  26.507  21.051  1.00  0.00    -0.237 OA
ATOM     70  O   UNL A   1      46.896  28.424  21.343  1.00  0.00    -0.237 OA
ATOM     71  O   UNL A   1      49.331  28.747  21.556  1.00  0.00    -0.744 OA
ENDBRANCH  64  68
ENDBRANCH  47  61
BRANCH  48  72
ATOM     72  C   UNL A   1      38.939  30.681  30.972  1.00  0.00     0.023 A 
ATOM     73  C   UNL A   1      37.918  31.502  30.471  1.00  0.00     0.031 A 
ATOM     74  C   UNL A   1      38.860  30.282  32.320  1.00  0.00     0.131 A 
ATOM     75  C   UNL A   1      36.877  31.921  31.317  1.00  0.00     0.055 A 
ATOM     76  C   UNL A   1      37.796  30.655  33.141  1.00  0.00     0.041 A 
ATOM     77  F   UNL A   1      39.810  29.496  32.852  1.00  0.00    -0.206 F 
ATOM     78  C   UNL A   1      36.802  31.489  32.644  1.00  0.00     0.022 A 
BRANCH  75  79
ATOM     79  S   UNL A   1      35.660  33.107  30.683  1.00  0.00     0.124 S 
ATOM     80  O   UNL A   1      35.977  33.131  29.259  1.00  0.00    -0.237 OA
ATOM     81  O   UNL A   1      34.400  32.469  31.048  1.00  0.00    -0.237 OA
ATOM     82  O   UNL A   1      35.969  34.334  31.412  1.00  0.00    -0.744 OA
ENDBRANCH  75  79
ENDBRANCH  48  72
BRANCH  60  83
ATOM     83  C   UNL A   1      45.171  33.417  29.533  1.00  0.00     0.023 A 
ATOM     84  C   UNL A   1      45.787  33.545  30.791  1.00  0.00     0.031 A 
ATOM     85  C   UNL A   1      45.099  34.549  28.706  1.00  0.00     0.131 A 
ATOM     86  C   UNL A   1      46.241  34.800  31.217  1.00  0.00     0.055 A 
ATOM     87  C   UNL A   1      45.606  35.783  29.113  1.00  0.00     0.041 A 
ATOM     88  F   UNL A   1      44.518  34.477  27.499  1.00  0.00    -0.206 F 
ATOM     89  C   UNL A   1      46.165  35.917  30.382  1.00  0.00     0.022 A 
BRANCH  86  90
ATOM     90  S   UNL A   1      46.825  34.975  32.925  1.00  0.00     0.124 S 
ATOM     91  O   UNL A   1      45.718  34.403  33.685  1.00  0.00    -0.237 OA
ATOM     92  O   UNL A   1      48.060  34.196  32.913  1.00  0.00    -0.237 OA
ATOM     93  O   UNL A   1      47.005  36.417  33.080  1.00  0.00    -0.744 OA
ENDBRANCH  86  90
ENDBRANCH  60  83
ENDBRANCH  34  35
ENDBRANCH  27  29
ENDBRANCH  26  27
ENDBRANCH  25  26
ENDBRANCH   1  25
TORSDOF 19
ENDMDL
