MODEL 1
REMARK VINA RESULT:     -12.4      0.000      0.000
REMARK SMILES O=C1NC(=S)/C(=C/c2ccc(-c3ccc(C(=O)OCCOC(=O)c4ccc(-c5c6nc(c(-c7cc(S(=O)(=O)[O-])ccc7F)c7ccc([nH]7)c(-c7cc(S(=O)(=O)[O-])ccc7F)c7nc(c(-c8cc(S(=O)(=O)[O-])ccc8F)c8ccc5[nH]8)C=C7)C=C6)cc4)cc3)o2)S1
REMARK SMILES IDX 20 1 19 2 18 3 16 4 17 5 15 6 12 7 13 8 88 9 14 10 87 11
REMARK SMILES IDX 11 12 8 13 9 14 89 15 10 16 7 17 1 18 2 19 3 20 90 21 4 22
REMARK SMILES IDX 6 24 5 25 21 26 22 27 23 28 24 29 25 30 86 31 26 32 85 33
REMARK SMILES IDX 27 34 28 35 29 36 79 37 30 38 84 39 78 40 80 41 31 42 83 43
REMARK SMILES IDX 77 44 76 45 32 47 64 48 44 49 63 50 45 51 48 52 62 53 81 54
REMARK SMILES IDX 46 55 47 56 61 58 82 59 49 60 33 61 34 62 42 63 35 64 41 65
REMARK SMILES IDX 43 66 40 67 36 68 37 69 38 70 39 71 65 72 66 73 74 74 67 75
REMARK SMILES IDX 73 76 75 77 72 78 68 79 69 80 70 81 71 82 50 83 51 84 59 85
REMARK SMILES IDX 52 86 58 87 60 88 57 89 53 90 54 91 55 92 56 93
REMARK H PARENT 3 23 80 46 48 57
REMARK Flexibility Score: inf
ROOT
ATOM      1  C   UNL A   1      31.510  30.446  25.840  1.00  0.00     0.275 C 
ENDROOT
BRANCH   1   2
ATOM      2  C   UNL A   1      31.497  29.513  24.627  1.00  0.00     0.275 C 
BRANCH   2   3
ATOM      3  O   UNL A   1      30.276  29.634  23.867  1.00  0.00    -0.458 OA
BRANCH   3   4
ATOM      4  C   UNL A   1      30.200  28.851  22.765  1.00  0.00     0.338 C 
ATOM      5  O   UNL A   1      29.969  29.228  21.626  1.00  0.00    -0.246 OA
BRANCH   4   6
ATOM      6  C   UNL A   1      30.467  27.430  23.088  1.00  0.00     0.060 A 
ATOM      7  C   UNL A   1      31.132  24.865  24.017  1.00  0.00     0.017 A 
ATOM      8  C   UNL A   1      30.016  25.525  24.528  1.00  0.00     0.013 A 
ATOM      9  C   UNL A   1      31.879  25.470  22.995  1.00  0.00     0.013 A 
ATOM     10  C   UNL A   1      29.712  26.811  24.091  1.00  0.00     0.016 A 
ATOM     11  C   UNL A   1      31.538  26.743  22.515  1.00  0.00     0.016 A 
BRANCH   7  12
ATOM     12  C   UNL A   1      31.586  23.652  24.671  1.00  0.00     0.134 A 
ATOM     13  C   UNL A   1      33.102  22.083  25.083  1.00  0.00     0.128 A 
ATOM     14  C   UNL A   1      31.885  21.654  25.601  1.00  0.00     0.051 A 
ATOM     15  O   UNL A   1      32.903  23.334  24.539  1.00  0.00    -0.457 OA
ATOM     16  C   UNL A   1      30.923  22.652  25.340  1.00  0.00     0.051 A 
BRANCH  13  17
ATOM     17  C   UNL A   1      34.372  21.442  25.096  1.00  0.00     0.065 C 
ATOM     18  O   UNL A   1      38.170  24.435  26.552  1.00  0.00    -0.261 OA
ATOM     19  C   UNL A   1      37.428  23.532  26.196  1.00  0.00     0.289 C 
ATOM     20  N   UNL A   1      37.813  22.282  25.831  1.00  0.00    -0.307 N 
ATOM     21  S   UNL A   1      35.703  23.691  25.988  1.00  0.00    -0.025 SA
ATOM     22  C   UNL A   1      36.864  21.412  25.359  1.00  0.00     0.120 C 
ATOM     23  H   UNL A   1      38.755  22.007  25.904  1.00  0.00     0.171 HD
ATOM     24  C   UNL A   1      35.519  22.059  25.418  1.00  0.00     0.056 C 
ATOM     25  S   UNL A   1      37.316  19.917  24.772  1.00  0.00    -0.059 S 
ENDBRANCH  13  17
ENDBRANCH   7  12
ENDBRANCH   4   6
ENDBRANCH   3   4
ENDBRANCH   2   3
ENDBRANCH   1   2
BRANCH   1  26
ATOM     26  O   UNL A   1      32.665  30.210  26.665  1.00  0.00    -0.458 OA
BRANCH  26  27
ATOM     27  C   UNL A   1      33.244  31.329  27.158  1.00  0.00     0.338 C 
ATOM     28  O   UNL A   1      32.712  32.410  27.346  1.00  0.00    -0.246 OA
BRANCH  27  29
ATOM     29  C   UNL A   1      34.638  31.064  27.538  1.00  0.00     0.060 A 
ATOM     30  C   UNL A   1      34.995  29.751  27.814  1.00  0.00     0.016 A 
ATOM     31  C   UNL A   1      35.518  32.100  27.835  1.00  0.00     0.016 A 
ATOM     32  C   UNL A   1      36.146  29.476  28.541  1.00  0.00     0.010 A 
ATOM     33  C   UNL A   1      36.756  31.802  28.424  1.00  0.00     0.010 A 
ATOM     34  C   UNL A   1      37.067  30.490  28.832  1.00  0.00    -0.014 A 
BRANCH  34  35
ATOM     35  C   UNL A   1      38.328  30.175  29.571  1.00  0.00     0.031 A 
ATOM     36  C   UNL A   1      39.357  29.246  28.970  1.00  0.00     0.074 A 
ATOM     37  C   UNL A   1      38.569  30.732  30.778  1.00  0.00     0.049 A 
ATOM     38  N   UNL A   1      40.409  28.700  29.526  1.00  0.00    -0.248 NA
ATOM     39  C   UNL A   1      39.165  28.867  27.562  1.00  0.00     0.031 C 
ATOM     40  C   UNL A   1      37.696  31.695  31.458  1.00  0.00     0.029 A 
ATOM     41  N   UNL A   1      39.621  30.581  31.650  1.00  0.00    -0.354 N 
ATOM     42  C   UNL A   1      40.972  27.872  28.558  1.00  0.00     0.074 A 
ATOM     43  C   UNL A   1      40.128  27.974  27.385  1.00  0.00     0.031 C 
ATOM     44  C   UNL A   1      38.271  32.085  32.604  1.00  0.00     0.029 A 
ATOM     45  C   UNL A   1      39.485  31.310  32.811  1.00  0.00     0.049 A 
ATOM     46  H   UNL A   1      40.398  30.007  31.462  1.00  0.00     0.167 HD
ATOM     47  C   UNL A   1      42.086  27.101  28.642  1.00  0.00     0.034 A 
ATOM     48  C   UNL A   1      40.212  31.315  33.945  1.00  0.00     0.034 A 
ATOM     49  C   UNL A   1      42.935  27.045  29.811  1.00  0.00     0.049 A 
ATOM     50  C   UNL A   1      41.396  30.391  34.046  1.00  0.00     0.074 A 
ATOM     51  C   UNL A   1      44.092  26.308  30.000  1.00  0.00     0.029 A 
ATOM     52  N   UNL A   1      42.725  27.755  30.987  1.00  0.00    -0.354 N 
ATOM     53  N   UNL A   1      41.876  29.562  33.147  1.00  0.00    -0.248 NA
ATOM     54  C   UNL A   1      42.128  30.394  35.317  1.00  0.00     0.031 C 
ATOM     55  C   UNL A   1      44.537  26.513  31.310  1.00  0.00     0.029 A 
ATOM     56  C   UNL A   1      43.711  27.449  31.913  1.00  0.00     0.049 A 
ATOM     57  H   UNL A   1      41.983  28.385  31.139  1.00  0.00     0.167 HD
ATOM     58  C   UNL A   1      42.984  28.966  33.739  1.00  0.00     0.074 A 
ATOM     59  C   UNL A   1      43.111  29.543  35.061  1.00  0.00     0.031 C 
ATOM     60  C   UNL A   1      43.822  28.025  33.233  1.00  0.00     0.034 A 
BRANCH  47  61
ATOM     61  C   UNL A   1      42.415  26.209  27.465  1.00  0.00     0.023 A 
ATOM     62  C   UNL A   1      41.997  24.869  27.397  1.00  0.00     0.031 A 
ATOM     63  C   UNL A   1      43.182  26.710  26.395  1.00  0.00     0.131 A 
ATOM     64  C   UNL A   1      42.405  24.060  26.324  1.00  0.00     0.055 A 
ATOM     65  C   UNL A   1      43.513  25.923  25.290  1.00  0.00     0.041 A 
ATOM     66  F   UNL A   1      43.632  27.975  26.410  1.00  0.00    -0.206 F 
ATOM     67  C   UNL A   1      43.137  24.585  25.257  1.00  0.00     0.022 A 
BRANCH  64  68
ATOM     68  S   UNL A   1      42.092  22.275  26.414  1.00  0.00     0.124 S 
ATOM     69  O   UNL A   1      42.895  21.779  25.299  1.00  0.00    -0.237 OA
ATOM     70  O   UNL A   1      42.572  21.937  27.749  1.00  0.00    -0.237 OA
ATOM     71  O   UNL A   1      40.645  22.171  26.226  1.00  0.00    -0.744 OA
ENDBRANCH  64  68
ENDBRANCH  47  61
BRANCH  48  72
ATOM     72  C   UNL A   1      39.802  32.164  35.103  1.00  0.00     0.023 A 
ATOM     73  C   UNL A   1      39.021  31.639  36.143  1.00  0.00     0.031 A 
ATOM     74  C   UNL A   1      40.150  33.527  35.166  1.00  0.00     0.131 A 
ATOM     75  C   UNL A   1      38.581  32.478  37.180  1.00  0.00     0.055 A 
ATOM     76  C   UNL A   1      39.769  34.340  36.234  1.00  0.00     0.041 A 
ATOM     77  F   UNL A   1      40.888  34.087  34.194  1.00  0.00    -0.206 F 
ATOM     78  C   UNL A   1      38.967  33.819  37.243  1.00  0.00     0.022 A 
BRANCH  75  79
ATOM     79  S   UNL A   1      37.411  31.814  38.396  1.00  0.00     0.124 S 
ATOM     80  O   UNL A   1      38.184  31.905  39.629  1.00  0.00    -0.237 OA
ATOM     81  O   UNL A   1      36.288  32.738  38.271  1.00  0.00    -0.237 OA
ATOM     82  O   UNL A   1      37.156  30.457  37.917  1.00  0.00    -0.744 OA
ENDBRANCH  75  79
ENDBRANCH  48  72
BRANCH  60  83
ATOM     83  C   UNL A   1      44.985  27.609  34.102  1.00  0.00     0.023 A 
ATOM     84  C   UNL A   1      44.903  26.511  34.976  1.00  0.00     0.031 A 
ATOM     85  C   UNL A   1      46.185  28.341  34.069  1.00  0.00     0.131 A 
ATOM     86  C   UNL A   1      45.978  26.215  35.826  1.00  0.00     0.055 A 
ATOM     87  C   UNL A   1      47.277  27.998  34.867  1.00  0.00     0.041 A 
ATOM     88  F   UNL A   1      46.317  29.403  33.258  1.00  0.00    -0.206 F 
ATOM     89  C   UNL A   1      47.171  26.940  35.764  1.00  0.00     0.022 A 
BRANCH  86  90
ATOM     90  S   UNL A   1      45.760  24.935  37.093  1.00  0.00     0.124 S 
ATOM     91  O   UNL A   1      47.090  24.337  37.151  1.00  0.00    -0.237 OA
ATOM     92  O   UNL A   1      45.360  25.714  38.259  1.00  0.00    -0.237 OA
ATOM     93  O   UNL A   1      44.717  24.075  36.535  1.00  0.00    -0.744 OA
ENDBRANCH  86  90
ENDBRANCH  60  83
ENDBRANCH  34  35
ENDBRANCH  27  29
ENDBRANCH  26  27
ENDBRANCH   1  26
TORSDOF 16
ENDMDL
MODEL 2
REMARK VINA RESULT:     -12.0      1.596      7.786
REMARK SMILES O=C1NC(=S)/C(=C/c2ccc(-c3ccc(C(=O)OCCOC(=O)c4ccc(-c5c6nc(c(-c7cc(S(=O)(=O)[O-])ccc7F)c7ccc([nH]7)c(-c7cc(S(=O)(=O)[O-])ccc7F)c7nc(c(-c8cc(S(=O)(=O)[O-])ccc8F)c8ccc5[nH]8)C=C7)C=C6)cc4)cc3)o2)S1
REMARK SMILES IDX 20 1 19 2 18 3 16 4 17 5 15 6 12 7 13 8 88 9 14 10 87 11
REMARK SMILES IDX 11 12 8 13 9 14 89 15 10 16 7 17 1 18 2 19 3 20 90 21 4 22
REMARK SMILES IDX 6 24 5 25 21 26 22 27 23 28 24 29 25 30 86 31 26 32 85 33
REMARK SMILES IDX 27 34 28 35 29 36 79 37 30 38 84 39 78 40 80 41 31 42 83 43
REMARK SMILES IDX 77 44 76 45 32 47 64 48 44 49 63 50 45 51 48 52 62 53 81 54
REMARK SMILES IDX 46 55 47 56 61 58 82 59 49 60 33 61 34 62 42 63 35 64 41 65
REMARK SMILES IDX 43 66 40 67 36 68 37 69 38 70 39 71 65 72 66 73 74 74 67 75
REMARK SMILES IDX 73 76 75 77 72 78 68 79 69 80 70 81 71 82 50 83 51 84 59 85
REMARK SMILES IDX 52 86 58 87 60 88 57 89 53 90 54 91 55 92 56 93
REMARK H PARENT 3 23 80 46 48 57
REMARK Flexibility Score: inf
ROOT
ATOM      1  C   UNL A   1      32.244  33.450  26.935  1.00  0.00     0.275 C 
ENDROOT
BRANCH   1   2
ATOM      2  C   UNL A   1      31.405  32.174  27.027  1.00  0.00     0.275 C 
BRANCH   2   3
ATOM      3  O   UNL A   1      31.869  31.157  26.114  1.00  0.00    -0.458 OA
BRANCH   3   4
ATOM      4  C   UNL A   1      32.477  30.093  26.693  1.00  0.00     0.338 C 
ATOM      5  O   UNL A   1      33.361  30.136  27.535  1.00  0.00    -0.246 OA
BRANCH   4   6
ATOM      6  C   UNL A   1      31.916  28.813  26.201  1.00  0.00     0.060 A 
ATOM      7  C   UNL A   1      31.203  26.303  25.162  1.00  0.00     0.017 A 
ATOM      8  C   UNL A   1      31.811  26.394  26.412  1.00  0.00     0.013 A 
ATOM      9  C   UNL A   1      30.898  27.481  24.460  1.00  0.00     0.013 A 
ATOM     10  C   UNL A   1      32.196  27.636  26.907  1.00  0.00     0.016 A 
ATOM     11  C   UNL A   1      31.235  28.737  24.986  1.00  0.00     0.016 A 
BRANCH   7  12
ATOM     12  C   UNL A   1      31.056  24.997  24.548  1.00  0.00     0.134 A 
ATOM     13  C   UNL A   1      31.477  22.821  24.420  1.00  0.00     0.128 A 
ATOM     14  C   UNL A   1      30.852  23.210  23.240  1.00  0.00     0.051 A 
ATOM     15  O   UNL A   1      31.567  23.934  25.228  1.00  0.00    -0.457 OA
ATOM     16  C   UNL A   1      30.584  24.593  23.323  1.00  0.00     0.051 A 
BRANCH  13  17
ATOM     17  C   UNL A   1      31.938  21.537  24.823  1.00  0.00     0.065 C 
ATOM     18  O   UNL A   1      36.961  21.031  24.708  1.00  0.00    -0.261 OA
ATOM     19  C   UNL A   1      35.750  20.921  24.834  1.00  0.00     0.289 C 
ATOM     20  N   UNL A   1      35.086  19.791  25.184  1.00  0.00    -0.307 N 
ATOM     21  S   UNL A   1      34.601  22.187  24.490  1.00  0.00    -0.025 SA
ATOM     22  C   UNL A   1      33.714  19.806  25.184  1.00  0.00     0.120 C 
ATOM     23  H   UNL A   1      35.579  18.977  25.434  1.00  0.00     0.171 HD
ATOM     24  C   UNL A   1      33.230  21.176  24.836  1.00  0.00     0.056 C 
ATOM     25  S   UNL A   1      32.860  18.403  25.474  1.00  0.00    -0.059 S 
ENDBRANCH  13  17
ENDBRANCH   7  12
ENDBRANCH   4   6
ENDBRANCH   3   4
ENDBRANCH   2   3
ENDBRANCH   1   2
BRANCH   1  26
ATOM     26  O   UNL A   1      32.499  34.000  28.241  1.00  0.00    -0.458 OA
BRANCH  26  27
ATOM     27  C   UNL A   1      33.688  34.634  28.363  1.00  0.00     0.338 C 
ATOM     28  O   UNL A   1      33.895  35.833  28.280  1.00  0.00    -0.246 OA
BRANCH  27  29
ATOM     29  C   UNL A   1      34.750  33.676  28.703  1.00  0.00     0.060 A 
ATOM     30  C   UNL A   1      34.426  32.625  29.549  1.00  0.00     0.016 A 
ATOM     31  C   UNL A   1      36.080  33.926  28.383  1.00  0.00     0.016 A 
ATOM     32  C   UNL A   1      35.426  31.930  30.217  1.00  0.00     0.010 A 
ATOM     33  C   UNL A   1      37.083  33.114  28.934  1.00  0.00     0.010 A 
ATOM     34  C   UNL A   1      36.774  32.136  29.900  1.00  0.00    -0.014 A 
BRANCH  34  35
ATOM     35  C   UNL A   1      37.841  31.346  30.587  1.00  0.00     0.031 A 
ATOM     36  C   UNL A   1      38.179  31.611  32.035  1.00  0.00     0.074 A 
ATOM     37  C   UNL A   1      38.504  30.374  29.923  1.00  0.00     0.049 A 
ATOM     38  N   UNL A   1      39.189  31.176  32.746  1.00  0.00    -0.248 NA
ATOM     39  C   UNL A   1      37.269  32.498  32.776  1.00  0.00     0.031 C 
ATOM     40  C   UNL A   1      38.247  29.963  28.539  1.00  0.00     0.029 A 
ATOM     41  N   UNL A   1      39.526  29.543  30.319  1.00  0.00    -0.354 N 
ATOM     42  C   UNL A   1      39.069  31.779  33.996  1.00  0.00     0.074 A 
ATOM     43  C   UNL A   1      37.896  32.626  33.936  1.00  0.00     0.031 C 
ATOM     44  C   UNL A   1      39.043  28.933  28.224  1.00  0.00     0.029 A 
ATOM     45  C   UNL A   1      39.959  28.690  29.329  1.00  0.00     0.049 A 
ATOM     46  H   UNL A   1      39.911  29.558  31.226  1.00  0.00     0.167 HD
ATOM     47  C   UNL A   1      39.862  31.636  35.088  1.00  0.00     0.034 A 
ATOM     48  C   UNL A   1      41.010  27.849  29.281  1.00  0.00     0.034 A 
ATOM     49  C   UNL A   1      41.007  30.754  35.137  1.00  0.00     0.049 A 
ATOM     50  C   UNL A   1      41.925  27.768  30.474  1.00  0.00     0.074 A 
ATOM     51  C   UNL A   1      41.872  30.524  36.194  1.00  0.00     0.029 A 
ATOM     52  N   UNL A   1      41.444  29.952  34.089  1.00  0.00    -0.354 N 
ATOM     53  N   UNL A   1      41.837  28.396  31.625  1.00  0.00    -0.248 NA
ATOM     54  C   UNL A   1      43.085  26.878  30.357  1.00  0.00     0.031 C 
ATOM     55  C   UNL A   1      42.872  29.646  35.762  1.00  0.00     0.029 A 
ATOM     56  C   UNL A   1      42.582  29.254  34.465  1.00  0.00     0.049 A 
ATOM     57  H   UNL A   1      41.007  29.890  33.209  1.00  0.00     0.167 HD
ATOM     58  C   UNL A   1      42.919  27.952  32.379  1.00  0.00     0.074 A 
ATOM     59  C   UNL A   1      43.631  26.992  31.559  1.00  0.00     0.031 C 
ATOM     60  C   UNL A   1      43.289  28.306  33.635  1.00  0.00     0.034 A 
BRANCH  47  61
ATOM     61  C   UNL A   1      39.561  32.497  36.295  1.00  0.00     0.023 A 
ATOM     62  C   UNL A   1      38.690  32.080  37.317  1.00  0.00     0.031 A 
ATOM     63  C   UNL A   1      40.147  33.772  36.415  1.00  0.00     0.131 A 
ATOM     64  C   UNL A   1      38.376  32.954  38.371  1.00  0.00     0.055 A 
ATOM     65  C   UNL A   1      39.896  34.602  37.509  1.00  0.00     0.041 A 
ATOM     66  F   UNL A   1      40.970  34.238  35.462  1.00  0.00    -0.206 F 
ATOM     67  C   UNL A   1      38.994  34.201  38.489  1.00  0.00     0.022 A 
BRANCH  64  68
ATOM     68  S   UNL A   1      37.037  32.498  39.508  1.00  0.00     0.124 S 
ATOM     69  O   UNL A   1      37.221  33.469  40.583  1.00  0.00    -0.237 OA
ATOM     70  O   UNL A   1      35.848  32.675  38.683  1.00  0.00    -0.237 OA
ATOM     71  O   UNL A   1      37.348  31.115  39.866  1.00  0.00    -0.744 OA
ENDBRANCH  64  68
ENDBRANCH  47  61
BRANCH  48  72
ATOM     72  C   UNL A   1      41.303  27.074  28.038  1.00  0.00     0.023 A 
ATOM     73  C   UNL A   1      40.967  25.715  27.937  1.00  0.00     0.031 A 
ATOM     74  C   UNL A   1      41.961  27.671  26.946  1.00  0.00     0.131 A 
ATOM     75  C   UNL A   1      41.325  24.990  26.790  1.00  0.00     0.055 A 
ATOM     76  C   UNL A   1      42.252  26.963  25.780  1.00  0.00     0.041 A 
ATOM     77  F   UNL A   1      42.315  28.966  26.990  1.00  0.00    -0.206 F 
ATOM     78  C   UNL A   1      41.947  25.609  25.703  1.00  0.00     0.022 A 
BRANCH  75  79
ATOM     79  S   UNL A   1      41.056  23.196  26.778  1.00  0.00     0.124 S 
ATOM     80  O   UNL A   1      41.871  22.783  25.641  1.00  0.00    -0.237 OA
ATOM     81  O   UNL A   1      41.547  22.808  28.096  1.00  0.00    -0.237 OA
ATOM     82  O   UNL A   1      39.613  23.070  26.590  1.00  0.00    -0.744 OA
ENDBRANCH  75  79
ENDBRANCH  48  72
BRANCH  60  83
ATOM     83  C   UNL A   1      44.491  27.601  34.216  1.00  0.00     0.023 A 
ATOM     84  C   UNL A   1      44.374  26.383  34.909  1.00  0.00     0.031 A 
ATOM     85  C   UNL A   1      45.771  28.171  34.092  1.00  0.00     0.131 A 
ATOM     86  C   UNL A   1      45.506  25.809  35.507  1.00  0.00     0.055 A 
ATOM     87  C   UNL A   1      46.903  27.559  34.629  1.00  0.00     0.041 A 
ATOM     88  F   UNL A   1      45.940  29.336  33.446  1.00  0.00    -0.206 F 
ATOM     89  C   UNL A   1      46.773  26.379  35.354  1.00  0.00     0.022 A 
BRANCH  86  90
ATOM     90  S   UNL A   1      45.286  24.361  36.577  1.00  0.00     0.124 S 
ATOM     91  O   UNL A   1      44.761  24.966  37.798  1.00  0.00    -0.237 OA
ATOM     92  O   UNL A   1      44.346  23.548  35.814  1.00  0.00    -0.237 OA
ATOM     93  O   UNL A   1      46.635  23.810  36.690  1.00  0.00    -0.744 OA
ENDBRANCH  86  90
ENDBRANCH  60  83
ENDBRANCH  34  35
ENDBRANCH  27  29
ENDBRANCH  26  27
ENDBRANCH   1  26
TORSDOF 16
ENDMDL
MODEL 3
REMARK VINA RESULT:     -11.8      3.224      5.254
REMARK SMILES O=C1NC(=S)/C(=C/c2ccc(-c3ccc(C(=O)OCCOC(=O)c4ccc(-c5c6nc(c(-c7cc(S(=O)(=O)[O-])ccc7F)c7ccc([nH]7)c(-c7cc(S(=O)(=O)[O-])ccc7F)c7nc(c(-c8cc(S(=O)(=O)[O-])ccc8F)c8ccc5[nH]8)C=C7)C=C6)cc4)cc3)o2)S1
REMARK SMILES IDX 20 1 19 2 18 3 16 4 17 5 15 6 12 7 13 8 88 9 14 10 87 11
REMARK SMILES IDX 11 12 8 13 9 14 89 15 10 16 7 17 1 18 2 19 3 20 90 21 4 22
REMARK SMILES IDX 6 24 5 25 21 26 22 27 23 28 24 29 25 30 86 31 26 32 85 33
REMARK SMILES IDX 27 34 28 35 29 36 79 37 30 38 84 39 78 40 80 41 31 42 83 43
REMARK SMILES IDX 77 44 76 45 32 47 64 48 44 49 63 50 45 51 48 52 62 53 81 54
REMARK SMILES IDX 46 55 47 56 61 58 82 59 49 60 33 61 34 62 42 63 35 64 41 65
REMARK SMILES IDX 43 66 40 67 36 68 37 69 38 70 39 71 65 72 66 73 74 74 67 75
REMARK SMILES IDX 73 76 75 77 72 78 68 79 69 80 70 81 71 82 50 83 51 84 59 85
REMARK SMILES IDX 52 86 58 87 60 88 57 89 53 90 54 91 55 92 56 93
REMARK H PARENT 3 23 80 46 48 57
REMARK Flexibility Score: inf
ROOT
ATOM      1  C   UNL A   1      33.035  35.427  29.516  1.00  0.00     0.275 C 
ENDROOT
BRANCH   1   2
ATOM      2  C   UNL A   1      34.323  34.983  28.819  1.00  0.00     0.275 C 
BRANCH   2   3
ATOM      3  O   UNL A   1      34.154  33.730  28.124  1.00  0.00    -0.458 OA
BRANCH   3   4
ATOM      4  C   UNL A   1      34.552  32.630  28.808  1.00  0.00     0.338 C 
ATOM      5  O   UNL A   1      35.107  32.619  29.896  1.00  0.00    -0.246 OA
BRANCH   4   6
ATOM      6  C   UNL A   1      34.202  31.384  28.085  1.00  0.00     0.060 A 
ATOM      7  C   UNL A   1      33.791  29.134  26.458  1.00  0.00     0.017 A 
ATOM      8  C   UNL A   1      34.905  29.198  27.293  1.00  0.00     0.013 A 
ATOM      9  C   UNL A   1      32.852  30.176  26.487  1.00  0.00     0.013 A 
ATOM     10  C   UNL A   1      35.124  30.331  28.070  1.00  0.00     0.016 A 
ATOM     11  C   UNL A   1      33.044  31.293  27.313  1.00  0.00     0.016 A 
BRANCH   7  12
ATOM     12  C   UNL A   1      33.722  28.078  25.465  1.00  0.00     0.134 A 
ATOM     13  C   UNL A   1      33.700  25.944  24.854  1.00  0.00     0.128 A 
ATOM     14  C   UNL A   1      33.865  26.719  23.710  1.00  0.00     0.051 A 
ATOM     15  O   UNL A   1      33.584  26.805  25.924  1.00  0.00    -0.457 OA
ATOM     16  C   UNL A   1      33.877  28.075  24.099  1.00  0.00     0.051 A 
BRANCH  13  17
ATOM     17  C   UNL A   1      33.619  24.530  24.989  1.00  0.00     0.065 C 
ATOM     18  O   UNL A   1      29.591  22.945  27.590  1.00  0.00    -0.261 OA
ATOM     19  C   UNL A   1      30.608  23.083  26.927  1.00  0.00     0.289 C 
ATOM     20  N   UNL A   1      31.445  22.088  26.538  1.00  0.00    -0.307 N 
ATOM     21  S   UNL A   1      31.256  24.620  26.415  1.00  0.00    -0.025 SA
ATOM     22  C   UNL A   1      32.602  22.420  25.879  1.00  0.00     0.120 C 
ATOM     23  H   UNL A   1      31.226  21.147  26.724  1.00  0.00     0.171 HD
ATOM     24  C   UNL A   1      32.650  23.899  25.669  1.00  0.00     0.056 C 
ATOM     25  S   UNL A   1      33.721  21.242  25.506  1.00  0.00    -0.059 S 
ENDBRANCH  13  17
ENDBRANCH   7  12
ENDBRANCH   4   6
ENDBRANCH   3   4
ENDBRANCH   2   3
ENDBRANCH   1   2
BRANCH   1  26
ATOM     26  O   UNL A   1      33.320  36.101  30.755  1.00  0.00    -0.458 OA
BRANCH  26  27
ATOM     27  C   UNL A   1      32.912  35.441  31.863  1.00  0.00     0.338 C 
ATOM     28  O   UNL A   1      31.763  35.233  32.214  1.00  0.00    -0.246 OA
BRANCH  27  29
ATOM     29  C   UNL A   1      34.066  34.902  32.597  1.00  0.00     0.060 A 
ATOM     30  C   UNL A   1      35.274  35.576  32.488  1.00  0.00     0.016 A 
ATOM     31  C   UNL A   1      34.023  33.646  33.194  1.00  0.00     0.016 A 
ATOM     32  C   UNL A   1      36.464  34.938  32.811  1.00  0.00     0.010 A 
ATOM     33  C   UNL A   1      35.210  33.070  33.669  1.00  0.00     0.010 A 
ATOM     34  C   UNL A   1      36.457  33.686  33.438  1.00  0.00    -0.014 A 
BRANCH  34  35
ATOM     35  C   UNL A   1      37.742  33.029  33.829  1.00  0.00     0.031 A 
ATOM     36  C   UNL A   1      38.319  31.914  32.990  1.00  0.00     0.074 A 
ATOM     37  C   UNL A   1      38.409  33.439  34.931  1.00  0.00     0.049 A 
ATOM     38  N   UNL A   1      39.305  31.095  33.260  1.00  0.00    -0.248 NA
ATOM     39  C   UNL A   1      37.691  31.677  31.681  1.00  0.00     0.031 C 
ATOM     40  C   UNL A   1      38.006  34.544  35.806  1.00  0.00     0.029 A 
ATOM     41  N   UNL A   1      39.573  32.984  35.503  1.00  0.00    -0.354 N 
ATOM     42  C   UNL A   1      39.380  30.213  32.185  1.00  0.00     0.074 A 
ATOM     43  C   UNL A   1      38.322  30.587  31.268  1.00  0.00     0.031 C 
ATOM     44  C   UNL A   1      38.928  34.714  36.763  1.00  0.00     0.029 A 
ATOM     45  C   UNL A   1      39.920  33.654  36.655  1.00  0.00     0.049 A 
ATOM     46  H   UNL A   1      40.109  32.249  35.124  1.00  0.00     0.167 HD
ATOM     47  C   UNL A   1      40.249  29.190  31.984  1.00  0.00     0.034 A 
ATOM     48  C   UNL A   1      40.886  33.415  37.563  1.00  0.00     0.034 A 
ATOM     49  C   UNL A   1      41.321  28.859  32.895  1.00  0.00     0.049 A 
ATOM     50  C   UNL A   1      41.786  32.225  37.362  1.00  0.00     0.074 A 
ATOM     51  C   UNL A   1      42.266  27.852  32.784  1.00  0.00     0.029 A 
ATOM     52  N   UNL A   1      41.598  29.529  34.081  1.00  0.00    -0.354 N 
ATOM     53  N   UNL A   1      41.801  31.358  36.376  1.00  0.00    -0.248 NA
ATOM     54  C   UNL A   1      42.790  31.973  38.402  1.00  0.00     0.031 C 
ATOM     55  C   UNL A   1      43.061  27.865  33.935  1.00  0.00     0.029 A 
ATOM     56  C   UNL A   1      42.675  28.937  34.724  1.00  0.00     0.049 A 
ATOM     57  H   UNL A   1      41.102  30.311  34.414  1.00  0.00     0.167 HD
ATOM     58  C   UNL A   1      42.835  30.475  36.665  1.00  0.00     0.074 A 
ATOM     59  C   UNL A   1      43.431  30.925  37.907  1.00  0.00     0.031 C 
ATOM     60  C   UNL A   1      43.255  29.390  35.967  1.00  0.00     0.034 A 
BRANCH  47  61
ATOM     61  C   UNL A   1      40.038  28.316  30.767  1.00  0.00     0.023 A 
ATOM     62  C   UNL A   1      40.716  28.536  29.556  1.00  0.00     0.031 A 
ATOM     63  C   UNL A   1      39.122  27.246  30.819  1.00  0.00     0.131 A 
ATOM     64  C   UNL A   1      40.417  27.750  28.431  1.00  0.00     0.055 A 
ATOM     65  C   UNL A   1      38.893  26.415  29.721  1.00  0.00     0.041 A 
ATOM     66  F   UNL A   1      38.426  26.996  31.939  1.00  0.00    -0.206 F 
ATOM     67  C   UNL A   1      39.532  26.674  28.513  1.00  0.00     0.022 A 
BRANCH  64  68
ATOM     68  S   UNL A   1      41.093  28.244  26.822  1.00  0.00     0.124 S 
ATOM     69  O   UNL A   1      40.090  29.202  26.363  1.00  0.00    -0.237 OA
ATOM     70  O   UNL A   1      42.391  28.802  27.182  1.00  0.00    -0.237 OA
ATOM     71  O   UNL A   1      41.139  26.991  26.069  1.00  0.00    -0.744 OA
ENDBRANCH  64  68
ENDBRANCH  47  61
BRANCH  48  72
ATOM     72  C   UNL A   1      41.006  34.268  38.783  1.00  0.00     0.023 A 
ATOM     73  C   UNL A   1      40.120  34.119  39.860  1.00  0.00     0.031 A 
ATOM     74  C   UNL A   1      41.985  35.276  38.872  1.00  0.00     0.131 A 
ATOM     75  C   UNL A   1      40.203  34.987  40.960  1.00  0.00     0.055 A 
ATOM     76  C   UNL A   1      42.109  36.091  39.998  1.00  0.00     0.041 A 
ATOM     77  F   UNL A   1      42.855  35.471  37.868  1.00  0.00    -0.206 F 
ATOM     78  C   UNL A   1      41.204  35.958  41.045  1.00  0.00     0.022 A 
BRANCH  75  79
ATOM     79  S   UNL A   1      38.919  34.896  42.237  1.00  0.00     0.124 S 
ATOM     80  O   UNL A   1      39.479  35.748  43.280  1.00  0.00    -0.237 OA
ATOM     81  O   UNL A   1      37.754  35.423  41.534  1.00  0.00    -0.237 OA
ATOM     82  O   UNL A   1      38.860  33.472  42.559  1.00  0.00    -0.744 OA
ENDBRANCH  75  79
ENDBRANCH  48  72
BRANCH  60  83
ATOM     83  C   UNL A   1      44.455  28.652  36.510  1.00  0.00     0.023 A 
ATOM     84  C   UNL A   1      44.327  27.618  37.453  1.00  0.00     0.031 A 
ATOM     85  C   UNL A   1      45.750  29.008  36.090  1.00  0.00     0.131 A 
ATOM     86  C   UNL A   1      45.475  27.020  37.994  1.00  0.00     0.055 A 
ATOM     87  C   UNL A   1      46.885  28.361  36.580  1.00  0.00     0.041 A 
ATOM     88  F   UNL A   1      45.932  29.993  35.196  1.00  0.00    -0.206 F 
ATOM     89  C   UNL A   1      46.752  27.371  37.549  1.00  0.00     0.022 A 
BRANCH  86  90
ATOM     90  S   UNL A   1      45.283  25.849  39.366  1.00  0.00     0.124 S 
ATOM     91  O   UNL A   1      46.605  25.889  39.984  1.00  0.00    -0.237 OA
ATOM     92  O   UNL A   1      44.200  26.446  40.138  1.00  0.00    -0.237 OA
ATOM     93  O   UNL A   1      44.949  24.591  38.699  1.00  0.00    -0.744 OA
ENDBRANCH  86  90
ENDBRANCH  60  83
ENDBRANCH  34  35
ENDBRANCH  27  29
ENDBRANCH  26  27
ENDBRANCH   1  26
TORSDOF 16
ENDMDL
