MODEL 1
REMARK VINA RESULT:     -11.2      0.000      0.000
REMARK SMILES Cc1cccc(Cl)c1Nc1ccccc1CC(=O)OCCOC(=O)c1ccc(-c2c3nc(c(-c4cc(S(=O)(=O)[O-])ccc4F)c4ccc([nH]4)c(-c4cc(S(=O)(=O)[O-])ccc4F)c4nc(c(-c5cc(S(=O)(=O)[O-])ccc5F)c5ccc2[nH]5)C=C4)C=C3)cc1
REMARK SMILES IDX 20 1 19 2 17 3 18 4 16 5 15 6 10 7 11 8 12 9 14 10 13 11
REMARK SMILES IDX 9 12 8 14 1 15 2 16 3 17 4 18 6 19 5 20 7 21 21 22 22 23
REMARK SMILES IDX 23 24 24 25 25 26 26 27 87 28 27 29 86 30 28 31 29 32 30 33
REMARK SMILES IDX 80 34 31 35 85 36 79 37 81 38 32 39 84 40 78 41 77 42 33 44
REMARK SMILES IDX 65 45 45 46 64 47 46 48 49 49 63 50 82 51 47 52 48 53 62 55
REMARK SMILES IDX 83 56 50 57 34 58 35 59 43 60 36 61 42 62 44 63 41 64 37 65
REMARK SMILES IDX 38 66 39 67 40 68 66 69 67 70 75 71 68 72 74 73 76 74 73 75
REMARK SMILES IDX 69 76 70 77 71 78 72 79 51 80 52 81 60 82 53 83 59 84 61 85
REMARK SMILES IDX 58 86 54 87 55 88 56 89 57 90
REMARK H PARENT 9 13 81 43 49 54
REMARK Flexibility Score: inf
ROOT
ATOM      1  C   UNL A   1      31.428  29.775  25.299  1.00  0.00     0.274 C 
ENDROOT
BRANCH   1   2
ATOM      2  O   UNL A   1      31.486  28.435  25.818  1.00  0.00    -0.462 OA
BRANCH   2   3
ATOM      3  C   UNL A   1      32.731  27.891  25.872  1.00  0.00     0.310 C 
ATOM      4  O   UNL A   1      33.258  27.472  26.900  1.00  0.00    -0.252 OA
BRANCH   3   5
ATOM      5  C   UNL A   1      33.478  27.935  24.566  1.00  0.00     0.160 C 
BRANCH   5   6
ATOM      6  C   UNL A   1      33.286  26.805  23.574  1.00  0.00    -0.013 A 
ATOM      7  C   UNL A   1      33.775  25.504  23.828  1.00  0.00     0.042 A 
ATOM      8  C   UNL A   1      33.598  24.506  22.852  1.00  0.00     0.026 A 
ATOM      9  C   UNL A   1      32.894  24.763  21.675  1.00  0.00     0.002 A 
ATOM     10  C   UNL A   1      32.547  27.033  22.397  1.00  0.00     0.006 A 
ATOM     11  C   UNL A   1      32.352  26.021  21.458  1.00  0.00     0.000 A 
BRANCH   7  12
ATOM     12  N   UNL A   1      34.324  25.108  25.067  1.00  0.00    -0.354 N 
ATOM     13  H   UNL A   1      34.913  25.773  25.493  1.00  0.00     0.167 HD
BRANCH  12  14
ATOM     14  C   UNL A   1      34.159  23.901  25.792  1.00  0.00     0.060 A 
ATOM     15  C   UNL A   1      36.524  23.256  25.090  1.00  0.00     0.046 C 
ATOM     16  C   UNL A   1      35.243  22.989  25.836  1.00  0.00    -0.026 A 
ATOM     17  C   UNL A   1      35.172  21.856  26.666  1.00  0.00     0.005 A 
ATOM     18  C   UNL A   1      34.038  21.602  27.434  1.00  0.00     0.002 A 
ATOM     19  C   UNL A   1      33.003  23.601  26.552  1.00  0.00     0.064 A 
ATOM     20  C   UNL A   1      32.952  22.467  27.368  1.00  0.00     0.023 A 
ATOM     21  Cl  UNL A   1      31.557  24.554  26.477  1.00  0.00    -0.082 Cl
ENDBRANCH  12  14
ENDBRANCH   7  12
ENDBRANCH   5   6
ENDBRANCH   3   5
ENDBRANCH   2   3
ENDBRANCH   1   2
BRANCH   1  22
ATOM     22  C   UNL A   1      31.742  30.798  26.388  1.00  0.00     0.275 C 
BRANCH  22  23
ATOM     23  O   UNL A   1      33.145  31.111  26.385  1.00  0.00    -0.458 OA
BRANCH  23  24
ATOM     24  C   UNL A   1      33.552  31.988  27.330  1.00  0.00     0.338 C 
ATOM     25  O   UNL A   1      32.977  32.997  27.698  1.00  0.00    -0.246 OA
BRANCH  24  26
ATOM     26  C   UNL A   1      34.855  31.564  27.869  1.00  0.00     0.060 A 
ATOM     27  C   UNL A   1      35.092  30.226  28.198  1.00  0.00     0.016 A 
ATOM     28  C   UNL A   1      35.812  32.539  28.146  1.00  0.00     0.016 A 
ATOM     29  C   UNL A   1      36.278  29.864  28.838  1.00  0.00     0.010 A 
ATOM     30  C   UNL A   1      37.021  32.167  28.738  1.00  0.00     0.010 A 
ATOM     31  C   UNL A   1      37.256  30.831  29.109  1.00  0.00    -0.014 A 
BRANCH  31  32
ATOM     32  C   UNL A   1      38.513  30.479  29.822  1.00  0.00     0.031 A 
ATOM     33  C   UNL A   1      39.455  29.477  29.214  1.00  0.00     0.074 A 
ATOM     34  C   UNL A   1      38.781  31.014  31.027  1.00  0.00     0.049 A 
ATOM     35  N   UNL A   1      40.483  28.871  29.750  1.00  0.00    -0.248 NA
ATOM     36  C   UNL A   1      39.188  29.094  27.820  1.00  0.00     0.031 C 
ATOM     37  C   UNL A   1      37.965  32.022  31.707  1.00  0.00     0.029 A 
ATOM     38  N   UNL A   1      39.805  30.765  31.906  1.00  0.00    -0.354 N 
ATOM     39  C   UNL A   1      40.963  28.004  28.774  1.00  0.00     0.074 A 
ATOM     40  C   UNL A   1      40.099  28.153  27.621  1.00  0.00     0.031 C 
ATOM     41  C   UNL A   1      38.515  32.297  32.900  1.00  0.00     0.029 A 
ATOM     42  C   UNL A   1      39.679  31.440  33.098  1.00  0.00     0.049 A 
ATOM     43  H   UNL A   1      40.557  30.163  31.704  1.00  0.00     0.167 HD
ATOM     44  C   UNL A   1      42.024  27.159  28.840  1.00  0.00     0.034 A 
ATOM     45  C   UNL A   1      40.389  31.345  34.239  1.00  0.00     0.034 A 
ATOM     46  C   UNL A   1      42.884  27.039  29.993  1.00  0.00     0.049 A 
ATOM     47  C   UNL A   1      41.534  30.369  34.309  1.00  0.00     0.074 A 
ATOM     48  C   UNL A   1      44.004  26.242  30.156  1.00  0.00     0.029 A 
ATOM     49  N   UNL A   1      42.719  27.736  31.184  1.00  0.00    -0.354 N 
ATOM     50  N   UNL A   1      41.963  29.532  33.392  1.00  0.00    -0.248 NA
ATOM     51  C   UNL A   1      42.288  30.322  35.568  1.00  0.00     0.031 C 
ATOM     52  C   UNL A   1      44.479  26.412  31.462  1.00  0.00     0.029 A 
ATOM     53  C   UNL A   1      43.698  27.367  32.094  1.00  0.00     0.049 A 
ATOM     54  H   UNL A   1      42.009  28.396  31.357  1.00  0.00     0.167 HD
ATOM     55  C   UNL A   1      43.048  28.872  33.960  1.00  0.00     0.074 A 
ATOM     56  C   UNL A   1      43.216  29.418  35.291  1.00  0.00     0.031 C 
ATOM     57  C   UNL A   1      43.838  27.905  33.427  1.00  0.00     0.034 A 
BRANCH  44  58
ATOM     58  C   UNL A   1      42.265  26.257  27.652  1.00  0.00     0.023 A 
ATOM     59  C   UNL A   1      41.755  24.948  27.592  1.00  0.00     0.031 A 
ATOM     60  C   UNL A   1      43.054  26.704  26.578  1.00  0.00     0.131 A 
ATOM     61  C   UNL A   1      42.102  24.110  26.521  1.00  0.00     0.055 A 
ATOM     62  C   UNL A   1      43.332  25.891  25.478  1.00  0.00     0.041 A 
ATOM     63  F   UNL A   1      43.586  27.938  26.588  1.00  0.00    -0.206 F 
ATOM     64  C   UNL A   1      42.869  24.581  25.452  1.00  0.00     0.022 A 
BRANCH  61  65
ATOM     65  S   UNL A   1      41.658  22.353  26.612  1.00  0.00     0.124 S 
ATOM     66  O   UNL A   1      42.143  21.858  25.326  1.00  0.00    -0.237 OA
ATOM     67  O   UNL A   1      42.391  21.904  27.789  1.00  0.00    -0.237 OA
ATOM     68  O   UNL A   1      40.203  22.373  26.752  1.00  0.00    -0.744 OA
ENDBRANCH  61  65
ENDBRANCH  44  58
BRANCH  45  69
ATOM     69  C   UNL A   1      39.996  32.146  35.432  1.00  0.00     0.023 A 
ATOM     70  C   UNL A   1      39.074  31.653  36.366  1.00  0.00     0.031 A 
ATOM     71  C   UNL A   1      40.529  33.431  35.640  1.00  0.00     0.131 A 
ATOM     72  C   UNL A   1      38.689  32.453  37.454  1.00  0.00     0.055 A 
ATOM     73  C   UNL A   1      40.178  34.204  36.747  1.00  0.00     0.041 A 
ATOM     74  F   UNL A   1      41.419  33.946  34.775  1.00  0.00    -0.206 F 
ATOM     75  C   UNL A   1      39.245  33.718  37.657  1.00  0.00     0.022 A 
BRANCH  72  76
ATOM     76  S   UNL A   1      37.404  31.835  38.575  1.00  0.00     0.124 S 
ATOM     77  O   UNL A   1      36.341  32.813  38.377  1.00  0.00    -0.237 OA
ATOM     78  O   UNL A   1      37.154  30.500  38.044  1.00  0.00    -0.237 OA
ATOM     79  O   UNL A   1      38.050  31.870  39.886  1.00  0.00    -0.744 OA
ENDBRANCH  72  76
ENDBRANCH  45  69
BRANCH  57  80
ATOM     80  C   UNL A   1      44.979  27.412  34.282  1.00  0.00     0.023 A 
ATOM     81  C   UNL A   1      44.818  26.353  35.192  1.00  0.00     0.031 A 
ATOM     82  C   UNL A   1      46.241  28.028  34.197  1.00  0.00     0.131 A 
ATOM     83  C   UNL A   1      45.887  25.973  36.018  1.00  0.00     0.055 A 
ATOM     84  C   UNL A   1      47.315  27.611  34.984  1.00  0.00     0.041 A 
ATOM     85  F   UNL A   1      46.448  29.046  33.346  1.00  0.00    -0.206 F 
ATOM     86  C   UNL A   1      47.138  26.587  35.909  1.00  0.00     0.022 A 
BRANCH  83  87
ATOM     87  S   UNL A   1      45.600  24.719  37.297  1.00  0.00     0.124 S 
ATOM     88  O   UNL A   1      44.508  25.312  38.064  1.00  0.00    -0.237 OA
ATOM     89  O   UNL A   1      45.261  23.540  36.508  1.00  0.00    -0.237 OA
ATOM     90  O   UNL A   1      46.881  24.647  37.999  1.00  0.00    -0.744 OA
ENDBRANCH  83  87
ENDBRANCH  57  80
ENDBRANCH  31  32
ENDBRANCH  24  26
ENDBRANCH  23  24
ENDBRANCH  22  23
ENDBRANCH   1  22
TORSDOF 17
ENDMDL
MODEL 2
REMARK VINA RESULT:     -11.1      1.761      2.845
REMARK SMILES Cc1cccc(Cl)c1Nc1ccccc1CC(=O)OCCOC(=O)c1ccc(-c2c3nc(c(-c4cc(S(=O)(=O)[O-])ccc4F)c4ccc([nH]4)c(-c4cc(S(=O)(=O)[O-])ccc4F)c4nc(c(-c5cc(S(=O)(=O)[O-])ccc5F)c5ccc2[nH]5)C=C4)C=C3)cc1
REMARK SMILES IDX 20 1 19 2 17 3 18 4 16 5 15 6 10 7 11 8 12 9 14 10 13 11
REMARK SMILES IDX 9 12 8 14 1 15 2 16 3 17 4 18 6 19 5 20 7 21 21 22 22 23
REMARK SMILES IDX 23 24 24 25 25 26 26 27 87 28 27 29 86 30 28 31 29 32 30 33
REMARK SMILES IDX 80 34 31 35 85 36 79 37 81 38 32 39 84 40 78 41 77 42 33 44
REMARK SMILES IDX 65 45 45 46 64 47 46 48 49 49 63 50 82 51 47 52 48 53 62 55
REMARK SMILES IDX 83 56 50 57 34 58 35 59 43 60 36 61 42 62 44 63 41 64 37 65
REMARK SMILES IDX 38 66 39 67 40 68 66 69 67 70 75 71 68 72 74 73 76 74 73 75
REMARK SMILES IDX 69 76 70 77 71 78 72 79 51 80 52 81 60 82 53 83 59 84 61 85
REMARK SMILES IDX 58 86 54 87 55 88 56 89 57 90
REMARK H PARENT 9 13 81 43 49 54
REMARK Flexibility Score: inf
ROOT
ATOM      1  C   UNL A   1      31.840  28.209  27.454  1.00  0.00     0.274 C 
ENDROOT
BRANCH   1   2
ATOM      2  O   UNL A   1      31.085  27.163  26.819  1.00  0.00    -0.462 OA
BRANCH   2   3
ATOM      3  C   UNL A   1      31.792  26.042  26.517  1.00  0.00     0.310 C 
ATOM      4  O   UNL A   1      31.462  24.906  26.848  1.00  0.00    -0.252 OA
BRANCH   3   5
ATOM      5  C   UNL A   1      33.098  26.311  25.816  1.00  0.00     0.160 C 
BRANCH   5   6
ATOM      6  C   UNL A   1      33.845  25.151  25.190  1.00  0.00    -0.013 A 
ATOM      7  C   UNL A   1      33.815  24.913  23.797  1.00  0.00     0.042 A 
ATOM      8  C   UNL A   1      34.498  23.797  23.281  1.00  0.00     0.026 A 
ATOM      9  C   UNL A   1      35.254  22.965  24.108  1.00  0.00     0.002 A 
ATOM     10  C   UNL A   1      34.642  24.320  26.002  1.00  0.00     0.006 A 
ATOM     11  C   UNL A   1      35.340  23.239  25.466  1.00  0.00     0.000 A 
BRANCH   7  12
ATOM     12  N   UNL A   1      33.242  25.808  22.869  1.00  0.00    -0.354 N 
ATOM     13  H   UNL A   1      33.700  25.856  21.999  1.00  0.00     0.167 HD
BRANCH  12  14
ATOM     14  C   UNL A   1      32.108  26.650  22.997  1.00  0.00     0.060 A 
ATOM     15  C   UNL A   1      30.673  24.548  23.149  1.00  0.00     0.046 C 
ATOM     16  C   UNL A   1      30.837  26.044  23.163  1.00  0.00    -0.026 A 
ATOM     17  C   UNL A   1      29.713  26.841  23.444  1.00  0.00     0.005 A 
ATOM     18  C   UNL A   1      29.824  28.226  23.542  1.00  0.00     0.002 A 
ATOM     19  C   UNL A   1      32.189  28.061  23.063  1.00  0.00     0.064 A 
ATOM     20  C   UNL A   1      31.058  28.835  23.340  1.00  0.00     0.023 A 
ATOM     21  Cl  UNL A   1      33.650  28.934  22.737  1.00  0.00    -0.082 Cl
ENDBRANCH  12  14
ENDBRANCH   7  12
ENDBRANCH   5   6
ENDBRANCH   3   5
ENDBRANCH   2   3
ENDBRANCH   1   2
BRANCH   1  22
ATOM     22  C   UNL A   1      31.584  29.555  26.780  1.00  0.00     0.275 C 
BRANCH  22  23
ATOM     23  O   UNL A   1      32.823  30.134  26.338  1.00  0.00    -0.458 OA
BRANCH  23  24
ATOM     24  C   UNL A   1      33.249  31.211  27.034  1.00  0.00     0.338 C 
ATOM     25  O   UNL A   1      32.673  32.275  27.174  1.00  0.00    -0.246 OA
BRANCH  24  26
ATOM     26  C   UNL A   1      34.575  30.934  27.613  1.00  0.00     0.060 A 
ATOM     27  C   UNL A   1      34.965  29.625  27.912  1.00  0.00     0.016 A 
ATOM     28  C   UNL A   1      35.392  32.010  27.954  1.00  0.00     0.016 A 
ATOM     29  C   UNL A   1      36.164  29.392  28.588  1.00  0.00     0.010 A 
ATOM     30  C   UNL A   1      36.616  31.771  28.583  1.00  0.00     0.010 A 
ATOM     31  C   UNL A   1      37.003  30.463  28.925  1.00  0.00    -0.014 A 
BRANCH  31  32
ATOM     32  C   UNL A   1      38.267  30.246  29.676  1.00  0.00     0.031 A 
ATOM     33  C   UNL A   1      39.308  29.311  29.125  1.00  0.00     0.074 A 
ATOM     34  C   UNL A   1      38.459  30.841  30.868  1.00  0.00     0.049 A 
ATOM     35  N   UNL A   1      40.370  28.815  29.703  1.00  0.00    -0.248 NA
ATOM     36  C   UNL A   1      39.109  28.861  27.739  1.00  0.00     0.031 C 
ATOM     37  C   UNL A   1      37.542  31.796  31.494  1.00  0.00     0.029 A 
ATOM     38  N   UNL A   1      39.479  30.712  31.777  1.00  0.00    -0.354 N 
ATOM     39  C   UNL A   1      40.948  27.961  28.768  1.00  0.00     0.074 A 
ATOM     40  C   UNL A   1      40.103  27.997  27.593  1.00  0.00     0.031 C 
ATOM     41  C   UNL A   1      38.036  32.157  32.689  1.00  0.00     0.029 A 
ATOM     42  C   UNL A   1      39.265  31.412  32.942  1.00  0.00     0.049 A 
ATOM     43  H   UNL A   1      40.285  30.171  31.613  1.00  0.00     0.167 HD
ATOM     44  C   UNL A   1      42.076  27.215  28.887  1.00  0.00     0.034 A 
ATOM     45  C   UNL A   1      39.953  31.417  34.101  1.00  0.00     0.034 A 
ATOM     46  C   UNL A   1      42.915  27.209  30.062  1.00  0.00     0.049 A 
ATOM     47  C   UNL A   1      41.176  30.547  34.229  1.00  0.00     0.074 A 
ATOM     48  C   UNL A   1      44.096  26.519  30.276  1.00  0.00     0.029 A 
ATOM     49  N   UNL A   1      42.661  27.928  31.224  1.00  0.00    -0.354 N 
ATOM     50  N   UNL A   1      41.698  29.721  33.351  1.00  0.00    -0.248 NA
ATOM     51  C   UNL A   1      41.899  30.608  35.505  1.00  0.00     0.031 C 
ATOM     52  C   UNL A   1      44.522  26.773  31.586  1.00  0.00     0.029 A 
ATOM     53  C   UNL A   1      43.645  27.675  32.167  1.00  0.00     0.049 A 
ATOM     54  H   UNL A   1      41.892  28.528  31.358  1.00  0.00     0.167 HD
ATOM     55  C   UNL A   1      42.822  29.178  33.965  1.00  0.00     0.074 A 
ATOM     56  C   UNL A   1      42.909  29.780  35.280  1.00  0.00     0.031 C 
ATOM     57  C   UNL A   1      43.706  28.267  33.483  1.00  0.00     0.034 A 
BRANCH  44  58
ATOM     58  C   UNL A   1      42.423  26.299  27.737  1.00  0.00     0.023 A 
ATOM     59  C   UNL A   1      41.886  25.005  27.623  1.00  0.00     0.031 A 
ATOM     60  C   UNL A   1      43.342  26.718  26.757  1.00  0.00     0.131 A 
ATOM     61  C   UNL A   1      42.327  24.151  26.600  1.00  0.00     0.055 A 
ATOM     62  C   UNL A   1      43.719  25.890  25.698  1.00  0.00     0.041 A 
ATOM     63  F   UNL A   1      43.905  27.935  26.824  1.00  0.00    -0.206 F 
ATOM     64  C   UNL A   1      43.223  24.593  25.624  1.00  0.00     0.022 A 
BRANCH  61  65
ATOM     65  S   UNL A   1      41.825  22.408  26.646  1.00  0.00     0.124 S 
ATOM     66  O   UNL A   1      42.337  21.919  25.368  1.00  0.00    -0.237 OA
ATOM     67  O   UNL A   1      42.504  21.916  27.839  1.00  0.00    -0.237 OA
ATOM     68  O   UNL A   1      40.368  22.473  26.739  1.00  0.00    -0.744 OA
ENDBRANCH  61  65
ENDBRANCH  44  58
BRANCH  45  69
ATOM     69  C   UNL A   1      39.462  32.219  35.256  1.00  0.00     0.023 A 
ATOM     70  C   UNL A   1      39.856  33.554  35.431  1.00  0.00     0.031 A 
ATOM     71  C   UNL A   1      38.604  31.650  36.213  1.00  0.00     0.131 A 
ATOM     72  C   UNL A   1      39.414  34.269  36.556  1.00  0.00     0.055 A 
ATOM     73  C   UNL A   1      38.131  32.378  37.306  1.00  0.00     0.041 A 
ATOM     74  F   UNL A   1      38.196  30.376  36.088  1.00  0.00    -0.206 F 
ATOM     75  C   UNL A   1      38.545  33.693  37.486  1.00  0.00     0.022 A 
BRANCH  72  76
ATOM     76  S   UNL A   1      40.039  35.951  36.818  1.00  0.00     0.124 S 
ATOM     77  O   UNL A   1      41.460  35.710  37.042  1.00  0.00    -0.237 OA
ATOM     78  O   UNL A   1      39.690  36.604  35.560  1.00  0.00    -0.237 OA
ATOM     79  O   UNL A   1      39.292  36.414  37.985  1.00  0.00    -0.744 OA
ENDBRANCH  72  76
ENDBRANCH  45  69
BRANCH  57  80
ATOM     80  C   UNL A   1      44.864  27.904  34.380  1.00  0.00     0.023 A 
ATOM     81  C   UNL A   1      44.804  26.810  35.260  1.00  0.00     0.031 A 
ATOM     82  C   UNL A   1      46.037  28.680  34.364  1.00  0.00     0.131 A 
ATOM     83  C   UNL A   1      45.877  26.551  36.126  1.00  0.00     0.055 A 
ATOM     84  C   UNL A   1      47.122  28.386  35.191  1.00  0.00     0.041 A 
ATOM     85  F   UNL A   1      46.145  29.738  33.544  1.00  0.00    -0.206 F 
ATOM     86  C   UNL A   1      47.041  27.324  36.086  1.00  0.00     0.022 A 
BRANCH  83  87
ATOM     87  S   UNL A   1      45.702  25.238  37.365  1.00  0.00     0.124 S 
ATOM     88  O   UNL A   1      46.961  25.340  38.096  1.00  0.00    -0.237 OA
ATOM     89  O   UNL A   1      44.505  25.650  38.091  1.00  0.00    -0.237 OA
ATOM     90  O   UNL A   1      45.550  24.026  36.560  1.00  0.00    -0.744 OA
ENDBRANCH  83  87
ENDBRANCH  57  80
ENDBRANCH  31  32
ENDBRANCH  24  26
ENDBRANCH  23  24
ENDBRANCH  22  23
ENDBRANCH   1  22
TORSDOF 17
ENDMDL
MODEL 3
REMARK VINA RESULT:     -11.1      1.045      2.549
REMARK SMILES Cc1cccc(Cl)c1Nc1ccccc1CC(=O)OCCOC(=O)c1ccc(-c2c3nc(c(-c4cc(S(=O)(=O)[O-])ccc4F)c4ccc([nH]4)c(-c4cc(S(=O)(=O)[O-])ccc4F)c4nc(c(-c5cc(S(=O)(=O)[O-])ccc5F)c5ccc2[nH]5)C=C4)C=C3)cc1
REMARK SMILES IDX 20 1 19 2 17 3 18 4 16 5 15 6 10 7 11 8 12 9 14 10 13 11
REMARK SMILES IDX 9 12 8 14 1 15 2 16 3 17 4 18 6 19 5 20 7 21 21 22 22 23
REMARK SMILES IDX 23 24 24 25 25 26 26 27 87 28 27 29 86 30 28 31 29 32 30 33
REMARK SMILES IDX 80 34 31 35 85 36 79 37 81 38 32 39 84 40 78 41 77 42 33 44
REMARK SMILES IDX 65 45 45 46 64 47 46 48 49 49 63 50 82 51 47 52 48 53 62 55
REMARK SMILES IDX 83 56 50 57 34 58 35 59 43 60 36 61 42 62 44 63 41 64 37 65
REMARK SMILES IDX 38 66 39 67 40 68 66 69 67 70 75 71 68 72 74 73 76 74 73 75
REMARK SMILES IDX 69 76 70 77 71 78 72 79 51 80 52 81 60 82 53 83 59 84 61 85
REMARK SMILES IDX 58 86 54 87 55 88 56 89 57 90
REMARK H PARENT 9 13 81 43 49 54
REMARK Flexibility Score: inf
ROOT
ATOM      1  C   UNL A   1      31.925  28.148  27.369  1.00  0.00     0.274 C 
ENDROOT
BRANCH   1   2
ATOM      2  O   UNL A   1      31.140  27.105  26.768  1.00  0.00    -0.462 OA
BRANCH   2   3
ATOM      3  C   UNL A   1      31.800  25.935  26.557  1.00  0.00     0.310 C 
ATOM      4  O   UNL A   1      31.355  24.828  26.853  1.00  0.00    -0.252 OA
BRANCH   3   5
ATOM      5  C   UNL A   1      33.195  26.105  26.017  1.00  0.00     0.160 C 
BRANCH   5   6
ATOM      6  C   UNL A   1      33.816  24.972  25.225  1.00  0.00    -0.013 A 
ATOM      7  C   UNL A   1      33.787  24.951  23.812  1.00  0.00     0.042 A 
ATOM      8  C   UNL A   1      34.347  23.853  23.134  1.00  0.00     0.026 A 
ATOM      9  C   UNL A   1      34.986  22.825  23.828  1.00  0.00     0.002 A 
ATOM     10  C   UNL A   1      34.496  23.942  25.903  1.00  0.00     0.006 A 
ATOM     11  C   UNL A   1      35.076  22.880  25.211  1.00  0.00     0.000 A 
BRANCH   7  12
ATOM     12  N   UNL A   1      33.338  26.036  23.028  1.00  0.00    -0.354 N 
ATOM     13  H   UNL A   1      33.938  26.293  22.290  1.00  0.00     0.167 HD
BRANCH  12  14
ATOM     14  C   UNL A   1      32.157  26.813  23.140  1.00  0.00     0.060 A 
ATOM     15  C   UNL A   1      33.621  28.898  23.038  1.00  0.00     0.046 C 
ATOM     16  C   UNL A   1      32.277  28.225  23.119  1.00  0.00    -0.026 A 
ATOM     17  C   UNL A   1      31.121  29.025  23.075  1.00  0.00     0.005 A 
ATOM     18  C   UNL A   1      29.853  28.450  23.073  1.00  0.00     0.002 A 
ATOM     19  C   UNL A   1      30.858  26.253  23.175  1.00  0.00     0.064 A 
ATOM     20  C   UNL A   1      29.722  27.067  23.135  1.00  0.00     0.023 A 
ATOM     21  Cl  UNL A   1      30.573  24.552  23.346  1.00  0.00    -0.082 Cl
ENDBRANCH  12  14
ENDBRANCH   7  12
ENDBRANCH   5   6
ENDBRANCH   3   5
ENDBRANCH   2   3
ENDBRANCH   1   2
BRANCH   1  22
ATOM     22  C   UNL A   1      31.753  29.465  26.616  1.00  0.00     0.275 C 
BRANCH  22  23
ATOM     23  O   UNL A   1      33.037  30.054  26.347  1.00  0.00    -0.458 OA
BRANCH  23  24
ATOM     24  C   UNL A   1      33.309  31.199  27.012  1.00  0.00     0.338 C 
ATOM     25  O   UNL A   1      32.691  32.248  26.961  1.00  0.00    -0.246 OA
BRANCH  24  26
ATOM     26  C   UNL A   1      34.520  31.019  27.830  1.00  0.00     0.060 A 
ATOM     27  C   UNL A   1      35.444  32.058  27.978  1.00  0.00     0.016 A 
ATOM     28  C   UNL A   1      34.781  29.760  28.368  1.00  0.00     0.016 A 
ATOM     29  C   UNL A   1      36.652  31.829  28.639  1.00  0.00     0.010 A 
ATOM     30  C   UNL A   1      35.967  29.548  29.074  1.00  0.00     0.010 A 
ATOM     31  C   UNL A   1      36.923  30.573  29.197  1.00  0.00    -0.014 A 
BRANCH  31  32
ATOM     32  C   UNL A   1      38.216  30.291  29.874  1.00  0.00     0.031 A 
ATOM     33  C   UNL A   1      39.188  29.329  29.249  1.00  0.00     0.074 A 
ATOM     34  C   UNL A   1      38.494  30.853  31.065  1.00  0.00     0.049 A 
ATOM     35  N   UNL A   1      40.259  28.781  29.759  1.00  0.00    -0.248 NA
ATOM     36  C   UNL A   1      38.898  28.917  27.868  1.00  0.00     0.031 C 
ATOM     37  C   UNL A   1      37.650  31.828  31.759  1.00  0.00     0.029 A 
ATOM     38  N   UNL A   1      39.555  30.665  31.915  1.00  0.00    -0.354 N 
ATOM     39  C   UNL A   1      40.752  27.926  28.778  1.00  0.00     0.074 A 
ATOM     40  C   UNL A   1      39.847  28.019  27.650  1.00  0.00     0.031 C 
ATOM     41  C   UNL A   1      38.221  32.144  32.932  1.00  0.00     0.029 A 
ATOM     42  C   UNL A   1      39.431  31.347  33.103  1.00  0.00     0.049 A 
ATOM     43  H   UNL A   1      40.329  30.098  31.697  1.00  0.00     0.167 HD
ATOM     44  C   UNL A   1      41.854  27.135  28.820  1.00  0.00     0.034 A 
ATOM     45  C   UNL A   1      40.179  31.300  34.223  1.00  0.00     0.034 A 
ATOM     46  C   UNL A   1      42.754  27.071  29.948  1.00  0.00     0.049 A 
ATOM     47  C   UNL A   1      41.373  30.382  34.268  1.00  0.00     0.074 A 
ATOM     48  C   UNL A   1      43.917  26.332  30.085  1.00  0.00     0.029 A 
ATOM     49  N   UNL A   1      42.590  27.774  31.136  1.00  0.00    -0.354 N 
ATOM     50  N   UNL A   1      41.814  29.556  33.347  1.00  0.00    -0.248 NA
ATOM     51  C   UNL A   1      42.165  30.388  35.504  1.00  0.00     0.031 C 
ATOM     52  C   UNL A   1      44.422  26.541  31.374  1.00  0.00     0.029 A 
ATOM     53  C   UNL A   1      43.613  27.463  32.019  1.00  0.00     0.049 A 
ATOM     54  H   UNL A   1      41.855  28.400  31.324  1.00  0.00     0.167 HD
ATOM     55  C   UNL A   1      42.947  28.957  33.888  1.00  0.00     0.074 A 
ATOM     56  C   UNL A   1      43.128  29.526  35.208  1.00  0.00     0.031 C 
ATOM     57  C   UNL A   1      43.767  28.024  33.342  1.00  0.00     0.034 A 
BRANCH  44  58
ATOM     58  C   UNL A   1      42.104  26.231  27.635  1.00  0.00     0.023 A 
ATOM     59  C   UNL A   1      41.617  24.913  27.585  1.00  0.00     0.031 A 
ATOM     60  C   UNL A   1      42.877  26.688  26.554  1.00  0.00     0.131 A 
ATOM     61  C   UNL A   1      41.972  24.077  26.515  1.00  0.00     0.055 A 
ATOM     62  C   UNL A   1      43.163  25.875  25.455  1.00  0.00     0.041 A 
ATOM     63  F   UNL A   1      43.387  27.931  26.555  1.00  0.00    -0.206 F 
ATOM     64  C   UNL A   1      42.723  24.556  25.439  1.00  0.00     0.022 A 
BRANCH  61  65
ATOM     65  S   UNL A   1      41.561  22.312  26.618  1.00  0.00     0.124 S 
ATOM     66  O   UNL A   1      41.820  22.029  28.027  1.00  0.00    -0.237 OA
ATOM     67  O   UNL A   1      40.162  22.290  26.207  1.00  0.00    -0.237 OA
ATOM     68  O   UNL A   1      42.496  21.687  25.684  1.00  0.00    -0.744 OA
ENDBRANCH  61  65
ENDBRANCH  44  58
BRANCH  45  69
ATOM     69  C   UNL A   1      39.783  32.096  35.418  1.00  0.00     0.023 A 
ATOM     70  C   UNL A   1      38.909  31.573  36.382  1.00  0.00     0.031 A 
ATOM     71  C   UNL A   1      40.265  33.405  35.601  1.00  0.00     0.131 A 
ATOM     72  C   UNL A   1      38.518  32.365  37.472  1.00  0.00     0.055 A 
ATOM     73  C   UNL A   1      39.909  34.173  36.710  1.00  0.00     0.041 A 
ATOM     74  F   UNL A   1      41.107  33.950  34.708  1.00  0.00    -0.206 F 
ATOM     75  C   UNL A   1      39.023  33.656  37.649  1.00  0.00     0.022 A 
BRANCH  72  76
ATOM     76  S   UNL A   1      37.292  31.704  38.633  1.00  0.00     0.124 S 
ATOM     77  O   UNL A   1      38.020  31.755  39.896  1.00  0.00    -0.237 OA
ATOM     78  O   UNL A   1      36.193  32.652  38.488  1.00  0.00    -0.237 OA
ATOM     79  O   UNL A   1      37.026  30.362  38.120  1.00  0.00    -0.744 OA
ENDBRANCH  72  76
ENDBRANCH  45  69
BRANCH  57  80
ATOM     80  C   UNL A   1      44.956  27.597  34.167  1.00  0.00     0.023 A 
ATOM     81  C   UNL A   1      44.898  26.492  35.033  1.00  0.00     0.031 A 
ATOM     82  C   UNL A   1      46.159  28.324  34.097  1.00  0.00     0.131 A 
ATOM     83  C   UNL A   1      46.005  26.174  35.834  1.00  0.00     0.055 A 
ATOM     84  C   UNL A   1      47.274  27.971  34.858  1.00  0.00     0.041 A 
ATOM     85  F   UNL A   1      46.267  29.390  33.288  1.00  0.00    -0.206 F 
ATOM     86  C   UNL A   1      47.197  26.898  35.740  1.00  0.00     0.022 A 
BRANCH  83  87
ATOM     87  S   UNL A   1      45.842  24.848  37.062  1.00  0.00     0.124 S 
ATOM     88  O   UNL A   1      47.231  24.443  37.258  1.00  0.00    -0.237 OA
ATOM     89  O   UNL A   1      45.212  25.536  38.183  1.00  0.00    -0.237 OA
ATOM     90  O   UNL A   1      44.999  23.860  36.389  1.00  0.00    -0.744 OA
ENDBRANCH  83  87
ENDBRANCH  57  80
ENDBRANCH  31  32
ENDBRANCH  24  26
ENDBRANCH  23  24
ENDBRANCH  22  23
ENDBRANCH   1  22
TORSDOF 17
ENDMDL
