MODEL 1
REMARK VINA RESULT:     -13.8      0.000      0.000
REMARK SMILES Cc1ccccc1-c1c(Cl)ccc2c1C=C(C(=O)OCCOC(=O)c1ccc(-c3c4nc(c(-c5cc(S(=O)(=O)[O-])ccc5F)c5ccc([nH]5)c(-c5cc(S(=O)(=O)[O-])ccc5F)c5nc(c(-c6cc(S(=O)(=O)[O-])ccc6F)c6ccc3[nH]6)C=C5)C=C4)cc1)[C@@H](C(F)(F)F)O2
REMARK SMILES IDX 21 1 20 2 19 3 17 4 18 5 16 6 8 7 9 8 14 9 10 10 11 11 13 12
REMARK SMILES IDX 15 13 12 14 93 15 88 16 7 17 1 18 2 19 3 20 4 21 6 22 5 23
REMARK SMILES IDX 89 24 90 25 91 26 92 27 22 28 23 29 24 30 25 31 26 32 87 33
REMARK SMILES IDX 27 34 86 35 28 36 29 37 30 38 80 39 31 40 85 41 79 42 81 43
REMARK SMILES IDX 32 44 84 45 78 46 77 47 33 49 65 50 45 51 64 52 46 53 49 54
REMARK SMILES IDX 63 55 82 56 47 57 48 58 62 60 83 61 50 62 34 63 35 64 43 65
REMARK SMILES IDX 36 66 42 67 44 68 41 69 37 70 38 71 39 72 40 73 66 74 67 75
REMARK SMILES IDX 75 76 68 77 74 78 76 79 73 80 69 81 70 82 71 83 72 84 51 85
REMARK SMILES IDX 52 86 60 87 53 88 59 89 61 90 58 91 54 92 55 93 56 94 57 95
REMARK H PARENT 81 48 49 59
REMARK Flexibility Score: inf
ROOT
ATOM      1  C   UNL A   1      34.381  30.078  27.747  1.00  0.00     0.275 C 
ENDROOT
BRANCH   1   2
ATOM      2  C   UNL A   1      33.371  29.085  27.136  1.00  0.00     0.275 C 
BRANCH   2   3
ATOM      3  O   UNL A   1      33.844  28.355  25.979  1.00  0.00    -0.459 OA
BRANCH   3   4
ATOM      4  C   UNL A   1      32.999  28.461  24.916  1.00  0.00     0.338 C 
ATOM      5  O   UNL A   1      33.020  29.409  24.139  1.00  0.00    -0.246 OA
BRANCH   4   6
ATOM      6  C   UNL A   1      32.207  27.230  24.658  1.00  0.00     0.087 C 
ATOM      7  C   UNL A   1      33.207  23.814  25.664  1.00  0.00     0.012 A 
ATOM      8  C   UNL A   1      32.652  22.897  26.601  1.00  0.00     0.049 A 
ATOM      9  C   UNL A   1      32.377  24.907  25.267  1.00  0.00     0.027 A 
ATOM     10  Cl  UNL A   1      33.586  21.614  27.311  1.00  0.00    -0.084 Cl
ATOM     11  C   UNL A   1      31.326  22.998  27.039  1.00  0.00     0.025 A 
ATOM     12  C   UNL A   1      31.044  24.991  25.725  1.00  0.00     0.128 A 
ATOM     13  C   UNL A   1      32.926  26.098  24.601  1.00  0.00     0.028 C 
ATOM     14  C   UNL A   1      30.514  24.025  26.577  1.00  0.00     0.049 A 
ATOM     15  O   UNL A   1      30.205  26.049  25.466  1.00  0.00    -0.475 OA
ATOM     16  C   UNL A   1      30.715  27.124  24.636  1.00  0.00     0.316 C 
BRANCH   7  17
ATOM     17  C   UNL A   1      34.568  23.562  25.084  1.00  0.00    -0.013 A 
ATOM     18  C   UNL A   1      33.836  22.930  22.678  1.00  0.00     0.045 C 
ATOM     19  C   UNL A   1      34.857  23.178  23.753  1.00  0.00    -0.043 A 
ATOM     20  C   UNL A   1      36.197  22.968  23.354  1.00  0.00     0.004 A 
ATOM     21  C   UNL A   1      37.257  23.185  24.223  1.00  0.00     0.000 A 
ATOM     22  C   UNL A   1      35.676  23.753  25.946  1.00  0.00     0.009 A 
ATOM     23  C   UNL A   1      36.997  23.591  25.522  1.00  0.00     0.001 A 
ENDBRANCH   7  17
BRANCH  16  24
ATOM     24  C   UNL A   1      30.237  26.902  23.189  1.00  0.00     0.430 C 
ATOM     25  F   UNL A   1      29.077  27.551  22.932  1.00  0.00    -0.167 F 
ATOM     26  F   UNL A   1      31.148  27.354  22.292  1.00  0.00    -0.167 F 
ATOM     27  F   UNL A   1      30.024  25.593  22.902  1.00  0.00    -0.167 F 
ENDBRANCH  16  24
ENDBRANCH   4   6
ENDBRANCH   3   4
ENDBRANCH   2   3
ENDBRANCH   1   2
BRANCH   1  28
ATOM     28  O   UNL A   1      35.672  29.556  28.138  1.00  0.00    -0.458 OA
BRANCH  28  29
ATOM     29  C   UNL A   1      36.803  30.311  28.160  1.00  0.00     0.338 C 
ATOM     30  O   UNL A   1      36.762  31.529  28.357  1.00  0.00    -0.246 OA
BRANCH  29  31
ATOM     31  C   UNL A   1      38.066  29.550  28.215  1.00  0.00     0.060 A 
ATOM     32  C   UNL A   1      38.135  28.463  29.091  1.00  0.00     0.016 A 
ATOM     33  C   UNL A   1      39.067  29.768  27.273  1.00  0.00     0.016 A 
ATOM     34  C   UNL A   1      39.121  27.505  28.935  1.00  0.00     0.010 A 
ATOM     35  C   UNL A   1      39.990  28.773  27.040  1.00  0.00     0.010 A 
ATOM     36  C   UNL A   1      40.027  27.661  27.884  1.00  0.00    -0.014 A 
BRANCH  36  37
ATOM     37  C   UNL A   1      41.257  26.887  27.835  1.00  0.00     0.031 A 
ATOM     38  C   UNL A   1      41.171  25.423  27.707  1.00  0.00     0.074 A 
ATOM     39  C   UNL A   1      42.357  27.631  28.087  1.00  0.00     0.049 A 
ATOM     40  N   UNL A   1      41.511  24.558  28.602  1.00  0.00    -0.248 NA
ATOM     41  C   UNL A   1      40.562  24.819  26.517  1.00  0.00     0.031 C 
ATOM     42  C   UNL A   1      43.747  27.251  28.242  1.00  0.00     0.029 A 
ATOM     43  N   UNL A   1      42.384  28.979  28.450  1.00  0.00    -0.354 N 
ATOM     44  C   UNL A   1      41.524  23.335  27.950  1.00  0.00     0.074 A 
ATOM     45  C   UNL A   1      40.752  23.514  26.743  1.00  0.00     0.031 C 
ATOM     46  C   UNL A   1      44.339  28.182  29.025  1.00  0.00     0.029 A 
ATOM     47  C   UNL A   1      43.301  29.110  29.473  1.00  0.00     0.049 A 
ATOM     48  H   UNL A   1      41.849  29.702  28.051  1.00  0.00     0.167 HD
ATOM     49  C   UNL A   1      42.481  22.400  28.214  1.00  0.00     0.034 A 
ATOM     50  C   UNL A   1      42.918  29.334  30.769  1.00  0.00     0.034 A 
ATOM     51  C   UNL A   1      43.539  23.021  28.990  1.00  0.00     0.049 A 
ATOM     52  C   UNL A   1      43.386  28.183  31.627  1.00  0.00     0.074 A 
ATOM     53  C   UNL A   1      44.659  23.700  28.535  1.00  0.00     0.029 A 
ATOM     54  N   UNL A   1      43.344  23.392  30.311  1.00  0.00    -0.354 N 
ATOM     55  N   UNL A   1      43.341  26.928  31.265  1.00  0.00    -0.248 NA
ATOM     56  C   UNL A   1      44.043  28.397  32.910  1.00  0.00     0.031 C 
ATOM     57  C   UNL A   1      45.108  24.538  29.576  1.00  0.00     0.029 A 
ATOM     58  C   UNL A   1      44.272  24.354  30.665  1.00  0.00     0.049 A 
ATOM     59  H   UNL A   1      42.651  23.027  30.907  1.00  0.00     0.167 HD
ATOM     60  C   UNL A   1      44.059  26.188  32.179  1.00  0.00     0.074 A 
ATOM     61  C   UNL A   1      44.454  27.153  33.195  1.00  0.00     0.031 C 
ATOM     62  C   UNL A   1      44.354  24.860  32.017  1.00  0.00     0.034 A 
BRANCH  49  63
ATOM     63  C   UNL A   1      42.703  21.194  27.332  1.00  0.00     0.023 A 
ATOM     64  C   UNL A   1      43.746  21.200  26.385  1.00  0.00     0.031 A 
ATOM     65  C   UNL A   1      41.901  20.037  27.363  1.00  0.00     0.131 A 
ATOM     66  C   UNL A   1      43.893  20.163  25.450  1.00  0.00     0.055 A 
ATOM     67  C   UNL A   1      42.042  19.002  26.426  1.00  0.00     0.041 A 
ATOM     68  F   UNL A   1      40.938  19.890  28.289  1.00  0.00    -0.206 F 
ATOM     69  C   UNL A   1      43.030  19.070  25.449  1.00  0.00     0.022 A 
BRANCH  66  70
ATOM     70  S   UNL A   1      45.211  20.293  24.211  1.00  0.00     0.124 S 
ATOM     71  O   UNL A   1      46.370  20.636  25.030  1.00  0.00    -0.237 OA
ATOM     72  O   UNL A   1      45.213  18.962  23.615  1.00  0.00    -0.237 OA
ATOM     73  O   UNL A   1      44.744  21.363  23.330  1.00  0.00    -0.744 OA
ENDBRANCH  66  70
ENDBRANCH  49  63
BRANCH  50  74
ATOM     74  C   UNL A   1      41.662  30.120  31.028  1.00  0.00     0.023 A 
ATOM     75  C   UNL A   1      40.521  29.431  31.496  1.00  0.00     0.031 A 
ATOM     76  C   UNL A   1      41.576  31.520  30.996  1.00  0.00     0.131 A 
ATOM     77  C   UNL A   1      39.429  30.113  32.055  1.00  0.00     0.055 A 
ATOM     78  C   UNL A   1      40.450  32.206  31.493  1.00  0.00     0.041 A 
ATOM     79  F   UNL A   1      42.599  32.263  30.550  1.00  0.00    -0.206 F 
ATOM     80  C   UNL A   1      39.384  31.504  32.061  1.00  0.00     0.022 A 
BRANCH  77  81
ATOM     81  S   UNL A   1      38.214  29.135  32.995  1.00  0.00     0.124 S 
ATOM     82  O   UNL A   1      38.740  27.782  32.862  1.00  0.00    -0.237 OA
ATOM     83  O   UNL A   1      38.306  29.731  34.327  1.00  0.00    -0.237 OA
ATOM     84  O   UNL A   1      36.950  29.393  32.312  1.00  0.00    -0.744 OA
ENDBRANCH  77  81
ENDBRANCH  50  74
BRANCH  62  85
ATOM     85  C   UNL A   1      44.946  23.949  33.067  1.00  0.00     0.023 A 
ATOM     86  C   UNL A   1      46.251  24.101  33.538  1.00  0.00     0.031 A 
ATOM     87  C   UNL A   1      44.187  22.924  33.687  1.00  0.00     0.131 A 
ATOM     88  C   UNL A   1      46.800  23.195  34.455  1.00  0.00     0.055 A 
ATOM     89  C   UNL A   1      44.698  22.097  34.689  1.00  0.00     0.041 A 
ATOM     90  F   UNL A   1      42.910  22.676  33.357  1.00  0.00    -0.206 F 
ATOM     91  C   UNL A   1      46.026  22.211  35.061  1.00  0.00     0.022 A 
BRANCH  88  92
ATOM     92  S   UNL A   1      48.583  23.278  34.737  1.00  0.00     0.124 S 
ATOM     93  O   UNL A   1      48.990  24.283  33.758  1.00  0.00    -0.237 OA
ATOM     94  O   UNL A   1      48.662  23.693  36.134  1.00  0.00    -0.237 OA
ATOM     95  O   UNL A   1      49.038  21.918  34.461  1.00  0.00    -0.744 OA
ENDBRANCH  88  92
ENDBRANCH  62  85
ENDBRANCH  36  37
ENDBRANCH  29  31
ENDBRANCH  28  29
ENDBRANCH   1  28
TORSDOF 16
ENDMDL
MODEL 2
REMARK VINA RESULT:     -13.6      1.382      1.665
REMARK SMILES Cc1ccccc1-c1c(Cl)ccc2c1C=C(C(=O)OCCOC(=O)c1ccc(-c3c4nc(c(-c5cc(S(=O)(=O)[O-])ccc5F)c5ccc([nH]5)c(-c5cc(S(=O)(=O)[O-])ccc5F)c5nc(c(-c6cc(S(=O)(=O)[O-])ccc6F)c6ccc3[nH]6)C=C5)C=C4)cc1)[C@@H](C(F)(F)F)O2
REMARK SMILES IDX 21 1 20 2 19 3 17 4 18 5 16 6 8 7 9 8 14 9 10 10 11 11 13 12
REMARK SMILES IDX 15 13 12 14 93 15 88 16 7 17 1 18 2 19 3 20 4 21 6 22 5 23
REMARK SMILES IDX 89 24 90 25 91 26 92 27 22 28 23 29 24 30 25 31 26 32 87 33
REMARK SMILES IDX 27 34 86 35 28 36 29 37 30 38 80 39 31 40 85 41 79 42 81 43
REMARK SMILES IDX 32 44 84 45 78 46 77 47 33 49 65 50 45 51 64 52 46 53 49 54
REMARK SMILES IDX 63 55 82 56 47 57 48 58 62 60 83 61 50 62 34 63 35 64 43 65
REMARK SMILES IDX 36 66 42 67 44 68 41 69 37 70 38 71 39 72 40 73 66 74 67 75
REMARK SMILES IDX 75 76 68 77 74 78 76 79 73 80 69 81 70 82 71 83 72 84 51 85
REMARK SMILES IDX 52 86 60 87 53 88 59 89 61 90 58 91 54 92 55 93 56 94 57 95
REMARK H PARENT 81 48 49 59
REMARK Flexibility Score: inf
ROOT
ATOM      1  C   UNL A   1      33.906  30.870  27.544  1.00  0.00     0.275 C 
ENDROOT
BRANCH   1   2
ATOM      2  C   UNL A   1      32.721  30.118  26.904  1.00  0.00     0.275 C 
BRANCH   2   3
ATOM      3  O   UNL A   1      32.976  28.735  26.562  1.00  0.00    -0.459 OA
BRANCH   3   4
ATOM      4  C   UNL A   1      32.875  28.503  25.225  1.00  0.00     0.338 C 
ATOM      5  O   UNL A   1      33.516  29.129  24.389  1.00  0.00    -0.246 OA
BRANCH   4   6
ATOM      6  C   UNL A   1      32.092  27.285  24.888  1.00  0.00     0.087 C 
ATOM      7  C   UNL A   1      33.111  23.820  25.685  1.00  0.00     0.012 A 
ATOM      8  C   UNL A   1      32.559  22.843  26.561  1.00  0.00     0.049 A 
ATOM      9  C   UNL A   1      32.275  24.930  25.353  1.00  0.00     0.027 A 
ATOM     10  Cl  UNL A   1      33.499  21.525  27.194  1.00  0.00    -0.084 Cl
ATOM     11  C   UNL A   1      31.230  22.908  26.999  1.00  0.00     0.025 A 
ATOM     12  C   UNL A   1      30.940  24.977  25.810  1.00  0.00     0.128 A 
ATOM     13  C   UNL A   1      32.819  26.163  24.764  1.00  0.00     0.028 C 
ATOM     14  C   UNL A   1      30.413  23.957  26.598  1.00  0.00     0.049 A 
ATOM     15  O   UNL A   1      30.095  26.043  25.614  1.00  0.00    -0.475 OA
ATOM     16  C   UNL A   1      30.601  27.171  24.854  1.00  0.00     0.316 C 
BRANCH   7  17
ATOM     17  C   UNL A   1      34.476  23.612  25.095  1.00  0.00    -0.013 A 
ATOM     18  C   UNL A   1      33.748  22.921  22.704  1.00  0.00     0.045 C 
ATOM     19  C   UNL A   1      34.768  23.222  23.767  1.00  0.00    -0.043 A 
ATOM     20  C   UNL A   1      36.111  23.059  23.359  1.00  0.00     0.004 A 
ATOM     21  C   UNL A   1      37.170  23.329  24.215  1.00  0.00     0.000 A 
ATOM     22  C   UNL A   1      35.583  23.858  25.945  1.00  0.00     0.009 A 
ATOM     23  C   UNL A   1      36.905  23.741  25.511  1.00  0.00     0.001 A 
ENDBRANCH   7  17
BRANCH  16  24
ATOM     24  C   UNL A   1      30.129  27.035  23.393  1.00  0.00     0.430 C 
ATOM     25  F   UNL A   1      28.871  27.506  23.220  1.00  0.00    -0.167 F 
ATOM     26  F   UNL A   1      30.930  27.732  22.548  1.00  0.00    -0.167 F 
ATOM     27  F   UNL A   1      30.129  25.750  22.959  1.00  0.00    -0.167 F 
ENDBRANCH  16  24
ENDBRANCH   4   6
ENDBRANCH   3   4
ENDBRANCH   2   3
ENDBRANCH   1   2
BRANCH   1  28
ATOM     28  O   UNL A   1      34.981  30.071  28.090  1.00  0.00    -0.458 OA
BRANCH  28  29
ATOM     29  C   UNL A   1      35.950  30.581  28.898  1.00  0.00     0.338 C 
ATOM     30  O   UNL A   1      35.675  31.333  29.838  1.00  0.00    -0.246 OA
BRANCH  29  31
ATOM     31  C   UNL A   1      37.281  29.963  28.749  1.00  0.00     0.060 A 
ATOM     32  C   UNL A   1      37.682  29.036  29.715  1.00  0.00     0.016 A 
ATOM     33  C   UNL A   1      38.014  30.131  27.578  1.00  0.00     0.016 A 
ATOM     34  C   UNL A   1      38.726  28.166  29.454  1.00  0.00     0.010 A 
ATOM     35  C   UNL A   1      38.985  29.207  27.263  1.00  0.00     0.010 A 
ATOM     36  C   UNL A   1      39.350  28.246  28.208  1.00  0.00    -0.014 A 
BRANCH  36  37
ATOM     37  C   UNL A   1      40.630  27.597  27.969  1.00  0.00     0.031 A 
ATOM     38  C   UNL A   1      40.682  26.127  27.913  1.00  0.00     0.074 A 
ATOM     39  C   UNL A   1      41.670  28.461  27.992  1.00  0.00     0.049 A 
ATOM     40  N   UNL A   1      41.264  25.352  28.765  1.00  0.00    -0.248 NA
ATOM     41  C   UNL A   1      39.944  25.399  26.875  1.00  0.00     0.031 C 
ATOM     42  C   UNL A   1      43.098  28.230  27.910  1.00  0.00     0.029 A 
ATOM     43  N   UNL A   1      41.613  29.823  28.293  1.00  0.00    -0.354 N 
ATOM     44  C   UNL A   1      41.295  24.102  28.167  1.00  0.00     0.074 A 
ATOM     45  C   UNL A   1      40.310  24.135  27.112  1.00  0.00     0.031 C 
ATOM     46  C   UNL A   1      43.713  29.258  28.539  1.00  0.00     0.029 A 
ATOM     47  C   UNL A   1      42.675  30.101  29.130  1.00  0.00     0.049 A 
ATOM     48  H   UNL A   1      40.942  30.465  27.969  1.00  0.00     0.167 HD
ATOM     49  C   UNL A   1      42.380  23.284  28.291  1.00  0.00     0.034 A 
ATOM     50  C   UNL A   1      42.501  30.358  30.464  1.00  0.00     0.034 A 
ATOM     51  C   UNL A   1      43.482  24.049  28.841  1.00  0.00     0.049 A 
ATOM     52  C   UNL A   1      43.233  29.311  31.268  1.00  0.00     0.074 A 
ATOM     53  C   UNL A   1      44.426  24.810  28.168  1.00  0.00     0.029 A 
ATOM     54  N   UNL A   1      43.481  24.473  30.161  1.00  0.00    -0.354 N 
ATOM     55  N   UNL A   1      43.262  28.038  30.967  1.00  0.00    -0.248 NA
ATOM     56  C   UNL A   1      44.076  29.660  32.404  1.00  0.00     0.031 C 
ATOM     57  C   UNL A   1      44.956  25.745  29.080  1.00  0.00     0.029 A 
ATOM     58  C   UNL A   1      44.347  25.541  30.307  1.00  0.00     0.049 A 
ATOM     59  H   UNL A   1      42.946  24.074  30.885  1.00  0.00     0.167 HD
ATOM     60  C   UNL A   1      44.204  27.426  31.765  1.00  0.00     0.074 A 
ATOM     61  C   UNL A   1      44.662  28.481  32.657  1.00  0.00     0.031 C 
ATOM     62  C   UNL A   1      44.608  26.128  31.602  1.00  0.00     0.034 A 
BRANCH  49  63
ATOM     63  C   UNL A   1      42.573  22.058  27.430  1.00  0.00     0.023 A 
ATOM     64  C   UNL A   1      43.593  22.039  26.458  1.00  0.00     0.031 A 
ATOM     65  C   UNL A   1      41.767  20.907  27.504  1.00  0.00     0.131 A 
ATOM     66  C   UNL A   1      43.712  20.981  25.542  1.00  0.00     0.055 A 
ATOM     67  C   UNL A   1      41.880  19.851  26.586  1.00  0.00     0.041 A 
ATOM     68  F   UNL A   1      40.826  20.784  28.456  1.00  0.00    -0.206 F 
ATOM     69  C   UNL A   1      42.844  19.894  25.585  1.00  0.00     0.022 A 
BRANCH  66  70
ATOM     70  S   UNL A   1      45.001  21.078  24.268  1.00  0.00     0.124 S 
ATOM     71  O   UNL A   1      46.209  21.260  25.068  1.00  0.00    -0.237 OA
ATOM     72  O   UNL A   1      44.864  19.796  23.587  1.00  0.00    -0.237 OA
ATOM     73  O   UNL A   1      44.608  22.243  23.476  1.00  0.00    -0.744 OA
ENDBRANCH  66  70
ENDBRANCH  49  63
BRANCH  50  74
ATOM     74  C   UNL A   1      41.232  31.028  30.914  1.00  0.00     0.023 A 
ATOM     75  C   UNL A   1      40.389  30.339  31.815  1.00  0.00     0.031 A 
ATOM     76  C   UNL A   1      40.890  32.360  30.635  1.00  0.00     0.131 A 
ATOM     77  C   UNL A   1      39.370  31.000  32.520  1.00  0.00     0.055 A 
ATOM     78  C   UNL A   1      39.823  33.006  31.290  1.00  0.00     0.041 A 
ATOM     79  F   UNL A   1      41.616  33.093  29.778  1.00  0.00    -0.206 F 
ATOM     80  C   UNL A   1      39.079  32.337  32.266  1.00  0.00     0.022 A 
BRANCH  77  81
ATOM     81  S   UNL A   1      38.629  30.136  33.941  1.00  0.00     0.124 S 
ATOM     82  O   UNL A   1      37.798  31.177  34.533  1.00  0.00    -0.237 OA
ATOM     83  O   UNL A   1      37.915  29.037  33.293  1.00  0.00    -0.237 OA
ATOM     84  O   UNL A   1      39.778  29.715  34.736  1.00  0.00    -0.744 OA
ENDBRANCH  77  81
ENDBRANCH  50  74
BRANCH  62  85
ATOM     85  C   UNL A   1      45.468  25.341  32.563  1.00  0.00     0.023 A 
ATOM     86  C   UNL A   1      44.961  24.294  33.335  1.00  0.00     0.031 A 
ATOM     87  C   UNL A   1      46.862  25.576  32.689  1.00  0.00     0.131 A 
ATOM     88  C   UNL A   1      45.764  23.632  34.274  1.00  0.00     0.055 A 
ATOM     89  C   UNL A   1      47.686  24.834  33.538  1.00  0.00     0.041 A 
ATOM     90  F   UNL A   1      47.496  26.531  31.992  1.00  0.00    -0.206 F 
ATOM     91  C   UNL A   1      47.131  23.871  34.363  1.00  0.00     0.022 A 
BRANCH  88  92
ATOM     92  S   UNL A   1      44.934  22.539  35.449  1.00  0.00     0.124 S 
ATOM     93  O   UNL A   1      45.458  23.023  36.723  1.00  0.00    -0.237 OA
ATOM     94  O   UNL A   1      43.524  22.822  35.200  1.00  0.00    -0.237 OA
ATOM     95  O   UNL A   1      45.383  21.206  35.054  1.00  0.00    -0.744 OA
ENDBRANCH  88  92
ENDBRANCH  62  85
ENDBRANCH  36  37
ENDBRANCH  29  31
ENDBRANCH  28  29
ENDBRANCH   1  28
TORSDOF 16
ENDMDL
MODEL 3
REMARK VINA RESULT:     -13.2      1.560      2.090
REMARK SMILES Cc1ccccc1-c1c(Cl)ccc2c1C=C(C(=O)OCCOC(=O)c1ccc(-c3c4nc(c(-c5cc(S(=O)(=O)[O-])ccc5F)c5ccc([nH]5)c(-c5cc(S(=O)(=O)[O-])ccc5F)c5nc(c(-c6cc(S(=O)(=O)[O-])ccc6F)c6ccc3[nH]6)C=C5)C=C4)cc1)[C@@H](C(F)(F)F)O2
REMARK SMILES IDX 21 1 20 2 19 3 17 4 18 5 16 6 8 7 9 8 14 9 10 10 11 11 13 12
REMARK SMILES IDX 15 13 12 14 93 15 88 16 7 17 1 18 2 19 3 20 4 21 6 22 5 23
REMARK SMILES IDX 89 24 90 25 91 26 92 27 22 28 23 29 24 30 25 31 26 32 87 33
REMARK SMILES IDX 27 34 86 35 28 36 29 37 30 38 80 39 31 40 85 41 79 42 81 43
REMARK SMILES IDX 32 44 84 45 78 46 77 47 33 49 65 50 45 51 64 52 46 53 49 54
REMARK SMILES IDX 63 55 82 56 47 57 48 58 62 60 83 61 50 62 34 63 35 64 43 65
REMARK SMILES IDX 36 66 42 67 44 68 41 69 37 70 38 71 39 72 40 73 66 74 67 75
REMARK SMILES IDX 75 76 68 77 74 78 76 79 73 80 69 81 70 82 71 83 72 84 51 85
REMARK SMILES IDX 52 86 60 87 53 88 59 89 61 90 58 91 54 92 55 93 56 94 57 95
REMARK H PARENT 81 48 49 59
REMARK Flexibility Score: inf
ROOT
ATOM      1  C   UNL A   1      34.182  30.634  27.716  1.00  0.00     0.275 C 
ENDROOT
BRANCH   1   2
ATOM      2  C   UNL A   1      32.969  29.783  27.288  1.00  0.00     0.275 C 
BRANCH   2   3
ATOM      3  O   UNL A   1      33.195  28.353  27.255  1.00  0.00    -0.459 OA
BRANCH   3   4
ATOM      4  C   UNL A   1      32.062  27.654  26.972  1.00  0.00     0.338 C 
ATOM      5  O   UNL A   1      31.121  27.565  27.753  1.00  0.00    -0.246 OA
BRANCH   4   6
ATOM      6  C   UNL A   1      31.978  27.199  25.560  1.00  0.00     0.087 C 
ATOM      7  C   UNL A   1      32.963  23.846  24.348  1.00  0.00     0.012 A 
ATOM      8  C   UNL A   1      32.206  22.772  23.800  1.00  0.00     0.049 A 
ATOM      9  C   UNL A   1      32.326  25.125  24.389  1.00  0.00     0.027 A 
ATOM     10  Cl  UNL A   1      32.769  21.128  23.830  1.00  0.00    -0.084 Cl
ATOM     11  C   UNL A   1      30.940  22.972  23.235  1.00  0.00     0.025 A 
ATOM     12  C   UNL A   1      31.047  25.301  23.818  1.00  0.00     0.128 A 
ATOM     13  C   UNL A   1      32.834  26.219  25.230  1.00  0.00     0.028 C 
ATOM     14  C   UNL A   1      30.375  24.240  23.216  1.00  0.00     0.049 A 
ATOM     15  O   UNL A   1      30.325  26.469  23.889  1.00  0.00    -0.475 OA
ATOM     16  C   UNL A   1      30.939  27.599  24.560  1.00  0.00     0.316 C 
BRANCH   7  17
ATOM     17  C   UNL A   1      34.385  23.621  24.773  1.00  0.00    -0.013 A 
ATOM     18  C   UNL A   1      33.944  23.035  27.260  1.00  0.00     0.045 C 
ATOM     19  C   UNL A   1      34.829  23.250  26.064  1.00  0.00    -0.043 A 
ATOM     20  C   UNL A   1      36.210  23.083  26.314  1.00  0.00     0.004 A 
ATOM     21  C   UNL A   1      37.154  23.217  25.305  1.00  0.00     0.000 A 
ATOM     22  C   UNL A   1      35.380  23.768  23.774  1.00  0.00     0.009 A 
ATOM     23  C   UNL A   1      36.736  23.549  24.026  1.00  0.00     0.001 A 
ENDBRANCH   7  17
BRANCH  16  24
ATOM     24  C   UNL A   1      31.574  28.519  23.500  1.00  0.00     0.430 C 
ATOM     25  F   UNL A   1      30.669  29.367  22.956  1.00  0.00    -0.167 F 
ATOM     26  F   UNL A   1      32.559  29.284  24.034  1.00  0.00    -0.167 F 
ATOM     27  F   UNL A   1      32.130  27.830  22.472  1.00  0.00    -0.167 F 
ENDBRANCH  16  24
ENDBRANCH   4   6
ENDBRANCH   3   4
ENDBRANCH   2   3
ENDBRANCH   1   2
BRANCH   1  28
ATOM     28  O   UNL A   1      35.426  29.938  27.965  1.00  0.00    -0.458 OA
BRANCH  28  29
ATOM     29  C   UNL A   1      36.315  30.324  28.919  1.00  0.00     0.338 C 
ATOM     30  O   UNL A   1      35.966  31.008  29.886  1.00  0.00    -0.246 OA
BRANCH  29  31
ATOM     31  C   UNL A   1      37.625  29.649  28.866  1.00  0.00     0.060 A 
ATOM     32  C   UNL A   1      37.851  28.592  29.752  1.00  0.00     0.016 A 
ATOM     33  C   UNL A   1      38.515  29.908  27.828  1.00  0.00     0.016 A 
ATOM     34  C   UNL A   1      38.881  27.697  29.521  1.00  0.00     0.010 A 
ATOM     35  C   UNL A   1      39.478  28.971  27.527  1.00  0.00     0.010 A 
ATOM     36  C   UNL A   1      39.670  27.885  28.384  1.00  0.00    -0.014 A 
BRANCH  36  37
ATOM     37  C   UNL A   1      40.940  27.193  28.232  1.00  0.00     0.031 A 
ATOM     38  C   UNL A   1      40.935  25.734  28.034  1.00  0.00     0.074 A 
ATOM     39  C   UNL A   1      42.006  27.992  28.464  1.00  0.00     0.049 A 
ATOM     40  N   UNL A   1      41.375  24.851  28.865  1.00  0.00    -0.248 NA
ATOM     41  C   UNL A   1      40.299  25.151  26.848  1.00  0.00     0.031 C 
ATOM     42  C   UNL A   1      43.422  27.692  28.527  1.00  0.00     0.029 A 
ATOM     43  N   UNL A   1      41.972  29.320  28.894  1.00  0.00    -0.354 N 
ATOM     44  C   UNL A   1      41.425  23.664  28.151  1.00  0.00     0.074 A 
ATOM     45  C   UNL A   1      40.578  23.851  26.997  1.00  0.00     0.031 C 
ATOM     46  C   UNL A   1      44.000  28.620  29.326  1.00  0.00     0.029 A 
ATOM     47  C   UNL A   1      42.934  29.459  29.874  1.00  0.00     0.049 A 
ATOM     48  H   UNL A   1      41.373  30.026  28.561  1.00  0.00     0.167 HD
ATOM     49  C   UNL A   1      42.450  22.779  28.317  1.00  0.00     0.034 A 
ATOM     50  C   UNL A   1      42.610  29.596  31.197  1.00  0.00     0.034 A 
ATOM     51  C   UNL A   1      43.509  23.427  29.068  1.00  0.00     0.049 A 
ATOM     52  C   UNL A   1      43.193  28.437  31.970  1.00  0.00     0.074 A 
ATOM     53  C   UNL A   1      44.560  24.195  28.590  1.00  0.00     0.029 A 
ATOM     54  N   UNL A   1      43.366  23.721  30.415  1.00  0.00    -0.354 N 
ATOM     55  N   UNL A   1      43.203  27.200  31.548  1.00  0.00    -0.248 NA
ATOM     56  C   UNL A   1      43.905  28.630  33.227  1.00  0.00     0.031 C 
ATOM     57  C   UNL A   1      45.015  25.009  29.649  1.00  0.00     0.029 A 
ATOM     58  C   UNL A   1      44.253  24.721  30.769  1.00  0.00     0.049 A 
ATOM     59  H   UNL A   1      42.730  23.285  31.027  1.00  0.00     0.167 HD
ATOM     60  C   UNL A   1      44.014  26.463  32.384  1.00  0.00     0.074 A 
ATOM     61  C   UNL A   1      44.406  27.402  33.426  1.00  0.00     0.031 C 
ATOM     62  C   UNL A   1      44.379  25.167  32.138  1.00  0.00     0.034 A 
BRANCH  49  63
ATOM     63  C   UNL A   1      42.694  21.633  27.365  1.00  0.00     0.023 A 
ATOM     64  C   UNL A   1      43.748  21.709  26.432  1.00  0.00     0.031 A 
ATOM     65  C   UNL A   1      41.905  20.468  27.314  1.00  0.00     0.131 A 
ATOM     66  C   UNL A   1      43.917  20.733  25.437  1.00  0.00     0.055 A 
ATOM     67  C   UNL A   1      42.068  19.495  26.316  1.00  0.00     0.041 A 
ATOM     68  F   UNL A   1      40.933  20.253  28.217  1.00  0.00    -0.206 F 
ATOM     69  C   UNL A   1      43.066  19.634  25.357  1.00  0.00     0.022 A 
BRANCH  66  70
ATOM     70  S   UNL A   1      45.248  20.954  24.223  1.00  0.00     0.124 S 
ATOM     71  O   UNL A   1      44.634  21.859  23.256  1.00  0.00    -0.237 OA
ATOM     72  O   UNL A   1      46.322  21.512  25.037  1.00  0.00    -0.237 OA
ATOM     73  O   UNL A   1      45.487  19.598  23.731  1.00  0.00    -0.744 OA
ENDBRANCH  66  70
ENDBRANCH  49  63
BRANCH  50  74
ATOM     74  C   UNL A   1      41.326  30.288  31.561  1.00  0.00     0.023 A 
ATOM     75  C   UNL A   1      41.132  31.619  31.128  1.00  0.00     0.031 A 
ATOM     76  C   UNL A   1      40.225  29.663  32.166  1.00  0.00     0.131 A 
ATOM     77  C   UNL A   1      39.863  32.220  31.146  1.00  0.00     0.055 A 
ATOM     78  C   UNL A   1      38.967  30.292  32.250  1.00  0.00     0.041 A 
ATOM     79  F   UNL A   1      40.315  28.407  32.629  1.00  0.00    -0.206 F 
ATOM     80  C   UNL A   1      38.771  31.563  31.705  1.00  0.00     0.022 A 
BRANCH  77  81
ATOM     81  S   UNL A   1      39.642  33.756  30.195  1.00  0.00     0.124 S 
ATOM     82  O   UNL A   1      40.991  34.007  29.700  1.00  0.00    -0.237 OA
ATOM     83  O   UNL A   1      38.656  33.357  29.192  1.00  0.00    -0.237 OA
ATOM     84  O   UNL A   1      39.141  34.711  31.178  1.00  0.00    -0.744 OA
ENDBRANCH  77  81
ENDBRANCH  50  74
BRANCH  62  85
ATOM     85  C   UNL A   1      45.081  24.245  33.108  1.00  0.00     0.023 A 
ATOM     86  C   UNL A   1      46.398  24.457  33.520  1.00  0.00     0.031 A 
ATOM     87  C   UNL A   1      44.420  23.144  33.712  1.00  0.00     0.131 A 
ATOM     88  C   UNL A   1      47.049  23.544  34.360  1.00  0.00     0.055 A 
ATOM     89  C   UNL A   1      45.034  22.305  34.643  1.00  0.00     0.041 A 
ATOM     90  F   UNL A   1      43.145  22.833  33.436  1.00  0.00    -0.206 F 
ATOM     91  C   UNL A   1      46.371  22.484  34.952  1.00  0.00     0.022 A 
BRANCH  88  92
ATOM     92  S   UNL A   1      48.837  23.727  34.554  1.00  0.00     0.124 S 
ATOM     93  O   UNL A   1      49.183  24.510  33.371  1.00  0.00    -0.237 OA
ATOM     94  O   UNL A   1      48.944  24.430  35.829  1.00  0.00    -0.237 OA
ATOM     95  O   UNL A   1      49.324  22.350  34.556  1.00  0.00    -0.744 OA
ENDBRANCH  88  92
ENDBRANCH  62  85
ENDBRANCH  36  37
ENDBRANCH  29  31
ENDBRANCH  28  29
ENDBRANCH   1  28
TORSDOF 16
ENDMDL
