MODEL 1
REMARK VINA RESULT:     -11.7      0.000      0.000
REMARK SMILES Cn1ccc(NC(=O)[C@@H]2CCCC[C@@H]2C(=O)OCCOC(=O)c2ccc(-c3c4nc(c(-c5cc(S(=O)(=O)[O-])ccc5F)c5ccc([nH]5)c(-c5cc(S(=O)(=O)[O-])ccc5F)c5nc(c(-c6cc(S(=O)(=O)[O-])ccc6F)c6ccc3[nH]6)C=C5)C=C4)cc2)n1
REMARK SMILES IDX 19 1 18 2 17 3 15 4 16 5 14 6 9 7 10 8 11 9 13 10 12 11 7 12
REMARK SMILES IDX 6 13 8 15 5 16 1 17 2 18 3 19 86 20 4 21 20 22 21 23 22 24
REMARK SMILES IDX 23 25 24 26 85 27 25 28 84 29 26 30 27 31 28 32 78 33 29 34
REMARK SMILES IDX 83 35 77 36 79 37 30 38 82 39 76 40 75 41 31 43 63 44 43 45
REMARK SMILES IDX 62 46 44 47 47 48 61 49 80 50 45 51 46 52 60 54 81 55 48 56
REMARK SMILES IDX 32 57 33 58 41 59 34 60 40 61 42 62 39 63 35 64 36 65 37 66
REMARK SMILES IDX 38 67 64 68 65 69 73 70 66 71 72 72 74 73 71 74 67 75 68 76
REMARK SMILES IDX 69 77 70 78 49 79 50 80 58 81 51 82 57 83 59 84 56 85 52 86
REMARK SMILES IDX 53 87 54 88 55 89
REMARK H PARENT 6 14 79 42 47 53
REMARK Flexibility Score: inf
ROOT
ATOM      1  C   UNL A   1      35.869  21.373  25.573  1.00  0.00     0.275 C 
ENDROOT
BRANCH   1   2
ATOM      2  C   UNL A   1      35.048  22.595  25.966  1.00  0.00     0.274 C 
BRANCH   2   3
ATOM      3  O   UNL A   1      35.150  23.619  24.955  1.00  0.00    -0.462 OA
BRANCH   3   4
ATOM      4  C   UNL A   1      34.273  24.646  25.054  1.00  0.00     0.309 C 
ATOM      5  O   UNL A   1      34.419  25.606  25.804  1.00  0.00    -0.252 OA
BRANCH   4   6
ATOM      6  C   UNL A   1      33.037  24.492  24.180  1.00  0.00     0.111 C 
ATOM      7  C   UNL A   1      31.718  24.030  24.848  1.00  0.00     0.093 C 
ATOM      8  C   UNL A   1      31.609  22.488  24.819  1.00  0.00     0.014 C 
ATOM      9  C   UNL A   1      31.784  21.915  23.418  1.00  0.00     0.001 C 
ATOM     10  C   UNL A   1      33.321  23.804  22.837  1.00  0.00     0.016 C 
ATOM     11  C   UNL A   1      33.141  22.297  22.857  1.00  0.00     0.001 C 
BRANCH   7  12
ATOM     12  C   UNL A   1      31.472  24.528  26.288  1.00  0.00     0.229 C 
ATOM     13  N   UNL A   1      31.235  25.833  26.594  1.00  0.00    -0.309 N 
ATOM     14  H   UNL A   1      31.179  26.029  27.557  1.00  0.00     0.171 HD
ATOM     15  O   UNL A   1      31.497  23.749  27.250  1.00  0.00    -0.274 OA
BRANCH  13  16
ATOM     16  C   UNL A   1      31.065  26.919  25.776  1.00  0.00     0.154 A 
ATOM     17  C   UNL A   1      30.086  28.255  22.735  1.00  0.00     0.173 C 
ATOM     18  N   UNL A   1      30.563  28.082  24.087  1.00  0.00    -0.274 N 
ATOM     19  C   UNL A   1      31.492  28.834  24.743  1.00  0.00     0.110 A 
ATOM     20  N   UNL A   1      30.189  26.996  24.778  1.00  0.00    -0.155 NA
ATOM     21  C   UNL A   1      31.819  28.112  25.869  1.00  0.00     0.068 A 
ENDBRANCH  13  16
ENDBRANCH   7  12
ENDBRANCH   4   6
ENDBRANCH   3   4
ENDBRANCH   2   3
ENDBRANCH   1   2
BRANCH   1  22
ATOM     22  O   UNL A   1      37.100  21.819  24.984  1.00  0.00    -0.458 OA
BRANCH  22  23
ATOM     23  C   UNL A   1      38.232  21.400  25.586  1.00  0.00     0.338 C 
ATOM     24  O   UNL A   1      38.687  20.260  25.568  1.00  0.00    -0.246 OA
BRANCH  23  25
ATOM     25  C   UNL A   1      38.901  22.532  26.265  1.00  0.00     0.060 A 
ATOM     26  C   UNL A   1      38.456  23.842  26.089  1.00  0.00     0.016 A 
ATOM     27  C   UNL A   1      40.067  22.298  26.996  1.00  0.00     0.016 A 
ATOM     28  C   UNL A   1      39.230  24.914  26.536  1.00  0.00     0.010 A 
ATOM     29  C   UNL A   1      40.774  23.372  27.547  1.00  0.00     0.010 A 
ATOM     30  C   UNL A   1      40.389  24.701  27.293  1.00  0.00    -0.014 A 
BRANCH  30  31
ATOM     31  C   UNL A   1      41.220  25.840  27.790  1.00  0.00     0.031 A 
ATOM     32  C   UNL A   1      40.600  26.896  28.674  1.00  0.00     0.074 A 
ATOM     33  C   UNL A   1      42.521  25.958  27.450  1.00  0.00     0.049 A 
ATOM     34  N   UNL A   1      41.021  28.107  28.941  1.00  0.00    -0.248 NA
ATOM     35  C   UNL A   1      39.323  26.551  29.316  1.00  0.00     0.031 C 
ATOM     36  C   UNL A   1      43.289  24.995  26.658  1.00  0.00     0.029 A 
ATOM     37  N   UNL A   1      43.432  26.951  27.726  1.00  0.00    -0.354 N 
ATOM     38  C   UNL A   1      40.018  28.700  29.704  1.00  0.00     0.074 A 
ATOM     39  C   UNL A   1      38.977  27.705  29.871  1.00  0.00     0.031 C 
ATOM     40  C   UNL A   1      44.557  25.419  26.550  1.00  0.00     0.029 A 
ATOM     41  C   UNL A   1      44.665  26.742  27.150  1.00  0.00     0.049 A 
ATOM     42  H   UNL A   1      43.223  27.737  28.282  1.00  0.00     0.167 HD
ATOM     43  C   UNL A   1      39.968  29.962  30.199  1.00  0.00     0.034 A 
ATOM     44  C   UNL A   1      45.742  27.544  27.044  1.00  0.00     0.034 A 
ATOM     45  C   UNL A   1      41.051  30.912  30.091  1.00  0.00     0.049 A 
ATOM     46  C   UNL A   1      45.667  28.942  27.594  1.00  0.00     0.074 A 
ATOM     47  C   UNL A   1      41.115  32.209  30.573  1.00  0.00     0.029 A 
ATOM     48  N   UNL A   1      42.271  30.660  29.476  1.00  0.00    -0.354 N 
ATOM     49  N   UNL A   1      44.665  29.538  28.197  1.00  0.00    -0.248 NA
ATOM     50  C   UNL A   1      46.858  29.783  27.422  1.00  0.00     0.031 C 
ATOM     51  C   UNL A   1      42.353  32.754  30.212  1.00  0.00     0.029 A 
ATOM     52  C   UNL A   1      43.087  31.778  29.557  1.00  0.00     0.049 A 
ATOM     53  H   UNL A   1      42.519  29.811  29.046  1.00  0.00     0.167 HD
ATOM     54  C   UNL A   1      45.104  30.829  28.470  1.00  0.00     0.074 A 
ATOM     55  C   UNL A   1      46.471  30.913  27.996  1.00  0.00     0.031 C 
ATOM     56  C   UNL A   1      44.436  31.855  29.053  1.00  0.00     0.034 A 
BRANCH  43  57
ATOM     57  C   UNL A   1      38.675  30.416  30.836  1.00  0.00     0.023 A 
ATOM     58  C   UNL A   1      37.642  31.024  30.104  1.00  0.00     0.031 A 
ATOM     59  C   UNL A   1      38.485  30.238  32.220  1.00  0.00     0.131 A 
ATOM     60  C   UNL A   1      36.491  31.481  30.767  1.00  0.00     0.055 A 
ATOM     61  C   UNL A   1      37.310  30.633  32.862  1.00  0.00     0.041 A 
ATOM     62  F   UNL A   1      39.446  29.681  32.974  1.00  0.00    -0.206 F 
ATOM     63  C   UNL A   1      36.308  31.268  32.136  1.00  0.00     0.022 A 
BRANCH  60  64
ATOM     64  S   UNL A   1      35.283  32.465  29.838  1.00  0.00     0.124 S 
ATOM     65  O   UNL A   1      34.298  32.777  30.871  1.00  0.00    -0.237 OA
ATOM     66  O   UNL A   1      36.087  33.584  29.362  1.00  0.00    -0.237 OA
ATOM     67  O   UNL A   1      34.817  31.547  28.800  1.00  0.00    -0.744 OA
ENDBRANCH  60  64
ENDBRANCH  43  57
BRANCH  44  68
ATOM     68  C   UNL A   1      46.946  27.084  26.294  1.00  0.00     0.023 A 
ATOM     69  C   UNL A   1      48.013  26.455  26.951  1.00  0.00     0.031 A 
ATOM     70  C   UNL A   1      47.044  27.278  24.904  1.00  0.00     0.131 A 
ATOM     71  C   UNL A   1      49.145  26.059  26.220  1.00  0.00     0.055 A 
ATOM     72  C   UNL A   1      48.148  26.837  24.174  1.00  0.00     0.041 A 
ATOM     73  F   UNL A   1      46.050  27.875  24.229  1.00  0.00    -0.206 F 
ATOM     74  C   UNL A   1      49.212  26.230  24.834  1.00  0.00     0.022 A 
BRANCH  71  75
ATOM     75  S   UNL A   1      50.560  25.364  27.115  1.00  0.00     0.124 S 
ATOM     76  O   UNL A   1      51.440  24.966  26.022  1.00  0.00    -0.237 OA
ATOM     77  O   UNL A   1      51.004  26.503  27.913  1.00  0.00    -0.237 OA
ATOM     78  O   UNL A   1      49.974  24.263  27.878  1.00  0.00    -0.744 OA
ENDBRANCH  71  75
ENDBRANCH  44  68
BRANCH  56  79
ATOM     79  C   UNL A   1      45.199  33.143  29.225  1.00  0.00     0.023 A 
ATOM     80  C   UNL A   1      45.212  34.126  28.220  1.00  0.00     0.031 A 
ATOM     81  C   UNL A   1      45.955  33.368  30.387  1.00  0.00     0.131 A 
ATOM     82  C   UNL A   1      46.013  35.267  28.373  1.00  0.00     0.055 A 
ATOM     83  C   UNL A   1      46.711  34.528  30.556  1.00  0.00     0.041 A 
ATOM     84  F   UNL A   1      45.979  32.457  31.374  1.00  0.00    -0.206 F 
ATOM     85  C   UNL A   1      46.754  35.480  29.540  1.00  0.00     0.022 A 
BRANCH  82  86
ATOM     86  S   UNL A   1      46.148  36.430  26.988  1.00  0.00     0.124 S 
ATOM     87  O   UNL A   1      44.892  37.166  27.087  1.00  0.00    -0.237 OA
ATOM     88  O   UNL A   1      47.354  37.179  27.326  1.00  0.00    -0.237 OA
ATOM     89  O   UNL A   1      46.267  35.560  25.819  1.00  0.00    -0.744 OA
ENDBRANCH  82  86
ENDBRANCH  56  79
ENDBRANCH  30  31
ENDBRANCH  23  25
ENDBRANCH  22  23
ENDBRANCH   1  22
TORSDOF 16
ENDMDL
MODEL 2
REMARK VINA RESULT:     -11.6      1.456      1.707
REMARK SMILES Cn1ccc(NC(=O)[C@@H]2CCCC[C@@H]2C(=O)OCCOC(=O)c2ccc(-c3c4nc(c(-c5cc(S(=O)(=O)[O-])ccc5F)c5ccc([nH]5)c(-c5cc(S(=O)(=O)[O-])ccc5F)c5nc(c(-c6cc(S(=O)(=O)[O-])ccc6F)c6ccc3[nH]6)C=C5)C=C4)cc2)n1
REMARK SMILES IDX 19 1 18 2 17 3 15 4 16 5 14 6 9 7 10 8 11 9 13 10 12 11 7 12
REMARK SMILES IDX 6 13 8 15 5 16 1 17 2 18 3 19 86 20 4 21 20 22 21 23 22 24
REMARK SMILES IDX 23 25 24 26 85 27 25 28 84 29 26 30 27 31 28 32 78 33 29 34
REMARK SMILES IDX 83 35 77 36 79 37 30 38 82 39 76 40 75 41 31 43 63 44 43 45
REMARK SMILES IDX 62 46 44 47 47 48 61 49 80 50 45 51 46 52 60 54 81 55 48 56
REMARK SMILES IDX 32 57 33 58 41 59 34 60 40 61 42 62 39 63 35 64 36 65 37 66
REMARK SMILES IDX 38 67 64 68 65 69 73 70 66 71 72 72 74 73 71 74 67 75 68 76
REMARK SMILES IDX 69 77 70 78 49 79 50 80 58 81 51 82 57 83 59 84 56 85 52 86
REMARK SMILES IDX 53 87 54 88 55 89
REMARK H PARENT 6 14 79 42 47 53
REMARK Flexibility Score: inf
ROOT
ATOM      1  C   UNL A   1      35.942  20.785  24.968  1.00  0.00     0.275 C 
ENDROOT
BRANCH   1   2
ATOM      2  C   UNL A   1      35.113  21.162  26.190  1.00  0.00     0.274 C 
BRANCH   2   3
ATOM      3  O   UNL A   1      33.987  21.977  25.804  1.00  0.00    -0.462 OA
BRANCH   3   4
ATOM      4  C   UNL A   1      34.208  23.312  25.749  1.00  0.00     0.309 C 
ATOM      5  O   UNL A   1      34.931  23.923  26.531  1.00  0.00    -0.252 OA
BRANCH   4   6
ATOM      6  C   UNL A   1      33.436  24.024  24.648  1.00  0.00     0.111 C 
ATOM      7  C   UNL A   1      31.959  24.401  24.913  1.00  0.00     0.093 C 
ATOM      8  C   UNL A   1      31.020  23.255  24.470  1.00  0.00     0.014 C 
ATOM      9  C   UNL A   1      31.262  22.827  23.028  1.00  0.00     0.001 C 
ATOM     10  C   UNL A   1      33.681  23.433  23.252  1.00  0.00     0.016 C 
ATOM     11  C   UNL A   1      32.692  22.353  22.850  1.00  0.00     0.001 C 
BRANCH   7  12
ATOM     12  C   UNL A   1      31.608  24.812  26.359  1.00  0.00     0.229 C 
ATOM     13  N   UNL A   1      31.598  26.104  26.785  1.00  0.00    -0.309 N 
ATOM     14  H   UNL A   1      31.441  26.222  27.750  1.00  0.00     0.171 HD
ATOM     15  O   UNL A   1      31.333  23.963  27.219  1.00  0.00    -0.274 OA
BRANCH  13  16
ATOM     16  C   UNL A   1      31.773  27.269  26.086  1.00  0.00     0.154 A 
ATOM     17  C   UNL A   1      31.021  29.271  23.362  1.00  0.00     0.173 C 
ATOM     18  N   UNL A   1      31.564  28.749  24.594  1.00  0.00    -0.274 N 
ATOM     19  C   UNL A   1      32.796  28.988  25.126  1.00  0.00     0.110 A 
ATOM     20  N   UNL A   1      30.878  27.812  25.265  1.00  0.00    -0.155 NA
ATOM     21  C   UNL A   1      32.951  28.053  26.126  1.00  0.00     0.068 A 
ENDBRANCH  13  16
ENDBRANCH   7  12
ENDBRANCH   4   6
ENDBRANCH   3   4
ENDBRANCH   2   3
ENDBRANCH   1   2
BRANCH   1  22
ATOM     22  O   UNL A   1      37.065  21.676  24.885  1.00  0.00    -0.458 OA
BRANCH  22  23
ATOM     23  C   UNL A   1      38.199  21.258  25.486  1.00  0.00     0.338 C 
ATOM     24  O   UNL A   1      38.660  20.121  25.461  1.00  0.00    -0.246 OA
BRANCH  23  25
ATOM     25  C   UNL A   1      38.861  22.389  26.174  1.00  0.00     0.060 A 
ATOM     26  C   UNL A   1      38.399  23.697  26.018  1.00  0.00     0.016 A 
ATOM     27  C   UNL A   1      40.035  22.159  26.892  1.00  0.00     0.016 A 
ATOM     28  C   UNL A   1      39.165  24.772  26.472  1.00  0.00     0.010 A 
ATOM     29  C   UNL A   1      40.735  23.235  27.451  1.00  0.00     0.010 A 
ATOM     30  C   UNL A   1      40.333  24.562  27.217  1.00  0.00    -0.014 A 
BRANCH  30  31
ATOM     31  C   UNL A   1      41.156  25.705  27.721  1.00  0.00     0.031 A 
ATOM     32  C   UNL A   1      40.529  26.746  28.617  1.00  0.00     0.074 A 
ATOM     33  C   UNL A   1      42.454  25.837  27.378  1.00  0.00     0.049 A 
ATOM     34  N   UNL A   1      40.940  27.959  28.894  1.00  0.00    -0.248 NA
ATOM     35  C   UNL A   1      39.258  26.384  29.260  1.00  0.00     0.031 C 
ATOM     36  C   UNL A   1      43.228  24.888  26.573  1.00  0.00     0.029 A 
ATOM     37  N   UNL A   1      43.357  26.836  27.659  1.00  0.00    -0.354 N 
ATOM     38  C   UNL A   1      39.934  28.535  29.665  1.00  0.00     0.074 A 
ATOM     39  C   UNL A   1      38.904  27.529  29.827  1.00  0.00     0.031 C 
ATOM     40  C   UNL A   1      44.491  25.325  26.465  1.00  0.00     0.029 A 
ATOM     41  C   UNL A   1      44.589  26.643  27.076  1.00  0.00     0.049 A 
ATOM     42  H   UNL A   1      43.142  27.615  28.223  1.00  0.00     0.167 HD
ATOM     43  C   UNL A   1      39.874  29.792  30.172  1.00  0.00     0.034 A 
ATOM     44  C   UNL A   1      45.659  27.457  26.974  1.00  0.00     0.034 A 
ATOM     45  C   UNL A   1      40.948  30.753  30.068  1.00  0.00     0.049 A 
ATOM     46  C   UNL A   1      45.573  28.848  27.537  1.00  0.00     0.074 A 
ATOM     47  C   UNL A   1      41.002  32.046  30.563  1.00  0.00     0.029 A 
ATOM     48  N   UNL A   1      42.168  30.518  29.447  1.00  0.00    -0.354 N 
ATOM     49  N   UNL A   1      44.568  29.429  28.149  1.00  0.00    -0.248 NA
ATOM     50  C   UNL A   1      46.755  29.702  27.369  1.00  0.00     0.031 C 
ATOM     51  C   UNL A   1      42.234  32.606  30.202  1.00  0.00     0.029 A 
ATOM     52  C   UNL A   1      42.974  31.643  29.536  1.00  0.00     0.049 A 
ATOM     53  H   UNL A   1      42.423  29.675  29.008  1.00  0.00     0.167 HD
ATOM     54  C   UNL A   1      44.996  30.722  28.432  1.00  0.00     0.074 A 
ATOM     55  C   UNL A   1      46.360  30.823  27.954  1.00  0.00     0.031 C 
ATOM     56  C   UNL A   1      44.321  31.736  29.027  1.00  0.00     0.034 A 
BRANCH  43  57
ATOM     57  C   UNL A   1      38.580  30.229  30.818  1.00  0.00     0.023 A 
ATOM     58  C   UNL A   1      37.576  30.915  30.115  1.00  0.00     0.031 A 
ATOM     59  C   UNL A   1      38.358  29.951  32.180  1.00  0.00     0.131 A 
ATOM     60  C   UNL A   1      36.423  31.350  30.790  1.00  0.00     0.055 A 
ATOM     61  C   UNL A   1      37.180  30.325  32.829  1.00  0.00     0.041 A 
ATOM     62  F   UNL A   1      39.291  29.315  32.908  1.00  0.00    -0.206 F 
ATOM     63  C   UNL A   1      36.208  31.038  32.136  1.00  0.00     0.022 A 
BRANCH  60  64
ATOM     64  S   UNL A   1      35.257  32.430  29.917  1.00  0.00     0.124 S 
ATOM     65  O   UNL A   1      34.783  31.553  28.849  1.00  0.00    -0.237 OA
ATOM     66  O   UNL A   1      34.287  32.753  30.957  1.00  0.00    -0.237 OA
ATOM     67  O   UNL A   1      36.089  33.547  29.473  1.00  0.00    -0.744 OA
ENDBRANCH  60  64
ENDBRANCH  43  57
BRANCH  44  68
ATOM     68  C   UNL A   1      46.864  27.014  26.215  1.00  0.00     0.023 A 
ATOM     69  C   UNL A   1      47.103  27.463  24.908  1.00  0.00     0.031 A 
ATOM     70  C   UNL A   1      47.789  26.125  26.791  1.00  0.00     0.131 A 
ATOM     71  C   UNL A   1      48.233  27.004  24.211  1.00  0.00     0.055 A 
ATOM     72  C   UNL A   1      48.936  25.712  26.113  1.00  0.00     0.041 A 
ATOM     73  F   UNL A   1      47.604  25.666  28.039  1.00  0.00    -0.206 F 
ATOM     74  C   UNL A   1      49.159  26.146  24.810  1.00  0.00     0.022 A 
BRANCH  71  75
ATOM     75  S   UNL A   1      48.448  27.502  22.480  1.00  0.00     0.124 S 
ATOM     76  O   UNL A   1      49.674  28.290  22.546  1.00  0.00    -0.237 OA
ATOM     77  O   UNL A   1      48.550  26.213  21.804  1.00  0.00    -0.237 OA
ATOM     78  O   UNL A   1      47.232  28.260  22.190  1.00  0.00    -0.744 OA
ENDBRANCH  71  75
ENDBRANCH  44  68
BRANCH  56  79
ATOM     79  C   UNL A   1      45.072  33.030  29.208  1.00  0.00     0.023 A 
ATOM     80  C   UNL A   1      44.957  34.080  28.281  1.00  0.00     0.031 A 
ATOM     81  C   UNL A   1      45.947  33.194  30.295  1.00  0.00     0.131 A 
ATOM     82  C   UNL A   1      45.747  35.229  28.429  1.00  0.00     0.055 A 
ATOM     83  C   UNL A   1      46.694  34.360  30.465  1.00  0.00     0.041 A 
ATOM     84  F   UNL A   1      46.096  32.218  31.205  1.00  0.00    -0.206 F 
ATOM     85  C   UNL A   1      46.607  35.381  29.521  1.00  0.00     0.022 A 
BRANCH  82  86
ATOM     86  S   UNL A   1      45.707  36.489  27.124  1.00  0.00     0.124 S 
ATOM     87  O   UNL A   1      44.276  36.607  26.860  1.00  0.00    -0.237 OA
ATOM     88  O   UNL A   1      46.331  37.635  27.777  1.00  0.00    -0.237 OA
ATOM     89  O   UNL A   1      46.488  35.890  26.044  1.00  0.00    -0.744 OA
ENDBRANCH  82  86
ENDBRANCH  56  79
ENDBRANCH  30  31
ENDBRANCH  23  25
ENDBRANCH  22  23
ENDBRANCH   1  22
TORSDOF 16
ENDMDL
MODEL 3
REMARK VINA RESULT:     -11.5      4.791      9.827
REMARK SMILES Cn1ccc(NC(=O)[C@@H]2CCCC[C@@H]2C(=O)OCCOC(=O)c2ccc(-c3c4nc(c(-c5cc(S(=O)(=O)[O-])ccc5F)c5ccc([nH]5)c(-c5cc(S(=O)(=O)[O-])ccc5F)c5nc(c(-c6cc(S(=O)(=O)[O-])ccc6F)c6ccc3[nH]6)C=C5)C=C4)cc2)n1
REMARK SMILES IDX 19 1 18 2 17 3 15 4 16 5 14 6 9 7 10 8 11 9 13 10 12 11 7 12
REMARK SMILES IDX 6 13 8 15 5 16 1 17 2 18 3 19 86 20 4 21 20 22 21 23 22 24
REMARK SMILES IDX 23 25 24 26 85 27 25 28 84 29 26 30 27 31 28 32 78 33 29 34
REMARK SMILES IDX 83 35 77 36 79 37 30 38 82 39 76 40 75 41 31 43 63 44 43 45
REMARK SMILES IDX 62 46 44 47 47 48 61 49 80 50 45 51 46 52 60 54 81 55 48 56
REMARK SMILES IDX 32 57 33 58 41 59 34 60 40 61 42 62 39 63 35 64 36 65 37 66
REMARK SMILES IDX 38 67 64 68 65 69 73 70 66 71 72 72 74 73 71 74 67 75 68 76
REMARK SMILES IDX 69 77 70 78 49 79 50 80 58 81 51 82 57 83 59 84 56 85 52 86
REMARK SMILES IDX 53 87 54 88 55 89
REMARK H PARENT 6 14 79 42 47 53
REMARK Flexibility Score: inf
ROOT
ATOM      1  C   UNL A   1      31.924  29.865  25.478  1.00  0.00     0.275 C 
ENDROOT
BRANCH   1   2
ATOM      2  C   UNL A   1      33.114  29.275  24.730  1.00  0.00     0.274 C 
BRANCH   2   3
ATOM      3  O   UNL A   1      32.823  27.930  24.299  1.00  0.00    -0.462 OA
BRANCH   3   4
ATOM      4  C   UNL A   1      33.189  26.938  25.146  1.00  0.00     0.309 C 
ATOM      5  O   UNL A   1      34.185  26.978  25.863  1.00  0.00    -0.252 OA
BRANCH   4   6
ATOM      6  C   UNL A   1      32.278  25.721  25.108  1.00  0.00     0.111 C 
ATOM      7  C   UNL A   1      32.264  24.855  23.825  1.00  0.00     0.093 C 
ATOM      8  C   UNL A   1      31.187  25.366  22.840  1.00  0.00     0.014 C 
ATOM      9  C   UNL A   1      29.810  25.475  23.483  1.00  0.00     0.001 C 
ATOM     10  C   UNL A   1      30.881  25.986  25.688  1.00  0.00     0.016 C 
ATOM     11  C   UNL A   1      29.853  26.428  24.662  1.00  0.00     0.001 C 
BRANCH   7  12
ATOM     12  C   UNL A   1      33.608  24.718  23.078  1.00  0.00     0.229 C 
ATOM     13  N   UNL A   1      34.594  23.866  23.471  1.00  0.00    -0.309 N 
ATOM     14  H   UNL A   1      35.432  23.939  22.959  1.00  0.00     0.171 HD
ATOM     15  O   UNL A   1      33.861  25.406  22.080  1.00  0.00    -0.274 OA
BRANCH  13  16
ATOM     16  C   UNL A   1      34.609  22.924  24.465  1.00  0.00     0.154 A 
ATOM     17  C   UNL A   1      33.337  20.021  25.861  1.00  0.00     0.173 C 
ATOM     18  N   UNL A   1      34.112  21.210  25.593  1.00  0.00    -0.274 N 
ATOM     19  C   UNL A   1      34.689  22.047  26.501  1.00  0.00     0.110 A 
ATOM     20  N   UNL A   1      34.194  21.667  24.335  1.00  0.00    -0.155 NA
ATOM     21  C   UNL A   1      35.051  23.169  25.787  1.00  0.00     0.068 A 
ENDBRANCH  13  16
ENDBRANCH   7  12
ENDBRANCH   4   6
ENDBRANCH   3   4
ENDBRANCH   2   3
ENDBRANCH   1   2
BRANCH   1  22
ATOM     22  O   UNL A   1      32.297  30.057  26.851  1.00  0.00    -0.458 OA
BRANCH  22  23
ATOM     23  C   UNL A   1      32.908  31.225  27.142  1.00  0.00     0.338 C 
ATOM     24  O   UNL A   1      32.417  32.346  27.048  1.00  0.00    -0.246 OA
BRANCH  23  25
ATOM     25  C   UNL A   1      34.280  30.976  27.638  1.00  0.00     0.060 A 
ATOM     26  C   UNL A   1      34.712  29.685  27.944  1.00  0.00     0.016 A 
ATOM     27  C   UNL A   1      35.113  32.060  27.916  1.00  0.00     0.016 A 
ATOM     28  C   UNL A   1      35.912  29.490  28.630  1.00  0.00     0.010 A 
ATOM     29  C   UNL A   1      36.370  31.847  28.494  1.00  0.00     0.010 A 
ATOM     30  C   UNL A   1      36.774  30.561  28.897  1.00  0.00    -0.014 A 
BRANCH  30  31
ATOM     31  C   UNL A   1      38.069  30.363  29.618  1.00  0.00     0.031 A 
ATOM     32  C   UNL A   1      39.152  29.512  29.002  1.00  0.00     0.074 A 
ATOM     33  C   UNL A   1      38.287  30.920  30.828  1.00  0.00     0.049 A 
ATOM     34  N   UNL A   1      40.187  28.946  29.570  1.00  0.00    -0.248 NA
ATOM     35  C   UNL A   1      39.036  29.237  27.562  1.00  0.00     0.031 C 
ATOM     36  C   UNL A   1      37.372  31.820  31.534  1.00  0.00     0.029 A 
ATOM     37  N   UNL A   1      39.356  30.805  31.687  1.00  0.00    -0.354 N 
ATOM     38  C   UNL A   1      40.792  28.175  28.581  1.00  0.00     0.074 A 
ATOM     39  C   UNL A   1      40.015  28.363  27.372  1.00  0.00     0.031 C 
ATOM     40  C   UNL A   1      37.933  32.207  32.689  1.00  0.00     0.029 A 
ATOM     41  C   UNL A   1      39.186  31.487  32.870  1.00  0.00     0.049 A 
ATOM     42  H   UNL A   1      40.164  30.284  31.475  1.00  0.00     0.167 HD
ATOM     43  C   UNL A   1      41.881  27.372  28.683  1.00  0.00     0.034 A 
ATOM     44  C   UNL A   1      39.908  31.482  34.008  1.00  0.00     0.034 A 
ATOM     45  C   UNL A   1      42.689  27.261  29.875  1.00  0.00     0.049 A 
ATOM     46  C   UNL A   1      41.109  30.583  34.105  1.00  0.00     0.074 A 
ATOM     47  C   UNL A   1      43.825  26.496  30.082  1.00  0.00     0.029 A 
ATOM     48  N   UNL A   1      42.462  27.955  31.057  1.00  0.00    -0.354 N 
ATOM     49  N   UNL A   1      41.596  29.758  33.209  1.00  0.00    -0.248 NA
ATOM     50  C   UNL A   1      41.840  30.595  35.378  1.00  0.00     0.031 C 
ATOM     51  C   UNL A   1      44.257  26.692  31.400  1.00  0.00     0.029 A 
ATOM     52  C   UNL A   1      43.427  27.626  31.997  1.00  0.00     0.049 A 
ATOM     53  H   UNL A   1      41.723  28.588  31.205  1.00  0.00     0.167 HD
ATOM     54  C   UNL A   1      42.687  29.145  33.814  1.00  0.00     0.074 A 
ATOM     55  C   UNL A   1      42.807  29.720  35.139  1.00  0.00     0.031 C 
ATOM     56  C   UNL A   1      43.514  28.188  33.323  1.00  0.00     0.034 A 
BRANCH  43  57
ATOM     57  C   UNL A   1      42.220  26.494  27.501  1.00  0.00     0.023 A 
ATOM     58  C   UNL A   1      41.808  25.154  27.409  1.00  0.00     0.031 A 
ATOM     59  C   UNL A   1      42.986  27.021  26.444  1.00  0.00     0.131 A 
ATOM     60  C   UNL A   1      42.211  24.373  26.314  1.00  0.00     0.055 A 
ATOM     61  C   UNL A   1      43.325  26.259  25.325  1.00  0.00     0.041 A 
ATOM     62  F   UNL A   1      43.425  28.289  26.486  1.00  0.00    -0.206 F 
ATOM     63  C   UNL A   1      42.946  24.922  25.260  1.00  0.00     0.022 A 
BRANCH  60  64
ATOM     64  S   UNL A   1      41.861  22.593  26.338  1.00  0.00     0.124 S 
ATOM     65  O   UNL A   1      42.658  22.119  25.209  1.00  0.00    -0.237 OA
ATOM     66  O   UNL A   1      42.328  22.198  27.662  1.00  0.00    -0.237 OA
ATOM     67  O   UNL A   1      40.414  22.524  26.142  1.00  0.00    -0.744 OA
ENDBRANCH  60  64
ENDBRANCH  43  57
BRANCH  44  68
ATOM     68  C   UNL A   1      39.452  32.277  35.185  1.00  0.00     0.023 A 
ATOM     69  C   UNL A   1      39.896  33.591  35.389  1.00  0.00     0.031 A 
ATOM     70  C   UNL A   1      38.570  31.720  36.129  1.00  0.00     0.131 A 
ATOM     71  C   UNL A   1      39.470  34.301  36.523  1.00  0.00     0.055 A 
ATOM     72  C   UNL A   1      38.110  32.447  37.227  1.00  0.00     0.041 A 
ATOM     73  F   UNL A   1      38.117  30.465  35.979  1.00  0.00    -0.206 F 
ATOM     74  C   UNL A   1      38.568  33.745  37.433  1.00  0.00     0.022 A 
BRANCH  71  75
ATOM     75  S   UNL A   1      40.159  35.952  36.825  1.00  0.00     0.124 S 
ATOM     76  O   UNL A   1      39.346  36.415  37.944  1.00  0.00    -0.237 OA
ATOM     77  O   UNL A   1      41.553  35.648  37.129  1.00  0.00    -0.237 OA
ATOM     78  O   UNL A   1      39.938  36.650  35.560  1.00  0.00    -0.744 OA
ENDBRANCH  71  75
ENDBRANCH  44  68
BRANCH  56  79
ATOM     79  C   UNL A   1      44.628  27.732  34.229  1.00  0.00     0.023 A 
ATOM     80  C   UNL A   1      44.478  26.618  35.073  1.00  0.00     0.031 A 
ATOM     81  C   UNL A   1      45.837  28.447  34.278  1.00  0.00     0.131 A 
ATOM     82  C   UNL A   1      45.499  26.284  35.973  1.00  0.00     0.055 A 
ATOM     83  C   UNL A   1      46.870  28.080  35.141  1.00  0.00     0.041 A 
ATOM     84  F   UNL A   1      46.027  29.521  33.495  1.00  0.00    -0.206 F 
ATOM     85  C   UNL A   1      46.699  27.001  36.005  1.00  0.00     0.022 A 
BRANCH  82  86
ATOM     86  S   UNL A   1      45.206  24.954  37.171  1.00  0.00     0.124 S 
ATOM     87  O   UNL A   1      46.021  25.380  38.304  1.00  0.00    -0.237 OA
ATOM     88  O   UNL A   1      43.761  25.021  37.365  1.00  0.00    -0.237 OA
ATOM     89  O   UNL A   1      45.683  23.758  36.480  1.00  0.00    -0.744 OA
ENDBRANCH  82  86
ENDBRANCH  56  79
ENDBRANCH  30  31
ENDBRANCH  23  25
ENDBRANCH  22  23
ENDBRANCH   1  22
TORSDOF 16
ENDMDL
