MODEL 1
REMARK VINA RESULT:     -12.9      0.000      0.000
REMARK SMILES Cc1cc(C)cc(Oc2nc3ccccn3c(=O)c2/C=C2\SC(=S)N(CCC(=O)OCCOC(=O)c3ccc(-c4c5nc(c(-c6cc(S(=O)(=O)[O-])ccc6F)c6ccc([nH]6)c(-c6cc(S(=O)(=O)[O-])ccc6F)c6nc(c(-c7cc(S(=O)(=O)[O-])ccc7F)c7ccc4[nH]7)C=C6)C=C5)cc3)C2=O)c1
REMARK SMILES IDX 31 1 30 2 28 3 29 4 27 5 26 6 25 7 20 8 21 9 22 10 99 11
REMARK SMILES IDX 23 12 100 13 24 14 19 15 9 16 10 17 11 18 17 19 12 20 16 21
REMARK SMILES IDX 18 22 13 23 15 24 14 25 8 26 7 27 1 28 2 29 3 30 101 31 4 32
REMARK SMILES IDX 5 33 6 34 32 35 33 36 34 37 35 38 36 39 37 40 98 41 38 42
REMARK SMILES IDX 97 43 39 44 40 45 41 46 91 47 42 48 96 49 90 50 92 51 43 52
REMARK SMILES IDX 95 53 89 54 88 55 44 57 76 58 56 59 75 60 57 61 60 62 74 63
REMARK SMILES IDX 93 64 58 65 59 66 73 68 94 69 61 70 45 71 46 72 54 73 47 74
REMARK SMILES IDX 53 75 55 76 52 77 48 78 49 79 50 80 51 81 77 82 78 83 86 84
REMARK SMILES IDX 79 85 85 86 87 87 84 88 80 89 81 90 82 91 83 92 62 93 63 94
REMARK SMILES IDX 71 95 64 96 70 97 72 98 69 99 65 100 66 101 67 102 68 103
REMARK H PARENT 92 56 60 67
REMARK Flexibility Score: inf
ROOT
ATOM      1  C   UNL A   1      35.301  20.977  24.997  1.00  0.00     0.274 C 
ENDROOT
BRANCH   1   2
ATOM      2  O   UNL A   1      34.419  19.849  24.838  1.00  0.00    -0.462 OA
BRANCH   2   3
ATOM      3  C   UNL A   1      33.171  19.967  25.351  1.00  0.00     0.307 C 
ATOM      4  O   UNL A   1      32.370  19.050  25.472  1.00  0.00    -0.252 OA
BRANCH   3   5
ATOM      5  C   UNL A   1      32.836  21.398  25.701  1.00  0.00     0.144 C 
BRANCH   5   6
ATOM      6  C   UNL A   1      31.963  22.120  24.669  1.00  0.00     0.139 C 
BRANCH   6   7
ATOM      7  N   UNL A   1      31.683  23.504  25.059  1.00  0.00    -0.292 N 
ATOM      8  C   UNL A   1      31.963  26.848  23.884  1.00  0.00     0.041 C 
ATOM      9  C   UNL A   1      31.741  25.809  24.702  1.00  0.00     0.081 C 
ATOM     10  S   UNL A   1      30.610  25.658  25.983  1.00  0.00    -0.054 SA
ATOM     11  C   UNL A   1      32.416  24.520  24.479  1.00  0.00     0.266 C 
ATOM     12  C   UNL A   1      30.710  23.897  25.954  1.00  0.00     0.148 C 
ATOM     13  O   UNL A   1      33.457  24.426  23.853  1.00  0.00    -0.268 OA
ATOM     14  S   UNL A   1      29.699  22.942  26.875  1.00  0.00    -0.052 S 
BRANCH   8  15
ATOM     15  C   UNL A   1      31.320  28.137  24.020  1.00  0.00     0.104 A 
ATOM     16  C   UNL A   1      31.496  28.993  25.047  1.00  0.00     0.234 A 
ATOM     17  N   UNL A   1      30.891  30.224  25.113  1.00  0.00    -0.194 NA
ATOM     18  C   UNL A   1      30.154  30.601  24.117  1.00  0.00     0.143 A 
ATOM     19  C   UNL A   1      30.394  28.546  22.927  1.00  0.00     0.269 A 
ATOM     20  C   UNL A   1      29.528  31.956  24.153  1.00  0.00     0.048 A 
ATOM     21  N   UNL A   1      29.893  29.830  22.999  1.00  0.00    -0.267 N 
ATOM     22  O   UNL A   1      30.094  27.744  22.039  1.00  0.00    -0.268 OA
ATOM     23  C   UNL A   1      28.779  32.373  23.125  1.00  0.00     0.005 A 
ATOM     24  C   UNL A   1      29.100  30.300  21.960  1.00  0.00     0.096 A 
ATOM     25  C   UNL A   1      28.558  31.522  21.987  1.00  0.00     0.019 A 
BRANCH  16  26
ATOM     26  O   UNL A   1      32.198  28.627  26.197  1.00  0.00    -0.438 OA
BRANCH  26  27
ATOM     27  C   UNL A   1      33.231  29.387  26.700  1.00  0.00     0.130 A 
ATOM     28  C   UNL A   1      36.891  29.328  27.748  1.00  0.00     0.044 C 
ATOM     29  C   UNL A   1      35.495  29.803  27.473  1.00  0.00    -0.047 A 
ATOM     30  C   UNL A   1      35.120  31.096  27.857  1.00  0.00     0.007 A 
ATOM     31  C   UNL A   1      34.550  28.964  26.861  1.00  0.00     0.050 A 
ATOM     32  C   UNL A   1      33.823  31.565  27.625  1.00  0.00    -0.047 A 
ATOM     33  C   UNL A   1      33.464  32.974  27.994  1.00  0.00     0.044 C 
ATOM     34  C   UNL A   1      32.881  30.694  27.062  1.00  0.00     0.050 A 
ENDBRANCH  26  27
ENDBRANCH  16  26
ENDBRANCH   8  15
ENDBRANCH   6   7
ENDBRANCH   5   6
ENDBRANCH   3   5
ENDBRANCH   2   3
ENDBRANCH   1   2
BRANCH   1  35
ATOM     35  C   UNL A   1      36.765  20.541  25.077  1.00  0.00     0.275 C 
BRANCH  35  36
ATOM     36  O   UNL A   1      37.567  21.612  25.602  1.00  0.00    -0.458 OA
BRANCH  36  37
ATOM     37  C   UNL A   1      38.803  21.280  26.035  1.00  0.00     0.338 C 
ATOM     38  O   UNL A   1      39.332  20.186  26.071  1.00  0.00    -0.246 OA
BRANCH  37  39
ATOM     39  C   UNL A   1      39.468  22.495  26.509  1.00  0.00     0.060 A 
ATOM     40  C   UNL A   1      39.042  23.746  26.055  1.00  0.00     0.016 A 
ATOM     41  C   UNL A   1      40.574  22.367  27.348  1.00  0.00     0.016 A 
ATOM     42  C   UNL A   1      39.737  24.888  26.442  1.00  0.00     0.010 A 
ATOM     43  C   UNL A   1      41.251  23.513  27.755  1.00  0.00     0.010 A 
ATOM     44  C   UNL A   1      40.843  24.777  27.297  1.00  0.00    -0.014 A 
BRANCH  44  45
ATOM     45  C   UNL A   1      41.609  25.978  27.699  1.00  0.00     0.031 A 
ATOM     46  C   UNL A   1      40.962  27.005  28.580  1.00  0.00     0.074 A 
ATOM     47  C   UNL A   1      42.862  26.147  27.241  1.00  0.00     0.049 A 
ATOM     48  N   UNL A   1      41.388  28.193  28.918  1.00  0.00    -0.248 NA
ATOM     49  C   UNL A   1      39.655  26.645  29.150  1.00  0.00     0.031 C 
ATOM     50  C   UNL A   1      43.595  25.185  26.416  1.00  0.00     0.029 A 
ATOM     51  N   UNL A   1      43.733  27.194  27.389  1.00  0.00    -0.354 N 
ATOM     52  C   UNL A   1      40.399  28.731  29.734  1.00  0.00     0.074 A 
ATOM     53  C   UNL A   1      39.339  27.748  29.815  1.00  0.00     0.031 C 
ATOM     54  C   UNL A   1      44.805  25.691  26.127  1.00  0.00     0.029 A 
ATOM     55  C   UNL A   1      44.908  27.032  26.692  1.00  0.00     0.049 A 
ATOM     56  H   UNL A   1      43.538  27.986  27.940  1.00  0.00     0.167 HD
ATOM     57  C   UNL A   1      40.386  29.933  30.361  1.00  0.00     0.034 A 
ATOM     58  C   UNL A   1      45.930  27.888  26.502  1.00  0.00     0.034 A 
ATOM     59  C   UNL A   1      41.449  30.903  30.246  1.00  0.00     0.049 A 
ATOM     60  C   UNL A   1      45.850  29.256  27.130  1.00  0.00     0.074 A 
ATOM     61  C   UNL A   1      41.537  32.164  30.808  1.00  0.00     0.029 A 
ATOM     62  N   UNL A   1      42.614  30.717  29.510  1.00  0.00    -0.354 N 
ATOM     63  N   UNL A   1      44.895  29.769  27.873  1.00  0.00    -0.248 NA
ATOM     64  C   UNL A   1      46.983  30.159  26.896  1.00  0.00     0.031 C 
ATOM     65  C   UNL A   1      42.727  32.759  30.372  1.00  0.00     0.029 A 
ATOM     66  C   UNL A   1      43.415  31.845  29.591  1.00  0.00     0.049 A 
ATOM     67  H   UNL A   1      42.838  29.901  29.006  1.00  0.00     0.167 HD
ATOM     68  C   UNL A   1      45.330  31.045  28.219  1.00  0.00     0.074 A 
ATOM     69  C   UNL A   1      46.634  31.217  27.613  1.00  0.00     0.031 C 
ATOM     70  C   UNL A   1      44.711  31.991  28.972  1.00  0.00     0.034 A 
BRANCH  57  71
ATOM     71  C   UNL A   1      39.163  30.274  31.175  1.00  0.00     0.023 A 
ATOM     72  C   UNL A   1      38.217  31.213  30.725  1.00  0.00     0.031 A 
ATOM     73  C   UNL A   1      38.956  29.681  32.433  1.00  0.00     0.131 A 
ATOM     74  C   UNL A   1      37.144  31.578  31.554  1.00  0.00     0.055 A 
ATOM     75  C   UNL A   1      37.848  29.996  33.222  1.00  0.00     0.041 A 
ATOM     76  F   UNL A   1      39.837  28.796  32.925  1.00  0.00    -0.206 F 
ATOM     77  C   UNL A   1      36.941  30.960  32.790  1.00  0.00     0.022 A 
BRANCH  74  78
ATOM     78  S   UNL A   1      36.090  32.964  31.048  1.00  0.00     0.124 S 
ATOM     79  O   UNL A   1      36.664  33.315  29.752  1.00  0.00    -0.237 OA
ATOM     80  O   UNL A   1      34.764  32.357  31.016  1.00  0.00    -0.237 OA
ATOM     81  O   UNL A   1      36.296  33.955  32.102  1.00  0.00    -0.744 OA
ENDBRANCH  74  78
ENDBRANCH  57  71
BRANCH  58  82
ATOM     82  C   UNL A   1      47.092  27.506  25.650  1.00  0.00     0.023 A 
ATOM     83  C   UNL A   1      47.162  27.904  24.306  1.00  0.00     0.031 A 
ATOM     84  C   UNL A   1      48.125  26.695  26.153  1.00  0.00     0.131 A 
ATOM     85  C   UNL A   1      48.217  27.453  23.498  1.00  0.00     0.055 A 
ATOM     86  C   UNL A   1      49.201  26.293  25.359  1.00  0.00     0.041 A 
ATOM     87  F   UNL A   1      48.107  26.286  27.432  1.00  0.00    -0.206 F 
ATOM     88  C   UNL A   1      49.242  26.660  24.019  1.00  0.00     0.022 A 
BRANCH  85  89
ATOM     89  S   UNL A   1      48.178  27.839  21.727  1.00  0.00     0.124 S 
ATOM     90  O   UNL A   1      48.278  26.512  21.129  1.00  0.00    -0.237 OA
ATOM     91  O   UNL A   1      46.888  28.508  21.593  1.00  0.00    -0.237 OA
ATOM     92  O   UNL A   1      49.345  28.697  21.540  1.00  0.00    -0.744 OA
ENDBRANCH  85  89
ENDBRANCH  58  82
BRANCH  70  93
ATOM     93  C   UNL A   1      45.477  33.264  29.219  1.00  0.00     0.023 A 
ATOM     94  C   UNL A   1      45.354  34.378  28.369  1.00  0.00     0.031 A 
ATOM     95  C   UNL A   1      46.360  33.353  30.309  1.00  0.00     0.131 A 
ATOM     96  C   UNL A   1      46.143  35.515  28.594  1.00  0.00     0.055 A 
ATOM     97  C   UNL A   1      47.103  34.507  30.558  1.00  0.00     0.041 A 
ATOM     98  F   UNL A   1      46.513  32.317  31.149  1.00  0.00    -0.206 F 
ATOM     99  C   UNL A   1      47.006  35.591  29.690  1.00  0.00     0.022 A 
BRANCH  96 100
ATOM    100  S   UNL A   1      46.087  36.866  27.386  1.00  0.00     0.124 S 
ATOM    101  O   UNL A   1      46.436  38.022  28.206  1.00  0.00    -0.237 OA
ATOM    102  O   UNL A   1      47.087  36.453  26.407  1.00  0.00    -0.237 OA
ATOM    103  O   UNL A   1      44.706  36.841  26.906  1.00  0.00    -0.744 OA
ENDBRANCH  96 100
ENDBRANCH  70  93
ENDBRANCH  44  45
ENDBRANCH  37  39
ENDBRANCH  36  37
ENDBRANCH  35  36
ENDBRANCH   1  35
TORSDOF 19
ENDMDL
MODEL 2
REMARK VINA RESULT:     -12.0      1.849      2.391
REMARK SMILES Cc1cc(C)cc(Oc2nc3ccccn3c(=O)c2/C=C2\SC(=S)N(CCC(=O)OCCOC(=O)c3ccc(-c4c5nc(c(-c6cc(S(=O)(=O)[O-])ccc6F)c6ccc([nH]6)c(-c6cc(S(=O)(=O)[O-])ccc6F)c6nc(c(-c7cc(S(=O)(=O)[O-])ccc7F)c7ccc4[nH]7)C=C6)C=C5)cc3)C2=O)c1
REMARK SMILES IDX 31 1 30 2 28 3 29 4 27 5 26 6 25 7 20 8 21 9 22 10 99 11
REMARK SMILES IDX 23 12 100 13 24 14 19 15 9 16 10 17 11 18 17 19 12 20 16 21
REMARK SMILES IDX 18 22 13 23 15 24 14 25 8 26 7 27 1 28 2 29 3 30 101 31 4 32
REMARK SMILES IDX 5 33 6 34 32 35 33 36 34 37 35 38 36 39 37 40 98 41 38 42
REMARK SMILES IDX 97 43 39 44 40 45 41 46 91 47 42 48 96 49 90 50 92 51 43 52
REMARK SMILES IDX 95 53 89 54 88 55 44 57 76 58 56 59 75 60 57 61 60 62 74 63
REMARK SMILES IDX 93 64 58 65 59 66 73 68 94 69 61 70 45 71 46 72 54 73 47 74
REMARK SMILES IDX 53 75 55 76 52 77 48 78 49 79 50 80 51 81 77 82 78 83 86 84
REMARK SMILES IDX 79 85 85 86 87 87 84 88 80 89 81 90 82 91 83 92 62 93 63 94
REMARK SMILES IDX 71 95 64 96 70 97 72 98 69 99 65 100 66 101 67 102 68 103
REMARK H PARENT 92 56 60 67
REMARK Flexibility Score: inf
ROOT
ATOM      1  C   UNL A   1      36.346  22.357  25.274  1.00  0.00     0.274 C 
ENDROOT
BRANCH   1   2
ATOM      2  O   UNL A   1      35.526  21.614  24.350  1.00  0.00    -0.462 OA
BRANCH   2   3
ATOM      3  C   UNL A   1      34.562  20.825  24.880  1.00  0.00     0.307 C 
ATOM      4  O   UNL A   1      34.498  19.610  24.752  1.00  0.00    -0.252 OA
BRANCH   3   5
ATOM      5  C   UNL A   1      33.508  21.629  25.605  1.00  0.00     0.144 C 
BRANCH   5   6
ATOM      6  C   UNL A   1      32.398  22.183  24.705  1.00  0.00     0.139 C 
BRANCH   6   7
ATOM      7  N   UNL A   1      32.004  23.540  25.093  1.00  0.00    -0.292 N 
ATOM      8  C   UNL A   1      32.211  26.923  24.019  1.00  0.00     0.041 C 
ATOM      9  C   UNL A   1      31.968  25.854  24.790  1.00  0.00     0.081 C 
ATOM     10  S   UNL A   1      30.726  25.609  25.948  1.00  0.00    -0.054 SA
ATOM     11  C   UNL A   1      32.732  24.609  24.610  1.00  0.00     0.266 C 
ATOM     12  C   UNL A   1      30.926  23.857  25.894  1.00  0.00     0.148 C 
ATOM     13  O   UNL A   1      33.834  24.587  24.089  1.00  0.00    -0.268 OA
ATOM     14  S   UNL A   1      29.884  22.826  26.690  1.00  0.00    -0.052 S 
BRANCH   8  15
ATOM     15  C   UNL A   1      31.488  28.172  24.116  1.00  0.00     0.104 A 
ATOM     16  C   UNL A   1      31.575  29.048  25.137  1.00  0.00     0.234 A 
ATOM     17  N   UNL A   1      30.895  30.241  25.166  1.00  0.00    -0.194 NA
ATOM     18  C   UNL A   1      30.172  30.562  24.140  1.00  0.00     0.143 A 
ATOM     19  C   UNL A   1      30.577  28.512  22.986  1.00  0.00     0.269 A 
ATOM     20  C   UNL A   1      29.464  31.875  24.137  1.00  0.00     0.048 A 
ATOM     21  N   UNL A   1      29.997  29.763  23.025  1.00  0.00    -0.267 N 
ATOM     22  O   UNL A   1      30.357  27.682  22.100  1.00  0.00    -0.268 OA
ATOM     23  C   UNL A   1      28.727  32.234  23.079  1.00  0.00     0.005 A 
ATOM     24  C   UNL A   1      29.213  30.172  21.953  1.00  0.00     0.096 A 
ATOM     25  C   UNL A   1      28.598  31.360  21.945  1.00  0.00     0.019 A 
BRANCH  16  26
ATOM     26  O   UNL A   1      32.257  28.739  26.316  1.00  0.00    -0.438 OA
BRANCH  26  27
ATOM     27  C   UNL A   1      33.185  29.591  26.873  1.00  0.00     0.130 A 
ATOM     28  C   UNL A   1      33.795  33.161  28.048  1.00  0.00     0.044 C 
ATOM     29  C   UNL A   1      34.005  31.711  27.727  1.00  0.00    -0.047 A 
ATOM     30  C   UNL A   1      35.281  31.151  27.875  1.00  0.00     0.007 A 
ATOM     31  C   UNL A   1      32.952  30.911  27.257  1.00  0.00     0.050 A 
ATOM     32  C   UNL A   1      35.512  29.805  27.574  1.00  0.00    -0.047 A 
ATOM     33  C   UNL A   1      36.874  29.217  27.796  1.00  0.00     0.044 C 
ATOM     34  C   UNL A   1      34.460  29.039  27.055  1.00  0.00     0.050 A 
ENDBRANCH  26  27
ENDBRANCH  16  26
ENDBRANCH   8  15
ENDBRANCH   6   7
ENDBRANCH   5   6
ENDBRANCH   3   5
ENDBRANCH   2   3
ENDBRANCH   1   2
BRANCH   1  35
ATOM     35  C   UNL A   1      37.729  21.723  25.435  1.00  0.00     0.275 C 
BRANCH  35  36
ATOM     36  O   UNL A   1      38.446  22.377  26.495  1.00  0.00    -0.458 OA
BRANCH  36  37
ATOM     37  C   UNL A   1      39.719  21.972  26.698  1.00  0.00     0.338 C 
ATOM     38  O   UNL A   1      40.176  20.846  26.669  1.00  0.00    -0.246 OA
BRANCH  37  39
ATOM     39  C   UNL A   1      40.535  23.149  26.998  1.00  0.00     0.060 A 
ATOM     40  C   UNL A   1      41.347  23.165  28.135  1.00  0.00     0.016 A 
ATOM     41  C   UNL A   1      40.419  24.269  26.174  1.00  0.00     0.016 A 
ATOM     42  C   UNL A   1      42.050  24.322  28.458  1.00  0.00     0.010 A 
ATOM     43  C   UNL A   1      41.145  25.416  26.486  1.00  0.00     0.010 A 
ATOM     44  C   UNL A   1      41.955  25.452  27.633  1.00  0.00    -0.014 A 
BRANCH  44  45
ATOM     45  C   UNL A   1      42.675  26.698  27.974  1.00  0.00     0.031 A 
ATOM     46  C   UNL A   1      41.948  27.799  28.687  1.00  0.00     0.074 A 
ATOM     47  C   UNL A   1      43.962  26.840  27.609  1.00  0.00     0.049 A 
ATOM     48  N   UNL A   1      42.336  29.023  28.936  1.00  0.00    -0.248 NA
ATOM     49  C   UNL A   1      40.599  27.480  29.178  1.00  0.00     0.031 C 
ATOM     50  C   UNL A   1      44.770  25.811  26.952  1.00  0.00     0.029 A 
ATOM     51  N   UNL A   1      44.811  27.909  27.722  1.00  0.00    -0.354 N 
ATOM     52  C   UNL A   1      41.277  29.625  29.606  1.00  0.00     0.074 A 
ATOM     53  C   UNL A   1      40.220  28.639  29.696  1.00  0.00     0.031 C 
ATOM     54  C   UNL A   1      45.997  26.302  26.717  1.00  0.00     0.029 A 
ATOM     55  C   UNL A   1      46.042  27.696  27.149  1.00  0.00     0.049 A 
ATOM     56  H   UNL A   1      44.564  28.750  28.172  1.00  0.00     0.167 HD
ATOM     57  C   UNL A   1      41.202  30.884  30.103  1.00  0.00     0.034 A 
ATOM     58  C   UNL A   1      47.072  28.543  26.960  1.00  0.00     0.034 A 
ATOM     59  C   UNL A   1      42.265  31.853  29.980  1.00  0.00     0.049 A 
ATOM     60  C   UNL A   1      46.928  29.967  27.436  1.00  0.00     0.074 A 
ATOM     61  C   UNL A   1      42.296  33.167  30.416  1.00  0.00     0.029 A 
ATOM     62  N   UNL A   1      43.490  31.611  29.370  1.00  0.00    -0.354 N 
ATOM     63  N   UNL A   1      45.910  30.538  28.038  1.00  0.00    -0.248 NA
ATOM     64  C   UNL A   1      48.072  30.858  27.207  1.00  0.00     0.031 C 
ATOM     65  C   UNL A   1      43.515  33.732  30.025  1.00  0.00     0.029 A 
ATOM     66  C   UNL A   1      44.274  32.754  29.402  1.00  0.00     0.049 A 
ATOM     67  H   UNL A   1      43.762  30.752  28.973  1.00  0.00     0.167 HD
ATOM     68  C   UNL A   1      46.305  31.849  28.287  1.00  0.00     0.074 A 
ATOM     69  C   UNL A   1      47.656  31.979  27.780  1.00  0.00     0.031 C 
ATOM     70  C   UNL A   1      45.618  32.856  28.884  1.00  0.00     0.034 A 
BRANCH  57  71
ATOM     71  C   UNL A   1      39.912  31.287  30.771  1.00  0.00     0.023 A 
ATOM     72  C   UNL A   1      39.791  31.333  32.172  1.00  0.00     0.031 A 
ATOM     73  C   UNL A   1      38.776  31.595  30.002  1.00  0.00     0.131 A 
ATOM     74  C   UNL A   1      38.547  31.616  32.759  1.00  0.00     0.055 A 
ATOM     75  C   UNL A   1      37.559  31.945  30.592  1.00  0.00     0.041 A 
ATOM     76  F   UNL A   1      38.825  31.545  28.662  1.00  0.00    -0.206 F 
ATOM     77  C   UNL A   1      37.437  31.945  31.978  1.00  0.00     0.022 A 
BRANCH  74  78
ATOM     78  S   UNL A   1      38.370  31.426  34.554  1.00  0.00     0.124 S 
ATOM     79  O   UNL A   1      38.444  29.975  34.706  1.00  0.00    -0.237 OA
ATOM     80  O   UNL A   1      39.508  32.181  35.065  1.00  0.00    -0.237 OA
ATOM     81  O   UNL A   1      37.059  32.008  34.833  1.00  0.00    -0.744 OA
ENDBRANCH  74  78
ENDBRANCH  57  71
BRANCH  58  82
ATOM     82  C   UNL A   1      48.305  28.095  26.253  1.00  0.00     0.023 A 
ATOM     83  C   UNL A   1      48.344  28.015  24.853  1.00  0.00     0.031 A 
ATOM     84  C   UNL A   1      49.445  27.691  26.970  1.00  0.00     0.131 A 
ATOM     85  C   UNL A   1      49.483  27.499  24.214  1.00  0.00     0.055 A 
ATOM     86  C   UNL A   1      50.596  27.230  26.327  1.00  0.00     0.041 A 
ATOM     87  F   UNL A   1      49.461  27.748  28.312  1.00  0.00    -0.206 F 
ATOM     88  C   UNL A   1      50.613  27.118  24.942  1.00  0.00     0.022 A 
BRANCH  85  89
ATOM     89  S   UNL A   1      49.429  27.244  22.420  1.00  0.00     0.124 S 
ATOM     90  O   UNL A   1      48.535  26.096  22.308  1.00  0.00    -0.237 OA
ATOM     91  O   UNL A   1      48.899  28.519  21.950  1.00  0.00    -0.237 OA
ATOM     92  O   UNL A   1      50.823  26.984  22.071  1.00  0.00    -0.744 OA
ENDBRANCH  85  89
ENDBRANCH  58  82
BRANCH  70  93
ATOM     93  C   UNL A   1      46.351  34.160  29.064  1.00  0.00     0.023 A 
ATOM     94  C   UNL A   1      47.102  34.432  30.221  1.00  0.00     0.031 A 
ATOM     95  C   UNL A   1      46.275  35.151  28.070  1.00  0.00     0.131 A 
ATOM     96  C   UNL A   1      47.704  35.688  30.379  1.00  0.00     0.055 A 
ATOM     97  C   UNL A   1      46.922  36.379  28.210  1.00  0.00     0.041 A 
ATOM     98  F   UNL A   1      45.571  34.940  26.947  1.00  0.00    -0.206 F 
ATOM     99  C   UNL A   1      47.630  36.658  29.375  1.00  0.00     0.022 A 
BRANCH  96 100
ATOM    100  S   UNL A   1      48.522  36.070  31.951  1.00  0.00     0.124 S 
ATOM    101  O   UNL A   1      48.528  37.529  31.946  1.00  0.00    -0.237 OA
ATOM    102  O   UNL A   1      47.637  35.440  32.926  1.00  0.00    -0.237 OA
ATOM    103  O   UNL A   1      49.837  35.444  31.816  1.00  0.00    -0.744 OA
ENDBRANCH  96 100
ENDBRANCH  70  93
ENDBRANCH  44  45
ENDBRANCH  37  39
ENDBRANCH  36  37
ENDBRANCH  35  36
ENDBRANCH   1  35
TORSDOF 19
ENDMDL
MODEL 3
REMARK VINA RESULT:     -11.7      4.656     10.343
REMARK SMILES Cc1cc(C)cc(Oc2nc3ccccn3c(=O)c2/C=C2\SC(=S)N(CCC(=O)OCCOC(=O)c3ccc(-c4c5nc(c(-c6cc(S(=O)(=O)[O-])ccc6F)c6ccc([nH]6)c(-c6cc(S(=O)(=O)[O-])ccc6F)c6nc(c(-c7cc(S(=O)(=O)[O-])ccc7F)c7ccc4[nH]7)C=C6)C=C5)cc3)C2=O)c1
REMARK SMILES IDX 31 1 30 2 28 3 29 4 27 5 26 6 25 7 20 8 21 9 22 10 99 11
REMARK SMILES IDX 23 12 100 13 24 14 19 15 9 16 10 17 11 18 17 19 12 20 16 21
REMARK SMILES IDX 18 22 13 23 15 24 14 25 8 26 7 27 1 28 2 29 3 30 101 31 4 32
REMARK SMILES IDX 5 33 6 34 32 35 33 36 34 37 35 38 36 39 37 40 98 41 38 42
REMARK SMILES IDX 97 43 39 44 40 45 41 46 91 47 42 48 96 49 90 50 92 51 43 52
REMARK SMILES IDX 95 53 89 54 88 55 44 57 76 58 56 59 75 60 57 61 60 62 74 63
REMARK SMILES IDX 93 64 58 65 59 66 73 68 94 69 61 70 45 71 46 72 54 73 47 74
REMARK SMILES IDX 53 75 55 76 52 77 48 78 49 79 50 80 51 81 77 82 78 83 86 84
REMARK SMILES IDX 79 85 85 86 87 87 84 88 80 89 81 90 82 91 83 92 62 93 63 94
REMARK SMILES IDX 71 95 64 96 70 97 72 98 69 99 65 100 66 101 67 102 68 103
REMARK H PARENT 92 56 60 67
REMARK Flexibility Score: inf
ROOT
ATOM      1  C   UNL A   1      32.108  28.277  25.539  1.00  0.00     0.274 C 
ENDROOT
BRANCH   1   2
ATOM      2  O   UNL A   1      32.088  28.958  24.268  1.00  0.00    -0.462 OA
BRANCH   2   3
ATOM      3  C   UNL A   1      30.879  29.341  23.795  1.00  0.00     0.307 C 
ATOM      4  O   UNL A   1      30.254  30.321  24.175  1.00  0.00    -0.252 OA
BRANCH   3   5
ATOM      5  C   UNL A   1      30.337  28.369  22.774  1.00  0.00     0.144 C 
BRANCH   5   6
ATOM      6  C   UNL A   1      31.401  27.502  22.091  1.00  0.00     0.139 C 
BRANCH   6   7
ATOM      7  N   UNL A   1      31.307  26.098  22.498  1.00  0.00    -0.292 N 
ATOM      8  C   UNL A   1      33.292  23.182  22.946  1.00  0.00     0.041 C 
ATOM      9  C   UNL A   1      32.218  23.979  22.854  1.00  0.00     0.081 C 
ATOM     10  S   UNL A   1      30.723  23.888  23.691  1.00  0.00    -0.054 SA
ATOM     11  C   UNL A   1      32.263  25.209  22.047  1.00  0.00     0.266 C 
ATOM     12  C   UNL A   1      30.344  25.574  23.336  1.00  0.00     0.148 C 
ATOM     13  O   UNL A   1      33.059  25.367  21.139  1.00  0.00    -0.268 OA
ATOM     14  S   UNL A   1      29.020  26.339  24.002  1.00  0.00    -0.052 S 
BRANCH   8  15
ATOM     15  C   UNL A   1      33.337  21.972  23.738  1.00  0.00     0.104 A 
ATOM     16  C   UNL A   1      33.889  21.861  24.964  1.00  0.00     0.234 A 
ATOM     17  N   UNL A   1      33.873  20.697  25.693  1.00  0.00    -0.194 NA
ATOM     18  C   UNL A   1      33.255  19.671  25.201  1.00  0.00     0.143 A 
ATOM     19  C   UNL A   1      32.714  20.755  23.145  1.00  0.00     0.269 A 
ATOM     20  C   UNL A   1      33.190  18.413  26.002  1.00  0.00     0.048 A 
ATOM     21  N   UNL A   1      32.642  19.646  23.961  1.00  0.00    -0.267 N 
ATOM     22  O   UNL A   1      32.321  20.771  21.975  1.00  0.00    -0.268 OA
ATOM     23  C   UNL A   1      32.540  17.347  25.520  1.00  0.00     0.005 A 
ATOM     24  C   UNL A   1      31.987  18.512  23.496  1.00  0.00     0.096 A 
ATOM     25  C   UNL A   1      31.913  17.394  24.227  1.00  0.00     0.019 A 
BRANCH  16  26
ATOM     26  O   UNL A   1      34.650  22.889  25.524  1.00  0.00    -0.438 OA
BRANCH  26  27
ATOM     27  C   UNL A   1      36.012  22.782  25.699  1.00  0.00     0.130 A 
ATOM     28  C   UNL A   1      39.162  24.671  26.699  1.00  0.00     0.044 C 
ATOM     29  C   UNL A   1      38.238  23.578  26.251  1.00  0.00    -0.047 A 
ATOM     30  C   UNL A   1      38.773  22.350  25.844  1.00  0.00     0.007 A 
ATOM     31  C   UNL A   1      36.848  23.774  26.208  1.00  0.00     0.050 A 
ATOM     32  C   UNL A   1      37.939  21.314  25.411  1.00  0.00    -0.047 A 
ATOM     33  C   UNL A   1      38.533  19.988  25.035  1.00  0.00     0.044 C 
ATOM     34  C   UNL A   1      36.560  21.548  25.324  1.00  0.00     0.050 A 
ENDBRANCH  26  27
ENDBRANCH  16  26
ENDBRANCH   8  15
ENDBRANCH   6   7
ENDBRANCH   5   6
ENDBRANCH   3   5
ENDBRANCH   2   3
ENDBRANCH   1   2
BRANCH   1  35
ATOM     35  C   UNL A   1      32.334  29.251  26.696  1.00  0.00     0.275 C 
BRANCH  35  36
ATOM     36  O   UNL A   1      33.417  30.142  26.382  1.00  0.00    -0.458 OA
BRANCH  36  37
ATOM     37  C   UNL A   1      33.565  31.217  27.188  1.00  0.00     0.338 C 
ATOM     38  O   UNL A   1      32.842  32.187  27.306  1.00  0.00    -0.246 OA
BRANCH  37  39
ATOM     39  C   UNL A   1      34.808  31.060  27.943  1.00  0.00     0.060 A 
ATOM     40  C   UNL A   1      35.724  32.113  28.006  1.00  0.00     0.016 A 
ATOM     41  C   UNL A   1      35.087  29.822  28.520  1.00  0.00     0.016 A 
ATOM     42  C   UNL A   1      36.943  31.923  28.652  1.00  0.00     0.010 A 
ATOM     43  C   UNL A   1      36.295  29.644  29.189  1.00  0.00     0.010 A 
ATOM     44  C   UNL A   1      37.232  30.688  29.249  1.00  0.00    -0.014 A 
BRANCH  44  45
ATOM     45  C   UNL A   1      38.532  30.460  29.919  1.00  0.00     0.031 A 
ATOM     46  C   UNL A   1      39.554  29.578  29.264  1.00  0.00     0.074 A 
ATOM     47  C   UNL A   1      38.765  31.019  31.120  1.00  0.00     0.049 A 
ATOM     48  N   UNL A   1      40.680  29.118  29.744  1.00  0.00    -0.248 NA
ATOM     49  C   UNL A   1      39.262  29.150  27.888  1.00  0.00     0.031 C 
ATOM     50  C   UNL A   1      37.854  31.928  31.817  1.00  0.00     0.029 A 
ATOM     51  N   UNL A   1      39.829  30.892  31.973  1.00  0.00    -0.354 N 
ATOM     52  C   UNL A   1      41.230  28.340  28.732  1.00  0.00     0.074 A 
ATOM     53  C   UNL A   1      40.297  28.366  27.625  1.00  0.00     0.031 C 
ATOM     54  C   UNL A   1      38.398  32.273  32.995  1.00  0.00     0.029 A 
ATOM     55  C   UNL A   1      39.662  31.563  33.161  1.00  0.00     0.049 A 
ATOM     56  H   UNL A   1      40.636  30.372  31.756  1.00  0.00     0.167 HD
ATOM     57  C   UNL A   1      42.410  27.671  28.732  1.00  0.00     0.034 A 
ATOM     58  C   UNL A   1      40.426  31.570  34.271  1.00  0.00     0.034 A 
ATOM     59  C   UNL A   1      43.311  27.646  29.859  1.00  0.00     0.049 A 
ATOM     60  C   UNL A   1      41.686  30.741  34.281  1.00  0.00     0.074 A 
ATOM     61  C   UNL A   1      44.519  26.982  29.989  1.00  0.00     0.029 A 
ATOM     62  N   UNL A   1      43.098  28.316  31.058  1.00  0.00    -0.354 N 
ATOM     63  N   UNL A   1      42.182  29.980  33.332  1.00  0.00    -0.248 NA
ATOM     64  C   UNL A   1      42.487  30.773  35.511  1.00  0.00     0.031 C 
ATOM     65  C   UNL A   1      45.009  27.208  31.281  1.00  0.00     0.029 A 
ATOM     66  C   UNL A   1      44.142  28.067  31.937  1.00  0.00     0.049 A 
ATOM     67  H   UNL A   1      42.320  28.886  31.255  1.00  0.00     0.167 HD
ATOM     68  C   UNL A   1      43.370  29.467  33.842  1.00  0.00     0.074 A 
ATOM     69  C   UNL A   1      43.521  30.015  35.175  1.00  0.00     0.031 C 
ATOM     70  C   UNL A   1      44.263  28.623  33.263  1.00  0.00     0.034 A 
BRANCH  57  71
ATOM     71  C   UNL A   1      42.753  26.878  27.496  1.00  0.00     0.023 A 
ATOM     72  C   UNL A   1      42.576  25.483  27.443  1.00  0.00     0.031 A 
ATOM     73  C   UNL A   1      43.298  27.515  26.367  1.00  0.00     0.131 A 
ATOM     74  C   UNL A   1      42.999  24.765  26.314  1.00  0.00     0.055 A 
ATOM     75  C   UNL A   1      43.651  26.804  25.219  1.00  0.00     0.041 A 
ATOM     76  F   UNL A   1      43.511  28.840  26.368  1.00  0.00    -0.206 F 
ATOM     77  C   UNL A   1      43.515  25.420  25.192  1.00  0.00     0.022 A 
BRANCH  74  78
ATOM     78  S   UNL A   1      42.984  22.953  26.380  1.00  0.00     0.124 S 
ATOM     79  O   UNL A   1      44.379  22.657  26.695  1.00  0.00    -0.237 OA
ATOM     80  O   UNL A   1      42.018  22.684  27.439  1.00  0.00    -0.237 OA
ATOM     81  O   UNL A   1      42.560  22.565  25.036  1.00  0.00    -0.744 OA
ENDBRANCH  74  78
ENDBRANCH  57  71
BRANCH  58  82
ATOM     82  C   UNL A   1      40.009  32.341  35.476  1.00  0.00     0.023 A 
ATOM     83  C   UNL A   1      39.150  31.776  36.431  1.00  0.00     0.031 A 
ATOM     84  C   UNL A   1      40.423  33.672  35.664  1.00  0.00     0.131 A 
ATOM     85  C   UNL A   1      38.695  32.554  37.507  1.00  0.00     0.055 A 
ATOM     86  C   UNL A   1      40.010  34.424  36.766  1.00  0.00     0.041 A 
ATOM     87  F   UNL A   1      41.245  34.260  34.780  1.00  0.00    -0.206 F 
ATOM     88  C   UNL A   1      39.129  33.869  37.687  1.00  0.00     0.022 A 
BRANCH  85  89
ATOM     89  S   UNL A   1      37.448  31.849  38.619  1.00  0.00     0.124 S 
ATOM     90  O   UNL A   1      37.221  30.538  38.020  1.00  0.00    -0.237 OA
ATOM     91  O   UNL A   1      38.146  31.857  39.900  1.00  0.00    -0.237 OA
ATOM     92  O   UNL A   1      36.331  32.784  38.514  1.00  0.00    -0.744 OA
ENDBRANCH  85  89
ENDBRANCH  58  82
BRANCH  70  93
ATOM     93  C   UNL A   1      45.500  28.298  34.059  1.00  0.00     0.023 A 
ATOM     94  C   UNL A   1      45.548  27.199  34.934  1.00  0.00     0.031 A 
ATOM     95  C   UNL A   1      46.638  29.117  33.955  1.00  0.00     0.131 A 
ATOM     96  C   UNL A   1      46.693  26.979  35.712  1.00  0.00     0.055 A 
ATOM     97  C   UNL A   1      47.794  28.861  34.692  1.00  0.00     0.041 A 
ATOM     98  F   UNL A   1      46.642  30.179  33.134  1.00  0.00    -0.206 F 
ATOM     99  C   UNL A   1      47.821  27.795  35.587  1.00  0.00     0.022 A 
BRANCH  96 100
ATOM    100  S   UNL A   1      46.663  25.657  36.952  1.00  0.00     0.124 S 
ATOM    101  O   UNL A   1      47.322  24.562  36.247  1.00  0.00    -0.237 OA
ATOM    102  O   UNL A   1      47.412  26.246  38.058  1.00  0.00    -0.237 OA
ATOM    103  O   UNL A   1      45.237  25.459  37.210  1.00  0.00    -0.744 OA
ENDBRANCH  96 100
ENDBRANCH  70  93
ENDBRANCH  44  45
ENDBRANCH  37  39
ENDBRANCH  36  37
ENDBRANCH  35  36
ENDBRANCH   1  35
TORSDOF 19
ENDMDL
