MODEL 1
REMARK VINA RESULT:     -10.3      0.000      0.000
REMARK SMILES CC[C@H](C)[NH2+]CCc1ccc(C(=O)OCCOC(=O)c2ccc(-c3c4nc(c(-c5cc(S(=O)(=O)[O-])ccc5F)c5ccc([nH]5)c(-c5cc(S(=O)(=O)[O-])ccc5F)c5nc(c(-c6cc(S(=O)(=O)[O-])ccc6F)c6ccc3[nH]6)C=C5)C=C4)cc2)cc1
REMARK SMILES IDX 15 1 14 2 12 3 13 4 11 5 8 6 9 7 84 8 10 9 83 10 7 11 6 12
REMARK SMILES IDX 5 13 3 16 4 17 2 18 1 19 16 20 17 21 18 22 19 23 20 24 21 25
REMARK SMILES IDX 82 26 22 27 81 28 23 29 24 30 25 31 75 32 26 33 80 34 74 35
REMARK SMILES IDX 76 36 27 37 79 38 73 39 72 40 28 42 60 43 40 44 59 45 41 46
REMARK SMILES IDX 44 47 58 48 77 49 42 50 43 51 57 53 78 54 45 55 29 56 30 57
REMARK SMILES IDX 38 58 31 59 37 60 39 61 36 62 32 63 33 64 34 65 35 66 61 67
REMARK SMILES IDX 62 68 70 69 63 70 69 71 71 72 68 73 64 74 65 75 66 76 67 77
REMARK SMILES IDX 46 78 47 79 55 80 48 81 54 82 56 83 53 84 49 85 50 86 51 87
REMARK SMILES IDX 52 88
REMARK H PARENT 5 14 5 15 76 41 44 52
REMARK Flexibility Score: inf
ROOT
ATOM      1  C   UNL A   1      35.063  20.601  25.348  1.00  0.00     0.275 C 
ENDROOT
BRANCH   1   2
ATOM      2  O   UNL A   1      34.193  21.035  24.286  1.00  0.00    -0.458 OA
BRANCH   2   3
ATOM      3  C   UNL A   1      33.058  21.666  24.678  1.00  0.00     0.338 C 
ATOM      4  O   UNL A   1      31.961  21.158  24.814  1.00  0.00    -0.246 OA
BRANCH   3   5
ATOM      5  C   UNL A   1      33.336  23.085  25.018  1.00  0.00     0.060 A 
ATOM      6  C   UNL A   1      33.694  25.793  25.666  1.00  0.00    -0.042 A 
ATOM      7  C   UNL A   1      32.762  25.019  26.363  1.00  0.00     0.005 A 
ATOM      8  C   UNL A   1      34.503  25.178  24.698  1.00  0.00     0.005 A 
ATOM      9  C   UNL A   1      32.557  23.687  26.012  1.00  0.00     0.016 A 
ATOM     10  C   UNL A   1      34.324  23.831  24.370  1.00  0.00     0.016 A 
BRANCH   6  11
ATOM     11  C   UNL A   1      33.752  27.281  25.935  1.00  0.00     0.097 C 
BRANCH  11  12
ATOM     12  C   UNL A   1      33.221  28.175  24.795  1.00  0.00     0.265 C 
BRANCH  12  13
ATOM     13  N   UNL A   1      32.036  27.719  24.060  1.00  0.00    -0.344 N 
ATOM     14  H   UNL A   1      31.786  26.794  24.410  1.00  0.00     0.346 HD
ATOM     15  H   UNL A   1      31.322  28.431  24.219  1.00  0.00     0.346 HD
BRANCH  13  16
ATOM     16  C   UNL A   1      32.180  27.623  22.606  1.00  0.00     0.178 C 
ATOM     17  C   UNL A   1      33.654  27.920  22.308  1.00  0.00     0.075 C 
BRANCH  16  18
ATOM     18  C   UNL A   1      31.755  26.269  22.000  1.00  0.00     0.061 C 
ATOM     19  C   UNL A   1      31.096  25.285  22.960  1.00  0.00     0.010 C 
ENDBRANCH  16  18
ENDBRANCH  13  16
ENDBRANCH  12  13
ENDBRANCH  11  12
ENDBRANCH   6  11
ENDBRANCH   3   5
ENDBRANCH   2   3
ENDBRANCH   1   2
BRANCH   1  20
ATOM     20  C   UNL A   1      36.524  20.667  24.908  1.00  0.00     0.275 C 
BRANCH  20  21
ATOM     21  O   UNL A   1      37.228  21.671  25.662  1.00  0.00    -0.458 OA
BRANCH  21  22
ATOM     22  C   UNL A   1      38.536  21.411  25.896  1.00  0.00     0.338 C 
ATOM     23  O   UNL A   1      39.152  20.397  25.615  1.00  0.00    -0.246 OA
BRANCH  22  24
ATOM     24  C   UNL A   1      39.170  22.583  26.522  1.00  0.00     0.060 A 
ATOM     25  C   UNL A   1      38.715  23.850  26.175  1.00  0.00     0.016 A 
ATOM     26  C   UNL A   1      40.302  22.444  27.321  1.00  0.00     0.016 A 
ATOM     27  C   UNL A   1      39.439  24.983  26.537  1.00  0.00     0.010 A 
ATOM     28  C   UNL A   1      40.968  23.591  27.776  1.00  0.00     0.010 A 
ATOM     29  C   UNL A   1      40.570  24.876  27.358  1.00  0.00    -0.014 A 
BRANCH  29  30
ATOM     30  C   UNL A   1      41.352  26.094  27.735  1.00  0.00     0.031 A 
ATOM     31  C   UNL A   1      40.721  27.166  28.591  1.00  0.00     0.074 A 
ATOM     32  C   UNL A   1      42.632  26.243  27.334  1.00  0.00     0.049 A 
ATOM     33  N   UNL A   1      41.152  28.371  28.869  1.00  0.00    -0.248 NA
ATOM     34  C   UNL A   1      39.421  26.842  29.198  1.00  0.00     0.031 C 
ATOM     35  C   UNL A   1      43.395  25.268  26.551  1.00  0.00     0.029 A 
ATOM     36  N   UNL A   1      43.525  27.269  27.533  1.00  0.00    -0.354 N 
ATOM     37  C   UNL A   1      40.153  28.969  29.633  1.00  0.00     0.074 A 
ATOM     38  C   UNL A   1      39.087  27.995  29.757  1.00  0.00     0.031 C 
ATOM     39  C   UNL A   1      44.645  25.720  26.376  1.00  0.00     0.029 A 
ATOM     40  C   UNL A   1      44.748  27.063  26.933  1.00  0.00     0.049 A 
ATOM     41  H   UNL A   1      43.312  28.076  28.056  1.00  0.00     0.167 HD
ATOM     42  C   UNL A   1      40.128  30.213  30.176  1.00  0.00     0.034 A 
ATOM     43  C   UNL A   1      45.815  27.876  26.793  1.00  0.00     0.034 A 
ATOM     44  C   UNL A   1      41.219  31.154  30.082  1.00  0.00     0.049 A 
ATOM     45  C   UNL A   1      45.744  29.273  27.353  1.00  0.00     0.074 A 
ATOM     46  C   UNL A   1      41.307  32.431  30.613  1.00  0.00     0.029 A 
ATOM     47  N   UNL A   1      42.419  30.922  29.420  1.00  0.00    -0.354 N 
ATOM     48  N   UNL A   1      44.765  29.848  28.013  1.00  0.00    -0.248 NA
ATOM     49  C   UNL A   1      46.912  30.132  27.134  1.00  0.00     0.031 C 
ATOM     50  C   UNL A   1      42.527  32.992  30.216  1.00  0.00     0.029 A 
ATOM     51  C   UNL A   1      43.238  32.039  29.505  1.00  0.00     0.049 A 
ATOM     52  H   UNL A   1      42.654  30.085  28.958  1.00  0.00     0.167 HD
ATOM     53  C   UNL A   1      45.210  31.135  28.301  1.00  0.00     0.074 A 
ATOM     54  C   UNL A   1      46.552  31.240  27.764  1.00  0.00     0.031 C 
ATOM     55  C   UNL A   1      44.567  32.140  28.949  1.00  0.00     0.034 A 
BRANCH  42  56
ATOM     56  C   UNL A   1      38.854  30.649  30.867  1.00  0.00     0.023 A 
ATOM     57  C   UNL A   1      37.820  31.316  30.189  1.00  0.00     0.031 A 
ATOM     58  C   UNL A   1      38.688  30.416  32.246  1.00  0.00     0.131 A 
ATOM     59  C   UNL A   1      36.707  31.793  30.900  1.00  0.00     0.055 A 
ATOM     60  C   UNL A   1      37.540  30.818  32.931  1.00  0.00     0.041 A 
ATOM     61  F   UNL A   1      39.649  29.801  32.955  1.00  0.00    -0.206 F 
ATOM     62  C   UNL A   1      36.547  31.526  32.262  1.00  0.00     0.022 A 
BRANCH  59  63
ATOM     63  S   UNL A   1      35.541  32.896  30.053  1.00  0.00     0.124 S 
ATOM     64  O   UNL A   1      34.781  31.952  29.239  1.00  0.00    -0.237 OA
ATOM     65  O   UNL A   1      34.820  33.506  31.165  1.00  0.00    -0.237 OA
ATOM     66  O   UNL A   1      36.409  33.799  29.301  1.00  0.00    -0.744 OA
ENDBRANCH  59  63
ENDBRANCH  42  56
BRANCH  43  67
ATOM     67  C   UNL A   1      47.011  27.423  26.024  1.00  0.00     0.023 A 
ATOM     68  C   UNL A   1      47.189  27.778  24.677  1.00  0.00     0.031 A 
ATOM     69  C   UNL A   1      47.981  26.593  26.618  1.00  0.00     0.131 A 
ATOM     70  C   UNL A   1      48.291  27.282  23.963  1.00  0.00     0.055 A 
ATOM     71  C   UNL A   1      49.105  26.152  25.920  1.00  0.00     0.041 A 
ATOM     72  F   UNL A   1      47.857  26.214  27.901  1.00  0.00    -0.206 F 
ATOM     73  C   UNL A   1      49.259  26.487  24.580  1.00  0.00     0.022 A 
BRANCH  70  74
ATOM     74  S   UNL A   1      48.400  27.622  22.184  1.00  0.00     0.124 S 
ATOM     75  O   UNL A   1      47.118  28.268  21.926  1.00  0.00    -0.237 OA
ATOM     76  O   UNL A   1      49.577  28.481  22.111  1.00  0.00    -0.237 OA
ATOM     77  O   UNL A   1      48.562  26.296  21.592  1.00  0.00    -0.744 OA
ENDBRANCH  70  74
ENDBRANCH  43  67
BRANCH  55  78
ATOM     78  C   UNL A   1      45.334  33.425  29.143  1.00  0.00     0.023 A 
ATOM     79  C   UNL A   1      45.332  34.442  28.172  1.00  0.00     0.031 A 
ATOM     80  C   UNL A   1      46.099  33.622  30.306  1.00  0.00     0.131 A 
ATOM     81  C   UNL A   1      46.127  35.583  28.354  1.00  0.00     0.055 A 
ATOM     82  C   UNL A   1      46.840  34.788  30.510  1.00  0.00     0.041 A 
ATOM     83  F   UNL A   1      46.141  32.683  31.265  1.00  0.00    -0.206 F 
ATOM     84  C   UNL A   1      46.867  35.770  29.524  1.00  0.00     0.022 A 
BRANCH  81  85
ATOM     85  S   UNL A   1      46.259  36.779  26.997  1.00  0.00     0.124 S 
ATOM     86  O   UNL A   1      46.360  35.905  25.832  1.00  0.00    -0.237 OA
ATOM     87  O   UNL A   1      45.017  37.534  27.123  1.00  0.00    -0.237 OA
ATOM     88  O   UNL A   1      47.473  37.528  27.316  1.00  0.00    -0.744 OA
ENDBRANCH  81  85
ENDBRANCH  55  78
ENDBRANCH  29  30
ENDBRANCH  22  24
ENDBRANCH  21  22
ENDBRANCH  20  21
ENDBRANCH   1  20
TORSDOF 19
ENDMDL
MODEL 2
REMARK VINA RESULT:     -10.1      1.702      2.303
REMARK SMILES CC[C@H](C)[NH2+]CCc1ccc(C(=O)OCCOC(=O)c2ccc(-c3c4nc(c(-c5cc(S(=O)(=O)[O-])ccc5F)c5ccc([nH]5)c(-c5cc(S(=O)(=O)[O-])ccc5F)c5nc(c(-c6cc(S(=O)(=O)[O-])ccc6F)c6ccc3[nH]6)C=C5)C=C4)cc2)cc1
REMARK SMILES IDX 15 1 14 2 12 3 13 4 11 5 8 6 9 7 84 8 10 9 83 10 7 11 6 12
REMARK SMILES IDX 5 13 3 16 4 17 2 18 1 19 16 20 17 21 18 22 19 23 20 24 21 25
REMARK SMILES IDX 82 26 22 27 81 28 23 29 24 30 25 31 75 32 26 33 80 34 74 35
REMARK SMILES IDX 76 36 27 37 79 38 73 39 72 40 28 42 60 43 40 44 59 45 41 46
REMARK SMILES IDX 44 47 58 48 77 49 42 50 43 51 57 53 78 54 45 55 29 56 30 57
REMARK SMILES IDX 38 58 31 59 37 60 39 61 36 62 32 63 33 64 34 65 35 66 61 67
REMARK SMILES IDX 62 68 70 69 63 70 69 71 71 72 68 73 64 74 65 75 66 76 67 77
REMARK SMILES IDX 46 78 47 79 55 80 48 81 54 82 56 83 53 84 49 85 50 86 51 87
REMARK SMILES IDX 52 88
REMARK H PARENT 5 14 5 15 76 41 44 52
REMARK Flexibility Score: inf
ROOT
ATOM      1  C   UNL A   1      34.938  20.375  24.948  1.00  0.00     0.275 C 
ENDROOT
BRANCH   1   2
ATOM      2  O   UNL A   1      33.829  21.034  24.310  1.00  0.00    -0.458 OA
BRANCH   2   3
ATOM      3  C   UNL A   1      32.609  20.782  24.849  1.00  0.00     0.338 C 
ATOM      4  O   UNL A   1      32.176  19.692  25.174  1.00  0.00    -0.246 OA
BRANCH   3   5
ATOM      5  C   UNL A   1      31.867  22.046  25.084  1.00  0.00     0.060 A 
ATOM      6  C   UNL A   1      30.581  24.518  25.436  1.00  0.00    -0.042 A 
ATOM      7  C   UNL A   1      31.052  24.141  24.174  1.00  0.00     0.005 A 
ATOM      8  C   UNL A   1      30.686  23.609  26.501  1.00  0.00     0.005 A 
ATOM      9  C   UNL A   1      31.726  22.934  24.011  1.00  0.00     0.016 A 
ATOM     10  C   UNL A   1      31.330  22.381  26.329  1.00  0.00     0.016 A 
BRANCH   6  11
ATOM     11  C   UNL A   1      30.033  25.915  25.622  1.00  0.00     0.097 C 
BRANCH  11  12
ATOM     12  C   UNL A   1      30.541  26.960  24.606  1.00  0.00     0.265 C 
BRANCH  12  13
ATOM     13  N   UNL A   1      31.928  27.424  24.733  1.00  0.00    -0.344 N 
ATOM     14  H   UNL A   1      32.497  26.893  24.074  1.00  0.00     0.346 HD
ATOM     15  H   UNL A   1      31.902  28.427  24.547  1.00  0.00     0.346 HD
BRANCH  13  16
ATOM     16  C   UNL A   1      32.533  27.285  26.060  1.00  0.00     0.178 C 
ATOM     17  C   UNL A   1      33.801  26.446  25.858  1.00  0.00     0.075 C 
BRANCH  16  18
ATOM     18  C   UNL A   1      32.858  28.616  26.768  1.00  0.00     0.061 C 
ATOM     19  C   UNL A   1      34.331  28.872  27.065  1.00  0.00     0.010 C 
ENDBRANCH  16  18
ENDBRANCH  13  16
ENDBRANCH  12  13
ENDBRANCH  11  12
ENDBRANCH   6  11
ENDBRANCH   3   5
ENDBRANCH   2   3
ENDBRANCH   1   2
BRANCH   1  20
ATOM     20  C   UNL A   1      35.777  21.377  25.739  1.00  0.00     0.275 C 
BRANCH  20  21
ATOM     21  O   UNL A   1      36.969  21.718  25.007  1.00  0.00    -0.458 OA
BRANCH  21  22
ATOM     22  C   UNL A   1      38.130  21.285  25.553  1.00  0.00     0.338 C 
ATOM     23  O   UNL A   1      38.617  20.170  25.472  1.00  0.00    -0.246 OA
BRANCH  22  24
ATOM     24  C   UNL A   1      38.792  22.397  26.255  1.00  0.00     0.060 A 
ATOM     25  C   UNL A   1      38.355  23.694  26.008  1.00  0.00     0.016 A 
ATOM     26  C   UNL A   1      39.932  22.180  27.026  1.00  0.00     0.016 A 
ATOM     27  C   UNL A   1      39.103  24.785  26.443  1.00  0.00     0.010 A 
ATOM     28  C   UNL A   1      40.623  23.279  27.554  1.00  0.00     0.010 A 
ATOM     29  C   UNL A   1      40.242  24.598  27.238  1.00  0.00    -0.014 A 
BRANCH  29  30
ATOM     30  C   UNL A   1      41.050  25.772  27.693  1.00  0.00     0.031 A 
ATOM     31  C   UNL A   1      40.424  26.830  28.570  1.00  0.00     0.074 A 
ATOM     32  C   UNL A   1      42.348  25.893  27.344  1.00  0.00     0.049 A 
ATOM     33  N   UNL A   1      40.885  28.006  28.914  1.00  0.00    -0.248 NA
ATOM     34  C   UNL A   1      39.093  26.527  29.117  1.00  0.00     0.031 C 
ATOM     35  C   UNL A   1      43.106  24.924  26.548  1.00  0.00     0.029 A 
ATOM     36  N   UNL A   1      43.267  26.879  27.617  1.00  0.00    -0.354 N 
ATOM     37  C   UNL A   1      39.879  28.607  29.667  1.00  0.00     0.074 A 
ATOM     38  C   UNL A   1      38.778  27.667  29.713  1.00  0.00     0.031 C 
ATOM     39  C   UNL A   1      44.376  25.340  26.435  1.00  0.00     0.029 A 
ATOM     40  C   UNL A   1      44.503  26.654  27.052  1.00  0.00     0.049 A 
ATOM     41  H   UNL A   1      43.062  27.670  28.165  1.00  0.00     0.167 HD
ATOM     42  C   UNL A   1      39.875  29.828  30.261  1.00  0.00     0.034 A 
ATOM     43  C   UNL A   1      45.601  27.435  26.983  1.00  0.00     0.034 A 
ATOM     44  C   UNL A   1      41.000  30.734  30.245  1.00  0.00     0.049 A 
ATOM     45  C   UNL A   1      45.556  28.809  27.599  1.00  0.00     0.074 A 
ATOM     46  C   UNL A   1      41.111  31.984  30.831  1.00  0.00     0.029 A 
ATOM     47  N   UNL A   1      42.214  30.487  29.616  1.00  0.00    -0.354 N 
ATOM     48  N   UNL A   1      44.573  29.391  28.248  1.00  0.00    -0.248 NA
ATOM     49  C   UNL A   1      46.759  29.636  27.457  1.00  0.00     0.031 C 
ATOM     50  C   UNL A   1      42.362  32.518  30.501  1.00  0.00     0.029 A 
ATOM     51  C   UNL A   1      43.066  31.571  29.776  1.00  0.00     0.049 A 
ATOM     52  H   UNL A   1      42.438  29.662  29.127  1.00  0.00     0.167 HD
ATOM     53  C   UNL A   1      45.050  30.649  28.605  1.00  0.00     0.074 A 
ATOM     54  C   UNL A   1      46.413  30.729  28.120  1.00  0.00     0.031 C 
ATOM     55  C   UNL A   1      44.417  31.648  29.272  1.00  0.00     0.034 A 
BRANCH  42  56
ATOM     56  C   UNL A   1      38.592  30.280  30.925  1.00  0.00     0.023 A 
ATOM     57  C   UNL A   1      37.584  30.965  30.226  1.00  0.00     0.031 A 
ATOM     58  C   UNL A   1      38.391  30.042  32.298  1.00  0.00     0.131 A 
ATOM     59  C   UNL A   1      36.462  31.455  30.914  1.00  0.00     0.055 A 
ATOM     60  C   UNL A   1      37.234  30.458  32.959  1.00  0.00     0.041 A 
ATOM     61  F   UNL A   1      39.326  29.409  33.026  1.00  0.00    -0.206 F 
ATOM     62  C   UNL A   1      36.267  31.184  32.270  1.00  0.00     0.022 A 
BRANCH  59  63
ATOM     63  S   UNL A   1      35.333  32.580  30.046  1.00  0.00     0.124 S 
ATOM     64  O   UNL A   1      34.337  32.853  31.079  1.00  0.00    -0.237 OA
ATOM     65  O   UNL A   1      36.207  33.692  29.692  1.00  0.00    -0.237 OA
ATOM     66  O   UNL A   1      34.851  31.781  28.922  1.00  0.00    -0.744 OA
ENDBRANCH  59  63
ENDBRANCH  42  56
BRANCH  43  67
ATOM     67  C   UNL A   1      46.809  26.972  26.238  1.00  0.00     0.023 A 
ATOM     68  C   UNL A   1      47.874  26.340  26.898  1.00  0.00     0.031 A 
ATOM     69  C   UNL A   1      46.931  27.190  24.853  1.00  0.00     0.131 A 
ATOM     70  C   UNL A   1      49.024  25.976  26.181  1.00  0.00     0.055 A 
ATOM     71  C   UNL A   1      48.051  26.773  24.134  1.00  0.00     0.041 A 
ATOM     72  F   UNL A   1      45.947  27.799  24.171  1.00  0.00    -0.206 F 
ATOM     73  C   UNL A   1      49.112  26.171  24.801  1.00  0.00     0.022 A 
BRANCH  70  74
ATOM     74  S   UNL A   1      50.447  25.316  27.093  1.00  0.00     0.124 S 
ATOM     75  O   UNL A   1      51.341  24.928  26.008  1.00  0.00    -0.237 OA
ATOM     76  O   UNL A   1      50.862  26.469  27.884  1.00  0.00    -0.237 OA
ATOM     77  O   UNL A   1      49.878  24.209  27.859  1.00  0.00    -0.744 OA
ENDBRANCH  70  74
ENDBRANCH  43  67
BRANCH  55  78
ATOM     78  C   UNL A   1      45.219  32.897  29.546  1.00  0.00     0.023 A 
ATOM     79  C   UNL A   1      45.237  33.978  28.647  1.00  0.00     0.031 A 
ATOM     80  C   UNL A   1      45.998  32.994  30.713  1.00  0.00     0.131 A 
ATOM     81  C   UNL A   1      46.063  35.083  28.900  1.00  0.00     0.055 A 
ATOM     82  C   UNL A   1      46.770  34.124  30.990  1.00  0.00     0.041 A 
ATOM     83  F   UNL A   1      46.022  31.990  31.605  1.00  0.00    -0.206 F 
ATOM     84  C   UNL A   1      46.817  35.170  30.073  1.00  0.00     0.022 A 
BRANCH  81  85
ATOM     85  S   UNL A   1      46.216  36.366  27.626  1.00  0.00     0.124 S 
ATOM     86  O   UNL A   1      47.606  36.784  27.783  1.00  0.00    -0.237 OA
ATOM     87  O   UNL A   1      45.904  35.633  26.405  1.00  0.00    -0.237 OA
ATOM     88  O   UNL A   1      45.221  37.362  28.022  1.00  0.00    -0.744 OA
ENDBRANCH  81  85
ENDBRANCH  55  78
ENDBRANCH  29  30
ENDBRANCH  22  24
ENDBRANCH  21  22
ENDBRANCH  20  21
ENDBRANCH   1  20
TORSDOF 19
ENDMDL
MODEL 3
REMARK VINA RESULT:      -9.9      1.007      7.882
REMARK SMILES CC[C@H](C)[NH2+]CCc1ccc(C(=O)OCCOC(=O)c2ccc(-c3c4nc(c(-c5cc(S(=O)(=O)[O-])ccc5F)c5ccc([nH]5)c(-c5cc(S(=O)(=O)[O-])ccc5F)c5nc(c(-c6cc(S(=O)(=O)[O-])ccc6F)c6ccc3[nH]6)C=C5)C=C4)cc2)cc1
REMARK SMILES IDX 15 1 14 2 12 3 13 4 11 5 8 6 9 7 84 8 10 9 83 10 7 11 6 12
REMARK SMILES IDX 5 13 3 16 4 17 2 18 1 19 16 20 17 21 18 22 19 23 20 24 21 25
REMARK SMILES IDX 82 26 22 27 81 28 23 29 24 30 25 31 75 32 26 33 80 34 74 35
REMARK SMILES IDX 76 36 27 37 79 38 73 39 72 40 28 42 60 43 40 44 59 45 41 46
REMARK SMILES IDX 44 47 58 48 77 49 42 50 43 51 57 53 78 54 45 55 29 56 30 57
REMARK SMILES IDX 38 58 31 59 37 60 39 61 36 62 32 63 33 64 34 65 35 66 61 67
REMARK SMILES IDX 62 68 70 69 63 70 69 71 71 72 68 73 64 74 65 75 66 76 67 77
REMARK SMILES IDX 46 78 47 79 55 80 48 81 54 82 56 83 53 84 49 85 50 86 51 87
REMARK SMILES IDX 52 88
REMARK H PARENT 5 14 5 15 76 41 44 52
REMARK Flexibility Score: inf
ROOT
ATOM      1  C   UNL A   1      36.241  20.678  24.674  1.00  0.00     0.275 C 
ENDROOT
BRANCH   1   2
ATOM      2  O   UNL A   1      35.910  22.070  24.828  1.00  0.00    -0.458 OA
BRANCH   2   3
ATOM      3  C   UNL A   1      35.692  22.751  23.675  1.00  0.00     0.338 C 
ATOM      4  O   UNL A   1      36.502  22.947  22.789  1.00  0.00    -0.246 OA
BRANCH   3   5
ATOM      5  C   UNL A   1      34.272  23.175  23.576  1.00  0.00     0.060 A 
ATOM      6  C   UNL A   1      31.642  24.136  23.360  1.00  0.00    -0.042 A 
ATOM      7  C   UNL A   1      32.614  24.526  22.433  1.00  0.00     0.005 A 
ATOM      8  C   UNL A   1      31.980  23.196  24.346  1.00  0.00     0.005 A 
ATOM      9  C   UNL A   1      33.926  24.082  22.566  1.00  0.00     0.016 A 
ATOM     10  C   UNL A   1      33.289  22.720  24.458  1.00  0.00     0.016 A 
BRANCH   6  11
ATOM     11  C   UNL A   1      30.279  24.789  23.305  1.00  0.00     0.097 C 
BRANCH  11  12
ATOM     12  C   UNL A   1      30.026  25.869  24.378  1.00  0.00     0.265 C 
BRANCH  12  13
ATOM     13  N   UNL A   1      30.737  27.146  24.249  1.00  0.00    -0.344 N 
ATOM     14  H   UNL A   1      31.204  27.154  23.342  1.00  0.00     0.346 HD
ATOM     15  H   UNL A   1      30.026  27.870  24.358  1.00  0.00     0.346 HD
BRANCH  13  16
ATOM     16  C   UNL A   1      31.745  27.427  25.274  1.00  0.00     0.178 C 
ATOM     17  C   UNL A   1      31.387  26.539  26.472  1.00  0.00     0.075 C 
BRANCH  16  18
ATOM     18  C   UNL A   1      33.204  27.195  24.830  1.00  0.00     0.061 C 
ATOM     19  C   UNL A   1      34.008  26.208  25.669  1.00  0.00     0.010 C 
ENDBRANCH  16  18
ENDBRANCH  13  16
ENDBRANCH  12  13
ENDBRANCH  11  12
ENDBRANCH   6  11
ENDBRANCH   3   5
ENDBRANCH   2   3
ENDBRANCH   1   2
BRANCH   1  20
ATOM     20  C   UNL A   1      37.747  20.464  24.819  1.00  0.00     0.275 C 
BRANCH  20  21
ATOM     21  O   UNL A   1      38.174  20.808  26.150  1.00  0.00    -0.458 OA
BRANCH  21  22
ATOM     22  C   UNL A   1      39.514  20.847  26.338  1.00  0.00     0.338 C 
ATOM     23  O   UNL A   1      40.318  19.955  26.125  1.00  0.00    -0.246 OA
BRANCH  22  24
ATOM     24  C   UNL A   1      39.911  22.183  26.812  1.00  0.00     0.060 A 
ATOM     25  C   UNL A   1      39.247  23.293  26.301  1.00  0.00     0.016 A 
ATOM     26  C   UNL A   1      41.025  22.352  27.630  1.00  0.00     0.016 A 
ATOM     27  C   UNL A   1      39.747  24.575  26.519  1.00  0.00     0.010 A 
ATOM     28  C   UNL A   1      41.461  23.648  27.937  1.00  0.00     0.010 A 
ATOM     29  C   UNL A   1      40.853  24.778  27.355  1.00  0.00    -0.014 A 
BRANCH  29  30
ATOM     30  C   UNL A   1      41.394  26.154  27.577  1.00  0.00     0.031 A 
ATOM     31  C   UNL A   1      42.731  26.547  26.996  1.00  0.00     0.074 A 
ATOM     32  C   UNL A   1      40.690  27.067  28.280  1.00  0.00     0.049 A 
ATOM     33  N   UNL A   1      43.459  27.611  27.226  1.00  0.00    -0.248 NA
ATOM     34  C   UNL A   1      43.336  25.605  26.043  1.00  0.00     0.031 C 
ATOM     35  C   UNL A   1      39.360  26.852  28.854  1.00  0.00     0.029 A 
ATOM     36  N   UNL A   1      40.990  28.363  28.628  1.00  0.00    -0.354 N 
ATOM     37  C   UNL A   1      44.632  27.439  26.494  1.00  0.00     0.074 A 
ATOM     38  C   UNL A   1      44.520  26.158  25.827  1.00  0.00     0.031 C 
ATOM     39  C   UNL A   1      38.943  27.984  29.441  1.00  0.00     0.029 A 
ATOM     40  C   UNL A   1      40.013  28.971  29.386  1.00  0.00     0.049 A 
ATOM     41  H   UNL A   1      41.823  28.814  28.361  1.00  0.00     0.167 HD
ATOM     42  C   UNL A   1      45.700  28.272  26.392  1.00  0.00     0.034 A 
ATOM     43  C   UNL A   1      39.995  30.163  30.016  1.00  0.00     0.034 A 
ATOM     44  C   UNL A   1      45.774  29.567  27.027  1.00  0.00     0.049 A 
ATOM     45  C   UNL A   1      41.213  31.046  29.937  1.00  0.00     0.074 A 
ATOM     46  C   UNL A   1      46.798  30.498  26.971  1.00  0.00     0.029 A 
ATOM     47  N   UNL A   1      44.783  30.121  27.828  1.00  0.00    -0.354 N 
ATOM     48  N   UNL A   1      42.342  30.840  29.298  1.00  0.00    -0.248 NA
ATOM     49  C   UNL A   1      41.161  32.312  30.678  1.00  0.00     0.031 C 
ATOM     50  C   UNL A   1      46.455  31.581  27.790  1.00  0.00     0.029 A 
ATOM     51  C   UNL A   1      45.184  31.365  28.294  1.00  0.00     0.049 A 
ATOM     52  H   UNL A   1      43.921  29.693  28.034  1.00  0.00     0.167 HD
ATOM     53  C   UNL A   1      43.128  31.962  29.549  1.00  0.00     0.074 A 
ATOM     54  C   UNL A   1      42.334  32.848  30.376  1.00  0.00     0.031 C 
ATOM     55  C   UNL A   1      44.392  32.233  29.134  1.00  0.00     0.034 A 
BRANCH  42  56
ATOM     56  C   UNL A   1      46.899  27.778  25.613  1.00  0.00     0.023 A 
ATOM     57  C   UNL A   1      47.117  28.121  24.268  1.00  0.00     0.031 A 
ATOM     58  C   UNL A   1      47.829  26.918  26.228  1.00  0.00     0.131 A 
ATOM     59  C   UNL A   1      48.189  27.550  23.563  1.00  0.00     0.055 A 
ATOM     60  C   UNL A   1      48.940  26.419  25.545  1.00  0.00     0.041 A 
ATOM     61  F   UNL A   1      47.667  26.536  27.505  1.00  0.00    -0.206 F 
ATOM     62  C   UNL A   1      49.117  26.722  24.198  1.00  0.00     0.022 A 
BRANCH  59  63
ATOM     63  S   UNL A   1      48.269  27.784  21.765  1.00  0.00     0.124 S 
ATOM     64  O   UNL A   1      46.923  28.266  21.470  1.00  0.00    -0.237 OA
ATOM     65  O   UNL A   1      49.343  28.760  21.622  1.00  0.00    -0.237 OA
ATOM     66  O   UNL A   1      48.569  26.447  21.258  1.00  0.00    -0.744 OA
ENDBRANCH  59  63
ENDBRANCH  42  56
BRANCH  43  67
ATOM     67  C   UNL A   1      38.818  30.560  30.844  1.00  0.00     0.023 A 
ATOM     68  C   UNL A   1      37.715  31.214  30.274  1.00  0.00     0.031 A 
ATOM     69  C   UNL A   1      38.797  30.322  32.231  1.00  0.00     0.131 A 
ATOM     70  C   UNL A   1      36.652  31.634  31.090  1.00  0.00     0.055 A 
ATOM     71  C   UNL A   1      37.711  30.687  33.028  1.00  0.00     0.041 A 
ATOM     72  F   UNL A   1      39.829  29.708  32.831  1.00  0.00    -0.206 F 
ATOM     73  C   UNL A   1      36.635  31.358  32.459  1.00  0.00     0.022 A 
BRANCH  70  74
ATOM     74  S   UNL A   1      35.323  32.623  30.350  1.00  0.00     0.124 S 
ATOM     75  O   UNL A   1      36.011  33.877  30.064  1.00  0.00    -0.237 OA
ATOM     76  O   UNL A   1      34.953  31.816  29.193  1.00  0.00    -0.237 OA
ATOM     77  O   UNL A   1      34.317  32.689  31.408  1.00  0.00    -0.744 OA
ENDBRANCH  70  74
ENDBRANCH  43  67
BRANCH  55  78
ATOM     78  C   UNL A   1      44.970  33.565  29.543  1.00  0.00     0.023 A 
ATOM     79  C   UNL A   1      44.802  34.718  28.757  1.00  0.00     0.031 A 
ATOM     80  C   UNL A   1      45.724  33.675  30.726  1.00  0.00     0.131 A 
ATOM     81  C   UNL A   1      45.429  35.917  29.130  1.00  0.00     0.055 A 
ATOM     82  C   UNL A   1      46.293  34.886  31.125  1.00  0.00     0.041 A 
ATOM     83  F   UNL A   1      45.920  32.606  31.514  1.00  0.00    -0.206 F 
ATOM     84  C   UNL A   1      46.159  36.012  30.317  1.00  0.00     0.022 A 
BRANCH  81  85
ATOM     85  S   UNL A   1      45.358  37.328  27.993  1.00  0.00     0.124 S 
ATOM     86  O   UNL A   1      44.132  37.056  27.248  1.00  0.00    -0.237 OA
ATOM     87  O   UNL A   1      45.311  38.464  28.906  1.00  0.00    -0.237 OA
ATOM     88  O   UNL A   1      46.593  37.207  27.219  1.00  0.00    -0.744 OA
ENDBRANCH  81  85
ENDBRANCH  55  78
ENDBRANCH  29  30
ENDBRANCH  22  24
ENDBRANCH  21  22
ENDBRANCH  20  21
ENDBRANCH   1  20
TORSDOF 19
ENDMDL
