MODEL 1
REMARK VINA RESULT:     -11.0      0.000      0.000
REMARK SMILES CC[C@H]1CC[C@](CC(C)(C)O)(C(=O)OCCOC(=O)c2ccc(-c3c4nc(c(-c5cc(S(=O)(=O)[O-])ccc5F)c5ccc([nH]5)c(-c5cc(S(=O)(=O)[O-])ccc5F)c5nc(c(-c6cc(S(=O)(=O)[O-])ccc6F)c6ccc3[nH]6)C=C5)C=C4)cc2)C1
REMARK SMILES IDX 15 1 14 2 12 3 13 4 6 5 3 6 4 7 83 8 5 9 2 10 1 11 7 12 8 13
REMARK SMILES IDX 9 14 10 15 11 16 16 18 17 19 18 20 19 21 20 22 21 23 82 24
REMARK SMILES IDX 22 25 81 26 23 27 24 28 25 29 75 30 26 31 80 32 74 33 76 34
REMARK SMILES IDX 27 35 79 36 73 37 72 38 28 40 60 41 40 42 59 43 41 44 44 45
REMARK SMILES IDX 58 46 77 47 42 48 43 49 57 51 78 52 45 53 29 54 30 55 38 56
REMARK SMILES IDX 31 57 37 58 39 59 36 60 32 61 33 62 34 63 35 64 61 65 62 66
REMARK SMILES IDX 70 67 63 68 69 69 71 70 68 71 64 72 65 73 66 74 67 75 46 76
REMARK SMILES IDX 47 77 55 78 48 79 54 80 56 81 53 82 49 83 50 84 51 85 52 86
REMARK H PARENT 11 17 76 39 44 50
REMARK Flexibility Score: inf
ROOT
ATOM      1  C   UNL A   1      34.717  21.534  24.654  1.00  0.00     0.274 C 
ENDROOT
BRANCH   1   2
ATOM      2  O   UNL A   1      34.773  22.943  24.977  1.00  0.00    -0.462 OA
BRANCH   2   3
ATOM      3  C   UNL A   1      34.394  23.776  23.973  1.00  0.00     0.312 C 
ATOM      4  O   UNL A   1      34.934  23.769  22.871  1.00  0.00    -0.252 OA
BRANCH   3   5
ATOM      5  C   UNL A   1      33.230  24.723  24.317  1.00  0.00     0.071 C 
ATOM      6  C   UNL A   1      31.323  24.816  25.926  1.00  0.00    -0.010 C 
ATOM      7  C   UNL A   1      30.894  23.948  24.755  1.00  0.00     0.005 C 
ATOM      8  C   UNL A   1      32.855  24.741  25.831  1.00  0.00     0.022 C 
ATOM      9  C   UNL A   1      31.923  24.213  23.656  1.00  0.00     0.019 C 
BRANCH   6  10
ATOM     10  C   UNL A   1      30.759  26.243  25.858  1.00  0.00     0.000 C 
ATOM     11  C   UNL A   1      31.571  27.234  26.683  1.00  0.00     0.004 C 
ENDBRANCH   6  10
BRANCH   5  12
ATOM     12  C   UNL A   1      33.607  26.181  23.874  1.00  0.00     0.053 C 
BRANCH  12  13
ATOM     13  C   UNL A   1      33.151  26.799  22.520  1.00  0.00     0.060 C 
ATOM     14  C   UNL A   1      31.648  27.045  22.379  1.00  0.00     0.042 C 
ATOM     15  C   UNL A   1      33.880  28.139  22.327  1.00  0.00     0.042 C 
BRANCH  13  16
ATOM     16  O   UNL A   1      33.609  25.982  21.440  1.00  0.00    -0.390 OA
ATOM     17  H   UNL A   1      32.958  26.003  20.720  1.00  0.00     0.211 HD
ENDBRANCH  13  16
ENDBRANCH  12  13
ENDBRANCH   5  12
ENDBRANCH   3   5
ENDBRANCH   2   3
ENDBRANCH   1   2
BRANCH   1  18
ATOM     18  C   UNL A   1      36.091  20.870  24.774  1.00  0.00     0.275 C 
BRANCH  18  19
ATOM     19  O   UNL A   1      36.844  21.480  25.835  1.00  0.00    -0.458 OA
BRANCH  19  20
ATOM     20  C   UNL A   1      38.183  21.299  25.796  1.00  0.00     0.338 C 
ATOM     21  O   UNL A   1      38.766  20.334  25.315  1.00  0.00    -0.246 OA
BRANCH  20  22
ATOM     22  C   UNL A   1      38.882  22.454  26.408  1.00  0.00     0.060 A 
ATOM     23  C   UNL A   1      38.462  23.759  26.156  1.00  0.00     0.016 A 
ATOM     24  C   UNL A   1      40.036  22.251  27.165  1.00  0.00     0.016 A 
ATOM     25  C   UNL A   1      39.239  24.849  26.539  1.00  0.00     0.010 A 
ATOM     26  C   UNL A   1      40.747  23.352  27.664  1.00  0.00     0.010 A 
ATOM     27  C   UNL A   1      40.377  24.668  27.329  1.00  0.00    -0.014 A 
BRANCH  27  28
ATOM     28  C   UNL A   1      41.189  25.839  27.775  1.00  0.00     0.031 A 
ATOM     29  C   UNL A   1      40.557  26.909  28.628  1.00  0.00     0.074 A 
ATOM     30  C   UNL A   1      42.491  25.946  27.438  1.00  0.00     0.049 A 
ATOM     31  N   UNL A   1      40.993  28.109  28.914  1.00  0.00    -0.248 NA
ATOM     32  C   UNL A   1      39.254  26.585  29.228  1.00  0.00     0.031 C 
ATOM     33  C   UNL A   1      43.261  24.952  26.686  1.00  0.00     0.029 A 
ATOM     34  N   UNL A   1      43.405  26.941  27.689  1.00  0.00    -0.354 N 
ATOM     35  C   UNL A   1      39.992  28.708  29.672  1.00  0.00     0.074 A 
ATOM     36  C   UNL A   1      38.927  27.735  29.802  1.00  0.00     0.031 C 
ATOM     37  C   UNL A   1      44.532  25.365  26.575  1.00  0.00     0.029 A 
ATOM     38  C   UNL A   1      44.643  26.705  27.137  1.00  0.00     0.049 A 
ATOM     39  H   UNL A   1      43.194  27.747  28.215  1.00  0.00     0.167 HD
ATOM     40  C   UNL A   1      39.963  29.957  30.200  1.00  0.00     0.034 A 
ATOM     41  C   UNL A   1      45.728  27.498  27.025  1.00  0.00     0.034 A 
ATOM     42  C   UNL A   1      41.053  30.898  30.095  1.00  0.00     0.049 A 
ATOM     43  C   UNL A   1      45.649  28.906  27.548  1.00  0.00     0.074 A 
ATOM     44  C   UNL A   1      41.133  32.191  30.582  1.00  0.00     0.029 A 
ATOM     45  N   UNL A   1      42.264  30.640  29.463  1.00  0.00    -0.354 N 
ATOM     46  N   UNL A   1      44.653  29.503  28.164  1.00  0.00    -0.248 NA
ATOM     47  C   UNL A   1      46.825  29.758  27.333  1.00  0.00     0.031 C 
ATOM     48  C   UNL A   1      42.367  32.731  30.200  1.00  0.00     0.029 A 
ATOM     49  C   UNL A   1      43.084  31.756  29.527  1.00  0.00     0.049 A 
ATOM     50  H   UNL A   1      42.505  29.787  29.032  1.00  0.00     0.167 HD
ATOM     51  C   UNL A   1      45.083  30.804  28.403  1.00  0.00     0.074 A 
ATOM     52  C   UNL A   1      46.438  30.894  27.895  1.00  0.00     0.031 C 
ATOM     53  C   UNL A   1      44.419  31.833  28.984  1.00  0.00     0.034 A 
BRANCH  40  54
ATOM     54  C   UNL A   1      38.682  30.398  30.866  1.00  0.00     0.023 A 
ATOM     55  C   UNL A   1      37.654  31.047  30.162  1.00  0.00     0.031 A 
ATOM     56  C   UNL A   1      38.511  30.199  32.249  1.00  0.00     0.131 A 
ATOM     57  C   UNL A   1      36.531  31.532  30.854  1.00  0.00     0.055 A 
ATOM     58  C   UNL A   1      37.360  30.621  32.918  1.00  0.00     0.041 A 
ATOM     59  F   UNL A   1      39.469  29.605  32.977  1.00  0.00    -0.206 F 
ATOM     60  C   UNL A   1      36.368  31.305  32.222  1.00  0.00     0.022 A 
BRANCH  57  61
ATOM     61  S   UNL A   1      35.349  32.584  29.966  1.00  0.00     0.124 S 
ATOM     62  O   UNL A   1      34.462  33.010  31.046  1.00  0.00    -0.237 OA
ATOM     63  O   UNL A   1      36.209  33.616  29.400  1.00  0.00    -0.237 OA
ATOM     64  O   UNL A   1      34.743  31.676  28.994  1.00  0.00    -0.744 OA
ENDBRANCH  57  61
ENDBRANCH  40  54
BRANCH  41  65
ATOM     65  C   UNL A   1      46.938  27.021  26.293  1.00  0.00     0.023 A 
ATOM     66  C   UNL A   1      48.009  26.419  26.971  1.00  0.00     0.031 A 
ATOM     67  C   UNL A   1      47.050  27.192  24.901  1.00  0.00     0.131 A 
ATOM     68  C   UNL A   1      49.154  26.028  26.258  1.00  0.00     0.055 A 
ATOM     69  C   UNL A   1      48.167  26.755  24.190  1.00  0.00     0.041 A 
ATOM     70  F   UNL A   1      46.058  27.771  24.206  1.00  0.00    -0.206 F 
ATOM     71  C   UNL A   1      49.233  26.177  24.871  1.00  0.00     0.022 A 
BRANCH  68  72
ATOM     72  S   UNL A   1      50.577  25.381  27.179  1.00  0.00     0.124 S 
ATOM     73  O   UNL A   1      51.480  24.997  26.100  1.00  0.00    -0.237 OA
ATOM     74  O   UNL A   1      50.978  26.541  27.969  1.00  0.00    -0.237 OA
ATOM     75  O   UNL A   1      50.012  24.273  27.945  1.00  0.00    -0.744 OA
ENDBRANCH  68  72
ENDBRANCH  41  65
BRANCH  53  76
ATOM     76  C   UNL A   1      45.170  33.133  29.105  1.00  0.00     0.023 A 
ATOM     77  C   UNL A   1      45.222  34.049  28.040  1.00  0.00     0.031 A 
ATOM     78  C   UNL A   1      45.867  33.443  30.286  1.00  0.00     0.131 A 
ATOM     79  C   UNL A   1      46.000  35.210  28.158  1.00  0.00     0.055 A 
ATOM     80  C   UNL A   1      46.598  34.623  30.414  1.00  0.00     0.041 A 
ATOM     81  F   UNL A   1      45.850  32.598  31.329  1.00  0.00    -0.206 F 
ATOM     82  C   UNL A   1      46.678  35.509  29.343  1.00  0.00     0.022 A 
BRANCH  79  83
ATOM     83  S   UNL A   1      46.177  36.290  26.711  1.00  0.00     0.124 S 
ATOM     84  O   UNL A   1      47.519  36.832  26.901  1.00  0.00    -0.237 OA
ATOM     85  O   UNL A   1      46.017  35.357  25.601  1.00  0.00    -0.237 OA
ATOM     86  O   UNL A   1      45.091  37.256  26.869  1.00  0.00    -0.744 OA
ENDBRANCH  79  83
ENDBRANCH  53  76
ENDBRANCH  27  28
ENDBRANCH  20  22
ENDBRANCH  19  20
ENDBRANCH  18  19
ENDBRANCH   1  18
TORSDOF 18
ENDMDL
MODEL 2
REMARK VINA RESULT:     -10.9      1.379      1.636
REMARK SMILES CC[C@H]1CC[C@](CC(C)(C)O)(C(=O)OCCOC(=O)c2ccc(-c3c4nc(c(-c5cc(S(=O)(=O)[O-])ccc5F)c5ccc([nH]5)c(-c5cc(S(=O)(=O)[O-])ccc5F)c5nc(c(-c6cc(S(=O)(=O)[O-])ccc6F)c6ccc3[nH]6)C=C5)C=C4)cc2)C1
REMARK SMILES IDX 15 1 14 2 12 3 13 4 6 5 3 6 4 7 83 8 5 9 2 10 1 11 7 12 8 13
REMARK SMILES IDX 9 14 10 15 11 16 16 18 17 19 18 20 19 21 20 22 21 23 82 24
REMARK SMILES IDX 22 25 81 26 23 27 24 28 25 29 75 30 26 31 80 32 74 33 76 34
REMARK SMILES IDX 27 35 79 36 73 37 72 38 28 40 60 41 40 42 59 43 41 44 44 45
REMARK SMILES IDX 58 46 77 47 42 48 43 49 57 51 78 52 45 53 29 54 30 55 38 56
REMARK SMILES IDX 31 57 37 58 39 59 36 60 32 61 33 62 34 63 35 64 61 65 62 66
REMARK SMILES IDX 70 67 63 68 69 69 71 70 68 71 64 72 65 73 66 74 67 75 46 76
REMARK SMILES IDX 47 77 55 78 48 79 54 80 56 81 53 82 49 83 50 84 51 85 52 86
REMARK H PARENT 11 17 76 39 44 50
REMARK Flexibility Score: inf
ROOT
ATOM      1  C   UNL A   1      34.696  21.416  24.627  1.00  0.00     0.274 C 
ENDROOT
BRANCH   1   2
ATOM      2  O   UNL A   1      34.666  22.811  25.008  1.00  0.00    -0.462 OA
BRANCH   2   3
ATOM      3  C   UNL A   1      34.353  23.672  24.006  1.00  0.00     0.312 C 
ATOM      4  O   UNL A   1      34.862  23.600  22.891  1.00  0.00    -0.252 OA
BRANCH   3   5
ATOM      5  C   UNL A   1      33.303  24.739  24.367  1.00  0.00     0.071 C 
ATOM      6  C   UNL A   1      31.590  25.136  26.139  1.00  0.00    -0.010 C 
ATOM      7  C   UNL A   1      30.978  24.201  25.110  1.00  0.00     0.005 C 
ATOM      8  C   UNL A   1      33.094  24.926  25.901  1.00  0.00     0.022 C 
ATOM      9  C   UNL A   1      31.900  24.279  23.894  1.00  0.00     0.019 C 
BRANCH   6  10
ATOM     10  C   UNL A   1      31.127  26.592  25.986  1.00  0.00     0.000 C 
ATOM     11  C   UNL A   1      31.709  27.508  27.056  1.00  0.00     0.004 C 
ENDBRANCH   6  10
BRANCH   5  12
ATOM     12  C   UNL A   1      33.735  26.114  23.745  1.00  0.00     0.053 C 
BRANCH  12  13
ATOM     13  C   UNL A   1      33.173  26.646  22.394  1.00  0.00     0.060 C 
ATOM     14  C   UNL A   1      31.652  26.790  22.323  1.00  0.00     0.042 C 
ATOM     15  C   UNL A   1      33.801  28.021  22.114  1.00  0.00     0.042 C 
BRANCH  13  16
ATOM     16  O   UNL A   1      33.629  25.817  21.323  1.00  0.00    -0.390 OA
ATOM     17  H   UNL A   1      34.552  26.035  21.116  1.00  0.00     0.211 HD
ENDBRANCH  13  16
ENDBRANCH  12  13
ENDBRANCH   5  12
ENDBRANCH   3   5
ENDBRANCH   2   3
ENDBRANCH   1   2
BRANCH   1  18
ATOM     18  C   UNL A   1      36.069  20.789  24.881  1.00  0.00     0.275 C 
BRANCH  18  19
ATOM     19  O   UNL A   1      36.832  21.613  25.778  1.00  0.00    -0.458 OA
BRANCH  19  20
ATOM     20  C   UNL A   1      38.169  21.414  25.779  1.00  0.00     0.338 C 
ATOM     21  O   UNL A   1      38.753  20.440  25.319  1.00  0.00    -0.246 OA
BRANCH  20  22
ATOM     22  C   UNL A   1      38.865  22.563  26.406  1.00  0.00     0.060 A 
ATOM     23  C   UNL A   1      38.443  23.870  26.171  1.00  0.00     0.016 A 
ATOM     24  C   UNL A   1      40.018  22.352  27.163  1.00  0.00     0.016 A 
ATOM     25  C   UNL A   1      39.217  24.957  26.569  1.00  0.00     0.010 A 
ATOM     26  C   UNL A   1      40.726  23.448  27.677  1.00  0.00     0.010 A 
ATOM     27  C   UNL A   1      40.355  24.768  27.359  1.00  0.00    -0.014 A 
BRANCH  27  28
ATOM     28  C   UNL A   1      41.163  25.935  27.820  1.00  0.00     0.031 A 
ATOM     29  C   UNL A   1      40.532  26.986  28.697  1.00  0.00     0.074 A 
ATOM     30  C   UNL A   1      42.463  26.054  27.478  1.00  0.00     0.049 A 
ATOM     31  N   UNL A   1      40.964  28.182  29.001  1.00  0.00    -0.248 NA
ATOM     32  C   UNL A   1      39.234  26.645  29.299  1.00  0.00     0.031 C 
ATOM     33  C   UNL A   1      43.233  25.077  26.703  1.00  0.00     0.029 A 
ATOM     34  N   UNL A   1      43.374  27.049  27.741  1.00  0.00    -0.354 N 
ATOM     35  C   UNL A   1      39.964  28.762  29.777  1.00  0.00     0.074 A 
ATOM     36  C   UNL A   1      38.905  27.782  29.895  1.00  0.00     0.031 C 
ATOM     37  C   UNL A   1      44.501  25.499  26.592  1.00  0.00     0.029 A 
ATOM     38  C   UNL A   1      44.610  26.828  27.177  1.00  0.00     0.049 A 
ATOM     39  H   UNL A   1      43.162  27.843  28.283  1.00  0.00     0.167 HD
ATOM     40  C   UNL A   1      39.933  30.002  30.328  1.00  0.00     0.034 A 
ATOM     41  C   UNL A   1      45.690  27.629  27.073  1.00  0.00     0.034 A 
ATOM     42  C   UNL A   1      41.018  30.949  30.233  1.00  0.00     0.049 A 
ATOM     43  C   UNL A   1      45.607  29.026  27.622  1.00  0.00     0.074 A 
ATOM     44  C   UNL A   1      41.094  32.233  30.743  1.00  0.00     0.029 A 
ATOM     45  N   UNL A   1      42.226  30.709  29.589  1.00  0.00    -0.354 N 
ATOM     46  N   UNL A   1      44.613  29.607  28.254  1.00  0.00    -0.248 NA
ATOM     47  C   UNL A   1      46.778  29.888  27.416  1.00  0.00     0.031 C 
ATOM     48  C   UNL A   1      42.323  32.786  30.364  1.00  0.00     0.029 A 
ATOM     49  C   UNL A   1      43.042  31.827  29.668  1.00  0.00     0.049 A 
ATOM     50  H   UNL A   1      42.468  29.865  29.141  1.00  0.00     0.167 HD
ATOM     51  C   UNL A   1      45.038  30.905  28.515  1.00  0.00     0.074 A 
ATOM     52  C   UNL A   1      46.389  31.012  28.000  1.00  0.00     0.031 C 
ATOM     53  C   UNL A   1      44.373  31.921  29.119  1.00  0.00     0.034 A 
BRANCH  40  54
ATOM     54  C   UNL A   1      38.654  30.424  31.010  1.00  0.00     0.023 A 
ATOM     55  C   UNL A   1      37.604  31.050  30.316  1.00  0.00     0.031 A 
ATOM     56  C   UNL A   1      38.507  30.231  32.396  1.00  0.00     0.131 A 
ATOM     57  C   UNL A   1      36.483  31.520  31.022  1.00  0.00     0.055 A 
ATOM     58  C   UNL A   1      37.359  30.636  33.079  1.00  0.00     0.041 A 
ATOM     59  F   UNL A   1      39.485  29.658  33.113  1.00  0.00    -0.206 F 
ATOM     60  C   UNL A   1      36.344  31.298  32.394  1.00  0.00     0.022 A 
BRANCH  57  61
ATOM     61  S   UNL A   1      35.271  32.545  30.144  1.00  0.00     0.124 S 
ATOM     62  O   UNL A   1      34.815  31.634  29.097  1.00  0.00    -0.237 OA
ATOM     63  O   UNL A   1      34.303  32.853  31.190  1.00  0.00    -0.237 OA
ATOM     64  O   UNL A   1      36.060  33.681  29.671  1.00  0.00    -0.744 OA
ENDBRANCH  57  61
ENDBRANCH  40  54
BRANCH  41  65
ATOM     65  C   UNL A   1      46.898  27.171  26.325  1.00  0.00     0.023 A 
ATOM     66  C   UNL A   1      47.141  27.590  25.008  1.00  0.00     0.031 A 
ATOM     67  C   UNL A   1      47.812  26.279  26.914  1.00  0.00     0.131 A 
ATOM     68  C   UNL A   1      48.260  27.099  24.317  1.00  0.00     0.055 A 
ATOM     69  C   UNL A   1      48.951  25.836  26.242  1.00  0.00     0.041 A 
ATOM     70  F   UNL A   1      47.622  25.841  28.169  1.00  0.00    -0.206 F 
ATOM     71  C   UNL A   1      49.175  26.239  24.930  1.00  0.00     0.022 A 
BRANCH  68  72
ATOM     72  S   UNL A   1      48.473  27.547  22.571  1.00  0.00     0.124 S 
ATOM     73  O   UNL A   1      49.698  28.339  22.614  1.00  0.00    -0.237 OA
ATOM     74  O   UNL A   1      48.577  26.239  21.934  1.00  0.00    -0.237 OA
ATOM     75  O   UNL A   1      47.257  28.295  22.261  1.00  0.00    -0.744 OA
ENDBRANCH  68  72
ENDBRANCH  41  65
BRANCH  53  76
ATOM     76  C   UNL A   1      45.118  33.222  29.259  1.00  0.00     0.023 A 
ATOM     77  C   UNL A   1      45.176  34.149  28.203  1.00  0.00     0.031 A 
ATOM     78  C   UNL A   1      45.804  33.523  30.448  1.00  0.00     0.131 A 
ATOM     79  C   UNL A   1      45.949  35.311  28.338  1.00  0.00     0.055 A 
ATOM     80  C   UNL A   1      46.530  34.704  30.594  1.00  0.00     0.041 A 
ATOM     81  F   UNL A   1      45.781  32.668  31.483  1.00  0.00    -0.206 F 
ATOM     82  C   UNL A   1      46.616  35.600  29.532  1.00  0.00     0.022 A 
BRANCH  79  83
ATOM     83  S   UNL A   1      46.135  36.406  26.905  1.00  0.00     0.124 S 
ATOM     84  O   UNL A   1      47.534  36.809  27.010  1.00  0.00    -0.237 OA
ATOM     85  O   UNL A   1      45.808  35.522  25.790  1.00  0.00    -0.237 OA
ATOM     86  O   UNL A   1      45.163  37.469  27.156  1.00  0.00    -0.744 OA
ENDBRANCH  79  83
ENDBRANCH  53  76
ENDBRANCH  27  28
ENDBRANCH  20  22
ENDBRANCH  19  20
ENDBRANCH  18  19
ENDBRANCH   1  18
TORSDOF 18
ENDMDL
MODEL 3
REMARK VINA RESULT:     -10.9      4.822      9.962
REMARK SMILES CC[C@H]1CC[C@](CC(C)(C)O)(C(=O)OCCOC(=O)c2ccc(-c3c4nc(c(-c5cc(S(=O)(=O)[O-])ccc5F)c5ccc([nH]5)c(-c5cc(S(=O)(=O)[O-])ccc5F)c5nc(c(-c6cc(S(=O)(=O)[O-])ccc6F)c6ccc3[nH]6)C=C5)C=C4)cc2)C1
REMARK SMILES IDX 15 1 14 2 12 3 13 4 6 5 3 6 4 7 83 8 5 9 2 10 1 11 7 12 8 13
REMARK SMILES IDX 9 14 10 15 11 16 16 18 17 19 18 20 19 21 20 22 21 23 82 24
REMARK SMILES IDX 22 25 81 26 23 27 24 28 25 29 75 30 26 31 80 32 74 33 76 34
REMARK SMILES IDX 27 35 79 36 73 37 72 38 28 40 60 41 40 42 59 43 41 44 44 45
REMARK SMILES IDX 58 46 77 47 42 48 43 49 57 51 78 52 45 53 29 54 30 55 38 56
REMARK SMILES IDX 31 57 37 58 39 59 36 60 32 61 33 62 34 63 35 64 61 65 62 66
REMARK SMILES IDX 70 67 63 68 69 69 71 70 68 71 64 72 65 73 66 74 67 75 46 76
REMARK SMILES IDX 47 77 55 78 48 79 54 80 56 81 53 82 49 83 50 84 51 85 52 86
REMARK H PARENT 11 17 76 39 44 50
REMARK Flexibility Score: inf
ROOT
ATOM      1  C   UNL A   1      31.923  28.747  24.738  1.00  0.00     0.274 C 
ENDROOT
BRANCH   1   2
ATOM      2  O   UNL A   1      32.676  27.806  25.537  1.00  0.00    -0.462 OA
BRANCH   2   3
ATOM      3  C   UNL A   1      32.016  26.659  25.844  1.00  0.00     0.312 C 
ATOM      4  O   UNL A   1      31.085  26.628  26.644  1.00  0.00    -0.252 OA
BRANCH   3   5
ATOM      5  C   UNL A   1      32.514  25.402  25.108  1.00  0.00     0.071 C 
ATOM      6  C   UNL A   1      33.376  24.794  22.845  1.00  0.00    -0.010 C 
ATOM      7  C   UNL A   1      31.859  24.814  22.769  1.00  0.00     0.005 C 
ATOM      8  C   UNL A   1      33.643  25.684  24.068  1.00  0.00     0.022 C 
ATOM      9  C   UNL A   1      31.381  24.827  24.220  1.00  0.00     0.019 C 
BRANCH   6  10
ATOM     10  C   UNL A   1      33.956  23.377  22.961  1.00  0.00     0.000 C 
ATOM     11  C   UNL A   1      35.367  23.366  23.539  1.00  0.00     0.004 C 
ENDBRANCH   6  10
BRANCH   5  12
ATOM     12  C   UNL A   1      33.047  24.368  26.162  1.00  0.00     0.053 C 
BRANCH  12  13
ATOM     13  C   UNL A   1      32.175  23.209  26.726  1.00  0.00     0.060 C 
ATOM     14  C   UNL A   1      31.733  22.158  25.706  1.00  0.00     0.042 C 
ATOM     15  C   UNL A   1      32.966  22.500  27.837  1.00  0.00     0.042 C 
BRANCH  13  16
ATOM     16  O   UNL A   1      31.029  23.748  27.389  1.00  0.00    -0.390 OA
ATOM     17  H   UNL A   1      30.347  23.964  26.732  1.00  0.00     0.211 HD
ENDBRANCH  13  16
ENDBRANCH  12  13
ENDBRANCH   5  12
ENDBRANCH   3   5
ENDBRANCH   2   3
ENDBRANCH   1   2
BRANCH   1  18
ATOM     18  C   UNL A   1      31.634  30.039  25.507  1.00  0.00     0.275 C 
BRANCH  18  19
ATOM     19  O   UNL A   1      32.342  30.039  26.757  1.00  0.00    -0.458 OA
BRANCH  19  20
ATOM     20  C   UNL A   1      32.917  31.209  27.116  1.00  0.00     0.338 C 
ATOM     21  O   UNL A   1      32.406  32.320  27.031  1.00  0.00    -0.246 OA
BRANCH  20  22
ATOM     22  C   UNL A   1      34.276  30.975  27.661  1.00  0.00     0.060 A 
ATOM     23  C   UNL A   1      34.686  29.697  28.035  1.00  0.00     0.016 A 
ATOM     24  C   UNL A   1      35.127  32.054  27.900  1.00  0.00     0.016 A 
ATOM     25  C   UNL A   1      35.865  29.502  28.749  1.00  0.00     0.010 A 
ATOM     26  C   UNL A   1      36.376  31.839  28.502  1.00  0.00     0.010 A 
ATOM     27  C   UNL A   1      36.748  30.563  28.966  1.00  0.00    -0.014 A 
BRANCH  27  28
ATOM     28  C   UNL A   1      38.032  30.348  29.697  1.00  0.00     0.031 A 
ATOM     29  C   UNL A   1      39.124  29.521  29.067  1.00  0.00     0.074 A 
ATOM     30  C   UNL A   1      38.238  30.901  30.911  1.00  0.00     0.049 A 
ATOM     31  N   UNL A   1      40.197  29.009  29.613  1.00  0.00    -0.248 NA
ATOM     32  C   UNL A   1      38.979  29.224  27.634  1.00  0.00     0.031 C 
ATOM     33  C   UNL A   1      37.308  31.790  31.611  1.00  0.00     0.029 A 
ATOM     34  N   UNL A   1      39.302  30.800  31.774  1.00  0.00    -0.354 N 
ATOM     35  C   UNL A   1      40.822  28.275  28.608  1.00  0.00     0.074 A 
ATOM     36  C   UNL A   1      40.005  28.413  27.421  1.00  0.00     0.031 C 
ATOM     37  C   UNL A   1      37.857  32.185  32.768  1.00  0.00     0.029 A 
ATOM     38  C   UNL A   1      39.121  31.485  32.954  1.00  0.00     0.049 A 
ATOM     39  H   UNL A   1      40.118  30.288  31.568  1.00  0.00     0.167 HD
ATOM     40  C   UNL A   1      41.964  27.547  28.680  1.00  0.00     0.034 A 
ATOM     41  C   UNL A   1      39.847  31.496  34.091  1.00  0.00     0.034 A 
ATOM     42  C   UNL A   1      42.786  27.456  29.863  1.00  0.00     0.049 A 
ATOM     43  C   UNL A   1      41.068  30.622  34.175  1.00  0.00     0.074 A 
ATOM     44  C   UNL A   1      43.957  26.744  30.052  1.00  0.00     0.029 A 
ATOM     45  N   UNL A   1      42.525  28.111  31.060  1.00  0.00    -0.354 N 
ATOM     46  N   UNL A   1      41.588  29.839  33.257  1.00  0.00    -0.248 NA
ATOM     47  C   UNL A   1      41.781  30.605  35.459  1.00  0.00     0.031 C 
ATOM     48  C   UNL A   1      44.375  26.925  31.376  1.00  0.00     0.029 A 
ATOM     49  C   UNL A   1      43.498  27.800  31.998  1.00  0.00     0.049 A 
ATOM     50  H   UNL A   1      41.760  28.710  31.221  1.00  0.00     0.167 HD
ATOM     51  C   UNL A   1      42.687  29.233  33.856  1.00  0.00     0.074 A 
ATOM     52  C   UNL A   1      42.773  29.764  35.202  1.00  0.00     0.031 C 
ATOM     53  C   UNL A   1      43.545  28.316  33.345  1.00  0.00     0.034 A 
BRANCH  40  54
ATOM     54  C   UNL A   1      42.341  26.731  27.466  1.00  0.00     0.023 A 
ATOM     55  C   UNL A   1      41.982  25.380  27.328  1.00  0.00     0.031 A 
ATOM     56  C   UNL A   1      43.116  27.315  26.447  1.00  0.00     0.131 A 
ATOM     57  C   UNL A   1      42.452  24.640  26.229  1.00  0.00     0.055 A 
ATOM     58  C   UNL A   1      43.520  26.594  25.322  1.00  0.00     0.041 A 
ATOM     59  F   UNL A   1      43.507  28.596  26.535  1.00  0.00    -0.206 F 
ATOM     60  C   UNL A   1      43.201  25.244  25.216  1.00  0.00     0.022 A 
BRANCH  57  61
ATOM     61  S   UNL A   1      42.187  22.846  26.211  1.00  0.00     0.124 S 
ATOM     62  O   UNL A   1      42.765  22.474  24.921  1.00  0.00    -0.237 OA
ATOM     63  O   UNL A   1      42.922  22.406  27.391  1.00  0.00    -0.237 OA
ATOM     64  O   UNL A   1      40.734  22.712  26.295  1.00  0.00    -0.744 OA
ENDBRANCH  57  61
ENDBRANCH  40  54
BRANCH  41  65
ATOM     65  C   UNL A   1      39.379  32.272  35.276  1.00  0.00     0.023 A 
ATOM     66  C   UNL A   1      39.825  33.581  35.512  1.00  0.00     0.031 A 
ATOM     67  C   UNL A   1      38.496  31.697  36.209  1.00  0.00     0.131 A 
ATOM     68  C   UNL A   1      39.404  34.264  36.665  1.00  0.00     0.055 A 
ATOM     69  C   UNL A   1      38.040  32.398  37.325  1.00  0.00     0.041 A 
ATOM     70  F   UNL A   1      38.046  30.444  36.035  1.00  0.00    -0.206 F 
ATOM     71  C   UNL A   1      38.502  33.688  37.563  1.00  0.00     0.022 A 
BRANCH  68  72
ATOM     72  S   UNL A   1      40.106  35.900  37.015  1.00  0.00     0.124 S 
ATOM     73  O   UNL A   1      41.530  35.597  37.115  1.00  0.00    -0.237 OA
ATOM     74  O   UNL A   1      39.694  36.663  35.842  1.00  0.00    -0.237 OA
ATOM     75  O   UNL A   1      39.461  36.288  38.267  1.00  0.00    -0.744 OA
ENDBRANCH  68  72
ENDBRANCH  41  65
BRANCH  53  76
ATOM     76  C   UNL A   1      44.652  27.852  34.254  1.00  0.00     0.023 A 
ATOM     77  C   UNL A   1      44.510  26.701  35.050  1.00  0.00     0.031 A 
ATOM     78  C   UNL A   1      45.846  28.586  34.350  1.00  0.00     0.131 A 
ATOM     79  C   UNL A   1      45.527  26.346  35.948  1.00  0.00     0.055 A 
ATOM     80  C   UNL A   1      46.874  28.199  35.209  1.00  0.00     0.041 A 
ATOM     81  F   UNL A   1      46.027  29.693  33.613  1.00  0.00    -0.206 F 
ATOM     82  C   UNL A   1      46.714  27.081  36.023  1.00  0.00     0.022 A 
BRANCH  79  83
ATOM     83  S   UNL A   1      45.247  24.953  37.074  1.00  0.00     0.124 S 
ATOM     84  O   UNL A   1      44.757  25.626  38.273  1.00  0.00    -0.237 OA
ATOM     85  O   UNL A   1      44.268  24.152  36.347  1.00  0.00    -0.237 OA
ATOM     86  O   UNL A   1      46.570  24.344  37.203  1.00  0.00    -0.744 OA
ENDBRANCH  79  83
ENDBRANCH  53  76
ENDBRANCH  27  28
ENDBRANCH  20  22
ENDBRANCH  19  20
ENDBRANCH  18  19
ENDBRANCH   1  18
TORSDOF 18
ENDMDL
