MODEL 1
REMARK VINA RESULT:     -12.6      0.000      0.000
REMARK SMILES Cc1ccccc1CNc1ccc(C(=O)OCCOC(=O)c2ccc(-c3c4nc(c(-c5cc(S(=O)(=O)[O-])ccc5F)c5ccc([nH]5)c(-c5cc(S(=O)(=O)[O-])ccc5F)c5nc(c(-c6cc(S(=O)(=O)[O-])ccc6F)c6ccc3[nH]6)C=C5)C=C4)cc2)c(F)c1F
REMARK SMILES IDX 17 1 16 2 14 3 15 4 13 5 10 6 11 7 87 8 12 9 85 10 88 11
REMARK SMILES IDX 86 12 9 13 8 15 7 16 1 17 2 18 3 19 4 20 6 21 5 22 18 23
REMARK SMILES IDX 19 24 20 25 21 26 22 27 23 28 84 29 24 30 83 31 25 32 26 33
REMARK SMILES IDX 27 34 77 35 28 36 82 37 76 38 78 39 29 40 81 41 75 42 74 43
REMARK SMILES IDX 30 45 62 46 42 47 61 48 43 49 46 50 60 51 79 52 44 53 45 54
REMARK SMILES IDX 59 56 80 57 47 58 31 59 32 60 40 61 33 62 39 63 41 64 38 65
REMARK SMILES IDX 34 66 35 67 36 68 37 69 63 70 64 71 72 72 65 73 71 74 73 75
REMARK SMILES IDX 70 76 66 77 67 78 68 79 69 80 48 81 49 82 57 83 50 84 56 85
REMARK SMILES IDX 58 86 55 87 51 88 52 89 53 90 54 91
REMARK H PARENT 9 14 78 44 46 55
REMARK Flexibility Score: inf
ROOT
ATOM      1  C   UNL A   1      36.403  21.260  25.358  1.00  0.00     0.275 C 
ENDROOT
BRANCH   1   2
ATOM      2  O   UNL A   1      35.305  21.913  24.702  1.00  0.00    -0.458 OA
BRANCH   2   3
ATOM      3  C   UNL A   1      34.149  21.206  24.823  1.00  0.00     0.341 C 
ATOM      4  O   UNL A   1      34.041  20.003  24.704  1.00  0.00    -0.246 OA
BRANCH   3   5
ATOM      5  C   UNL A   1      32.949  22.050  25.001  1.00  0.00     0.099 A 
ATOM      6  C   UNL A   1      30.958  24.003  25.451  1.00  0.00     0.074 A 
ATOM      7  C   UNL A   1      31.793  23.583  26.489  1.00  0.00     0.030 A 
ATOM      8  C   UNL A   1      31.078  23.350  24.212  1.00  0.00     0.182 A 
ATOM      9  C   UNL A   1      32.792  22.636  26.264  1.00  0.00     0.021 A 
ATOM     10  C   UNL A   1      32.056  22.378  23.989  1.00  0.00     0.175 A 
ATOM     11  F   UNL A   1      30.273  23.720  23.201  1.00  0.00    -0.201 F 
ATOM     12  F   UNL A   1      32.137  21.819  22.779  1.00  0.00    -0.203 F 
BRANCH   6  13
ATOM     13  N   UNL A   1      30.084  25.078  25.608  1.00  0.00    -0.379 N 
ATOM     14  H   UNL A   1      29.271  24.988  26.156  1.00  0.00     0.161 HD
BRANCH  13  15
ATOM     15  C   UNL A   1      30.397  26.334  24.944  1.00  0.00     0.149 C 
BRANCH  15  16
ATOM     16  C   UNL A   1      31.597  26.988  25.588  1.00  0.00    -0.026 A 
ATOM     17  C   UNL A   1      33.201  26.361  23.688  1.00  0.00     0.044 C 
ATOM     18  C   UNL A   1      32.881  27.008  25.007  1.00  0.00    -0.046 A 
ATOM     19  C   UNL A   1      33.909  27.714  25.656  1.00  0.00     0.004 A 
ATOM     20  C   UNL A   1      33.688  28.354  26.877  1.00  0.00     0.000 A 
ATOM     21  C   UNL A   1      31.399  27.619  26.833  1.00  0.00     0.006 A 
ATOM     22  C   UNL A   1      32.435  28.297  27.471  1.00  0.00     0.000 A 
ENDBRANCH  15  16
ENDBRANCH  13  15
ENDBRANCH   6  13
ENDBRANCH   3   5
ENDBRANCH   2   3
ENDBRANCH   1   2
BRANCH   1  23
ATOM     23  C   UNL A   1      37.767  21.896  25.038  1.00  0.00     0.275 C 
BRANCH  23  24
ATOM     24  O   UNL A   1      38.247  23.027  25.801  1.00  0.00    -0.458 OA
BRANCH  24  25
ATOM     25  C   UNL A   1      39.504  23.005  26.312  1.00  0.00     0.338 C 
ATOM     26  O   UNL A   1      40.289  22.086  26.136  1.00  0.00    -0.246 OA
BRANCH  25  27
ATOM     27  C   UNL A   1      39.818  24.304  26.963  1.00  0.00     0.060 A 
ATOM     28  C   UNL A   1      40.391  25.348  26.221  1.00  0.00     0.016 A 
ATOM     29  C   UNL A   1      39.316  24.540  28.242  1.00  0.00     0.016 A 
ATOM     30  C   UNL A   1      40.360  26.654  26.715  1.00  0.00     0.010 A 
ATOM     31  C   UNL A   1      39.164  25.833  28.672  1.00  0.00     0.010 A 
ATOM     32  C   UNL A   1      39.717  26.886  27.932  1.00  0.00    -0.014 A 
BRANCH  32  33
ATOM     33  C   UNL A   1      39.838  28.107  28.712  1.00  0.00     0.031 A 
ATOM     34  C   UNL A   1      38.859  29.205  28.682  1.00  0.00     0.074 A 
ATOM     35  C   UNL A   1      40.830  28.031  29.628  1.00  0.00     0.049 A 
ATOM     36  N   UNL A   1      39.093  30.388  29.138  1.00  0.00    -0.248 NA
ATOM     37  C   UNL A   1      37.517  29.072  28.126  1.00  0.00     0.031 C 
ATOM     38  C   UNL A   1      41.098  28.856  30.790  1.00  0.00     0.029 A 
ATOM     39  N   UNL A   1      41.940  27.182  29.572  1.00  0.00    -0.354 N 
ATOM     40  C   UNL A   1      37.881  31.040  29.263  1.00  0.00     0.074 A 
ATOM     41  C   UNL A   1      36.955  30.229  28.508  1.00  0.00     0.031 C 
ATOM     42  C   UNL A   1      42.402  28.717  31.104  1.00  0.00     0.029 A 
ATOM     43  C   UNL A   1      43.010  27.938  30.028  1.00  0.00     0.049 A 
ATOM     44  H   UNL A   1      41.959  26.244  29.272  1.00  0.00     0.167 HD
ATOM     45  C   UNL A   1      37.785  32.086  30.137  1.00  0.00     0.034 A 
ATOM     46  C   UNL A   1      43.973  28.386  29.166  1.00  0.00     0.034 A 
ATOM     47  C   UNL A   1      39.092  32.366  30.737  1.00  0.00     0.049 A 
ATOM     48  C   UNL A   1      44.031  29.896  29.193  1.00  0.00     0.074 A 
ATOM     49  C   UNL A   1      39.647  32.012  31.956  1.00  0.00     0.029 A 
ATOM     50  N   UNL A   1      40.141  32.799  29.934  1.00  0.00    -0.354 N 
ATOM     51  N   UNL A   1      42.999  30.671  29.398  1.00  0.00    -0.248 NA
ATOM     52  C   UNL A   1      45.283  30.630  29.081  1.00  0.00     0.031 C 
ATOM     53  C   UNL A   1      41.057  32.138  31.841  1.00  0.00     0.029 A 
ATOM     54  C   UNL A   1      41.352  32.602  30.569  1.00  0.00     0.049 A 
ATOM     55  H   UNL A   1      40.037  33.192  29.037  1.00  0.00     0.167 HD
ATOM     56  C   UNL A   1      43.434  31.961  29.566  1.00  0.00     0.074 A 
ATOM     57  C   UNL A   1      44.869  31.883  29.331  1.00  0.00     0.031 C 
ATOM     58  C   UNL A   1      42.604  32.987  29.933  1.00  0.00     0.034 A 
BRANCH  45  59
ATOM     59  C   UNL A   1      36.497  32.653  30.715  1.00  0.00     0.023 A 
ATOM     60  C   UNL A   1      35.713  33.523  29.916  1.00  0.00     0.031 A 
ATOM     61  C   UNL A   1      36.000  32.435  32.012  1.00  0.00     0.131 A 
ATOM     62  C   UNL A   1      34.585  34.195  30.428  1.00  0.00     0.055 A 
ATOM     63  C   UNL A   1      34.894  33.128  32.535  1.00  0.00     0.041 A 
ATOM     64  F   UNL A   1      36.526  31.508  32.822  1.00  0.00    -0.206 F 
ATOM     65  C   UNL A   1      34.188  34.026  31.747  1.00  0.00     0.022 A 
BRANCH  62  66
ATOM     66  S   UNL A   1      33.646  35.307  29.339  1.00  0.00     0.124 S 
ATOM     67  O   UNL A   1      33.272  36.387  30.247  1.00  0.00    -0.237 OA
ATOM     68  O   UNL A   1      34.626  35.637  28.310  1.00  0.00    -0.237 OA
ATOM     69  O   UNL A   1      32.533  34.475  28.882  1.00  0.00    -0.744 OA
ENDBRANCH  62  66
ENDBRANCH  45  59
BRANCH  46  70
ATOM     70  C   UNL A   1      44.215  27.536  27.952  1.00  0.00     0.023 A 
ATOM     71  C   UNL A   1      44.685  26.218  28.152  1.00  0.00     0.031 A 
ATOM     72  C   UNL A   1      43.718  27.850  26.677  1.00  0.00     0.131 A 
ATOM     73  C   UNL A   1      44.507  25.232  27.168  1.00  0.00     0.055 A 
ATOM     74  C   UNL A   1      43.605  26.877  25.670  1.00  0.00     0.041 A 
ATOM     75  F   UNL A   1      43.244  29.074  26.409  1.00  0.00    -0.206 F 
ATOM     76  C   UNL A   1      43.965  25.553  25.925  1.00  0.00     0.022 A 
BRANCH  73  77
ATOM     77  S   UNL A   1      44.732  23.488  27.640  1.00  0.00     0.124 S 
ATOM     78  O   UNL A   1      44.917  23.587  29.083  1.00  0.00    -0.237 OA
ATOM     79  O   UNL A   1      43.481  22.878  27.197  1.00  0.00    -0.237 OA
ATOM     80  O   UNL A   1      45.909  23.084  26.876  1.00  0.00    -0.744 OA
ENDBRANCH  73  77
ENDBRANCH  46  70
BRANCH  58  81
ATOM     81  C   UNL A   1      42.945  34.459  29.854  1.00  0.00     0.023 A 
ATOM     82  C   UNL A   1      42.713  35.228  28.708  1.00  0.00     0.031 A 
ATOM     83  C   UNL A   1      43.439  35.173  30.975  1.00  0.00     0.131 A 
ATOM     84  C   UNL A   1      43.071  36.583  28.652  1.00  0.00     0.055 A 
ATOM     85  C   UNL A   1      43.698  36.546  30.950  1.00  0.00     0.041 A 
ATOM     86  F   UNL A   1      43.675  34.576  32.152  1.00  0.00    -0.206 F 
ATOM     87  C   UNL A   1      43.538  37.258  29.775  1.00  0.00     0.022 A 
BRANCH  84  88
ATOM     88  S   UNL A   1      42.991  37.405  27.043  1.00  0.00     0.124 S 
ATOM     89  O   UNL A   1      44.374  37.839  26.862  1.00  0.00    -0.237 OA
ATOM     90  O   UNL A   1      42.547  36.329  26.163  1.00  0.00    -0.237 OA
ATOM     91  O   UNL A   1      42.024  38.479  27.252  1.00  0.00    -0.744 OA
ENDBRANCH  84  88
ENDBRANCH  58  81
ENDBRANCH  32  33
ENDBRANCH  25  27
ENDBRANCH  24  25
ENDBRANCH  23  24
ENDBRANCH   1  23
TORSDOF 17
ENDMDL
MODEL 2
REMARK VINA RESULT:     -12.6      3.698      9.904
REMARK SMILES Cc1ccccc1CNc1ccc(C(=O)OCCOC(=O)c2ccc(-c3c4nc(c(-c5cc(S(=O)(=O)[O-])ccc5F)c5ccc([nH]5)c(-c5cc(S(=O)(=O)[O-])ccc5F)c5nc(c(-c6cc(S(=O)(=O)[O-])ccc6F)c6ccc3[nH]6)C=C5)C=C4)cc2)c(F)c1F
REMARK SMILES IDX 17 1 16 2 14 3 15 4 13 5 10 6 11 7 87 8 12 9 85 10 88 11
REMARK SMILES IDX 86 12 9 13 8 15 7 16 1 17 2 18 3 19 4 20 6 21 5 22 18 23
REMARK SMILES IDX 19 24 20 25 21 26 22 27 23 28 84 29 24 30 83 31 25 32 26 33
REMARK SMILES IDX 27 34 77 35 28 36 82 37 76 38 78 39 29 40 81 41 75 42 74 43
REMARK SMILES IDX 30 45 62 46 42 47 61 48 43 49 46 50 60 51 79 52 44 53 45 54
REMARK SMILES IDX 59 56 80 57 47 58 31 59 32 60 40 61 33 62 39 63 41 64 38 65
REMARK SMILES IDX 34 66 35 67 36 68 37 69 63 70 64 71 72 72 65 73 71 74 73 75
REMARK SMILES IDX 70 76 66 77 67 78 68 79 69 80 48 81 49 82 57 83 50 84 56 85
REMARK SMILES IDX 58 86 55 87 51 88 52 89 53 90 54 91
REMARK H PARENT 9 14 78 44 46 55
REMARK Flexibility Score: inf
ROOT
ATOM      1  C   UNL A   1      32.147  29.783  26.646  1.00  0.00     0.275 C 
ENDROOT
BRANCH   1   2
ATOM      2  O   UNL A   1      31.531  28.606  26.100  1.00  0.00    -0.458 OA
BRANCH   2   3
ATOM      3  C   UNL A   1      31.257  28.745  24.775  1.00  0.00     0.341 C 
ATOM      4  O   UNL A   1      30.758  29.722  24.256  1.00  0.00    -0.246 OA
BRANCH   3   5
ATOM      5  C   UNL A   1      31.508  27.523  23.983  1.00  0.00     0.099 A 
ATOM      6  C   UNL A   1      32.324  25.101  22.780  1.00  0.00     0.074 A 
ATOM      7  C   UNL A   1      33.198  26.188  22.859  1.00  0.00     0.030 A 
ATOM      8  C   UNL A   1      31.005  25.289  23.227  1.00  0.00     0.182 A 
ATOM      9  C   UNL A   1      32.805  27.377  23.473  1.00  0.00     0.021 A 
ATOM     10  C   UNL A   1      30.596  26.489  23.814  1.00  0.00     0.175 A 
ATOM     11  F   UNL A   1      30.137  24.265  23.145  1.00  0.00    -0.201 F 
ATOM     12  F   UNL A   1      29.336  26.591  24.247  1.00  0.00    -0.203 F 
BRANCH   6  13
ATOM     13  N   UNL A   1      32.756  23.849  22.343  1.00  0.00    -0.379 N 
ATOM     14  H   UNL A   1      32.822  23.648  21.381  1.00  0.00     0.161 HD
BRANCH  13  15
ATOM     15  C   UNL A   1      33.106  22.846  23.338  1.00  0.00     0.149 C 
BRANCH  15  16
ATOM     16  C   UNL A   1      34.423  23.188  23.994  1.00  0.00    -0.026 A 
ATOM     17  C   UNL A   1      33.346  23.988  26.180  1.00  0.00     0.044 C 
ATOM     18  C   UNL A   1      34.533  23.704  25.300  1.00  0.00    -0.046 A 
ATOM     19  C   UNL A   1      35.814  23.913  25.843  1.00  0.00     0.004 A 
ATOM     20  C   UNL A   1      36.965  23.659  25.096  1.00  0.00     0.000 A 
ATOM     21  C   UNL A   1      35.597  22.962  23.246  1.00  0.00     0.006 A 
ATOM     22  C   UNL A   1      36.856  23.194  23.793  1.00  0.00     0.000 A 
ENDBRANCH  15  16
ENDBRANCH  13  15
ENDBRANCH   6  13
ENDBRANCH   3   5
ENDBRANCH   2   3
ENDBRANCH   1   2
BRANCH   1  23
ATOM     23  C   UNL A   1      33.681  29.772  26.538  1.00  0.00     0.275 C 
BRANCH  23  24
ATOM     24  O   UNL A   1      34.501  29.815  27.729  1.00  0.00    -0.458 OA
BRANCH  24  25
ATOM     25  C   UNL A   1      35.486  30.745  27.831  1.00  0.00     0.338 C 
ATOM     26  O   UNL A   1      35.293  31.946  27.725  1.00  0.00    -0.246 OA
BRANCH  25  27
ATOM     27  C   UNL A   1      36.762  30.100  28.235  1.00  0.00     0.060 A 
ATOM     28  C   UNL A   1      36.842  29.379  29.436  1.00  0.00     0.016 A 
ATOM     29  C   UNL A   1      37.790  30.023  27.296  1.00  0.00     0.016 A 
ATOM     30  C   UNL A   1      37.900  28.492  29.649  1.00  0.00     0.010 A 
ATOM     31  C   UNL A   1      38.756  29.061  27.440  1.00  0.00     0.010 A 
ATOM     32  C   UNL A   1      38.836  28.322  28.628  1.00  0.00    -0.014 A 
BRANCH  32  33
ATOM     33  C   UNL A   1      40.126  27.671  28.788  1.00  0.00     0.031 A 
ATOM     34  C   UNL A   1      40.392  26.268  28.431  1.00  0.00     0.074 A 
ATOM     35  C   UNL A   1      41.107  28.550  29.095  1.00  0.00     0.049 A 
ATOM     36  N   UNL A   1      41.428  25.611  28.826  1.00  0.00    -0.248 NA
ATOM     37  C   UNL A   1      39.504  25.468  27.594  1.00  0.00     0.031 C 
ATOM     38  C   UNL A   1      42.549  28.403  29.040  1.00  0.00     0.029 A 
ATOM     39  N   UNL A   1      40.933  29.804  29.690  1.00  0.00    -0.354 N 
ATOM     40  C   UNL A   1      41.531  24.475  28.045  1.00  0.00     0.074 A 
ATOM     41  C   UNL A   1      40.250  24.373  27.386  1.00  0.00     0.031 C 
ATOM     42  C   UNL A   1      43.090  29.321  29.866  1.00  0.00     0.029 A 
ATOM     43  C   UNL A   1      41.981  29.938  30.589  1.00  0.00     0.049 A 
ATOM     44  H   UNL A   1      40.217  30.455  29.508  1.00  0.00     0.167 HD
ATOM     45  C   UNL A   1      42.750  23.870  27.924  1.00  0.00     0.034 A 
ATOM     46  C   UNL A   1      41.765  29.857  31.937  1.00  0.00     0.034 A 
ATOM     47  C   UNL A   1      43.738  24.549  28.766  1.00  0.00     0.049 A 
ATOM     48  C   UNL A   1      42.569  28.719  32.523  1.00  0.00     0.074 A 
ATOM     49  C   UNL A   1      44.708  25.496  28.477  1.00  0.00     0.029 A 
ATOM     50  N   UNL A   1      43.587  24.545  30.148  1.00  0.00    -0.354 N 
ATOM     51  N   UNL A   1      42.848  27.610  31.890  1.00  0.00    -0.248 NA
ATOM     52  C   UNL A   1      43.190  28.799  33.837  1.00  0.00     0.031 C 
ATOM     53  C   UNL A   1      45.061  26.137  29.694  1.00  0.00     0.029 A 
ATOM     54  C   UNL A   1      44.337  25.553  30.722  1.00  0.00     0.049 A 
ATOM     55  H   UNL A   1      43.025  23.910  30.649  1.00  0.00     0.167 HD
ATOM     56  C   UNL A   1      43.758  26.892  32.625  1.00  0.00     0.074 A 
ATOM     57  C   UNL A   1      43.918  27.670  33.846  1.00  0.00     0.031 C 
ATOM     58  C   UNL A   1      44.353  25.747  32.164  1.00  0.00     0.034 A 
BRANCH  45  59
ATOM     59  C   UNL A   1      43.159  22.895  26.830  1.00  0.00     0.023 A 
ATOM     60  C   UNL A   1      42.692  21.559  26.894  1.00  0.00     0.031 A 
ATOM     61  C   UNL A   1      44.011  23.171  25.745  1.00  0.00     0.131 A 
ATOM     62  C   UNL A   1      43.138  20.566  25.999  1.00  0.00     0.055 A 
ATOM     63  C   UNL A   1      44.483  22.177  24.870  1.00  0.00     0.041 A 
ATOM     64  F   UNL A   1      44.392  24.420  25.448  1.00  0.00    -0.206 F 
ATOM     65  C   UNL A   1      44.059  20.862  25.002  1.00  0.00     0.022 A 
BRANCH  62  66
ATOM     66  S   UNL A   1      42.501  18.872  26.162  1.00  0.00     0.124 S 
ATOM     67  O   UNL A   1      43.423  18.112  25.325  1.00  0.00    -0.237 OA
ATOM     68  O   UNL A   1      42.593  18.642  27.600  1.00  0.00    -0.237 OA
ATOM     69  O   UNL A   1      41.137  18.970  25.642  1.00  0.00    -0.744 OA
ENDBRANCH  62  66
ENDBRANCH  45  59
BRANCH  46  70
ATOM     70  C   UNL A   1      40.407  30.287  32.412  1.00  0.00     0.023 A 
ATOM     71  C   UNL A   1      39.994  31.608  32.124  1.00  0.00     0.031 A 
ATOM     72  C   UNL A   1      39.418  29.388  32.840  1.00  0.00     0.131 A 
ATOM     73  C   UNL A   1      38.633  31.951  32.109  1.00  0.00     0.055 A 
ATOM     74  C   UNL A   1      38.062  29.755  32.892  1.00  0.00     0.041 A 
ATOM     75  F   UNL A   1      39.724  28.115  33.125  1.00  0.00    -0.206 F 
ATOM     76  C   UNL A   1      37.660  31.028  32.489  1.00  0.00     0.022 A 
BRANCH  73  77
ATOM     77  S   UNL A   1      38.143  33.518  31.320  1.00  0.00     0.124 S 
ATOM     78  O   UNL A   1      39.307  33.816  30.493  1.00  0.00    -0.237 OA
ATOM     79  O   UNL A   1      36.928  33.142  30.603  1.00  0.00    -0.237 OA
ATOM     80  O   UNL A   1      37.928  34.410  32.456  1.00  0.00    -0.744 OA
ENDBRANCH  73  77
ENDBRANCH  46  70
BRANCH  58  81
ATOM     81  C   UNL A   1      45.127  24.762  33.012  1.00  0.00     0.023 A 
ATOM     82  C   UNL A   1      46.469  24.954  33.359  1.00  0.00     0.031 A 
ATOM     83  C   UNL A   1      44.508  23.622  33.585  1.00  0.00     0.131 A 
ATOM     84  C   UNL A   1      47.170  24.006  34.118  1.00  0.00     0.055 A 
ATOM     85  C   UNL A   1      45.180  22.732  34.427  1.00  0.00     0.041 A 
ATOM     86  F   UNL A   1      43.217  23.329  33.371  1.00  0.00    -0.206 F 
ATOM     87  C   UNL A   1      46.530  22.907  34.680  1.00  0.00     0.022 A 
BRANCH  84  88
ATOM     88  S   UNL A   1      48.961  24.212  34.268  1.00  0.00     0.124 S 
ATOM     89  O   UNL A   1      49.416  22.824  34.326  1.00  0.00    -0.237 OA
ATOM     90  O   UNL A   1      49.297  24.935  33.046  1.00  0.00    -0.237 OA
ATOM     91  O   UNL A   1      49.118  24.971  35.505  1.00  0.00    -0.744 OA
ENDBRANCH  84  88
ENDBRANCH  58  81
ENDBRANCH  32  33
ENDBRANCH  25  27
ENDBRANCH  24  25
ENDBRANCH  23  24
ENDBRANCH   1  23
TORSDOF 17
ENDMDL
MODEL 3
REMARK VINA RESULT:     -12.4      3.830     10.001
REMARK SMILES Cc1ccccc1CNc1ccc(C(=O)OCCOC(=O)c2ccc(-c3c4nc(c(-c5cc(S(=O)(=O)[O-])ccc5F)c5ccc([nH]5)c(-c5cc(S(=O)(=O)[O-])ccc5F)c5nc(c(-c6cc(S(=O)(=O)[O-])ccc6F)c6ccc3[nH]6)C=C5)C=C4)cc2)c(F)c1F
REMARK SMILES IDX 17 1 16 2 14 3 15 4 13 5 10 6 11 7 87 8 12 9 85 10 88 11
REMARK SMILES IDX 86 12 9 13 8 15 7 16 1 17 2 18 3 19 4 20 6 21 5 22 18 23
REMARK SMILES IDX 19 24 20 25 21 26 22 27 23 28 84 29 24 30 83 31 25 32 26 33
REMARK SMILES IDX 27 34 77 35 28 36 82 37 76 38 78 39 29 40 81 41 75 42 74 43
REMARK SMILES IDX 30 45 62 46 42 47 61 48 43 49 46 50 60 51 79 52 44 53 45 54
REMARK SMILES IDX 59 56 80 57 47 58 31 59 32 60 40 61 33 62 39 63 41 64 38 65
REMARK SMILES IDX 34 66 35 67 36 68 37 69 63 70 64 71 72 72 65 73 71 74 73 75
REMARK SMILES IDX 70 76 66 77 67 78 68 79 69 80 48 81 49 82 57 83 50 84 56 85
REMARK SMILES IDX 58 86 55 87 51 88 52 89 53 90 54 91
REMARK H PARENT 9 14 78 44 46 55
REMARK Flexibility Score: inf
ROOT
ATOM      1  C   UNL A   1      32.659  30.115  26.124  1.00  0.00     0.275 C 
ENDROOT
BRANCH   1   2
ATOM      2  O   UNL A   1      31.773  29.000  26.314  1.00  0.00    -0.458 OA
BRANCH   2   3
ATOM      3  C   UNL A   1      31.806  28.141  25.261  1.00  0.00     0.341 C 
ATOM      4  O   UNL A   1      31.622  28.440  24.099  1.00  0.00    -0.246 OA
BRANCH   3   5
ATOM      5  C   UNL A   1      31.970  26.725  25.651  1.00  0.00     0.099 A 
ATOM      6  C   UNL A   1      32.164  23.923  25.955  1.00  0.00     0.074 A 
ATOM      7  C   UNL A   1      30.941  24.525  25.648  1.00  0.00     0.030 A 
ATOM      8  C   UNL A   1      33.261  24.765  26.204  1.00  0.00     0.182 A 
ATOM      9  C   UNL A   1      30.847  25.905  25.475  1.00  0.00     0.021 A 
ATOM     10  C   UNL A   1      33.167  26.152  26.063  1.00  0.00     0.175 A 
ATOM     11  F   UNL A   1      34.446  24.214  26.520  1.00  0.00    -0.201 F 
ATOM     12  F   UNL A   1      34.256  26.892  26.282  1.00  0.00    -0.203 F 
BRANCH   6  13
ATOM     13  N   UNL A   1      32.317  22.537  25.947  1.00  0.00    -0.379 N 
ATOM     14  H   UNL A   1      32.232  22.017  26.779  1.00  0.00     0.161 HD
BRANCH  13  15
ATOM     15  C   UNL A   1      32.606  21.875  24.683  1.00  0.00     0.149 C 
BRANCH  15  16
ATOM     16  C   UNL A   1      34.081  21.963  24.364  1.00  0.00    -0.026 A 
ATOM     17  C   UNL A   1      33.782  23.768  22.568  1.00  0.00     0.044 C 
ATOM     18  C   UNL A   1      34.619  22.837  23.400  1.00  0.00    -0.046 A 
ATOM     19  C   UNL A   1      36.016  22.893  23.239  1.00  0.00     0.004 A 
ATOM     20  C   UNL A   1      36.863  22.072  23.985  1.00  0.00     0.000 A 
ATOM     21  C   UNL A   1      34.950  21.123  25.090  1.00  0.00     0.006 A 
ATOM     22  C   UNL A   1      36.329  21.179  24.904  1.00  0.00     0.000 A 
ENDBRANCH  15  16
ENDBRANCH  13  15
ENDBRANCH   6  13
ENDBRANCH   3   5
ENDBRANCH   2   3
ENDBRANCH   1   2
BRANCH   1  23
ATOM     23  C   UNL A   1      33.429  30.503  27.397  1.00  0.00     0.275 C 
BRANCH  23  24
ATOM     24  O   UNL A   1      34.793  30.063  27.593  1.00  0.00    -0.458 OA
BRANCH  24  25
ATOM     25  C   UNL A   1      35.732  30.954  28.004  1.00  0.00     0.338 C 
ATOM     26  O   UNL A   1      35.518  32.149  28.134  1.00  0.00    -0.246 OA
BRANCH  25  27
ATOM     27  C   UNL A   1      36.972  30.243  28.410  1.00  0.00     0.060 A 
ATOM     28  C   UNL A   1      36.977  29.418  29.545  1.00  0.00     0.016 A 
ATOM     29  C   UNL A   1      38.043  30.221  27.517  1.00  0.00     0.016 A 
ATOM     30  C   UNL A   1      38.003  28.489  29.729  1.00  0.00     0.010 A 
ATOM     31  C   UNL A   1      38.979  29.225  27.621  1.00  0.00     0.010 A 
ATOM     32  C   UNL A   1      38.985  28.384  28.742  1.00  0.00    -0.014 A 
BRANCH  32  33
ATOM     33  C   UNL A   1      40.250  27.687  28.904  1.00  0.00     0.031 A 
ATOM     34  C   UNL A   1      40.475  26.284  28.522  1.00  0.00     0.074 A 
ATOM     35  C   UNL A   1      41.255  28.527  29.242  1.00  0.00     0.049 A 
ATOM     36  N   UNL A   1      41.484  25.585  28.915  1.00  0.00    -0.248 NA
ATOM     37  C   UNL A   1      39.574  25.532  27.657  1.00  0.00     0.031 C 
ATOM     38  C   UNL A   1      42.692  28.335  29.202  1.00  0.00     0.029 A 
ATOM     39  N   UNL A   1      41.114  29.774  29.861  1.00  0.00    -0.354 N 
ATOM     40  C   UNL A   1      41.560  24.464  28.112  1.00  0.00     0.074 A 
ATOM     41  C   UNL A   1      40.286  24.417  27.435  1.00  0.00     0.031 C 
ATOM     42  C   UNL A   1      43.252  29.217  30.054  1.00  0.00     0.029 A 
ATOM     43  C   UNL A   1      42.154  29.855  30.776  1.00  0.00     0.049 A 
ATOM     44  H   UNL A   1      40.422  30.452  29.684  1.00  0.00     0.167 HD
ATOM     45  C   UNL A   1      42.761  23.821  27.993  1.00  0.00     0.034 A 
ATOM     46  C   UNL A   1      41.918  29.753  32.120  1.00  0.00     0.034 A 
ATOM     47  C   UNL A   1      43.759  24.450  28.862  1.00  0.00     0.049 A 
ATOM     48  C   UNL A   1      42.676  28.577  32.691  1.00  0.00     0.074 A 
ATOM     49  C   UNL A   1      44.763  25.371  28.605  1.00  0.00     0.029 A 
ATOM     50  N   UNL A   1      43.590  24.422  30.242  1.00  0.00    -0.354 N 
ATOM     51  N   UNL A   1      42.928  27.474  32.038  1.00  0.00    -0.248 NA
ATOM     52  C   UNL A   1      43.282  28.610  34.014  1.00  0.00     0.031 C 
ATOM     53  C   UNL A   1      45.121  25.974  29.840  1.00  0.00     0.029 A 
ATOM     54  C   UNL A   1      44.364  25.393  30.846  1.00  0.00     0.049 A 
ATOM     55  H   UNL A   1      43.001  23.796  30.722  1.00  0.00     0.167 HD
ATOM     56  C   UNL A   1      43.804  26.711  32.769  1.00  0.00     0.074 A 
ATOM     57  C   UNL A   1      43.972  27.458  34.008  1.00  0.00     0.031 C 
ATOM     58  C   UNL A   1      44.367  25.557  32.292  1.00  0.00     0.034 A 
BRANCH  45  59
ATOM     59  C   UNL A   1      43.153  22.856  26.884  1.00  0.00     0.023 A 
ATOM     60  C   UNL A   1      42.665  21.527  26.930  1.00  0.00     0.031 A 
ATOM     61  C   UNL A   1      44.006  23.135  25.802  1.00  0.00     0.131 A 
ATOM     62  C   UNL A   1      43.095  20.540  26.020  1.00  0.00     0.055 A 
ATOM     63  C   UNL A   1      44.461  22.147  24.911  1.00  0.00     0.041 A 
ATOM     64  F   UNL A   1      44.405  24.382  25.522  1.00  0.00    -0.206 F 
ATOM     65  C   UNL A   1      44.017  20.837  25.026  1.00  0.00     0.022 A 
BRANCH  62  66
ATOM     66  S   UNL A   1      42.432  18.854  26.161  1.00  0.00     0.124 S 
ATOM     67  O   UNL A   1      42.553  18.592  27.591  1.00  0.00    -0.237 OA
ATOM     68  O   UNL A   1      41.077  19.007  25.642  1.00  0.00    -0.237 OA
ATOM     69  O   UNL A   1      43.328  18.065  25.314  1.00  0.00    -0.744 OA
ENDBRANCH  62  66
ENDBRANCH  45  59
BRANCH  46  70
ATOM     70  C   UNL A   1      40.568  30.218  32.586  1.00  0.00     0.023 A 
ATOM     71  C   UNL A   1      40.242  31.582  32.410  1.00  0.00     0.031 A 
ATOM     72  C   UNL A   1      39.514  29.344  32.893  1.00  0.00     0.131 A 
ATOM     73  C   UNL A   1      38.904  32.005  32.381  1.00  0.00     0.055 A 
ATOM     74  C   UNL A   1      38.180  29.784  32.933  1.00  0.00     0.041 A 
ATOM     75  F   UNL A   1      39.737  28.034  33.066  1.00  0.00    -0.206 F 
ATOM     76  C   UNL A   1      37.866  31.111  32.639  1.00  0.00     0.022 A 
BRANCH  73  77
ATOM     77  S   UNL A   1      38.534  33.664  31.727  1.00  0.00     0.124 S 
ATOM     78  O   UNL A   1      38.352  34.437  32.950  1.00  0.00    -0.237 OA
ATOM     79  O   UNL A   1      39.732  33.970  30.950  1.00  0.00    -0.237 OA
ATOM     80  O   UNL A   1      37.331  33.448  30.928  1.00  0.00    -0.744 OA
ENDBRANCH  73  77
ENDBRANCH  46  70
BRANCH  58  81
ATOM     81  C   UNL A   1      45.098  24.530  33.129  1.00  0.00     0.023 A 
ATOM     82  C   UNL A   1      46.401  24.726  33.599  1.00  0.00     0.031 A 
ATOM     83  C   UNL A   1      44.466  23.338  33.566  1.00  0.00     0.131 A 
ATOM     84  C   UNL A   1      47.065  23.740  34.343  1.00  0.00     0.055 A 
ATOM     85  C   UNL A   1      45.093  22.404  34.396  1.00  0.00     0.041 A 
ATOM     86  F   UNL A   1      43.206  23.033  33.226  1.00  0.00    -0.206 F 
ATOM     87  C   UNL A   1      46.413  22.589  34.771  1.00  0.00     0.022 A 
BRANCH  84  88
ATOM     88  S   UNL A   1      48.831  23.974  34.655  1.00  0.00     0.124 S 
ATOM     89  O   UNL A   1      49.208  24.876  33.568  1.00  0.00    -0.237 OA
ATOM     90  O   UNL A   1      48.839  24.559  35.991  1.00  0.00    -0.237 OA
ATOM     91  O   UNL A   1      49.380  22.624  34.561  1.00  0.00    -0.744 OA
ENDBRANCH  84  88
ENDBRANCH  58  81
ENDBRANCH  32  33
ENDBRANCH  25  27
ENDBRANCH  24  25
ENDBRANCH  23  24
ENDBRANCH   1  23
TORSDOF 17
ENDMDL
