MODEL 1
REMARK VINA RESULT:     -11.1      0.000      0.000
REMARK SMILES O=C(OCCOC(=O)c1ccc(-c2c(F)cccc2F)cn1)c1ccc(-c2c3nc(c(-c4cc(S(=O)(=O)[O-])ccc4F)c4ccc([nH]4)c(-c4cc(S(=O)(=O)[O-])ccc4F)c4nc(c(-c5cc(S(=O)(=O)[O-])ccc5F)c5ccc2[nH]5)C=C4)C=C3)cc1
REMARK SMILES IDX 4 1 3 2 2 3 1 4 23 5 24 6 85 7 25 8 84 9 26 10 27 11 28 12
REMARK SMILES IDX 78 13 29 14 83 15 77 16 79 17 30 18 82 19 76 20 75 21 31 23
REMARK SMILES IDX 63 24 43 25 62 26 44 27 47 28 61 29 80 30 45 31 46 32 60 34
REMARK SMILES IDX 81 35 48 36 32 37 33 38 41 39 34 40 40 41 42 42 39 43 35 44
REMARK SMILES IDX 36 45 37 46 38 47 64 48 65 49 73 50 66 51 72 52 74 53 71 54
REMARK SMILES IDX 67 55 68 56 69 57 70 58 49 59 50 60 58 61 51 62 57 63 59 64
REMARK SMILES IDX 56 65 52 66 53 67 54 68 55 69 5 70 6 71 7 72 8 73 9 74 10 75
REMARK SMILES IDX 22 76 11 77 21 78 12 79 13 80 14 81 19 82 15 83 16 84 18 85
REMARK SMILES IDX 20 86 17 87
REMARK H PARENT 79 22 47 33
REMARK Flexibility Score: inf
ROOT
ATOM      1  C   UNL A   1      41.721  19.274  26.115  1.00  0.00     0.275 C 
ENDROOT
BRANCH   1   2
ATOM      2  O   UNL A   1      41.692  20.543  26.792  1.00  0.00    -0.458 OA
BRANCH   2   3
ATOM      3  C   UNL A   1      40.657  21.411  26.923  1.00  0.00     0.338 C 
ATOM      4  O   UNL A   1      39.560  21.108  26.458  1.00  0.00    -0.246 OA
BRANCH   3   5
ATOM      5  C   UNL A   1      40.826  22.790  27.476  1.00  0.00     0.060 A 
ATOM      6  C   UNL A   1      39.960  23.860  27.249  1.00  0.00     0.016 A 
ATOM      7  C   UNL A   1      41.994  23.028  28.224  1.00  0.00     0.016 A 
ATOM      8  C   UNL A   1      40.217  25.119  27.798  1.00  0.00     0.010 A 
ATOM      9  C   UNL A   1      42.263  24.291  28.768  1.00  0.00     0.010 A 
ATOM     10  C   UNL A   1      41.375  25.347  28.546  1.00  0.00    -0.014 A 
BRANCH  10  11
ATOM     11  C   UNL A   1      41.706  26.737  28.929  1.00  0.00     0.031 A 
ATOM     12  C   UNL A   1      43.140  27.173  28.862  1.00  0.00     0.074 A 
ATOM     13  C   UNL A   1      40.731  27.617  29.226  1.00  0.00     0.049 A 
ATOM     14  N   UNL A   1      43.647  28.372  28.978  1.00  0.00    -0.248 NA
ATOM     15  C   UNL A   1      44.131  26.118  28.597  1.00  0.00     0.031 C 
ATOM     16  C   UNL A   1      39.304  27.306  29.255  1.00  0.00     0.029 A 
ATOM     17  N   UNL A   1      40.788  28.950  29.538  1.00  0.00    -0.354 N 
ATOM     18  C   UNL A   1      45.011  28.223  28.755  1.00  0.00     0.074 A 
ATOM     19  C   UNL A   1      45.258  26.810  28.566  1.00  0.00     0.031 C 
ATOM     20  C   UNL A   1      38.618  28.412  29.588  1.00  0.00     0.029 A 
ATOM     21  C   UNL A   1      39.557  29.511  29.788  1.00  0.00     0.049 A 
ATOM     22  H   UNL A   1      41.630  29.457  29.581  1.00  0.00     0.167 HD
ATOM     23  C   UNL A   1      45.965  29.183  28.687  1.00  0.00     0.034 A 
ATOM     24  C   UNL A   1      39.230  30.774  30.125  1.00  0.00     0.034 A 
ATOM     25  C   UNL A   1      45.704  30.579  28.940  1.00  0.00     0.049 A 
ATOM     26  C   UNL A   1      40.329  31.808  30.174  1.00  0.00     0.074 A 
ATOM     27  C   UNL A   1      46.589  31.640  28.943  1.00  0.00     0.029 A 
ATOM     28  N   UNL A   1      44.456  31.101  29.266  1.00  0.00    -0.354 N 
ATOM     29  N   UNL A   1      41.610  31.663  29.917  1.00  0.00    -0.248 NA
ATOM     30  C   UNL A   1      39.934  33.178  30.520  1.00  0.00     0.031 C 
ATOM     31  C   UNL A   1      45.891  32.790  29.334  1.00  0.00     0.029 A 
ATOM     32  C   UNL A   1      44.555  32.462  29.506  1.00  0.00     0.049 A 
ATOM     33  H   UNL A   1      43.623  30.579  29.319  1.00  0.00     0.167 HD
ATOM     34  C   UNL A   1      42.165  32.933  30.028  1.00  0.00     0.074 A 
ATOM     35  C   UNL A   1      41.078  33.830  30.369  1.00  0.00     0.031 C 
ATOM     36  C   UNL A   1      43.453  33.331  29.852  1.00  0.00     0.034 A 
BRANCH  23  37
ATOM     37  C   UNL A   1      47.368  28.720  28.387  1.00  0.00     0.023 A 
ATOM     38  C   UNL A   1      47.850  28.648  27.066  1.00  0.00     0.031 A 
ATOM     39  C   UNL A   1      48.202  28.257  29.419  1.00  0.00     0.131 A 
ATOM     40  C   UNL A   1      49.089  28.044  26.804  1.00  0.00     0.055 A 
ATOM     41  C   UNL A   1      49.468  27.728  29.158  1.00  0.00     0.041 A 
ATOM     42  F   UNL A   1      47.786  28.277  30.694  1.00  0.00    -0.206 F 
ATOM     43  C   UNL A   1      49.910  27.603  27.844  1.00  0.00     0.022 A 
BRANCH  40  44
ATOM     44  S   UNL A   1      49.541  27.699  25.081  1.00  0.00     0.124 S 
ATOM     45  O   UNL A   1      49.843  26.271  25.134  1.00  0.00    -0.237 OA
ATOM     46  O   UNL A   1      48.331  28.070  24.357  1.00  0.00    -0.237 OA
ATOM     47  O   UNL A   1      50.696  28.565  24.849  1.00  0.00    -0.744 OA
ENDBRANCH  40  44
ENDBRANCH  23  37
BRANCH  24  48
ATOM     48  C   UNL A   1      37.818  31.136  30.440  1.00  0.00     0.023 A 
ATOM     49  C   UNL A   1      36.943  31.612  29.450  1.00  0.00     0.031 A 
ATOM     50  C   UNL A   1      37.335  31.053  31.759  1.00  0.00     0.131 A 
ATOM     51  C   UNL A   1      35.647  32.026  29.801  1.00  0.00     0.055 A 
ATOM     52  C   UNL A   1      36.032  31.426  32.096  1.00  0.00     0.041 A 
ATOM     53  F   UNL A   1      38.126  30.598  32.744  1.00  0.00    -0.206 F 
ATOM     54  C   UNL A   1      35.184  31.930  31.115  1.00  0.00     0.022 A 
BRANCH  51  55
ATOM     55  S   UNL A   1      34.593  32.768  28.523  1.00  0.00     0.124 S 
ATOM     56  O   UNL A   1      33.948  31.594  27.950  1.00  0.00    -0.237 OA
ATOM     57  O   UNL A   1      33.741  33.651  29.312  1.00  0.00    -0.237 OA
ATOM     58  O   UNL A   1      35.547  33.447  27.648  1.00  0.00    -0.744 OA
ENDBRANCH  51  55
ENDBRANCH  24  48
BRANCH  36  59
ATOM     59  C   UNL A   1      43.729  34.807  29.979  1.00  0.00     0.023 A 
ATOM     60  C   UNL A   1      43.593  35.682  28.888  1.00  0.00     0.031 A 
ATOM     61  C   UNL A   1      44.157  35.342  31.208  1.00  0.00     0.131 A 
ATOM     62  C   UNL A   1      43.943  37.032  29.028  1.00  0.00     0.055 A 
ATOM     63  C   UNL A   1      44.444  36.698  31.358  1.00  0.00     0.041 A 
ATOM     64  F   UNL A   1      44.304  34.550  32.282  1.00  0.00    -0.206 F 
ATOM     65  C   UNL A   1      44.353  37.549  30.260  1.00  0.00     0.022 A 
BRANCH  62  66
ATOM     66  S   UNL A   1      43.957  38.084  27.551  1.00  0.00     0.124 S 
ATOM     67  O   UNL A   1      43.827  39.419  28.129  1.00  0.00    -0.237 OA
ATOM     68  O   UNL A   1      45.252  37.771  26.957  1.00  0.00    -0.237 OA
ATOM     69  O   UNL A   1      42.797  37.623  26.790  1.00  0.00    -0.744 OA
ENDBRANCH  62  66
ENDBRANCH  36  59
ENDBRANCH  10  11
ENDBRANCH   3   5
ENDBRANCH   2   3
ENDBRANCH   1   2
BRANCH   1  70
ATOM     70  C   UNL A   1      43.082  18.576  26.125  1.00  0.00     0.275 C 
BRANCH  70  71
ATOM     71  O   UNL A   1      43.752  18.630  24.859  1.00  0.00    -0.457 OA
BRANCH  71  72
ATOM     72  C   UNL A   1      44.991  19.197  24.896  1.00  0.00     0.357 C 
ATOM     73  O   UNL A   1      46.055  18.608  24.790  1.00  0.00    -0.244 OA
BRANCH  72  74
ATOM     74  C   UNL A   1      44.854  20.673  25.012  1.00  0.00     0.148 A 
ATOM     75  C   UNL A   1      45.255  21.341  26.160  1.00  0.00     0.037 A 
ATOM     76  N   UNL A   1      44.331  21.299  23.926  1.00  0.00    -0.249 NA
ATOM     77  C   UNL A   1      45.114  22.731  26.196  1.00  0.00     0.013 A 
ATOM     78  C   UNL A   1      44.178  22.641  24.014  1.00  0.00     0.121 A 
ATOM     79  C   UNL A   1      44.556  23.416  25.110  1.00  0.00     0.006 A 
BRANCH  79  80
ATOM     80  C   UNL A   1      44.404  24.875  25.100  1.00  0.00     0.055 A 
ATOM     81  C   UNL A   1      43.139  25.475  25.154  1.00  0.00     0.134 A 
ATOM     82  C   UNL A   1      45.511  25.734  25.079  1.00  0.00     0.134 A 
ATOM     83  F   UNL A   1      42.036  24.711  25.202  1.00  0.00    -0.206 F 
ATOM     84  C   UNL A   1      42.980  26.860  25.196  1.00  0.00     0.040 A 
ATOM     85  C   UNL A   1      45.369  27.122  25.113  1.00  0.00     0.040 A 
ATOM     86  F   UNL A   1      46.754  25.229  25.043  1.00  0.00    -0.206 F 
ATOM     87  C   UNL A   1      44.098  27.689  25.177  1.00  0.00     0.006 A 
ENDBRANCH  79  80
ENDBRANCH  72  74
ENDBRANCH  71  72
ENDBRANCH  70  71
ENDBRANCH   1  70
TORSDOF 15
ENDMDL
MODEL 2
REMARK VINA RESULT:     -11.0      5.017     12.539
REMARK SMILES O=C(OCCOC(=O)c1ccc(-c2c(F)cccc2F)cn1)c1ccc(-c2c3nc(c(-c4cc(S(=O)(=O)[O-])ccc4F)c4ccc([nH]4)c(-c4cc(S(=O)(=O)[O-])ccc4F)c4nc(c(-c5cc(S(=O)(=O)[O-])ccc5F)c5ccc2[nH]5)C=C4)C=C3)cc1
REMARK SMILES IDX 4 1 3 2 2 3 1 4 23 5 24 6 85 7 25 8 84 9 26 10 27 11 28 12
REMARK SMILES IDX 78 13 29 14 83 15 77 16 79 17 30 18 82 19 76 20 75 21 31 23
REMARK SMILES IDX 63 24 43 25 62 26 44 27 47 28 61 29 80 30 45 31 46 32 60 34
REMARK SMILES IDX 81 35 48 36 32 37 33 38 41 39 34 40 40 41 42 42 39 43 35 44
REMARK SMILES IDX 36 45 37 46 38 47 64 48 65 49 73 50 66 51 72 52 74 53 71 54
REMARK SMILES IDX 67 55 68 56 69 57 70 58 49 59 50 60 58 61 51 62 57 63 59 64
REMARK SMILES IDX 56 65 52 66 53 67 54 68 55 69 5 70 6 71 7 72 8 73 9 74 10 75
REMARK SMILES IDX 22 76 11 77 21 78 12 79 13 80 14 81 19 82 15 83 16 84 18 85
REMARK SMILES IDX 20 86 17 87
REMARK H PARENT 79 22 47 33
REMARK Flexibility Score: inf
ROOT
ATOM      1  C   UNL A   1      33.009  35.202  29.199  1.00  0.00     0.275 C 
ENDROOT
BRANCH   1   2
ATOM      2  O   UNL A   1      34.165  34.358  29.338  1.00  0.00    -0.458 OA
BRANCH   2   3
ATOM      3  C   UNL A   1      35.056  33.977  28.388  1.00  0.00     0.338 C 
ATOM      4  O   UNL A   1      34.795  34.188  27.205  1.00  0.00    -0.246 OA
BRANCH   3   5
ATOM      5  C   UNL A   1      36.275  33.171  28.702  1.00  0.00     0.060 A 
ATOM      6  C   UNL A   1      36.385  31.787  28.562  1.00  0.00     0.016 A 
ATOM      7  C   UNL A   1      37.367  33.870  29.250  1.00  0.00     0.016 A 
ATOM      8  C   UNL A   1      37.567  31.123  28.900  1.00  0.00     0.010 A 
ATOM      9  C   UNL A   1      38.550  33.210  29.603  1.00  0.00     0.010 A 
ATOM     10  C   UNL A   1      38.649  31.825  29.437  1.00  0.00    -0.014 A 
BRANCH  10  11
ATOM     11  C   UNL A   1      39.795  31.056  29.972  1.00  0.00     0.031 A 
ATOM     12  C   UNL A   1      40.373  31.465  31.294  1.00  0.00     0.074 A 
ATOM     13  C   UNL A   1      40.235  29.953  29.338  1.00  0.00     0.049 A 
ATOM     14  N   UNL A   1      41.251  30.848  32.040  1.00  0.00    -0.248 NA
ATOM     15  C   UNL A   1      39.867  32.722  31.867  1.00  0.00     0.031 C 
ATOM     16  C   UNL A   1      39.695  29.439  28.082  1.00  0.00     0.029 A 
ATOM     17  N   UNL A   1      41.217  29.058  29.670  1.00  0.00    -0.354 N 
ATOM     18  C   UNL A   1      41.371  31.618  33.190  1.00  0.00     0.074 A 
ATOM     19  C   UNL A   1      40.528  32.781  33.012  1.00  0.00     0.031 C 
ATOM     20  C   UNL A   1      40.367  28.328  27.735  1.00  0.00     0.029 A 
ATOM     21  C   UNL A   1      41.378  28.048  28.750  1.00  0.00     0.049 A 
ATOM     22  H   UNL A   1      41.758  29.131  30.489  1.00  0.00     0.167 HD
ATOM     23  C   UNL A   1      42.099  31.364  34.305  1.00  0.00     0.034 A 
ATOM     24  C   UNL A   1      42.237  27.009  28.740  1.00  0.00     0.034 A 
ATOM     25  C   UNL A   1      42.979  30.230  34.434  1.00  0.00     0.049 A 
ATOM     26  C   UNL A   1      43.136  26.814  29.936  1.00  0.00     0.074 A 
ATOM     27  C   UNL A   1      43.799  29.883  35.492  1.00  0.00     0.029 A 
ATOM     28  N   UNL A   1      43.174  29.267  33.449  1.00  0.00    -0.354 N 
ATOM     29  N   UNL A   1      43.208  27.527  31.038  1.00  0.00    -0.248 NA
ATOM     30  C   UNL A   1      44.041  25.660  29.903  1.00  0.00     0.031 C 
ATOM     31  C   UNL A   1      44.536  28.751  35.122  1.00  0.00     0.029 A 
ATOM     32  C   UNL A   1      44.126  28.347  33.861  1.00  0.00     0.049 A 
ATOM     33  H   UNL A   1      42.705  29.242  32.585  1.00  0.00     0.167 HD
ATOM     34  C   UNL A   1      44.135  26.879  31.849  1.00  0.00     0.074 A 
ATOM     35  C   UNL A   1      44.588  25.717  31.108  1.00  0.00     0.031 C 
ATOM     36  C   UNL A   1      44.565  27.201  33.097  1.00  0.00     0.034 A 
BRANCH  23  37
ATOM     37  C   UNL A   1      41.998  32.374  35.421  1.00  0.00     0.023 A 
ATOM     38  C   UNL A   1      41.083  32.209  36.478  1.00  0.00     0.031 A 
ATOM     39  C   UNL A   1      42.755  33.556  35.383  1.00  0.00     0.131 A 
ATOM     40  C   UNL A   1      40.884  33.248  37.401  1.00  0.00     0.055 A 
ATOM     41  C   UNL A   1      42.608  34.553  36.349  1.00  0.00     0.041 A 
ATOM     42  F   UNL A   1      43.625  33.778  34.385  1.00  0.00    -0.206 F 
ATOM     43  C   UNL A   1      41.657  34.411  37.355  1.00  0.00     0.022 A 
BRANCH  40  44
ATOM     44  S   UNL A   1      39.495  33.125  38.561  1.00  0.00     0.124 S 
ATOM     45  O   UNL A   1      40.168  32.700  39.786  1.00  0.00    -0.237 OA
ATOM     46  O   UNL A   1      38.964  34.483  38.563  1.00  0.00    -0.237 OA
ATOM     47  O   UNL A   1      38.628  32.117  37.953  1.00  0.00    -0.744 OA
ENDBRANCH  40  44
ENDBRANCH  23  37
BRANCH  24  48
ATOM     48  C   UNL A   1      42.291  26.079  27.576  1.00  0.00     0.023 A 
ATOM     49  C   UNL A   1      41.613  24.849  27.584  1.00  0.00     0.031 A 
ATOM     50  C   UNL A   1      43.069  26.392  26.446  1.00  0.00     0.131 A 
ATOM     51  C   UNL A   1      41.760  23.960  26.507  1.00  0.00     0.055 A 
ATOM     52  C   UNL A   1      43.178  25.523  25.357  1.00  0.00     0.041 A 
ATOM     53  F   UNL A   1      43.733  27.557  26.380  1.00  0.00    -0.206 F 
ATOM     54  C   UNL A   1      42.531  24.292  25.391  1.00  0.00     0.022 A 
BRANCH  51  55
ATOM     55  S   UNL A   1      40.985  22.323  26.616  1.00  0.00     0.124 S 
ATOM     56  O   UNL A   1      39.604  22.621  26.256  1.00  0.00    -0.237 OA
ATOM     57  O   UNL A   1      41.755  21.561  25.639  1.00  0.00    -0.237 OA
ATOM     58  O   UNL A   1      41.198  21.938  28.010  1.00  0.00    -0.744 OA
ENDBRANCH  51  55
ENDBRANCH  24  48
BRANCH  36  59
ATOM     59  C   UNL A   1      45.538  26.250  33.745  1.00  0.00     0.023 A 
ATOM     60  C   UNL A   1      45.103  25.141  34.491  1.00  0.00     0.031 A 
ATOM     61  C   UNL A   1      46.922  26.471  33.631  1.00  0.00     0.131 A 
ATOM     62  C   UNL A   1      46.040  24.332  35.149  1.00  0.00     0.055 A 
ATOM     63  C   UNL A   1      47.853  25.626  34.236  1.00  0.00     0.041 A 
ATOM     64  F   UNL A   1      47.392  27.516  32.930  1.00  0.00    -0.206 F 
ATOM     65  C   UNL A   1      47.413  24.558  35.013  1.00  0.00     0.022 A 
BRANCH  62  66
ATOM     66  S   UNL A   1      45.437  23.041  36.270  1.00  0.00     0.124 S 
ATOM     67  O   UNL A   1      44.353  22.447  35.493  1.00  0.00    -0.237 OA
ATOM     68  O   UNL A   1      46.621  22.208  36.450  1.00  0.00    -0.237 OA
ATOM     69  O   UNL A   1      45.016  23.784  37.455  1.00  0.00    -0.744 OA
ENDBRANCH  62  66
ENDBRANCH  36  59
ENDBRANCH  10  11
ENDBRANCH   3   5
ENDBRANCH   2   3
ENDBRANCH   1   2
BRANCH   1  70
ATOM     70  C   UNL A   1      32.980  36.406  30.142  1.00  0.00     0.275 C 
BRANCH  70  71
ATOM     71  O   UNL A   1      32.263  36.153  31.357  1.00  0.00    -0.457 OA
BRANCH  71  72
ATOM     72  C   UNL A   1      32.980  36.372  32.495  1.00  0.00     0.357 C 
ATOM     73  O   UNL A   1      32.817  37.291  33.283  1.00  0.00    -0.244 OA
BRANCH  72  74
ATOM     74  C   UNL A   1      33.959  35.268  32.682  1.00  0.00     0.148 A 
ATOM     75  C   UNL A   1      35.324  35.501  32.595  1.00  0.00     0.037 A 
ATOM     76  N   UNL A   1      33.424  34.050  32.950  1.00  0.00    -0.249 NA
ATOM     77  C   UNL A   1      36.190  34.422  32.796  1.00  0.00     0.013 A 
ATOM     78  C   UNL A   1      34.292  33.024  33.104  1.00  0.00     0.121 A 
ATOM     79  C   UNL A   1      35.681  33.142  33.051  1.00  0.00     0.006 A 
BRANCH  79  80
ATOM     80  C   UNL A   1      36.553  31.987  33.284  1.00  0.00     0.055 A 
ATOM     81  C   UNL A   1      37.380  31.916  34.413  1.00  0.00     0.134 A 
ATOM     82  C   UNL A   1      36.572  30.885  32.418  1.00  0.00     0.134 A 
ATOM     83  F   UNL A   1      37.393  32.925  35.300  1.00  0.00    -0.206 F 
ATOM     84  C   UNL A   1      38.178  30.802  34.676  1.00  0.00     0.040 A 
ATOM     85  C   UNL A   1      37.370  29.767  32.661  1.00  0.00     0.040 A 
ATOM     86  F   UNL A   1      35.794  30.878  31.324  1.00  0.00    -0.206 F 
ATOM     87  C   UNL A   1      38.174  29.722  33.798  1.00  0.00     0.006 A 
ENDBRANCH  79  80
ENDBRANCH  72  74
ENDBRANCH  71  72
ENDBRANCH  70  71
ENDBRANCH   1  70
TORSDOF 15
ENDMDL
MODEL 3
REMARK VINA RESULT:     -10.8      4.636     12.283
REMARK SMILES O=C(OCCOC(=O)c1ccc(-c2c(F)cccc2F)cn1)c1ccc(-c2c3nc(c(-c4cc(S(=O)(=O)[O-])ccc4F)c4ccc([nH]4)c(-c4cc(S(=O)(=O)[O-])ccc4F)c4nc(c(-c5cc(S(=O)(=O)[O-])ccc5F)c5ccc2[nH]5)C=C4)C=C3)cc1
REMARK SMILES IDX 4 1 3 2 2 3 1 4 23 5 24 6 85 7 25 8 84 9 26 10 27 11 28 12
REMARK SMILES IDX 78 13 29 14 83 15 77 16 79 17 30 18 82 19 76 20 75 21 31 23
REMARK SMILES IDX 63 24 43 25 62 26 44 27 47 28 61 29 80 30 45 31 46 32 60 34
REMARK SMILES IDX 81 35 48 36 32 37 33 38 41 39 34 40 40 41 42 42 39 43 35 44
REMARK SMILES IDX 36 45 37 46 38 47 64 48 65 49 73 50 66 51 72 52 74 53 71 54
REMARK SMILES IDX 67 55 68 56 69 57 70 58 49 59 50 60 58 61 51 62 57 63 59 64
REMARK SMILES IDX 56 65 52 66 53 67 54 68 55 69 5 70 6 71 7 72 8 73 9 74 10 75
REMARK SMILES IDX 22 76 11 77 21 78 12 79 13 80 14 81 19 82 15 83 16 84 18 85
REMARK SMILES IDX 20 86 17 87
REMARK H PARENT 79 22 47 33
REMARK Flexibility Score: inf
ROOT
ATOM      1  C   UNL A   1      33.175  35.025  28.807  1.00  0.00     0.275 C 
ENDROOT
BRANCH   1   2
ATOM      2  O   UNL A   1      34.441  34.403  28.524  1.00  0.00    -0.458 OA
BRANCH   2   3
ATOM      3  C   UNL A   1      34.690  33.136  28.107  1.00  0.00     0.338 C 
ATOM      4  O   UNL A   1      33.790  32.498  27.564  1.00  0.00    -0.246 OA
BRANCH   3   5
ATOM      5  C   UNL A   1      35.967  32.422  28.414  1.00  0.00     0.060 A 
ATOM      6  C   UNL A   1      36.223  31.077  28.144  1.00  0.00     0.016 A 
ATOM      7  C   UNL A   1      36.954  33.161  29.093  1.00  0.00     0.016 A 
ATOM      8  C   UNL A   1      37.447  30.497  28.486  1.00  0.00     0.010 A 
ATOM      9  C   UNL A   1      38.178  32.583  29.449  1.00  0.00     0.010 A 
ATOM     10  C   UNL A   1      38.425  31.239  29.154  1.00  0.00    -0.014 A 
BRANCH  10  11
ATOM     11  C   UNL A   1      39.614  30.531  29.678  1.00  0.00     0.031 A 
ATOM     12  C   UNL A   1      40.233  31.025  30.952  1.00  0.00     0.074 A 
ATOM     13  C   UNL A   1      40.060  29.409  29.084  1.00  0.00     0.049 A 
ATOM     14  N   UNL A   1      41.160  30.473  31.690  1.00  0.00    -0.248 NA
ATOM     15  C   UNL A   1      39.715  32.297  31.480  1.00  0.00     0.031 C 
ATOM     16  C   UNL A   1      39.485  28.814  27.880  1.00  0.00     0.029 A 
ATOM     17  N   UNL A   1      41.082  28.560  29.419  1.00  0.00    -0.354 N 
ATOM     18  C   UNL A   1      41.304  31.306  32.793  1.00  0.00     0.074 A 
ATOM     19  C   UNL A   1      40.420  32.434  32.591  1.00  0.00     0.031 C 
ATOM     20  C   UNL A   1      40.174  27.706  27.563  1.00  0.00     0.029 A 
ATOM     21  C   UNL A   1      41.234  27.508  28.546  1.00  0.00     0.049 A 
ATOM     22  H   UNL A   1      41.653  28.691  30.210  1.00  0.00     0.167 HD
ATOM     23  C   UNL A   1      42.084  31.131  33.887  1.00  0.00     0.034 A 
ATOM     24  C   UNL A   1      42.122  26.494  28.554  1.00  0.00     0.034 A 
ATOM     25  C   UNL A   1      43.003  30.030  34.037  1.00  0.00     0.049 A 
ATOM     26  C   UNL A   1      43.075  26.387  29.719  1.00  0.00     0.074 A 
ATOM     27  C   UNL A   1      43.875  29.763  35.076  1.00  0.00     0.029 A 
ATOM     28  N   UNL A   1      43.186  29.022  33.096  1.00  0.00    -0.354 N 
ATOM     29  N   UNL A   1      43.172  27.159  30.779  1.00  0.00    -0.248 NA
ATOM     30  C   UNL A   1      44.012  25.258  29.707  1.00  0.00     0.031 C 
ATOM     31  C   UNL A   1      44.630  28.633  34.733  1.00  0.00     0.029 A 
ATOM     32  C   UNL A   1      44.181  28.152  33.513  1.00  0.00     0.049 A 
ATOM     33  H   UNL A   1      42.682  28.939  32.254  1.00  0.00     0.167 HD
ATOM     34  C   UNL A   1      44.150  26.580  31.582  1.00  0.00     0.074 A 
ATOM     35  C   UNL A   1      44.606  25.394  30.883  1.00  0.00     0.031 C 
ATOM     36  C   UNL A   1      44.621  26.980  32.792  1.00  0.00     0.034 A 
BRANCH  23  37
ATOM     37  C   UNL A   1      42.000  32.195  34.953  1.00  0.00     0.023 A 
ATOM     38  C   UNL A   1      41.129  32.066  36.051  1.00  0.00     0.031 A 
ATOM     39  C   UNL A   1      42.726  33.391  34.825  1.00  0.00     0.131 A 
ATOM     40  C   UNL A   1      40.939  33.146  36.926  1.00  0.00     0.055 A 
ATOM     41  C   UNL A   1      42.590  34.434  35.743  1.00  0.00     0.041 A 
ATOM     42  F   UNL A   1      43.552  33.581  33.784  1.00  0.00    -0.206 F 
ATOM     43  C   UNL A   1      41.680  34.322  36.791  1.00  0.00     0.022 A 
BRANCH  40  44
ATOM     44  S   UNL A   1      39.596  33.053  38.143  1.00  0.00     0.124 S 
ATOM     45  O   UNL A   1      38.802  31.942  37.624  1.00  0.00    -0.237 OA
ATOM     46  O   UNL A   1      40.314  32.798  39.386  1.00  0.00    -0.237 OA
ATOM     47  O   UNL A   1      38.956  34.364  38.050  1.00  0.00    -0.744 OA
ENDBRANCH  40  44
ENDBRANCH  23  37
BRANCH  24  48
ATOM     48  C   UNL A   1      42.156  25.505  27.438  1.00  0.00     0.023 A 
ATOM     49  C   UNL A   1      41.438  24.300  27.501  1.00  0.00     0.031 A 
ATOM     50  C   UNL A   1      42.953  25.736  26.301  1.00  0.00     0.131 A 
ATOM     51  C   UNL A   1      41.565  23.353  26.471  1.00  0.00     0.055 A 
ATOM     52  C   UNL A   1      43.043  24.811  25.259  1.00  0.00     0.041 A 
ATOM     53  F   UNL A   1      43.655  26.875  26.185  1.00  0.00    -0.206 F 
ATOM     54  C   UNL A   1      42.357  23.605  25.347  1.00  0.00     0.022 A 
BRANCH  51  55
ATOM     55  S   UNL A   1      40.737  21.749  26.653  1.00  0.00     0.124 S 
ATOM     56  O   UNL A   1      39.417  22.030  26.101  1.00  0.00    -0.237 OA
ATOM     57  O   UNL A   1      41.595  20.876  25.859  1.00  0.00    -0.237 OA
ATOM     58  O   UNL A   1      40.773  21.510  28.095  1.00  0.00    -0.744 OA
ENDBRANCH  51  55
ENDBRANCH  24  48
BRANCH  36  59
ATOM     59  C   UNL A   1      45.648  26.092  33.446  1.00  0.00     0.023 A 
ATOM     60  C   UNL A   1      47.019  26.209  33.156  1.00  0.00     0.031 A 
ATOM     61  C   UNL A   1      45.246  25.098  34.356  1.00  0.00     0.131 A 
ATOM     62  C   UNL A   1      47.930  25.306  33.721  1.00  0.00     0.055 A 
ATOM     63  C   UNL A   1      46.164  24.242  34.962  1.00  0.00     0.041 A 
ATOM     64  F   UNL A   1      43.948  24.943  34.666  1.00  0.00    -0.206 F 
ATOM     65  C   UNL A   1      47.514  24.333  34.635  1.00  0.00     0.022 A 
BRANCH  62  66
ATOM     66  S   UNL A   1      49.656  25.352  33.165  1.00  0.00     0.124 S 
ATOM     67  O   UNL A   1      50.085  23.975  33.397  1.00  0.00    -0.237 OA
ATOM     68  O   UNL A   1      49.522  25.749  31.768  1.00  0.00    -0.237 OA
ATOM     69  O   UNL A   1      50.272  26.349  34.038  1.00  0.00    -0.744 OA
ENDBRANCH  62  66
ENDBRANCH  36  59
ENDBRANCH  10  11
ENDBRANCH   3   5
ENDBRANCH   2   3
ENDBRANCH   1   2
BRANCH   1  70
ATOM     70  C   UNL A   1      33.263  36.298  29.650  1.00  0.00     0.275 C 
BRANCH  70  71
ATOM     71  O   UNL A   1      32.417  36.266  30.807  1.00  0.00    -0.457 OA
BRANCH  71  72
ATOM     72  C   UNL A   1      33.060  36.498  31.986  1.00  0.00     0.357 C 
ATOM     73  O   UNL A   1      32.875  37.447  32.731  1.00  0.00    -0.244 OA
BRANCH  72  74
ATOM     74  C   UNL A   1      33.983  35.368  32.276  1.00  0.00     0.148 A 
ATOM     75  C   UNL A   1      35.355  35.563  32.333  1.00  0.00     0.037 A 
ATOM     76  N   UNL A   1      33.388  34.166  32.487  1.00  0.00    -0.249 NA
ATOM     77  C   UNL A   1      36.164  34.461  32.626  1.00  0.00     0.013 A 
ATOM     78  C   UNL A   1      34.207  33.118  32.733  1.00  0.00     0.121 A 
ATOM     79  C   UNL A   1      35.596  33.197  32.826  1.00  0.00     0.006 A 
BRANCH  79  80
ATOM     80  C   UNL A   1      36.406  32.019  33.151  1.00  0.00     0.055 A 
ATOM     81  C   UNL A   1      36.416  30.891  32.320  1.00  0.00     0.134 A 
ATOM     82  C   UNL A   1      37.237  31.979  34.279  1.00  0.00     0.134 A 
ATOM     83  F   UNL A   1      35.664  30.870  31.208  1.00  0.00    -0.206 F 
ATOM     84  C   UNL A   1      37.220  29.782  32.588  1.00  0.00     0.040 A 
ATOM     85  C   UNL A   1      38.041  30.875  34.567  1.00  0.00     0.040 A 
ATOM     86  F   UNL A   1      37.290  33.031  35.112  1.00  0.00    -0.206 F 
ATOM     87  C   UNL A   1      38.037  29.773  33.715  1.00  0.00     0.006 A 
ENDBRANCH  79  80
ENDBRANCH  72  74
ENDBRANCH  71  72
ENDBRANCH  70  71
ENDBRANCH   1  70
TORSDOF 15
ENDMDL
