MODEL 1
REMARK VINA RESULT:     -10.5      0.000      0.000
REMARK SMILES CC[NH2+][C@@]1(C(=O)OCCOC(=O)c2ccc(-c3c4nc(c(-c5cc(S(=O)(=O)[O-])ccc5F)c5ccc([nH]5)c(-c5cc(S(=O)(=O)[O-])ccc5F)c5nc(c(-c6cc(S(=O)(=O)[O-])ccc6F)c6ccc3[nH]6)C=C5)C=C4)cc2)CC[C@@H]([N@@H+](C)Cc2nccn2C)C1
REMARK SMILES IDX 8 1 7 2 5 3 6 4 4 5 76 6 88 7 77 8 78 9 3 10 2 13 1 14 79 15
REMARK SMILES IDX 80 16 81 18 82 19 83 20 86 21 84 22 85 23 87 24 9 25 10 26
REMARK SMILES IDX 11 27 12 28 13 29 14 30 75 31 15 32 74 33 16 34 17 35 18 36
REMARK SMILES IDX 68 37 19 38 73 39 67 40 69 41 20 42 72 43 66 44 65 45 21 47
REMARK SMILES IDX 53 48 33 49 52 50 34 51 37 52 51 53 70 54 35 55 36 56 50 58
REMARK SMILES IDX 71 59 38 60 22 61 23 62 31 63 24 64 30 65 32 66 29 67 25 68
REMARK SMILES IDX 26 69 27 70 28 71 54 72 55 73 63 74 56 75 62 76 64 77 61 78
REMARK SMILES IDX 57 79 58 80 59 81 60 82 39 83 40 84 48 85 41 86 47 87 49 88
REMARK SMILES IDX 46 89 42 90 43 91 44 92 45 93
REMARK H PARENT 3 11 3 12 79 17 69 46 37 57
REMARK Flexibility Score: inf
ROOT
ATOM      1  C   UNL A   1      31.773  30.792  26.548  1.00  0.00     0.274 C 
ENDROOT
BRANCH   1   2
ATOM      2  O   UNL A   1      31.389  30.287  25.252  1.00  0.00    -0.457 OA
BRANCH   2   3
ATOM      3  C   UNL A   1      32.246  29.394  24.674  1.00  0.00     0.368 C 
ATOM      4  O   UNL A   1      33.406  29.244  25.038  1.00  0.00    -0.245 OA
BRANCH   3   5
ATOM      5  C   UNL A   1      31.591  28.640  23.470  1.00  0.00     0.200 C 
ATOM      6  C   UNL A   1      30.502  27.689  23.970  1.00  0.00     0.087 C 
ATOM      7  C   UNL A   1      32.609  27.735  22.743  1.00  0.00     0.146 C 
ATOM      8  C   UNL A   1      31.196  26.364  24.230  1.00  0.00     0.072 C 
ATOM      9  C   UNL A   1      32.401  26.301  23.275  1.00  0.00     0.191 C 
BRANCH   5  10
ATOM     10  N   UNL A   1      31.061  29.596  22.457  1.00  0.00    -0.332 N 
ATOM     11  H   UNL A   1      31.215  30.539  22.814  1.00  0.00     0.347 HD
ATOM     12  H   UNL A   1      31.561  29.377  21.596  1.00  0.00     0.347 HD
BRANCH  10  13
ATOM     13  C   UNL A   1      29.646  29.477  22.117  1.00  0.00     0.257 C 
ATOM     14  C   UNL A   1      28.945  30.801  22.405  1.00  0.00     0.071 C 
ENDBRANCH  10  13
ENDBRANCH   5  10
BRANCH   9  15
ATOM     15  N   UNL A   1      32.437  25.228  22.267  1.00  0.00    -0.328 N 
ATOM     16  C   UNL A   1      32.395  25.723  20.894  1.00  0.00     0.333 C 
ATOM     17  H   UNL A   1      31.555  24.761  22.483  1.00  0.00     0.348 HD
BRANCH  15  18
ATOM     18  C   UNL A   1      33.406  24.126  22.427  1.00  0.00     0.338 C 
BRANCH  18  19
ATOM     19  C   UNL A   1      33.022  23.006  23.354  1.00  0.00     0.164 A 
ATOM     20  N   UNL A   1      32.237  21.985  23.038  1.00  0.00    -0.236 NA
ATOM     21  N   UNL A   1      33.386  22.924  24.683  1.00  0.00    -0.333 N 
ATOM     22  C   UNL A   1      32.140  21.213  24.162  1.00  0.00     0.131 A 
ATOM     23  C   UNL A   1      32.844  21.773  25.196  1.00  0.00     0.107 A 
ATOM     24  C   UNL A   1      34.179  23.841  25.468  1.00  0.00     0.151 C 
ENDBRANCH  18  19
ENDBRANCH  15  18
ENDBRANCH   9  15
ENDBRANCH   3   5
ENDBRANCH   2   3
ENDBRANCH   1   2
BRANCH   1  25
ATOM     25  C   UNL A   1      31.519  32.294  26.698  1.00  0.00     0.275 C 
BRANCH  25  26
ATOM     26  O   UNL A   1      32.741  33.045  26.591  1.00  0.00    -0.458 OA
BRANCH  26  27
ATOM     27  C   UNL A   1      33.149  33.652  27.730  1.00  0.00     0.338 C 
ATOM     28  O   UNL A   1      32.543  34.485  28.380  1.00  0.00    -0.246 OA
BRANCH  27  29
ATOM     29  C   UNL A   1      34.386  33.013  28.205  1.00  0.00     0.060 A 
ATOM     30  C   UNL A   1      34.264  31.719  28.704  1.00  0.00     0.016 A 
ATOM     31  C   UNL A   1      35.610  33.676  28.263  1.00  0.00     0.016 A 
ATOM     32  C   UNL A   1      35.358  31.059  29.250  1.00  0.00     0.010 A 
ATOM     33  C   UNL A   1      36.717  33.017  28.820  1.00  0.00     0.010 A 
ATOM     34  C   UNL A   1      36.596  31.705  29.321  1.00  0.00    -0.014 A 
BRANCH  34  35
ATOM     35  C   UNL A   1      37.722  31.037  30.021  1.00  0.00     0.031 A 
ATOM     36  C   UNL A   1      37.990  31.365  31.462  1.00  0.00     0.074 A 
ATOM     37  C   UNL A   1      38.450  30.087  29.403  1.00  0.00     0.049 A 
ATOM     38  N   UNL A   1      38.978  30.989  32.232  1.00  0.00    -0.248 NA
ATOM     39  C   UNL A   1      37.004  32.231  32.124  1.00  0.00     0.031 C 
ATOM     40  C   UNL A   1      38.219  29.598  28.044  1.00  0.00     0.029 A 
ATOM     41  N   UNL A   1      39.529  29.358  29.841  1.00  0.00    -0.354 N 
ATOM     42  C   UNL A   1      38.749  31.590  33.464  1.00  0.00     0.074 A 
ATOM     43  C   UNL A   1      37.532  32.365  33.331  1.00  0.00     0.031 C 
ATOM     44  C   UNL A   1      39.125  28.647  27.761  1.00  0.00     0.029 A 
ATOM     45  C   UNL A   1      40.041  28.507  28.890  1.00  0.00     0.049 A 
ATOM     46  H   UNL A   1      39.899  29.438  30.750  1.00  0.00     0.167 HD
ATOM     47  C   UNL A   1      39.486  31.505  34.600  1.00  0.00     0.034 A 
ATOM     48  C   UNL A   1      41.149  27.737  28.912  1.00  0.00     0.034 A 
ATOM     49  C   UNL A   1      40.701  30.734  34.713  1.00  0.00     0.049 A 
ATOM     50  C   UNL A   1      42.022  27.751  30.143  1.00  0.00     0.074 A 
ATOM     51  C   UNL A   1      41.554  30.614  35.796  1.00  0.00     0.029 A 
ATOM     52  N   UNL A   1      41.238  29.947  33.700  1.00  0.00    -0.354 N 
ATOM     53  N   UNL A   1      41.846  28.393  31.275  1.00  0.00    -0.248 NA
ATOM     54  C   UNL A   1      43.253  26.949  30.091  1.00  0.00     0.031 C 
ATOM     55  C   UNL A   1      42.633  29.804  35.421  1.00  0.00     0.029 A 
ATOM     56  C   UNL A   1      42.421  29.363  34.125  1.00  0.00     0.049 A 
ATOM     57  H   UNL A   1      40.836  29.823  32.811  1.00  0.00     0.167 HD
ATOM     58  C   UNL A   1      42.936  28.059  32.074  1.00  0.00     0.074 A 
ATOM     59  C   UNL A   1      43.754  27.146  31.302  1.00  0.00     0.031 C 
ATOM     60  C   UNL A   1      43.234  28.468  33.334  1.00  0.00     0.034 A 
BRANCH  47  61
ATOM     61  C   UNL A   1      39.033  32.341  35.771  1.00  0.00     0.023 A 
ATOM     62  C   UNL A   1      39.466  33.667  35.948  1.00  0.00     0.031 A 
ATOM     63  C   UNL A   1      38.211  31.778  36.763  1.00  0.00     0.131 A 
ATOM     64  C   UNL A   1      39.142  34.356  37.127  1.00  0.00     0.055 A 
ATOM     65  C   UNL A   1      37.827  32.495  37.897  1.00  0.00     0.041 A 
ATOM     66  F   UNL A   1      37.788  30.508  36.657  1.00  0.00    -0.206 F 
ATOM     67  C   UNL A   1      38.308  33.786  38.092  1.00  0.00     0.022 A 
BRANCH  64  68
ATOM     68  S   UNL A   1      39.957  35.943  37.457  1.00  0.00     0.124 S 
ATOM     69  O   UNL A   1      41.343  35.528  37.655  1.00  0.00    -0.237 OA
ATOM     70  O   UNL A   1      39.684  36.696  36.238  1.00  0.00    -0.237 OA
ATOM     71  O   UNL A   1      39.282  36.432  38.657  1.00  0.00    -0.744 OA
ENDBRANCH  64  68
ENDBRANCH  47  61
BRANCH  48  72
ATOM     72  C   UNL A   1      41.550  26.951  27.709  1.00  0.00     0.023 A 
ATOM     73  C   UNL A   1      41.342  25.565  27.639  1.00  0.00     0.031 A 
ATOM     74  C   UNL A   1      42.202  27.575  26.630  1.00  0.00     0.131 A 
ATOM     75  C   UNL A   1      41.813  24.843  26.531  1.00  0.00     0.055 A 
ATOM     76  C   UNL A   1      42.623  26.861  25.507  1.00  0.00     0.041 A 
ATOM     77  F   UNL A   1      42.434  28.898  26.648  1.00  0.00    -0.206 F 
ATOM     78  C   UNL A   1      42.439  25.484  25.459  1.00  0.00     0.022 A 
BRANCH  75  79
ATOM     79  S   UNL A   1      41.661  23.035  26.540  1.00  0.00     0.124 S 
ATOM     80  O   UNL A   1      42.361  22.684  27.772  1.00  0.00    -0.237 OA
ATOM     81  O   UNL A   1      40.213  22.852  26.551  1.00  0.00    -0.237 OA
ATOM     82  O   UNL A   1      42.329  22.631  25.305  1.00  0.00    -0.744 OA
ENDBRANCH  75  79
ENDBRANCH  48  72
BRANCH  60  83
ATOM     83  C   UNL A   1      44.483  27.897  33.958  1.00  0.00     0.023 A 
ATOM     84  C   UNL A   1      44.450  26.729  34.740  1.00  0.00     0.031 A 
ATOM     85  C   UNL A   1      45.720  28.540  33.778  1.00  0.00     0.131 A 
ATOM     86  C   UNL A   1      45.625  26.266  35.353  1.00  0.00     0.055 A 
ATOM     87  C   UNL A   1      46.894  28.047  34.348  1.00  0.00     0.041 A 
ATOM     88  F   UNL A   1      45.807  29.660  33.042  1.00  0.00    -0.206 F 
ATOM     89  C   UNL A   1      46.848  26.909  35.149  1.00  0.00     0.022 A 
BRANCH  86  90
ATOM     90  S   UNL A   1      45.522  24.850  36.481  1.00  0.00     0.124 S 
ATOM     91  O   UNL A   1      44.919  25.450  37.668  1.00  0.00    -0.237 OA
ATOM     92  O   UNL A   1      44.678  23.919  35.740  1.00  0.00    -0.237 OA
ATOM     93  O   UNL A   1      46.914  24.433  36.638  1.00  0.00    -0.744 OA
ENDBRANCH  86  90
ENDBRANCH  60  83
ENDBRANCH  34  35
ENDBRANCH  27  29
ENDBRANCH  26  27
ENDBRANCH  25  26
ENDBRANCH   1  25
TORSDOF 19
ENDMDL
MODEL 2
REMARK VINA RESULT:     -10.4      4.617      7.867
REMARK SMILES CC[NH2+][C@@]1(C(=O)OCCOC(=O)c2ccc(-c3c4nc(c(-c5cc(S(=O)(=O)[O-])ccc5F)c5ccc([nH]5)c(-c5cc(S(=O)(=O)[O-])ccc5F)c5nc(c(-c6cc(S(=O)(=O)[O-])ccc6F)c6ccc3[nH]6)C=C5)C=C4)cc2)CC[C@@H]([N@@H+](C)Cc2nccn2C)C1
REMARK SMILES IDX 8 1 7 2 5 3 6 4 4 5 76 6 88 7 77 8 78 9 3 10 2 13 1 14 79 15
REMARK SMILES IDX 80 16 81 18 82 19 83 20 86 21 84 22 85 23 87 24 9 25 10 26
REMARK SMILES IDX 11 27 12 28 13 29 14 30 75 31 15 32 74 33 16 34 17 35 18 36
REMARK SMILES IDX 68 37 19 38 73 39 67 40 69 41 20 42 72 43 66 44 65 45 21 47
REMARK SMILES IDX 53 48 33 49 52 50 34 51 37 52 51 53 70 54 35 55 36 56 50 58
REMARK SMILES IDX 71 59 38 60 22 61 23 62 31 63 24 64 30 65 32 66 29 67 25 68
REMARK SMILES IDX 26 69 27 70 28 71 54 72 55 73 63 74 56 75 62 76 64 77 61 78
REMARK SMILES IDX 57 79 58 80 59 81 60 82 39 83 40 84 48 85 41 86 47 87 49 88
REMARK SMILES IDX 46 89 42 90 43 91 44 92 45 93
REMARK H PARENT 3 11 3 12 79 17 69 46 37 57
REMARK Flexibility Score: inf
ROOT
ATOM      1  C   UNL A   1      36.125  20.206  25.159  1.00  0.00     0.274 C 
ENDROOT
BRANCH   1   2
ATOM      2  O   UNL A   1      34.787  20.645  24.845  1.00  0.00    -0.457 OA
BRANCH   2   3
ATOM      3  C   UNL A   1      34.262  21.608  25.659  1.00  0.00     0.368 C 
ATOM      4  O   UNL A   1      34.369  21.588  26.880  1.00  0.00    -0.245 OA
BRANCH   3   5
ATOM      5  C   UNL A   1      33.471  22.694  24.857  1.00  0.00     0.200 C 
ATOM      6  C   UNL A   1      34.301  23.185  23.670  1.00  0.00     0.087 C 
ATOM      7  C   UNL A   1      33.208  23.953  25.711  1.00  0.00     0.146 C 
ATOM      8  C   UNL A   1      35.104  24.366  24.186  1.00  0.00     0.072 C 
ATOM      9  C   UNL A   1      34.286  24.991  25.331  1.00  0.00     0.191 C 
BRANCH   5  10
ATOM     10  N   UNL A   1      32.141  22.181  24.422  1.00  0.00    -0.332 N 
ATOM     11  H   UNL A   1      32.207  21.165  24.365  1.00  0.00     0.347 HD
ATOM     12  H   UNL A   1      31.481  22.529  25.116  1.00  0.00     0.347 HD
BRANCH  10  13
ATOM     13  C   UNL A   1      31.638  22.664  23.139  1.00  0.00     0.257 C 
ATOM     14  C   UNL A   1      30.677  23.824  23.380  1.00  0.00     0.071 C 
ENDBRANCH  10  13
ENDBRANCH   5  10
BRANCH   9  15
ATOM     15  N   UNL A   1      33.820  26.379  25.177  1.00  0.00    -0.328 N 
ATOM     16  C   UNL A   1      33.793  26.829  23.788  1.00  0.00     0.333 C 
ATOM     17  H   UNL A   1      34.566  26.866  25.674  1.00  0.00     0.348 HD
BRANCH  15  18
ATOM     18  C   UNL A   1      32.626  26.821  25.923  1.00  0.00     0.338 C 
BRANCH  18  19
ATOM     19  C   UNL A   1      32.521  28.287  26.241  1.00  0.00     0.164 A 
ATOM     20  N   UNL A   1      33.108  28.893  27.263  1.00  0.00    -0.236 NA
ATOM     21  N   UNL A   1      31.745  29.190  25.542  1.00  0.00    -0.333 N 
ATOM     22  C   UNL A   1      32.746  30.210  27.189  1.00  0.00     0.131 A 
ATOM     23  C   UNL A   1      31.902  30.420  26.130  1.00  0.00     0.107 A 
ATOM     24  C   UNL A   1      30.890  28.964  24.401  1.00  0.00     0.151 C 
ENDBRANCH  18  19
ENDBRANCH  15  18
ENDBRANCH   9  15
ENDBRANCH   3   5
ENDBRANCH   2   3
ENDBRANCH   1   2
BRANCH   1  25
ATOM     25  C   UNL A   1      37.203  21.056  24.481  1.00  0.00     0.275 C 
BRANCH  25  26
ATOM     26  O   UNL A   1      37.758  22.020  25.392  1.00  0.00    -0.458 OA
BRANCH  26  27
ATOM     27  C   UNL A   1      38.895  21.637  26.020  1.00  0.00     0.338 C 
ATOM     28  O   UNL A   1      39.435  20.546  25.968  1.00  0.00    -0.246 OA
BRANCH  27  29
ATOM     29  C   UNL A   1      39.524  22.811  26.645  1.00  0.00     0.060 A 
ATOM     30  C   UNL A   1      39.121  24.057  26.171  1.00  0.00     0.016 A 
ATOM     31  C   UNL A   1      40.544  22.713  27.589  1.00  0.00     0.016 A 
ATOM     32  C   UNL A   1      39.713  25.223  26.641  1.00  0.00     0.010 A 
ATOM     33  C   UNL A   1      41.150  23.888  28.061  1.00  0.00     0.010 A 
ATOM     34  C   UNL A   1      40.740  25.150  27.586  1.00  0.00    -0.014 A 
BRANCH  34  35
ATOM     35  C   UNL A   1      41.448  26.394  27.983  1.00  0.00     0.031 A 
ATOM     36  C   UNL A   1      40.725  27.421  28.807  1.00  0.00     0.074 A 
ATOM     37  C   UNL A   1      42.748  26.573  27.679  1.00  0.00     0.049 A 
ATOM     38  N   UNL A   1      41.107  28.618  29.169  1.00  0.00    -0.248 NA
ATOM     39  C   UNL A   1      39.391  27.038  29.293  1.00  0.00     0.031 C 
ATOM     40  C   UNL A   1      43.593  25.603  26.982  1.00  0.00     0.029 A 
ATOM     41  N   UNL A   1      43.588  27.631  27.926  1.00  0.00    -0.354 N 
ATOM     42  C   UNL A   1      40.053  29.145  29.906  1.00  0.00     0.074 A 
ATOM     43  C   UNL A   1      39.012  28.137  29.927  1.00  0.00     0.031 C 
ATOM     44  C   UNL A   1      44.831  26.109  26.860  1.00  0.00     0.029 A 
ATOM     45  C   UNL A   1      44.852  27.463  27.409  1.00  0.00     0.049 A 
ATOM     46  H   UNL A   1      43.312  28.433  28.425  1.00  0.00     0.167 HD
ATOM     47  C   UNL A   1      39.962  30.358  30.507  1.00  0.00     0.034 A 
ATOM     48  C   UNL A   1      45.892  28.320  27.348  1.00  0.00     0.034 A 
ATOM     49  C   UNL A   1      41.007  31.353  30.470  1.00  0.00     0.049 A 
ATOM     50  C   UNL A   1      45.728  29.708  27.915  1.00  0.00     0.074 A 
ATOM     51  C   UNL A   1      41.005  32.631  31.001  1.00  0.00     0.029 A 
ATOM     52  N   UNL A   1      42.246  31.180  29.865  1.00  0.00    -0.354 N 
ATOM     53  N   UNL A   1      44.694  30.231  28.533  1.00  0.00    -0.248 NA
ATOM     54  C   UNL A   1      46.865  30.626  27.761  1.00  0.00     0.031 C 
ATOM     55  C   UNL A   1      42.216  33.250  30.666  1.00  0.00     0.029 A 
ATOM     56  C   UNL A   1      43.003  32.335  29.986  1.00  0.00     0.049 A 
ATOM     57  H   UNL A   1      42.542  30.356  29.415  1.00  0.00     0.167 HD
ATOM     58  C   UNL A   1      45.064  31.535  28.855  1.00  0.00     0.074 A 
ATOM     59  C   UNL A   1      46.421  31.711  28.378  1.00  0.00     0.031 C 
ATOM     60  C   UNL A   1      44.349  32.500  29.488  1.00  0.00     0.034 A 
BRANCH  47  61
ATOM     61  C   UNL A   1      38.650  30.691  31.174  1.00  0.00     0.023 A 
ATOM     62  C   UNL A   1      37.585  31.276  30.466  1.00  0.00     0.031 A 
ATOM     63  C   UNL A   1      38.490  30.484  32.555  1.00  0.00     0.131 A 
ATOM     64  C   UNL A   1      36.442  31.708  31.157  1.00  0.00     0.055 A 
ATOM     65  C   UNL A   1      37.318  30.844  33.223  1.00  0.00     0.041 A 
ATOM     66  F   UNL A   1      39.482  29.951  33.285  1.00  0.00    -0.206 F 
ATOM     67  C   UNL A   1      36.293  31.476  32.527  1.00  0.00     0.022 A 
BRANCH  64  68
ATOM     68  S   UNL A   1      35.225  32.721  30.271  1.00  0.00     0.124 S 
ATOM     69  O   UNL A   1      34.867  31.847  29.158  1.00  0.00    -0.237 OA
ATOM     70  O   UNL A   1      34.192  32.925  31.281  1.00  0.00    -0.237 OA
ATOM     71  O   UNL A   1      35.979  33.916  29.899  1.00  0.00    -0.744 OA
ENDBRANCH  64  68
ENDBRANCH  47  61
BRANCH  48  72
ATOM     72  C   UNL A   1      47.154  27.931  26.652  1.00  0.00     0.023 A 
ATOM     73  C   UNL A   1      47.263  27.987  25.254  1.00  0.00     0.031 A 
ATOM     74  C   UNL A   1      48.254  27.443  27.381  1.00  0.00     0.131 A 
ATOM     75  C   UNL A   1      48.433  27.528  24.626  1.00  0.00     0.055 A 
ATOM     76  C   UNL A   1      49.433  27.035  26.755  1.00  0.00     0.041 A 
ATOM     77  F   UNL A   1      48.199  27.360  28.720  1.00  0.00    -0.206 F 
ATOM     78  C   UNL A   1      49.523  27.067  25.368  1.00  0.00     0.022 A 
BRANCH  75  79
ATOM     79  S   UNL A   1      48.485  27.474  22.813  1.00  0.00     0.124 S 
ATOM     80  O   UNL A   1      47.268  28.198  22.459  1.00  0.00    -0.237 OA
ATOM     81  O   UNL A   1      49.744  28.155  22.525  1.00  0.00    -0.237 OA
ATOM     82  O   UNL A   1      48.471  26.044  22.515  1.00  0.00    -0.744 OA
ENDBRANCH  75  79
ENDBRANCH  48  72
BRANCH  60  83
ATOM     83  C   UNL A   1      45.044  33.817  29.728  1.00  0.00     0.023 A 
ATOM     84  C   UNL A   1      45.794  34.055  30.893  1.00  0.00     0.031 A 
ATOM     85  C   UNL A   1      44.942  34.851  28.781  1.00  0.00     0.131 A 
ATOM     86  C   UNL A   1      46.373  35.316  31.104  1.00  0.00     0.055 A 
ATOM     87  C   UNL A   1      45.562  36.086  28.973  1.00  0.00     0.041 A 
ATOM     88  F   UNL A   1      44.236  34.676  27.652  1.00  0.00    -0.206 F 
ATOM     89  C   UNL A   1      46.273  36.327  30.145  1.00  0.00     0.022 A 
BRANCH  86  90
ATOM     90  S   UNL A   1      47.199  35.644  32.685  1.00  0.00     0.124 S 
ATOM     91  O   UNL A   1      46.080  35.624  33.622  1.00  0.00    -0.237 OA
ATOM     92  O   UNL A   1      48.136  34.529  32.786  1.00  0.00    -0.237 OA
ATOM     93  O   UNL A   1      47.816  36.954  32.485  1.00  0.00    -0.744 OA
ENDBRANCH  86  90
ENDBRANCH  60  83
ENDBRANCH  34  35
ENDBRANCH  27  29
ENDBRANCH  26  27
ENDBRANCH  25  26
ENDBRANCH   1  25
TORSDOF 19
ENDMDL
MODEL 3
REMARK VINA RESULT:     -10.4      4.930     10.495
REMARK SMILES CC[NH2+][C@@]1(C(=O)OCCOC(=O)c2ccc(-c3c4nc(c(-c5cc(S(=O)(=O)[O-])ccc5F)c5ccc([nH]5)c(-c5cc(S(=O)(=O)[O-])ccc5F)c5nc(c(-c6cc(S(=O)(=O)[O-])ccc6F)c6ccc3[nH]6)C=C5)C=C4)cc2)CC[C@@H]([N@@H+](C)Cc2nccn2C)C1
REMARK SMILES IDX 8 1 7 2 5 3 6 4 4 5 76 6 88 7 77 8 78 9 3 10 2 13 1 14 79 15
REMARK SMILES IDX 80 16 81 18 82 19 83 20 86 21 84 22 85 23 87 24 9 25 10 26
REMARK SMILES IDX 11 27 12 28 13 29 14 30 75 31 15 32 74 33 16 34 17 35 18 36
REMARK SMILES IDX 68 37 19 38 73 39 67 40 69 41 20 42 72 43 66 44 65 45 21 47
REMARK SMILES IDX 53 48 33 49 52 50 34 51 37 52 51 53 70 54 35 55 36 56 50 58
REMARK SMILES IDX 71 59 38 60 22 61 23 62 31 63 24 64 30 65 32 66 29 67 25 68
REMARK SMILES IDX 26 69 27 70 28 71 54 72 55 73 63 74 56 75 62 76 64 77 61 78
REMARK SMILES IDX 57 79 58 80 59 81 60 82 39 83 40 84 48 85 41 86 47 87 49 88
REMARK SMILES IDX 46 89 42 90 43 91 44 92 45 93
REMARK H PARENT 3 11 3 12 79 17 69 46 37 57
REMARK Flexibility Score: inf
ROOT
ATOM      1  C   UNL A   1      36.138  20.371  24.692  1.00  0.00     0.274 C 
ENDROOT
BRANCH   1   2
ATOM      2  O   UNL A   1      35.509  21.449  25.416  1.00  0.00    -0.457 OA
BRANCH   2   3
ATOM      3  C   UNL A   1      35.110  22.523  24.673  1.00  0.00     0.368 C 
ATOM      4  O   UNL A   1      35.886  23.370  24.246  1.00  0.00    -0.245 OA
BRANCH   3   5
ATOM      5  C   UNL A   1      33.558  22.569  24.484  1.00  0.00     0.200 C 
ATOM      6  C   UNL A   1      33.162  21.874  23.180  1.00  0.00     0.087 C 
ATOM      7  C   UNL A   1      33.045  24.018  24.339  1.00  0.00     0.146 C 
ATOM      8  C   UNL A   1      33.173  22.957  22.114  1.00  0.00     0.072 C 
ATOM      9  C   UNL A   1      32.863  24.284  22.829  1.00  0.00     0.191 C 
BRANCH   5  10
ATOM     10  N   UNL A   1      32.854  21.977  25.657  1.00  0.00    -0.332 N 
ATOM     11  H   UNL A   1      31.987  21.560  25.317  1.00  0.00     0.347 HD
ATOM     12  H   UNL A   1      33.517  21.315  26.060  1.00  0.00     0.347 HD
BRANCH  10  13
ATOM     13  C   UNL A   1      32.510  22.886  26.746  1.00  0.00     0.257 C 
ATOM     14  C   UNL A   1      33.291  22.493  27.996  1.00  0.00     0.071 C 
ENDBRANCH  10  13
ENDBRANCH   5  10
BRANCH   9  15
ATOM     15  N   UNL A   1      31.644  25.014  22.444  1.00  0.00    -0.328 N 
ATOM     16  C   UNL A   1      30.544  24.840  23.389  1.00  0.00     0.333 C 
ATOM     17  H   UNL A   1      31.421  24.529  21.575  1.00  0.00     0.348 HD
BRANCH  15  18
ATOM     18  C   UNL A   1      31.760  26.412  21.985  1.00  0.00     0.338 C 
BRANCH  18  19
ATOM     19  C   UNL A   1      31.880  27.473  23.044  1.00  0.00     0.164 A 
ATOM     20  N   UNL A   1      32.961  27.707  23.774  1.00  0.00    -0.236 NA
ATOM     21  N   UNL A   1      30.855  28.307  23.443  1.00  0.00    -0.333 N 
ATOM     22  C   UNL A   1      32.642  28.738  24.615  1.00  0.00     0.131 A 
ATOM     23  C   UNL A   1      31.341  29.128  24.428  1.00  0.00     0.107 A 
ATOM     24  C   UNL A   1      29.491  28.362  22.972  1.00  0.00     0.151 C 
ENDBRANCH  18  19
ENDBRANCH  15  18
ENDBRANCH   9  15
ENDBRANCH   3   5
ENDBRANCH   2   3
ENDBRANCH   1   2
BRANCH   1  25
ATOM     25  C   UNL A   1      37.461  19.927  25.321  1.00  0.00     0.275 C 
BRANCH  25  26
ATOM     26  O   UNL A   1      38.420  20.999  25.334  1.00  0.00    -0.458 OA
BRANCH  26  27
ATOM     27  C   UNL A   1      39.500  20.801  26.125  1.00  0.00     0.338 C 
ATOM     28  O   UNL A   1      40.108  19.760  26.298  1.00  0.00    -0.246 OA
BRANCH  27  29
ATOM     29  C   UNL A   1      39.981  22.099  26.623  1.00  0.00     0.060 A 
ATOM     30  C   UNL A   1      39.340  23.231  26.126  1.00  0.00     0.016 A 
ATOM     31  C   UNL A   1      41.082  22.228  27.467  1.00  0.00     0.016 A 
ATOM     32  C   UNL A   1      39.773  24.506  26.473  1.00  0.00     0.010 A 
ATOM     33  C   UNL A   1      41.527  23.513  27.814  1.00  0.00     0.010 A 
ATOM     34  C   UNL A   1      40.877  24.660  27.315  1.00  0.00    -0.014 A 
BRANCH  34  35
ATOM     35  C   UNL A   1      41.405  26.024  27.574  1.00  0.00     0.031 A 
ATOM     36  C   UNL A   1      42.746  26.411  27.018  1.00  0.00     0.074 A 
ATOM     37  C   UNL A   1      40.663  26.935  28.232  1.00  0.00     0.049 A 
ATOM     38  N   UNL A   1      43.444  27.500  27.211  1.00  0.00    -0.248 NA
ATOM     39  C   UNL A   1      43.378  25.438  26.116  1.00  0.00     0.031 C 
ATOM     40  C   UNL A   1      39.302  26.719  28.724  1.00  0.00     0.029 A 
ATOM     41  N   UNL A   1      40.947  28.229  28.593  1.00  0.00    -0.354 N 
ATOM     42  C   UNL A   1      44.612  27.336  26.475  1.00  0.00     0.074 A 
ATOM     43  C   UNL A   1      44.528  26.035  25.841  1.00  0.00     0.031 C 
ATOM     44  C   UNL A   1      38.869  27.843  29.318  1.00  0.00     0.029 A 
ATOM     45  C   UNL A   1      39.942  28.835  29.310  1.00  0.00     0.049 A 
ATOM     46  H   UNL A   1      41.791  28.681  28.360  1.00  0.00     0.167 HD
ATOM     47  C   UNL A   1      45.657  28.191  26.342  1.00  0.00     0.034 A 
ATOM     48  C   UNL A   1      39.908  30.034  29.927  1.00  0.00     0.034 A 
ATOM     49  C   UNL A   1      45.727  29.480  26.986  1.00  0.00     0.049 A 
ATOM     50  C   UNL A   1      41.129  30.919  29.868  1.00  0.00     0.074 A 
ATOM     51  C   UNL A   1      46.756  30.406  26.961  1.00  0.00     0.029 A 
ATOM     52  N   UNL A   1      44.723  30.028  27.776  1.00  0.00    -0.354 N 
ATOM     53  N   UNL A   1      42.265  30.719  29.242  1.00  0.00    -0.248 NA
ATOM     54  C   UNL A   1      41.067  32.184  30.614  1.00  0.00     0.031 C 
ATOM     55  C   UNL A   1      46.398  31.484  27.781  1.00  0.00     0.029 A 
ATOM     56  C   UNL A   1      45.119  31.264  28.263  1.00  0.00     0.049 A 
ATOM     57  H   UNL A   1      43.857  29.600  27.961  1.00  0.00     0.167 HD
ATOM     58  C   UNL A   1      43.048  31.840  29.507  1.00  0.00     0.074 A 
ATOM     59  C   UNL A   1      42.246  32.720  30.334  1.00  0.00     0.031 C 
ATOM     60  C   UNL A   1      44.313  32.120  29.103  1.00  0.00     0.034 A 
BRANCH  47  61
ATOM     61  C   UNL A   1      46.836  27.704  25.536  1.00  0.00     0.023 A 
ATOM     62  C   UNL A   1      47.039  28.102  24.203  1.00  0.00     0.031 A 
ATOM     63  C   UNL A   1      47.731  26.771  26.089  1.00  0.00     0.131 A 
ATOM     64  C   UNL A   1      48.061  27.508  23.445  1.00  0.00     0.055 A 
ATOM     65  C   UNL A   1      48.793  26.243  25.354  1.00  0.00     0.041 A 
ATOM     66  F   UNL A   1      47.571  26.338  27.349  1.00  0.00    -0.206 F 
ATOM     67  C   UNL A   1      48.952  26.598  24.018  1.00  0.00     0.022 A 
BRANCH  64  68
ATOM     68  S   UNL A   1      48.108  27.820  21.658  1.00  0.00     0.124 S 
ATOM     69  O   UNL A   1      49.206  28.776  21.553  1.00  0.00    -0.237 OA
ATOM     70  O   UNL A   1      48.362  26.491  21.113  1.00  0.00    -0.237 OA
ATOM     71  O   UNL A   1      46.784  28.370  21.371  1.00  0.00    -0.744 OA
ENDBRANCH  64  68
ENDBRANCH  47  61
BRANCH  48  72
ATOM     72  C   UNL A   1      38.716  30.442  30.726  1.00  0.00     0.023 A 
ATOM     73  C   UNL A   1      37.660  31.163  30.147  1.00  0.00     0.031 A 
ATOM     74  C   UNL A   1      38.645  30.161  32.103  1.00  0.00     0.131 A 
ATOM     75  C   UNL A   1      36.597  31.609  30.948  1.00  0.00     0.055 A 
ATOM     76  C   UNL A   1      37.561  30.563  32.885  1.00  0.00     0.041 A 
ATOM     77  F   UNL A   1      39.631  29.481  32.710  1.00  0.00    -0.206 F 
ATOM     78  C   UNL A   1      36.533  31.301  32.309  1.00  0.00     0.022 A 
BRANCH  75  79
ATOM     79  S   UNL A   1      35.324  32.665  30.199  1.00  0.00     0.124 S 
ATOM     80  O   UNL A   1      36.110  33.817  29.770  1.00  0.00    -0.237 OA
ATOM     81  O   UNL A   1      34.806  31.809  29.137  1.00  0.00    -0.237 OA
ATOM     82  O   UNL A   1      34.399  32.916  31.302  1.00  0.00    -0.744 OA
ENDBRANCH  75  79
ENDBRANCH  48  72
BRANCH  60  83
ATOM     83  C   UNL A   1      44.885  33.450  29.526  1.00  0.00     0.023 A 
ATOM     84  C   UNL A   1      44.744  34.601  28.732  1.00  0.00     0.031 A 
ATOM     85  C   UNL A   1      45.592  33.561  30.735  1.00  0.00     0.131 A 
ATOM     86  C   UNL A   1      45.345  35.804  29.134  1.00  0.00     0.055 A 
ATOM     87  C   UNL A   1      46.145  34.771  31.155  1.00  0.00     0.041 A 
ATOM     88  F   UNL A   1      45.757  32.491  31.531  1.00  0.00    -0.206 F 
ATOM     89  C   UNL A   1      46.032  35.899  30.347  1.00  0.00     0.022 A 
BRANCH  86  90
ATOM     90  S   UNL A   1      45.282  37.230  28.014  1.00  0.00     0.124 S 
ATOM     91  O   UNL A   1      45.332  38.351  28.947  1.00  0.00    -0.237 OA
ATOM     92  O   UNL A   1      46.469  37.033  27.189  1.00  0.00    -0.237 OA
ATOM     93  O   UNL A   1      44.008  37.061  27.316  1.00  0.00    -0.744 OA
ENDBRANCH  86  90
ENDBRANCH  60  83
ENDBRANCH  34  35
ENDBRANCH  27  29
ENDBRANCH  26  27
ENDBRANCH  25  26
ENDBRANCH   1  25
TORSDOF 19
ENDMDL
