MODEL 1
REMARK VINA RESULT:     -12.5      0.000      0.000
REMARK SMILES O=C(Nc1c(F)cc(F)cc1F)N[C@H]1C=C[C@H](C(=O)OCCOC(=O)c2ccc(-c3c4nc(c(-c5cc(S(=O)(=O)[O-])ccc5F)c5ccc([nH]5)c(-c5cc(S(=O)(=O)[O-])ccc5F)c5nc(c(-c6cc(S(=O)(=O)[O-])ccc6F)c6ccc3[nH]6)C=C5)C=C4)cc2)C1
REMARK SMILES IDX 22 1 21 2 20 3 18 4 19 5 17 6 14 7 15 8 89 9 16 10 13 11
REMARK SMILES IDX 1 12 2 13 3 14 4 17 5 18 11 19 6 20 7 21 10 22 12 23 8 24
REMARK SMILES IDX 9 25 23 26 24 27 25 28 26 29 27 30 88 31 28 32 87 33 29 34
REMARK SMILES IDX 30 35 31 36 81 37 32 38 86 39 80 40 82 41 33 42 85 43 79 44
REMARK SMILES IDX 78 45 34 47 66 48 46 49 65 50 47 51 50 52 64 53 83 54 48 55
REMARK SMILES IDX 49 56 63 58 84 59 51 60 35 61 36 62 44 63 37 64 43 65 45 66
REMARK SMILES IDX 42 67 38 68 39 69 40 70 41 71 67 72 68 73 76 74 69 75 75 76
REMARK SMILES IDX 77 77 74 78 70 79 71 80 72 81 73 82 52 83 53 84 61 85 54 86
REMARK SMILES IDX 60 87 62 88 59 89 55 90 56 91 57 92 58 93
REMARK H PARENT 3 15 13 16 82 46 50 57
REMARK Flexibility Score: inf
ROOT
ATOM      1  C   UNL A   1      31.483  30.477  25.370  1.00  0.00     0.275 C 
ENDROOT
BRANCH   1   2
ATOM      2  C   UNL A   1      31.059  29.158  24.732  1.00  0.00     0.274 C 
BRANCH   2   3
ATOM      3  O   UNL A   1      31.701  28.984  23.452  1.00  0.00    -0.462 OA
BRANCH   3   4
ATOM      4  C   UNL A   1      31.027  28.201  22.559  1.00  0.00     0.312 C 
ATOM      5  O   UNL A   1      29.986  28.527  22.001  1.00  0.00    -0.252 OA
BRANCH   4   6
ATOM      6  C   UNL A   1      31.696  26.833  22.426  1.00  0.00     0.124 C 
ATOM      7  C   UNL A   1      32.244  25.752  24.560  1.00  0.00     0.107 C 
ATOM      8  C   UNL A   1      33.449  26.353  23.923  1.00  0.00    -0.006 C 
ATOM      9  C   UNL A   1      31.197  25.788  23.438  1.00  0.00     0.048 C 
ATOM     10  C   UNL A   1      33.160  26.930  22.752  1.00  0.00    -0.014 C 
BRANCH   7  11
ATOM     11  N   UNL A   1      32.579  24.433  25.003  1.00  0.00    -0.332 N 
ATOM     12  O   UNL A   1      31.453  24.570  26.967  1.00  0.00    -0.248 OA
ATOM     13  C   UNL A   1      32.219  23.959  26.225  1.00  0.00     0.319 C 
ATOM     14  N   UNL A   1      32.651  22.715  26.571  1.00  0.00    -0.303 N 
ATOM     15  H   UNL A   1      32.204  22.347  27.367  1.00  0.00     0.172 HD
ATOM     16  H   UNL A   1      33.090  23.846  24.399  1.00  0.00     0.165 HD
BRANCH  14  17
ATOM     17  C   UNL A   1      33.617  21.853  26.009  1.00  0.00     0.115 A 
ATOM     18  C   UNL A   1      33.349  20.711  25.247  1.00  0.00     0.152 A 
ATOM     19  C   UNL A   1      34.961  22.175  26.232  1.00  0.00     0.152 A 
ATOM     20  F   UNL A   1      32.095  20.369  24.920  1.00  0.00    -0.204 F 
ATOM     21  C   UNL A   1      34.370  19.883  24.789  1.00  0.00     0.081 A 
ATOM     22  C   UNL A   1      35.995  21.355  25.793  1.00  0.00     0.081 A 
ATOM     23  F   UNL A   1      35.268  23.261  26.956  1.00  0.00    -0.204 F 
ATOM     24  C   UNL A   1      35.686  20.205  25.083  1.00  0.00     0.129 A 
ATOM     25  F   UNL A   1      36.668  19.387  24.683  1.00  0.00    -0.207 F 
ENDBRANCH  14  17
ENDBRANCH   7  11
ENDBRANCH   4   6
ENDBRANCH   3   4
ENDBRANCH   2   3
ENDBRANCH   1   2
BRANCH   1  26
ATOM     26  O   UNL A   1      32.476  30.216  26.373  1.00  0.00    -0.458 OA
BRANCH  26  27
ATOM     27  C   UNL A   1      32.969  31.308  27.009  1.00  0.00     0.338 C 
ATOM     28  O   UNL A   1      32.395  32.373  27.162  1.00  0.00    -0.246 OA
BRANCH  27  29
ATOM     29  C   UNL A   1      34.334  31.031  27.509  1.00  0.00     0.060 A 
ATOM     30  C   UNL A   1      34.782  29.725  27.700  1.00  0.00     0.016 A 
ATOM     31  C   UNL A   1      35.143  32.099  27.899  1.00  0.00     0.016 A 
ATOM     32  C   UNL A   1      35.972  29.492  28.397  1.00  0.00     0.010 A 
ATOM     33  C   UNL A   1      36.390  31.857  28.492  1.00  0.00     0.010 A 
ATOM     34  C   UNL A   1      36.803  30.549  28.798  1.00  0.00    -0.014 A 
BRANCH  34  35
ATOM     35  C   UNL A   1      38.064  30.303  29.568  1.00  0.00     0.031 A 
ATOM     36  C   UNL A   1      39.158  29.435  28.985  1.00  0.00     0.074 A 
ATOM     37  C   UNL A   1      38.249  30.843  30.793  1.00  0.00     0.049 A 
ATOM     38  N   UNL A   1      40.194  28.893  29.578  1.00  0.00    -0.248 NA
ATOM     39  C   UNL A   1      39.061  29.115  27.553  1.00  0.00     0.031 C 
ATOM     40  C   UNL A   1      37.318  31.743  31.476  1.00  0.00     0.029 A 
ATOM     41  N   UNL A   1      39.288  30.712  31.686  1.00  0.00    -0.354 N 
ATOM     42  C   UNL A   1      40.826  28.113  28.612  1.00  0.00     0.074 A 
ATOM     43  C   UNL A   1      40.058  28.255  27.393  1.00  0.00     0.031 C 
ATOM     44  C   UNL A   1      37.843  32.117  32.651  1.00  0.00     0.029 A 
ATOM     45  C   UNL A   1      39.090  31.393  32.866  1.00  0.00     0.049 A 
ATOM     46  H   UNL A   1      40.095  30.182  31.499  1.00  0.00     0.167 HD
ATOM     47  C   UNL A   1      41.939  27.346  28.734  1.00  0.00     0.034 A 
ATOM     48  C   UNL A   1      39.786  31.392  34.021  1.00  0.00     0.034 A 
ATOM     49  C   UNL A   1      42.742  27.268  29.931  1.00  0.00     0.049 A 
ATOM     50  C   UNL A   1      41.002  30.515  34.142  1.00  0.00     0.074 A 
ATOM     51  C   UNL A   1      43.904  26.543  30.144  1.00  0.00     0.029 A 
ATOM     52  N   UNL A   1      42.482  27.952  31.110  1.00  0.00    -0.354 N 
ATOM     53  N   UNL A   1      41.534  29.713  33.249  1.00  0.00    -0.248 NA
ATOM     54  C   UNL A   1      41.699  30.524  35.435  1.00  0.00     0.031 C 
ATOM     55  C   UNL A   1      44.316  26.748  31.466  1.00  0.00     0.029 A 
ATOM     56  C   UNL A   1      43.448  27.651  32.059  1.00  0.00     0.049 A 
ATOM     57  H   UNL A   1      41.723  28.562  31.252  1.00  0.00     0.167 HD
ATOM     58  C   UNL A   1      42.631  29.128  33.874  1.00  0.00     0.074 A 
ATOM     59  C   UNL A   1      42.702  29.689  35.206  1.00  0.00     0.031 C 
ATOM     60  C   UNL A   1      43.499  28.203  33.390  1.00  0.00     0.034 A 
BRANCH  47  61
ATOM     61  C   UNL A   1      42.328  26.479  27.560  1.00  0.00     0.023 A 
ATOM     62  C   UNL A   1      41.934  25.136  27.452  1.00  0.00     0.031 A 
ATOM     63  C   UNL A   1      43.103  27.027  26.519  1.00  0.00     0.131 A 
ATOM     64  C   UNL A   1      42.353  24.372  26.349  1.00  0.00     0.055 A 
ATOM     65  C   UNL A   1      43.464  26.280  25.397  1.00  0.00     0.041 A 
ATOM     66  F   UNL A   1      43.519  28.302  26.577  1.00  0.00    -0.206 F 
ATOM     67  C   UNL A   1      43.097  24.942  25.311  1.00  0.00     0.022 A 
BRANCH  64  68
ATOM     68  S   UNL A   1      41.989  22.596  26.331  1.00  0.00     0.124 S 
ATOM     69  O   UNL A   1      40.531  22.591  26.233  1.00  0.00    -0.237 OA
ATOM     70  O   UNL A   1      42.708  22.136  25.149  1.00  0.00    -0.237 OA
ATOM     71  O   UNL A   1      42.522  22.122  27.607  1.00  0.00    -0.744 OA
ENDBRANCH  64  68
ENDBRANCH  47  61
BRANCH  48  72
ATOM     72  C   UNL A   1      39.299  32.177  35.194  1.00  0.00     0.023 A 
ATOM     73  C   UNL A   1      39.731  33.493  35.420  1.00  0.00     0.031 A 
ATOM     74  C   UNL A   1      38.422  31.600  36.133  1.00  0.00     0.131 A 
ATOM     75  C   UNL A   1      39.314  34.176  36.573  1.00  0.00     0.055 A 
ATOM     76  C   UNL A   1      37.963  32.304  37.245  1.00  0.00     0.041 A 
ATOM     77  F   UNL A   1      37.983  30.342  35.969  1.00  0.00    -0.206 F 
ATOM     78  C   UNL A   1      38.420  33.598  37.477  1.00  0.00     0.022 A 
BRANCH  75  79
ATOM     79  S   UNL A   1      40.030  35.805  36.926  1.00  0.00     0.124 S 
ATOM     80  O   UNL A   1      39.337  36.177  38.154  1.00  0.00    -0.237 OA
ATOM     81  O   UNL A   1      41.448  35.491  37.060  1.00  0.00    -0.237 OA
ATOM     82  O   UNL A   1      39.677  36.594  35.746  1.00  0.00    -0.744 OA
ENDBRANCH  75  79
ENDBRANCH  48  72
BRANCH  60  83
ATOM     83  C   UNL A   1      44.615  27.779  34.308  1.00  0.00     0.023 A 
ATOM     84  C   UNL A   1      44.511  26.629  35.111  1.00  0.00     0.031 A 
ATOM     85  C   UNL A   1      45.783  28.554  34.407  1.00  0.00     0.131 A 
ATOM     86  C   UNL A   1      45.532  26.317  36.019  1.00  0.00     0.055 A 
ATOM     87  C   UNL A   1      46.819  28.211  35.275  1.00  0.00     0.041 A 
ATOM     88  F   UNL A   1      45.931  29.664  33.665  1.00  0.00    -0.206 F 
ATOM     89  C   UNL A   1      46.692  27.094  36.097  1.00  0.00     0.022 A 
BRANCH  86  90
ATOM     90  S   UNL A   1      45.290  24.931  37.162  1.00  0.00     0.124 S 
ATOM     91  O   UNL A   1      44.229  24.175  36.504  1.00  0.00    -0.237 OA
ATOM     92  O   UNL A   1      46.607  24.302  37.176  1.00  0.00    -0.237 OA
ATOM     93  O   UNL A   1      44.902  25.581  38.413  1.00  0.00    -0.744 OA
ENDBRANCH  86  90
ENDBRANCH  60  83
ENDBRANCH  34  35
ENDBRANCH  27  29
ENDBRANCH  26  27
ENDBRANCH   1  26
TORSDOF 16
ENDMDL
MODEL 2
REMARK VINA RESULT:     -12.4      1.476      1.776
REMARK SMILES O=C(Nc1c(F)cc(F)cc1F)N[C@H]1C=C[C@H](C(=O)OCCOC(=O)c2ccc(-c3c4nc(c(-c5cc(S(=O)(=O)[O-])ccc5F)c5ccc([nH]5)c(-c5cc(S(=O)(=O)[O-])ccc5F)c5nc(c(-c6cc(S(=O)(=O)[O-])ccc6F)c6ccc3[nH]6)C=C5)C=C4)cc2)C1
REMARK SMILES IDX 22 1 21 2 20 3 18 4 19 5 17 6 14 7 15 8 89 9 16 10 13 11
REMARK SMILES IDX 1 12 2 13 3 14 4 17 5 18 11 19 6 20 7 21 10 22 12 23 8 24
REMARK SMILES IDX 9 25 23 26 24 27 25 28 26 29 27 30 88 31 28 32 87 33 29 34
REMARK SMILES IDX 30 35 31 36 81 37 32 38 86 39 80 40 82 41 33 42 85 43 79 44
REMARK SMILES IDX 78 45 34 47 66 48 46 49 65 50 47 51 50 52 64 53 83 54 48 55
REMARK SMILES IDX 49 56 63 58 84 59 51 60 35 61 36 62 44 63 37 64 43 65 45 66
REMARK SMILES IDX 42 67 38 68 39 69 40 70 41 71 67 72 68 73 76 74 69 75 75 76
REMARK SMILES IDX 77 77 74 78 70 79 71 80 72 81 73 82 52 83 53 84 61 85 54 86
REMARK SMILES IDX 60 87 62 88 59 89 55 90 56 91 57 92 58 93
REMARK H PARENT 3 15 13 16 82 46 50 57
REMARK Flexibility Score: inf
ROOT
ATOM      1  C   UNL A   1      31.778  30.263  26.646  1.00  0.00     0.275 C 
ENDROOT
BRANCH   1   2
ATOM      2  C   UNL A   1      31.121  30.207  25.271  1.00  0.00     0.274 C 
BRANCH   2   3
ATOM      3  O   UNL A   1      31.988  29.551  24.321  1.00  0.00    -0.462 OA
BRANCH   3   4
ATOM      4  C   UNL A   1      31.404  28.569  23.574  1.00  0.00     0.312 C 
ATOM      5  O   UNL A   1      30.267  28.628  23.122  1.00  0.00    -0.252 OA
BRANCH   4   6
ATOM      6  C   UNL A   1      32.325  27.354  23.462  1.00  0.00     0.124 C 
ATOM      7  C   UNL A   1      32.041  25.689  25.242  1.00  0.00     0.107 C 
ATOM      8  C   UNL A   1      33.252  26.531  25.463  1.00  0.00    -0.006 C 
ATOM      9  C   UNL A   1      31.645  26.016  23.796  1.00  0.00     0.048 C 
ATOM     10  C   UNL A   1      33.420  27.429  24.489  1.00  0.00    -0.014 C 
BRANCH   7  11
ATOM     11  N   UNL A   1      32.400  24.320  25.454  1.00  0.00    -0.332 N 
ATOM     12  O   UNL A   1      31.051  24.017  27.251  1.00  0.00    -0.248 OA
ATOM     13  C   UNL A   1      31.931  23.596  26.503  1.00  0.00     0.319 C 
ATOM     14  N   UNL A   1      32.391  22.322  26.648  1.00  0.00    -0.303 N 
ATOM     15  H   UNL A   1      31.879  21.785  27.294  1.00  0.00     0.172 HD
ATOM     16  H   UNL A   1      33.010  23.886  24.813  1.00  0.00     0.165 HD
BRANCH  14  17
ATOM     17  C   UNL A   1      33.464  21.626  26.050  1.00  0.00     0.115 A 
ATOM     18  C   UNL A   1      33.350  20.506  25.220  1.00  0.00     0.152 A 
ATOM     19  C   UNL A   1      34.754  22.104  26.310  1.00  0.00     0.152 A 
ATOM     20  F   UNL A   1      32.153  20.026  24.856  1.00  0.00    -0.204 F 
ATOM     21  C   UNL A   1      34.472  19.844  24.729  1.00  0.00     0.081 A 
ATOM     22  C   UNL A   1      35.888  21.450  25.839  1.00  0.00     0.081 A 
ATOM     23  F   UNL A   1      34.914  23.176  27.099  1.00  0.00    -0.204 F 
ATOM     24  C   UNL A   1      35.734  20.314  25.059  1.00  0.00     0.129 A 
ATOM     25  F   UNL A   1      36.816  19.654  24.626  1.00  0.00    -0.207 F 
ENDBRANCH  14  17
ENDBRANCH   7  11
ENDBRANCH   4   6
ENDBRANCH   3   4
ENDBRANCH   2   3
ENDBRANCH   1   2
BRANCH   1  26
ATOM     26  O   UNL A   1      33.186  30.490  26.486  1.00  0.00    -0.458 OA
BRANCH  26  27
ATOM     27  C   UNL A   1      33.723  31.440  27.290  1.00  0.00     0.338 C 
ATOM     28  O   UNL A   1      33.198  32.491  27.614  1.00  0.00    -0.246 OA
BRANCH  27  29
ATOM     29  C   UNL A   1      35.070  31.022  27.741  1.00  0.00     0.060 A 
ATOM     30  C   UNL A   1      35.358  29.686  28.015  1.00  0.00     0.016 A 
ATOM     31  C   UNL A   1      36.032  31.999  28.000  1.00  0.00     0.016 A 
ATOM     32  C   UNL A   1      36.548  29.349  28.666  1.00  0.00     0.010 A 
ATOM     33  C   UNL A   1      37.271  31.638  28.545  1.00  0.00     0.010 A 
ATOM     34  C   UNL A   1      37.531  30.313  28.936  1.00  0.00    -0.014 A 
BRANCH  34  35
ATOM     35  C   UNL A   1      38.796  29.959  29.658  1.00  0.00     0.031 A 
ATOM     36  C   UNL A   1      39.773  28.977  29.049  1.00  0.00     0.074 A 
ATOM     37  C   UNL A   1      39.086  30.502  30.860  1.00  0.00     0.049 A 
ATOM     38  N   UNL A   1      40.776  28.347  29.610  1.00  0.00    -0.248 NA
ATOM     39  C   UNL A   1      39.582  28.640  27.630  1.00  0.00     0.031 C 
ATOM     40  C   UNL A   1      38.279  31.502  31.560  1.00  0.00     0.029 A 
ATOM     41  N   UNL A   1      40.146  30.287  31.711  1.00  0.00    -0.354 N 
ATOM     42  C   UNL A   1      41.286  27.490  28.638  1.00  0.00     0.074 A 
ATOM     43  C   UNL A   1      40.482  27.684  27.449  1.00  0.00     0.031 C 
ATOM     44  C   UNL A   1      38.889  31.845  32.703  1.00  0.00     0.029 A 
ATOM     45  C   UNL A   1      40.068  31.007  32.883  1.00  0.00     0.049 A 
ATOM     46  H   UNL A   1      40.889  29.677  31.503  1.00  0.00     0.167 HD
ATOM     47  C   UNL A   1      42.323  26.620  28.730  1.00  0.00     0.034 A 
ATOM     48  C   UNL A   1      40.811  30.960  34.006  1.00  0.00     0.034 A 
ATOM     49  C   UNL A   1      43.168  26.487  29.894  1.00  0.00     0.049 A 
ATOM     50  C   UNL A   1      41.941  29.970  34.096  1.00  0.00     0.074 A 
ATOM     51  C   UNL A   1      44.261  25.655  30.075  1.00  0.00     0.029 A 
ATOM     52  N   UNL A   1      43.028  27.215  31.066  1.00  0.00    -0.354 N 
ATOM     53  N   UNL A   1      42.351  29.102  33.201  1.00  0.00    -0.248 NA
ATOM     54  C   UNL A   1      42.692  29.936  35.358  1.00  0.00     0.031 C 
ATOM     55  C   UNL A   1      44.751  25.845  31.373  1.00  0.00     0.029 A 
ATOM     56  C   UNL A   1      44.002  26.840  31.980  1.00  0.00     0.049 A 
ATOM     57  H   UNL A   1      42.339  27.900  31.226  1.00  0.00     0.167 HD
ATOM     58  C   UNL A   1      43.413  28.425  33.792  1.00  0.00     0.074 A 
ATOM     59  C   UNL A   1      43.598  29.002  35.107  1.00  0.00     0.031 C 
ATOM     60  C   UNL A   1      44.165  27.410  33.295  1.00  0.00     0.034 A 
BRANCH  47  61
ATOM     61  C   UNL A   1      42.574  25.697  27.562  1.00  0.00     0.023 A 
ATOM     62  C   UNL A   1      42.029  24.405  27.492  1.00  0.00     0.031 A 
ATOM     63  C   UNL A   1      43.369  26.137  26.487  1.00  0.00     0.131 A 
ATOM     64  C   UNL A   1      42.323  23.581  26.392  1.00  0.00     0.055 A 
ATOM     65  C   UNL A   1      43.607  25.337  25.368  1.00  0.00     0.041 A 
ATOM     66  F   UNL A   1      43.926  27.359  26.506  1.00  0.00    -0.206 F 
ATOM     67  C   UNL A   1      43.090  24.047  25.320  1.00  0.00     0.022 A 
BRANCH  64  68
ATOM     68  S   UNL A   1      41.762  21.856  26.421  1.00  0.00     0.124 S 
ATOM     69  O   UNL A   1      42.099  21.456  27.785  1.00  0.00    -0.237 OA
ATOM     70  O   UNL A   1      40.340  21.980  26.126  1.00  0.00    -0.237 OA
ATOM     71  O   UNL A   1      42.561  21.217  25.376  1.00  0.00    -0.744 OA
ENDBRANCH  64  68
ENDBRANCH  47  61
BRANCH  48  72
ATOM     72  C   UNL A   1      40.456  31.812  35.180  1.00  0.00     0.023 A 
ATOM     73  C   UNL A   1      39.445  31.429  36.077  1.00  0.00     0.031 A 
ATOM     74  C   UNL A   1      41.098  33.045  35.397  1.00  0.00     0.131 A 
ATOM     75  C   UNL A   1      39.084  32.288  37.127  1.00  0.00     0.055 A 
ATOM     76  C   UNL A   1      40.776  33.867  36.476  1.00  0.00     0.041 A 
ATOM     77  F   UNL A   1      42.067  33.462  34.566  1.00  0.00    -0.206 F 
ATOM     78  C   UNL A   1      39.754  33.495  37.343  1.00  0.00     0.022 A 
BRANCH  75  79
ATOM     79  S   UNL A   1      37.658  31.848  38.158  1.00  0.00     0.124 S 
ATOM     80  O   UNL A   1      36.669  32.834  37.737  1.00  0.00    -0.237 OA
ATOM     81  O   UNL A   1      37.403  30.470  37.751  1.00  0.00    -0.237 OA
ATOM     82  O   UNL A   1      38.160  32.011  39.521  1.00  0.00    -0.744 OA
ENDBRANCH  75  79
ENDBRANCH  48  72
BRANCH  60  83
ATOM     83  C   UNL A   1      45.274  26.896  34.174  1.00  0.00     0.023 A 
ATOM     84  C   UNL A   1      45.069  25.834  35.072  1.00  0.00     0.031 A 
ATOM     85  C   UNL A   1      46.542  27.501  34.139  1.00  0.00     0.131 A 
ATOM     86  C   UNL A   1      46.100  25.443  35.938  1.00  0.00     0.055 A 
ATOM     87  C   UNL A   1      47.581  27.075  34.968  1.00  0.00     0.041 A 
ATOM     88  F   UNL A   1      46.790  28.522  33.303  1.00  0.00    -0.206 F 
ATOM     89  C   UNL A   1      47.359  26.049  35.883  1.00  0.00     0.022 A 
BRANCH  86  90
ATOM     90  S   UNL A   1      45.750  24.191  37.202  1.00  0.00     0.124 S 
ATOM     91  O   UNL A   1      45.054  24.972  38.220  1.00  0.00    -0.237 OA
ATOM     92  O   UNL A   1      44.935  23.227  36.470  1.00  0.00    -0.237 OA
ATOM     93  O   UNL A   1      47.076  23.713  37.589  1.00  0.00    -0.744 OA
ENDBRANCH  86  90
ENDBRANCH  60  83
ENDBRANCH  34  35
ENDBRANCH  27  29
ENDBRANCH  26  27
ENDBRANCH   1  26
TORSDOF 16
ENDMDL
MODEL 3
REMARK VINA RESULT:     -12.4      5.185     10.163
REMARK SMILES O=C(Nc1c(F)cc(F)cc1F)N[C@H]1C=C[C@H](C(=O)OCCOC(=O)c2ccc(-c3c4nc(c(-c5cc(S(=O)(=O)[O-])ccc5F)c5ccc([nH]5)c(-c5cc(S(=O)(=O)[O-])ccc5F)c5nc(c(-c6cc(S(=O)(=O)[O-])ccc6F)c6ccc3[nH]6)C=C5)C=C4)cc2)C1
REMARK SMILES IDX 22 1 21 2 20 3 18 4 19 5 17 6 14 7 15 8 89 9 16 10 13 11
REMARK SMILES IDX 1 12 2 13 3 14 4 17 5 18 11 19 6 20 7 21 10 22 12 23 8 24
REMARK SMILES IDX 9 25 23 26 24 27 25 28 26 29 27 30 88 31 28 32 87 33 29 34
REMARK SMILES IDX 30 35 31 36 81 37 32 38 86 39 80 40 82 41 33 42 85 43 79 44
REMARK SMILES IDX 78 45 34 47 66 48 46 49 65 50 47 51 50 52 64 53 83 54 48 55
REMARK SMILES IDX 49 56 63 58 84 59 51 60 35 61 36 62 44 63 37 64 43 65 45 66
REMARK SMILES IDX 42 67 38 68 39 69 40 70 41 71 67 72 68 73 76 74 69 75 75 76
REMARK SMILES IDX 77 77 74 78 70 79 71 80 72 81 73 82 52 83 53 84 61 85 54 86
REMARK SMILES IDX 60 87 62 88 59 89 55 90 56 91 57 92 58 93
REMARK H PARENT 3 15 13 16 82 46 50 57
REMARK Flexibility Score: inf
ROOT
ATOM      1  C   UNL A   1      36.262  20.483  25.000  1.00  0.00     0.275 C 
ENDROOT
BRANCH   1   2
ATOM      2  C   UNL A   1      34.887  20.744  25.606  1.00  0.00     0.274 C 
BRANCH   2   3
ATOM      3  O   UNL A   1      33.876  20.771  24.577  1.00  0.00    -0.462 OA
BRANCH   3   4
ATOM      4  C   UNL A   1      32.600  20.536  25.001  1.00  0.00     0.312 C 
ATOM      5  O   UNL A   1      32.153  19.427  25.267  1.00  0.00    -0.252 OA
BRANCH   4   6
ATOM      6  C   UNL A   1      31.784  21.829  25.005  1.00  0.00     0.124 C 
ATOM      7  C   UNL A   1      33.063  23.847  24.444  1.00  0.00     0.107 C 
ATOM      8  C   UNL A   1      32.818  23.740  25.911  1.00  0.00    -0.006 C 
ATOM      9  C   UNL A   1      32.121  22.790  23.852  1.00  0.00     0.048 C 
ATOM     10  C   UNL A   1      32.108  22.651  26.220  1.00  0.00    -0.014 C 
BRANCH   7  11
ATOM     11  N   UNL A   1      32.768  25.186  24.035  1.00  0.00    -0.332 N 
ATOM     12  O   UNL A   1      34.031  25.121  22.152  1.00  0.00    -0.248 OA
ATOM     13  C   UNL A   1      33.342  25.760  22.945  1.00  0.00     0.319 C 
ATOM     14  N   UNL A   1      33.043  27.063  22.686  1.00  0.00    -0.303 N 
ATOM     15  H   UNL A   1      33.321  27.364  21.791  1.00  0.00     0.172 HD
ATOM     16  H   UNL A   1      32.124  25.712  24.563  1.00  0.00     0.165 HD
BRANCH  14  17
ATOM     17  C   UNL A   1      32.412  28.064  23.455  1.00  0.00     0.115 A 
ATOM     18  C   UNL A   1      31.104  28.527  23.280  1.00  0.00     0.152 A 
ATOM     19  C   UNL A   1      33.164  28.640  24.486  1.00  0.00     0.152 A 
ATOM     20  F   UNL A   1      30.287  27.982  22.369  1.00  0.00    -0.204 F 
ATOM     21  C   UNL A   1      30.589  29.568  24.048  1.00  0.00     0.081 A 
ATOM     22  C   UNL A   1      32.673  29.689  25.257  1.00  0.00     0.081 A 
ATOM     23  F   UNL A   1      34.423  28.228  24.695  1.00  0.00    -0.204 F 
ATOM     24  C   UNL A   1      31.387  30.152  25.019  1.00  0.00     0.129 A 
ATOM     25  F   UNL A   1      30.912  31.184  25.729  1.00  0.00    -0.207 F 
ENDBRANCH  14  17
ENDBRANCH   7  11
ENDBRANCH   4   6
ENDBRANCH   3   4
ENDBRANCH   2   3
ENDBRANCH   1   2
BRANCH   1  26
ATOM     26  O   UNL A   1      37.116  21.606  25.268  1.00  0.00    -0.458 OA
BRANCH  26  27
ATOM     27  C   UNL A   1      38.370  21.303  25.683  1.00  0.00     0.338 C 
ATOM     28  O   UNL A   1      38.935  20.232  25.548  1.00  0.00    -0.246 OA
BRANCH  27  29
ATOM     29  C   UNL A   1      38.986  22.479  26.341  1.00  0.00     0.060 A 
ATOM     30  C   UNL A   1      38.497  23.766  26.122  1.00  0.00     0.016 A 
ATOM     31  C   UNL A   1      40.141  22.302  27.102  1.00  0.00     0.016 A 
ATOM     32  C   UNL A   1      39.235  24.873  26.552  1.00  0.00     0.010 A 
ATOM     33  C   UNL A   1      40.811  23.414  27.630  1.00  0.00     0.010 A 
ATOM     34  C   UNL A   1      40.399  24.722  27.321  1.00  0.00    -0.014 A 
BRANCH  34  35
ATOM     35  C   UNL A   1      41.205  25.906  27.759  1.00  0.00     0.031 A 
ATOM     36  C   UNL A   1      40.576  26.984  28.615  1.00  0.00     0.074 A 
ATOM     37  C   UNL A   1      42.501  26.036  27.401  1.00  0.00     0.049 A 
ATOM     38  N   UNL A   1      41.009  28.192  28.880  1.00  0.00    -0.248 NA
ATOM     39  C   UNL A   1      39.278  26.672  29.231  1.00  0.00     0.031 C 
ATOM     40  C   UNL A   1      43.272  25.064  26.624  1.00  0.00     0.029 A 
ATOM     41  N   UNL A   1      43.403  27.048  27.642  1.00  0.00    -0.354 N 
ATOM     42  C   UNL A   1      40.008  28.804  29.630  1.00  0.00     0.074 A 
ATOM     43  C   UNL A   1      38.945  27.832  29.778  1.00  0.00     0.031 C 
ATOM     44  C   UNL A   1      44.533  25.500  26.492  1.00  0.00     0.029 A 
ATOM     45  C   UNL A   1      44.636  26.836  27.066  1.00  0.00     0.049 A 
ATOM     46  H   UNL A   1      43.188  27.846  28.175  1.00  0.00     0.167 HD
ATOM     47  C   UNL A   1      39.975  30.061  30.140  1.00  0.00     0.034 A 
ATOM     48  C   UNL A   1      45.712  27.640  26.948  1.00  0.00     0.034 A 
ATOM     49  C   UNL A   1      41.069  31.000  30.052  1.00  0.00     0.049 A 
ATOM     50  C   UNL A   1      45.644  29.039  27.498  1.00  0.00     0.074 A 
ATOM     51  C   UNL A   1      41.145  32.286  30.562  1.00  0.00     0.029 A 
ATOM     52  N   UNL A   1      42.285  30.749  29.431  1.00  0.00    -0.354 N 
ATOM     53  N   UNL A   1      44.655  29.633  28.124  1.00  0.00    -0.248 NA
ATOM     54  C   UNL A   1      46.831  29.883  27.306  1.00  0.00     0.031 C 
ATOM     55  C   UNL A   1      42.385  32.830  30.206  1.00  0.00     0.029 A 
ATOM     56  C   UNL A   1      43.108  31.861  29.528  1.00  0.00     0.049 A 
ATOM     57  H   UNL A   1      42.528  29.905  28.987  1.00  0.00     0.167 HD
ATOM     58  C   UNL A   1      45.105  30.920  28.403  1.00  0.00     0.074 A 
ATOM     59  C   UNL A   1      46.462  31.006  27.906  1.00  0.00     0.031 C 
ATOM     60  C   UNL A   1      44.452  31.941  29.013  1.00  0.00     0.034 A 
BRANCH  47  61
ATOM     61  C   UNL A   1      38.694  30.524  30.793  1.00  0.00     0.023 A 
ATOM     62  C   UNL A   1      37.650  31.117  30.066  1.00  0.00     0.031 A 
ATOM     63  C   UNL A   1      38.518  30.348  32.178  1.00  0.00     0.131 A 
ATOM     64  C   UNL A   1      36.494  31.553  30.735  1.00  0.00     0.055 A 
ATOM     65  C   UNL A   1      37.343  30.728  32.827  1.00  0.00     0.041 A 
ATOM     66  F   UNL A   1      39.490  29.799  32.925  1.00  0.00    -0.206 F 
ATOM     67  C   UNL A   1      36.325  31.343  32.106  1.00  0.00     0.022 A 
BRANCH  64  68
ATOM     68  S   UNL A   1      35.247  32.484  29.802  1.00  0.00     0.124 S 
ATOM     69  O   UNL A   1      36.011  33.648  29.361  1.00  0.00    -0.237 OA
ATOM     70  O   UNL A   1      34.863  31.541  28.757  1.00  0.00    -0.237 OA
ATOM     71  O   UNL A   1      34.213  32.766  30.796  1.00  0.00    -0.744 OA
ENDBRANCH  64  68
ENDBRANCH  47  61
BRANCH  48  72
ATOM     72  C   UNL A   1      46.916  27.181  26.193  1.00  0.00     0.023 A 
ATOM     73  C   UNL A   1      47.152  27.600  24.875  1.00  0.00     0.031 A 
ATOM     74  C   UNL A   1      47.827  26.278  26.772  1.00  0.00     0.131 A 
ATOM     75  C   UNL A   1      48.253  27.090  24.168  1.00  0.00     0.055 A 
ATOM     76  C   UNL A   1      48.952  25.821  26.086  1.00  0.00     0.041 A 
ATOM     77  F   UNL A   1      47.645  25.840  28.028  1.00  0.00    -0.206 F 
ATOM     78  C   UNL A   1      49.163  26.219  24.770  1.00  0.00     0.022 A 
BRANCH  75  79
ATOM     79  S   UNL A   1      48.429  27.512  22.413  1.00  0.00     0.124 S 
ATOM     80  O   UNL A   1      48.569  26.196  21.801  1.00  0.00    -0.237 OA
ATOM     81  O   UNL A   1      47.180  28.216  22.142  1.00  0.00    -0.237 OA
ATOM     82  O   UNL A   1      49.630  28.345  22.382  1.00  0.00    -0.744 OA
ENDBRANCH  75  79
ENDBRANCH  48  72
BRANCH  60  83
ATOM     83  C   UNL A   1      45.223  33.222  29.198  1.00  0.00     0.023 A 
ATOM     84  C   UNL A   1      45.136  34.275  28.270  1.00  0.00     0.031 A 
ATOM     85  C   UNL A   1      46.084  33.376  30.298  1.00  0.00     0.131 A 
ATOM     86  C   UNL A   1      45.938  35.413  28.429  1.00  0.00     0.055 A 
ATOM     87  C   UNL A   1      46.842  34.533  30.480  1.00  0.00     0.041 A 
ATOM     88  F   UNL A   1      46.207  32.399  31.212  1.00  0.00    -0.206 F 
ATOM     89  C   UNL A   1      46.782  35.555  29.535  1.00  0.00     0.022 A 
BRANCH  86  90
ATOM     90  S   UNL A   1      45.933  36.673  27.125  1.00  0.00     0.124 S 
ATOM     91  O   UNL A   1      46.618  37.786  27.774  1.00  0.00    -0.237 OA
ATOM     92  O   UNL A   1      46.666  36.013  26.049  1.00  0.00    -0.237 OA
ATOM     93  O   UNL A   1      44.511  36.890  26.862  1.00  0.00    -0.744 OA
ENDBRANCH  86  90
ENDBRANCH  60  83
ENDBRANCH  34  35
ENDBRANCH  27  29
ENDBRANCH  26  27
ENDBRANCH   1  26
TORSDOF 16
ENDMDL
