MODEL 1
REMARK VINA RESULT:     -10.6      0.000      0.000
REMARK SMILES O=C(CCCCc1nc(C[C@H]2CCCO2)no1)OCCOC(=O)c1ccc(-c2c3nc(c(-c4cc(S(=O)(=O)[O-])ccc4F)c4ccc([nH]4)c(-c4cc(S(=O)(=O)[O-])ccc4F)c4nc(c(-c5cc(S(=O)(=O)[O-])ccc5F)c5ccc2[nH]5)C=C4)C=C3)cc1
REMARK SMILES IDX 18 1 2 2 1 3 3 4 4 5 5 6 6 7 7 8 8 9 17 10 9 11 16 12 10 13
REMARK SMILES IDX 11 14 12 15 15 16 13 17 14 18 19 19 20 20 21 21 22 22 23 23
REMARK SMILES IDX 24 24 25 25 86 26 26 27 85 28 27 29 28 30 29 31 79 32 30 33
REMARK SMILES IDX 84 34 78 35 80 36 31 37 83 38 77 39 76 40 32 42 64 43 44 44
REMARK SMILES IDX 63 45 45 46 48 47 62 48 81 49 46 50 47 51 61 53 82 54 49 55
REMARK SMILES IDX 33 56 34 57 42 58 35 59 41 60 43 61 40 62 36 63 37 64 38 65
REMARK SMILES IDX 39 66 65 67 66 68 74 69 67 70 73 71 75 72 72 73 68 74 69 75
REMARK SMILES IDX 70 76 71 77 50 78 51 79 59 80 52 81 58 82 60 83 57 84 53 85
REMARK SMILES IDX 54 86 55 87 56 88
REMARK H PARENT 80 41 48 52
REMARK Flexibility Score: inf
ROOT
ATOM      1  O   UNL A   1      35.775  22.217  24.733  1.00  0.00    -0.462 OA
ENDROOT
BRANCH   1   2
ATOM      2  C   UNL A   1      35.277  23.169  25.565  1.00  0.00     0.305 C 
ATOM      3  O   UNL A   1      35.219  22.976  26.775  1.00  0.00    -0.252 OA
BRANCH   2   4
ATOM      4  C   UNL A   1      34.672  24.396  24.910  1.00  0.00     0.123 C 
BRANCH   4   5
ATOM      5  C   UNL A   1      33.544  25.036  25.712  1.00  0.00     0.012 C 
BRANCH   5   6
ATOM      6  C   UNL A   1      32.127  24.581  25.338  1.00  0.00     0.010 C 
BRANCH   6   7
ATOM      7  C   UNL A   1      31.642  23.234  25.882  1.00  0.00     0.100 C 
BRANCH   7   8
ATOM      8  C   UNL A   1      31.828  22.067  24.996  1.00  0.00     0.226 A 
ATOM      9  N   UNL A   1      32.027  20.801  25.276  1.00  0.00    -0.196 NA
ATOM     10  O   UNL A   1      31.976  22.354  23.670  1.00  0.00    -0.339 OA
ATOM     11  C   UNL A   1      32.290  20.266  24.038  1.00  0.00     0.174 A 
ATOM     12  N   UNL A   1      32.288  21.158  23.037  1.00  0.00    -0.062 NA
BRANCH  11  13
ATOM     13  C   UNL A   1      32.594  18.825  23.843  1.00  0.00     0.113 C 
BRANCH  13  14
ATOM     14  C   UNL A   1      33.318  18.181  25.033  1.00  0.00     0.126 C 
ATOM     15  C   UNL A   1      32.528  17.077  25.731  1.00  0.00     0.035 C 
ATOM     16  O   UNL A   1      34.524  17.553  24.551  1.00  0.00    -0.378 OA
ATOM     17  C   UNL A   1      32.963  15.835  24.995  1.00  0.00     0.031 C 
ATOM     18  C   UNL A   1      34.416  16.133  24.707  1.00  0.00     0.160 C 
ENDBRANCH  13  14
ENDBRANCH  11  13
ENDBRANCH   7   8
ENDBRANCH   6   7
ENDBRANCH   5   6
ENDBRANCH   4   5
ENDBRANCH   2   4
ENDBRANCH   1   2
BRANCH   1  19
ATOM     19  C   UNL A   1      35.843  20.854  25.179  1.00  0.00     0.274 C 
BRANCH  19  20
ATOM     20  C   UNL A   1      37.222  20.213  24.987  1.00  0.00     0.275 C 
BRANCH  20  21
ATOM     21  O   UNL A   1      38.277  21.184  25.019  1.00  0.00    -0.458 OA
BRANCH  21  22
ATOM     22  C   UNL A   1      39.248  20.910  25.934  1.00  0.00     0.338 C 
ATOM     23  O   UNL A   1      39.766  19.826  26.122  1.00  0.00    -0.246 OA
BRANCH  22  24
ATOM     24  C   UNL A   1      39.717  22.158  26.578  1.00  0.00     0.060 A 
ATOM     25  C   UNL A   1      39.054  23.343  26.238  1.00  0.00     0.016 A 
ATOM     26  C   UNL A   1      40.796  22.188  27.470  1.00  0.00     0.016 A 
ATOM     27  C   UNL A   1      39.498  24.565  26.742  1.00  0.00     0.010 A 
ATOM     28  C   UNL A   1      41.243  23.418  27.971  1.00  0.00     0.010 A 
ATOM     29  C   UNL A   1      40.619  24.615  27.581  1.00  0.00    -0.014 A 
BRANCH  29  30
ATOM     30  C   UNL A   1      41.224  25.933  27.901  1.00  0.00     0.031 A 
ATOM     31  C   UNL A   1      42.620  26.224  27.420  1.00  0.00     0.074 A 
ATOM     32  C   UNL A   1      40.532  26.875  28.563  1.00  0.00     0.049 A 
ATOM     33  N   UNL A   1      43.329  27.317  27.533  1.00  0.00    -0.248 NA
ATOM     34  C   UNL A   1      43.307  25.128  26.721  1.00  0.00     0.031 C 
ATOM     35  C   UNL A   1      39.165  26.727  29.060  1.00  0.00     0.029 A 
ATOM     36  N   UNL A   1      40.887  28.150  28.930  1.00  0.00    -0.354 N 
ATOM     37  C   UNL A   1      44.540  27.050  26.902  1.00  0.00     0.074 A 
ATOM     38  C   UNL A   1      44.487  25.671  26.464  1.00  0.00     0.031 C 
ATOM     39  C   UNL A   1      38.798  27.869  29.669  1.00  0.00     0.029 A 
ATOM     40  C   UNL A   1      39.908  28.820  29.623  1.00  0.00     0.049 A 
ATOM     41  H   UNL A   1      41.762  28.547  28.714  1.00  0.00     0.167 HD
ATOM     42  C   UNL A   1      45.591  27.881  26.690  1.00  0.00     0.034 A 
ATOM     43  C   UNL A   1      39.912  30.054  30.167  1.00  0.00     0.034 A 
ATOM     44  C   UNL A   1      45.648  29.244  27.157  1.00  0.00     0.049 A 
ATOM     45  C   UNL A   1      41.132  30.929  30.008  1.00  0.00     0.074 A 
ATOM     46  C   UNL A   1      46.658  30.175  26.984  1.00  0.00     0.029 A 
ATOM     47  N   UNL A   1      44.661  29.868  27.910  1.00  0.00    -0.354 N 
ATOM     48  N   UNL A   1      42.256  30.679  29.378  1.00  0.00    -0.248 NA
ATOM     49  C   UNL A   1      41.075  32.262  30.625  1.00  0.00     0.031 C 
ATOM     50  C   UNL A   1      46.314  31.334  27.690  1.00  0.00     0.029 A 
ATOM     51  C   UNL A   1      45.056  31.156  28.243  1.00  0.00     0.049 A 
ATOM     52  H   UNL A   1      43.805  29.456  28.170  1.00  0.00     0.167 HD
ATOM     53  C   UNL A   1      43.025  31.834  29.496  1.00  0.00     0.074 A 
ATOM     54  C   UNL A   1      42.236  32.783  30.252  1.00  0.00     0.031 C 
ATOM     55  C   UNL A   1      44.268  32.091  29.012  1.00  0.00     0.034 A 
BRANCH  42  56
ATOM     56  C   UNL A   1      46.779  27.304  25.959  1.00  0.00     0.023 A 
ATOM     57  C   UNL A   1      47.793  26.604  26.638  1.00  0.00     0.031 A 
ATOM     58  C   UNL A   1      46.932  27.507  24.576  1.00  0.00     0.131 A 
ATOM     59  C   UNL A   1      48.949  26.206  25.952  1.00  0.00     0.055 A 
ATOM     60  C   UNL A   1      48.048  27.036  23.882  1.00  0.00     0.041 A 
ATOM     61  F   UNL A   1      46.009  28.188  23.879  1.00  0.00    -0.206 F 
ATOM     62  C   UNL A   1      49.073  26.396  24.573  1.00  0.00     0.022 A 
BRANCH  59  63
ATOM     63  S   UNL A   1      50.356  25.585  26.913  1.00  0.00     0.124 S 
ATOM     64  O   UNL A   1      50.693  26.748  27.729  1.00  0.00    -0.237 OA
ATOM     65  O   UNL A   1      49.779  24.450  27.622  1.00  0.00    -0.237 OA
ATOM     66  O   UNL A   1      51.346  25.245  25.891  1.00  0.00    -0.744 OA
ENDBRANCH  59  63
ENDBRANCH  42  56
BRANCH  43  67
ATOM     67  C   UNL A   1      38.736  30.538  30.943  1.00  0.00     0.023 A 
ATOM     68  C   UNL A   1      37.656  31.173  30.310  1.00  0.00     0.031 A 
ATOM     69  C   UNL A   1      38.705  30.420  32.344  1.00  0.00     0.131 A 
ATOM     70  C   UNL A   1      36.609  31.704  31.081  1.00  0.00     0.055 A 
ATOM     71  C   UNL A   1      37.641  30.908  33.102  1.00  0.00     0.041 A 
ATOM     72  F   UNL A   1      39.716  29.822  32.996  1.00  0.00    -0.206 F 
ATOM     73  C   UNL A   1      36.589  31.566  32.471  1.00  0.00     0.022 A 
BRANCH  70  74
ATOM     74  S   UNL A   1      35.304  32.647  30.245  1.00  0.00     0.124 S 
ATOM     75  O   UNL A   1      35.994  33.893  29.928  1.00  0.00    -0.237 OA
ATOM     76  O   UNL A   1      34.984  31.785  29.112  1.00  0.00    -0.237 OA
ATOM     77  O   UNL A   1      34.257  32.753  31.259  1.00  0.00    -0.744 OA
ENDBRANCH  70  74
ENDBRANCH  43  67
BRANCH  55  78
ATOM     78  C   UNL A   1      44.830  33.473  29.249  1.00  0.00     0.023 A 
ATOM     79  C   UNL A   1      44.525  34.554  28.404  1.00  0.00     0.031 A 
ATOM     80  C   UNL A   1      45.688  33.706  30.339  1.00  0.00     0.131 A 
ATOM     81  C   UNL A   1      45.112  35.809  28.636  1.00  0.00     0.055 A 
ATOM     82  C   UNL A   1      46.226  34.968  30.595  1.00  0.00     0.041 A 
ATOM     83  F   UNL A   1      46.015  32.709  31.177  1.00  0.00    -0.206 F 
ATOM     84  C   UNL A   1      45.947  36.027  29.735  1.00  0.00     0.022 A 
BRANCH  81  85
ATOM     85  S   UNL A   1      44.830  37.142  27.437  1.00  0.00     0.124 S 
ATOM     86  O   UNL A   1      43.681  36.641  26.689  1.00  0.00    -0.237 OA
ATOM     87  O   UNL A   1      44.578  38.290  28.300  1.00  0.00    -0.237 OA
ATOM     88  O   UNL A   1      46.082  37.197  26.684  1.00  0.00    -0.744 OA
ENDBRANCH  81  85
ENDBRANCH  55  78
ENDBRANCH  29  30
ENDBRANCH  22  24
ENDBRANCH  21  22
ENDBRANCH  20  21
ENDBRANCH  19  20
ENDBRANCH   1  19
TORSDOF 20
ENDMDL
MODEL 2
REMARK VINA RESULT:     -10.3      2.070      3.821
REMARK SMILES O=C(CCCCc1nc(C[C@H]2CCCO2)no1)OCCOC(=O)c1ccc(-c2c3nc(c(-c4cc(S(=O)(=O)[O-])ccc4F)c4ccc([nH]4)c(-c4cc(S(=O)(=O)[O-])ccc4F)c4nc(c(-c5cc(S(=O)(=O)[O-])ccc5F)c5ccc2[nH]5)C=C4)C=C3)cc1
REMARK SMILES IDX 18 1 2 2 1 3 3 4 4 5 5 6 6 7 7 8 8 9 17 10 9 11 16 12 10 13
REMARK SMILES IDX 11 14 12 15 15 16 13 17 14 18 19 19 20 20 21 21 22 22 23 23
REMARK SMILES IDX 24 24 25 25 86 26 26 27 85 28 27 29 28 30 29 31 79 32 30 33
REMARK SMILES IDX 84 34 78 35 80 36 31 37 83 38 77 39 76 40 32 42 64 43 44 44
REMARK SMILES IDX 63 45 45 46 48 47 62 48 81 49 46 50 47 51 61 53 82 54 49 55
REMARK SMILES IDX 33 56 34 57 42 58 35 59 41 60 43 61 40 62 36 63 37 64 38 65
REMARK SMILES IDX 39 66 65 67 66 68 74 69 67 70 73 71 75 72 72 73 68 74 69 75
REMARK SMILES IDX 70 76 71 77 50 78 51 79 59 80 52 81 58 82 60 83 57 84 53 85
REMARK SMILES IDX 54 86 55 87 56 88
REMARK H PARENT 80 41 48 52
REMARK Flexibility Score: inf
ROOT
ATOM      1  O   UNL A   1      34.994  20.313  25.077  1.00  0.00    -0.462 OA
ENDROOT
BRANCH   1   2
ATOM      2  C   UNL A   1      33.781  20.532  25.647  1.00  0.00     0.305 C 
ATOM      3  O   UNL A   1      33.690  21.093  26.734  1.00  0.00    -0.252 OA
BRANCH   2   4
ATOM      4  C   UNL A   1      32.581  19.921  24.949  1.00  0.00     0.123 C 
BRANCH   4   5
ATOM      5  C   UNL A   1      32.489  20.256  23.464  1.00  0.00     0.012 C 
BRANCH   5   6
ATOM      6  C   UNL A   1      32.553  21.751  23.119  1.00  0.00     0.010 C 
BRANCH   6   7
ATOM      7  C   UNL A   1      31.709  22.714  23.958  1.00  0.00     0.100 C 
BRANCH   7   8
ATOM      8  C   UNL A   1      32.309  24.034  24.239  1.00  0.00     0.226 A 
ATOM      9  N   UNL A   1      32.272  24.781  25.317  1.00  0.00    -0.196 NA
ATOM     10  O   UNL A   1      32.865  24.667  23.165  1.00  0.00    -0.339 OA
ATOM     11  C   UNL A   1      32.868  25.942  24.888  1.00  0.00     0.174 A 
ATOM     12  N   UNL A   1      33.231  25.935  23.598  1.00  0.00    -0.062 NA
BRANCH  11  13
ATOM     13  C   UNL A   1      33.050  27.118  25.777  1.00  0.00     0.113 C 
BRANCH  13  14
ATOM     14  C   UNL A   1      31.748  27.875  26.070  1.00  0.00     0.126 C 
ATOM     15  C   UNL A   1      31.706  28.558  27.435  1.00  0.00     0.035 C 
ATOM     16  O   UNL A   1      31.605  28.934  25.101  1.00  0.00    -0.378 OA
ATOM     17  C   UNL A   1      32.255  29.931  27.143  1.00  0.00     0.031 C 
ATOM     18  C   UNL A   1      31.705  30.201  25.762  1.00  0.00     0.160 C 
ENDBRANCH  13  14
ENDBRANCH  11  13
ENDBRANCH   7   8
ENDBRANCH   6   7
ENDBRANCH   5   6
ENDBRANCH   4   5
ENDBRANCH   2   4
ENDBRANCH   1   2
BRANCH   1  19
ATOM     19  C   UNL A   1      36.046  21.270  25.268  1.00  0.00     0.274 C 
BRANCH  19  20
ATOM     20  C   UNL A   1      37.451  20.680  25.098  1.00  0.00     0.275 C 
BRANCH  20  21
ATOM     21  O   UNL A   1      38.471  21.687  25.168  1.00  0.00    -0.458 OA
BRANCH  21  22
ATOM     22  C   UNL A   1      39.428  21.433  26.103  1.00  0.00     0.338 C 
ATOM     23  O   UNL A   1      39.988  20.369  26.282  1.00  0.00    -0.246 OA
BRANCH  22  24
ATOM     24  C   UNL A   1      39.826  22.685  26.787  1.00  0.00     0.060 A 
ATOM     25  C   UNL A   1      39.139  23.853  26.435  1.00  0.00     0.016 A 
ATOM     26  C   UNL A   1      40.862  22.736  27.727  1.00  0.00     0.016 A 
ATOM     27  C   UNL A   1      39.519  25.081  26.977  1.00  0.00     0.010 A 
ATOM     28  C   UNL A   1      41.244  23.971  28.268  1.00  0.00     0.010 A 
ATOM     29  C   UNL A   1      40.599  25.153  27.867  1.00  0.00    -0.014 A 
BRANCH  29  30
ATOM     30  C   UNL A   1      41.145  26.485  28.235  1.00  0.00     0.031 A 
ATOM     31  C   UNL A   1      42.571  26.806  27.876  1.00  0.00     0.074 A 
ATOM     32  C   UNL A   1      40.377  27.412  28.831  1.00  0.00     0.049 A 
ATOM     33  N   UNL A   1      43.243  27.915  28.046  1.00  0.00    -0.248 NA
ATOM     34  C   UNL A   1      43.340  25.724  27.243  1.00  0.00     0.031 C 
ATOM     35  C   UNL A   1      38.975  27.235  29.207  1.00  0.00     0.029 A 
ATOM     36  N   UNL A   1      40.671  28.695  29.223  1.00  0.00    -0.354 N 
ATOM     37  C   UNL A   1      44.509  27.675  27.524  1.00  0.00     0.074 A 
ATOM     38  C   UNL A   1      44.525  26.294  27.088  1.00  0.00     0.031 C 
ATOM     39  C   UNL A   1      38.531  28.368  29.778  1.00  0.00     0.029 A 
ATOM     40  C   UNL A   1      39.620  29.344  29.826  1.00  0.00     0.049 A 
ATOM     41  H   UNL A   1      41.552  29.112  29.083  1.00  0.00     0.167 HD
ATOM     42  C   UNL A   1      45.556  28.528  27.402  1.00  0.00     0.034 A 
ATOM     43  C   UNL A   1      39.549  30.578  30.364  1.00  0.00     0.034 A 
ATOM     44  C   UNL A   1      45.542  29.893  27.868  1.00  0.00     0.049 A 
ATOM     45  C   UNL A   1      40.759  31.481  30.309  1.00  0.00     0.074 A 
ATOM     46  C   UNL A   1      46.543  30.846  27.780  1.00  0.00     0.029 A 
ATOM     47  N   UNL A   1      44.480  30.495  28.530  1.00  0.00    -0.354 N 
ATOM     48  N   UNL A   1      41.939  31.254  29.780  1.00  0.00    -0.248 NA
ATOM     49  C   UNL A   1      40.619  32.812  30.915  1.00  0.00     0.031 C 
ATOM     50  C   UNL A   1      46.113  31.997  28.451  1.00  0.00     0.029 A 
ATOM     51  C   UNL A   1      44.816  31.792  28.892  1.00  0.00     0.049 A 
ATOM     52  H   UNL A   1      43.614  30.064  28.716  1.00  0.00     0.167 HD
ATOM     53  C   UNL A   1      42.670  32.426  29.961  1.00  0.00     0.074 A 
ATOM     54  C   UNL A   1      41.796  33.359  30.642  1.00  0.00     0.031 C 
ATOM     55  C   UNL A   1      43.944  32.710  29.586  1.00  0.00     0.034 A 
BRANCH  42  56
ATOM     56  C   UNL A   1      46.817  27.977  26.779  1.00  0.00     0.023 A 
ATOM     57  C   UNL A   1      47.088  28.131  25.408  1.00  0.00     0.031 A 
ATOM     58  C   UNL A   1      47.729  27.239  27.553  1.00  0.00     0.131 A 
ATOM     59  C   UNL A   1      48.195  27.487  24.837  1.00  0.00     0.055 A 
ATOM     60  C   UNL A   1      48.875  26.668  26.994  1.00  0.00     0.041 A 
ATOM     61  F   UNL A   1      47.511  27.039  28.862  1.00  0.00    -0.206 F 
ATOM     62  C   UNL A   1      49.104  26.776  25.625  1.00  0.00     0.022 A 
BRANCH  59  63
ATOM     63  S   UNL A   1      48.342  27.454  23.029  1.00  0.00     0.124 S 
ATOM     64  O   UNL A   1      47.157  28.207  22.624  1.00  0.00    -0.237 OA
ATOM     65  O   UNL A   1      49.624  28.107  22.804  1.00  0.00    -0.237 OA
ATOM     66  O   UNL A   1      48.302  26.028  22.708  1.00  0.00    -0.744 OA
ENDBRANCH  59  63
ENDBRANCH  42  56
BRANCH  43  67
ATOM     67  C   UNL A   1      38.300  31.037  31.033  1.00  0.00     0.023 A 
ATOM     68  C   UNL A   1      37.280  31.678  30.313  1.00  0.00     0.031 A 
ATOM     69  C   UNL A   1      38.135  30.889  32.422  1.00  0.00     0.131 A 
ATOM     70  C   UNL A   1      36.159  32.185  30.990  1.00  0.00     0.055 A 
ATOM     71  C   UNL A   1      36.999  31.352  33.085  1.00  0.00     0.041 A 
ATOM     72  F   UNL A   1      39.084  30.284  33.156  1.00  0.00    -0.206 F 
ATOM     73  C   UNL A   1      36.007  32.016  32.369  1.00  0.00     0.022 A 
BRANCH  70  74
ATOM     74  S   UNL A   1      34.932  33.136  30.053  1.00  0.00     0.124 S 
ATOM     75  O   UNL A   1      35.763  34.159  29.426  1.00  0.00    -0.237 OA
ATOM     76  O   UNL A   1      34.379  32.123  29.159  1.00  0.00    -0.237 OA
ATOM     77  O   UNL A   1      34.016  33.621  31.083  1.00  0.00    -0.744 OA
ENDBRANCH  70  74
ENDBRANCH  43  67
BRANCH  55  78
ATOM     78  C   UNL A   1      44.452  34.104  29.867  1.00  0.00     0.023 A 
ATOM     79  C   UNL A   1      44.273  35.159  28.955  1.00  0.00     0.031 A 
ATOM     80  C   UNL A   1      45.131  34.378  31.069  1.00  0.00     0.131 A 
ATOM     81  C   UNL A   1      44.807  36.427  29.238  1.00  0.00     0.055 A 
ATOM     82  C   UNL A   1      45.614  35.652  31.369  1.00  0.00     0.041 A 
ATOM     83  F   UNL A   1      45.332  33.408  31.976  1.00  0.00    -0.206 F 
ATOM     84  C   UNL A   1      45.463  36.684  30.445  1.00  0.00     0.022 A 
BRANCH  81  85
ATOM     85  S   UNL A   1      44.704  37.722  27.972  1.00  0.00     0.124 S 
ATOM     86  O   UNL A   1      45.664  37.255  26.977  1.00  0.00    -0.237 OA
ATOM     87  O   UNL A   1      43.299  37.664  27.580  1.00  0.00    -0.237 OA
ATOM     88  O   UNL A   1      45.095  38.935  28.689  1.00  0.00    -0.744 OA
ENDBRANCH  81  85
ENDBRANCH  55  78
ENDBRANCH  29  30
ENDBRANCH  22  24
ENDBRANCH  21  22
ENDBRANCH  20  21
ENDBRANCH  19  20
ENDBRANCH   1  19
TORSDOF 20
ENDMDL
MODEL 3
REMARK VINA RESULT:     -10.3      1.897      3.769
REMARK SMILES O=C(CCCCc1nc(C[C@H]2CCCO2)no1)OCCOC(=O)c1ccc(-c2c3nc(c(-c4cc(S(=O)(=O)[O-])ccc4F)c4ccc([nH]4)c(-c4cc(S(=O)(=O)[O-])ccc4F)c4nc(c(-c5cc(S(=O)(=O)[O-])ccc5F)c5ccc2[nH]5)C=C4)C=C3)cc1
REMARK SMILES IDX 18 1 2 2 1 3 3 4 4 5 5 6 6 7 7 8 8 9 17 10 9 11 16 12 10 13
REMARK SMILES IDX 11 14 12 15 15 16 13 17 14 18 19 19 20 20 21 21 22 22 23 23
REMARK SMILES IDX 24 24 25 25 86 26 26 27 85 28 27 29 28 30 29 31 79 32 30 33
REMARK SMILES IDX 84 34 78 35 80 36 31 37 83 38 77 39 76 40 32 42 64 43 44 44
REMARK SMILES IDX 63 45 45 46 48 47 62 48 81 49 46 50 47 51 61 53 82 54 49 55
REMARK SMILES IDX 33 56 34 57 42 58 35 59 41 60 43 61 40 62 36 63 37 64 38 65
REMARK SMILES IDX 39 66 65 67 66 68 74 69 67 70 73 71 75 72 72 73 68 74 69 75
REMARK SMILES IDX 70 76 71 77 50 78 51 79 59 80 52 81 58 82 60 83 57 84 53 85
REMARK SMILES IDX 54 86 55 87 56 88
REMARK H PARENT 80 41 48 52
REMARK Flexibility Score: inf
ROOT
ATOM      1  O   UNL A   1      36.325  21.700  24.801  1.00  0.00    -0.462 OA
ENDROOT
BRANCH   1   2
ATOM      2  C   UNL A   1      35.268  22.419  25.260  1.00  0.00     0.305 C 
ATOM      3  O   UNL A   1      35.237  22.817  26.420  1.00  0.00    -0.252 OA
BRANCH   2   4
ATOM      4  C   UNL A   1      34.087  22.569  24.321  1.00  0.00     0.123 C 
BRANCH   4   5
ATOM      5  C   UNL A   1      34.408  23.324  23.035  1.00  0.00     0.012 C 
BRANCH   5   6
ATOM      6  C   UNL A   1      33.305  23.307  21.967  1.00  0.00     0.010 C 
BRANCH   6   7
ATOM      7  C   UNL A   1      32.411  24.544  21.846  1.00  0.00     0.100 C 
BRANCH   7   8
ATOM      8  C   UNL A   1      32.994  25.819  22.312  1.00  0.00     0.226 A 
ATOM      9  N   UNL A   1      32.816  26.487  23.427  1.00  0.00    -0.196 NA
ATOM     10  O   UNL A   1      33.717  26.509  21.382  1.00  0.00    -0.339 OA
ATOM     11  C   UNL A   1      33.495  27.655  23.180  1.00  0.00     0.174 A 
ATOM     12  N   UNL A   1      34.045  27.729  21.959  1.00  0.00    -0.062 NA
BRANCH  11  13
ATOM     13  C   UNL A   1      33.571  28.757  24.174  1.00  0.00     0.113 C 
BRANCH  13  14
ATOM     14  C   UNL A   1      32.489  28.684  25.258  1.00  0.00     0.126 C 
ATOM     15  C   UNL A   1      33.019  28.762  26.688  1.00  0.00     0.035 C 
ATOM     16  O   UNL A   1      31.609  29.818  25.106  1.00  0.00    -0.378 OA
ATOM     17  C   UNL A   1      32.989  30.242  26.978  1.00  0.00     0.031 C 
ATOM     18  C   UNL A   1      31.745  30.681  26.242  1.00  0.00     0.160 C 
ENDBRANCH  13  14
ENDBRANCH  11  13
ENDBRANCH   7   8
ENDBRANCH   6   7
ENDBRANCH   5   6
ENDBRANCH   4   5
ENDBRANCH   2   4
ENDBRANCH   1   2
BRANCH   1  19
ATOM     19  C   UNL A   1      36.342  20.276  24.981  1.00  0.00     0.274 C 
BRANCH  19  20
ATOM     20  C   UNL A   1      37.751  19.693  25.137  1.00  0.00     0.275 C 
BRANCH  20  21
ATOM     21  O   UNL A   1      38.756  20.716  25.177  1.00  0.00    -0.458 OA
BRANCH  21  22
ATOM     22  C   UNL A   1      39.703  20.516  26.135  1.00  0.00     0.338 C 
ATOM     23  O   UNL A   1      40.261  19.464  26.380  1.00  0.00    -0.246 OA
BRANCH  22  24
ATOM     24  C   UNL A   1      40.093  21.805  26.752  1.00  0.00     0.060 A 
ATOM     25  C   UNL A   1      39.457  22.959  26.279  1.00  0.00     0.016 A 
ATOM     26  C   UNL A   1      41.075  21.902  27.744  1.00  0.00     0.016 A 
ATOM     27  C   UNL A   1      39.836  24.214  26.755  1.00  0.00     0.010 A 
ATOM     28  C   UNL A   1      41.457  23.164  28.218  1.00  0.00     0.010 A 
ATOM     29  C   UNL A   1      40.865  24.327  27.698  1.00  0.00    -0.014 A 
BRANCH  29  30
ATOM     30  C   UNL A   1      41.423  25.671  28.003  1.00  0.00     0.031 A 
ATOM     31  C   UNL A   1      42.808  26.005  27.519  1.00  0.00     0.074 A 
ATOM     32  C   UNL A   1      40.696  26.595  28.653  1.00  0.00     0.049 A 
ATOM     33  N   UNL A   1      43.477  27.124  27.618  1.00  0.00    -0.248 NA
ATOM     34  C   UNL A   1      43.534  24.926  26.834  1.00  0.00     0.031 C 
ATOM     35  C   UNL A   1      39.335  26.405  29.150  1.00  0.00     0.029 A 
ATOM     36  N   UNL A   1      41.006  27.887  29.003  1.00  0.00    -0.354 N 
ATOM     37  C   UNL A   1      44.697  26.894  26.992  1.00  0.00     0.074 A 
ATOM     38  C   UNL A   1      44.694  25.508  26.571  1.00  0.00     0.031 C 
ATOM     39  C   UNL A   1      38.926  27.540  29.745  1.00  0.00     0.029 A 
ATOM     40  C   UNL A   1      40.002  28.530  29.687  1.00  0.00     0.049 A 
ATOM     41  H   UNL A   1      41.865  28.313  28.783  1.00  0.00     0.167 HD
ATOM     42  C   UNL A   1      45.718  27.758  26.770  1.00  0.00     0.034 A 
ATOM     43  C   UNL A   1      39.961  29.770  30.216  1.00  0.00     0.034 A 
ATOM     44  C   UNL A   1      45.726  29.129  27.220  1.00  0.00     0.049 A 
ATOM     45  C   UNL A   1      41.149  30.686  30.047  1.00  0.00     0.074 A 
ATOM     46  C   UNL A   1      46.702  30.093  27.036  1.00  0.00     0.029 A 
ATOM     47  N   UNL A   1      44.716  29.726  27.965  1.00  0.00    -0.354 N 
ATOM     48  N   UNL A   1      42.283  30.468  29.421  1.00  0.00    -0.248 NA
ATOM     49  C   UNL A   1      41.044  32.024  30.647  1.00  0.00     0.031 C 
ATOM     50  C   UNL A   1      46.316  31.247  27.728  1.00  0.00     0.029 A 
ATOM     51  C   UNL A   1      45.064  31.031  28.282  1.00  0.00     0.049 A 
ATOM     52  H   UNL A   1      43.876  29.287  28.229  1.00  0.00     0.167 HD
ATOM     53  C   UNL A   1      43.010  31.651  29.525  1.00  0.00     0.074 A 
ATOM     54  C   UNL A   1      42.185  32.581  30.268  1.00  0.00     0.031 C 
ATOM     55  C   UNL A   1      44.243  31.947  29.038  1.00  0.00     0.034 A 
BRANCH  42  56
ATOM     56  C   UNL A   1      46.927  27.216  26.047  1.00  0.00     0.023 A 
ATOM     57  C   UNL A   1      47.949  26.533  26.731  1.00  0.00     0.031 A 
ATOM     58  C   UNL A   1      47.090  27.434  24.668  1.00  0.00     0.131 A 
ATOM     59  C   UNL A   1      49.122  26.167  26.054  1.00  0.00     0.055 A 
ATOM     60  C   UNL A   1      48.224  26.995  23.982  1.00  0.00     0.041 A 
ATOM     61  F   UNL A   1      46.159  28.100  23.967  1.00  0.00    -0.206 F 
ATOM     62  C   UNL A   1      49.256  26.373  24.679  1.00  0.00     0.022 A 
BRANCH  59  63
ATOM     63  S   UNL A   1      50.533  25.570  27.025  1.00  0.00     0.124 S 
ATOM     64  O   UNL A   1      50.737  26.675  27.960  1.00  0.00    -0.237 OA
ATOM     65  O   UNL A   1      50.020  24.333  27.599  1.00  0.00    -0.237 OA
ATOM     66  O   UNL A   1      51.590  25.406  26.029  1.00  0.00    -0.744 OA
ENDBRANCH  59  63
ENDBRANCH  42  56
BRANCH  43  67
ATOM     67  C   UNL A   1      38.767  30.221  30.985  1.00  0.00     0.023 A 
ATOM     68  C   UNL A   1      37.741  30.956  30.373  1.00  0.00     0.031 A 
ATOM     69  C   UNL A   1      38.668  29.968  32.365  1.00  0.00     0.131 A 
ATOM     70  C   UNL A   1      36.678  31.450  31.146  1.00  0.00     0.055 A 
ATOM     71  C   UNL A   1      37.587  30.421  33.122  1.00  0.00     0.041 A 
ATOM     72  F   UNL A   1      39.626  29.272  32.997  1.00  0.00    -0.206 F 
ATOM     73  C   UNL A   1      36.589  31.177  32.515  1.00  0.00     0.022 A 
BRANCH  70  74
ATOM     74  S   UNL A   1      35.446  32.519  30.353  1.00  0.00     0.124 S 
ATOM     75  O   UNL A   1      35.171  31.792  29.119  1.00  0.00    -0.237 OA
ATOM     76  O   UNL A   1      34.373  32.533  31.343  1.00  0.00    -0.237 OA
ATOM     77  O   UNL A   1      36.152  33.788  30.187  1.00  0.00    -0.744 OA
ENDBRANCH  70  74
ENDBRANCH  43  67
BRANCH  55  78
ATOM     78  C   UNL A   1      44.754  33.351  29.259  1.00  0.00     0.023 A 
ATOM     79  C   UNL A   1      44.424  34.407  28.392  1.00  0.00     0.031 A 
ATOM     80  C   UNL A   1      45.591  33.631  30.354  1.00  0.00     0.131 A 
ATOM     81  C   UNL A   1      44.964  35.685  28.609  1.00  0.00     0.055 A 
ATOM     82  C   UNL A   1      46.083  34.915  30.595  1.00  0.00     0.041 A 
ATOM     83  F   UNL A   1      45.941  32.660  31.213  1.00  0.00    -0.206 F 
ATOM     84  C   UNL A   1      45.779  35.949  29.714  1.00  0.00     0.022 A 
BRANCH  81  85
ATOM     85  S   UNL A   1      44.652  36.987  27.384  1.00  0.00     0.124 S 
ATOM     86  O   UNL A   1      44.414  38.152  28.231  1.00  0.00    -0.237 OA
ATOM     87  O   UNL A   1      45.893  36.998  26.617  1.00  0.00    -0.237 OA
ATOM     88  O   UNL A   1      43.481  36.500  26.657  1.00  0.00    -0.744 OA
ENDBRANCH  81  85
ENDBRANCH  55  78
ENDBRANCH  29  30
ENDBRANCH  22  24
ENDBRANCH  21  22
ENDBRANCH  20  21
ENDBRANCH  19  20
ENDBRANCH   1  19
TORSDOF 20
ENDMDL
