MODEL 1
REMARK VINA RESULT:     -11.7      0.000      0.000
REMARK SMILES C[C@@H]1[C@H](C)CCC[C@H]1NC(=O)C[N@@H+]1CCC[C@@H]1C(=O)OCCOC(=O)c1ccc(-c2c3nc(c(-c4cc(S(=O)(=O)[O-])ccc4F)c4ccc([nH]4)c(-c4cc(S(=O)(=O)[O-])ccc4F)c4nc(c(-c5cc(S(=O)(=O)[O-])ccc5F)c5ccc2[nH]5)C=C4)C=C3)cc1
REMARK SMILES IDX 21 1 20 2 18 3 19 4 17 5 13 6 14 7 15 9 16 10 12 11 10 12
REMARK SMILES IDX 9 13 11 15 8 16 1 17 2 18 3 19 4 20 5 21 7 22 6 23 22 24
REMARK SMILES IDX 23 25 24 26 25 27 26 28 27 29 88 30 28 31 87 32 29 33 30 34
REMARK SMILES IDX 31 35 81 36 32 37 86 38 80 39 82 40 33 41 85 42 79 43 78 44
REMARK SMILES IDX 34 46 66 47 46 48 65 49 47 50 50 51 64 52 83 53 48 54 49 55
REMARK SMILES IDX 63 57 84 58 51 59 35 60 36 61 44 62 37 63 43 64 45 65 42 66
REMARK SMILES IDX 38 67 39 68 40 69 41 70 67 71 68 72 76 73 69 74 75 75 77 76
REMARK SMILES IDX 74 77 70 78 71 79 72 80 73 81 52 82 53 83 61 84 54 85 60 86
REMARK SMILES IDX 62 87 59 88 55 89 56 90 57 91 58 92
REMARK H PARENT 13 8 9 14 82 45 50 56
REMARK Flexibility Score: inf
ROOT
ATOM      1  C   UNL A   1      31.728  28.504  27.187  1.00  0.00     0.274 C 
ENDROOT
BRANCH   1   2
ATOM      2  O   UNL A   1      32.363  27.459  26.428  1.00  0.00    -0.458 OA
BRANCH   2   3
ATOM      3  C   UNL A   1      31.596  26.375  26.130  1.00  0.00     0.365 C 
ATOM      4  O   UNL A   1      30.641  25.996  26.801  1.00  0.00    -0.245 OA
BRANCH   3   5
ATOM      5  C   UNL A   1      32.040  25.693  24.830  1.00  0.00     0.295 C 
ATOM      6  N   UNL A   1      31.617  26.306  23.545  1.00  0.00    -0.315 N 
ATOM      7  C   UNL A   1      31.341  25.197  22.637  1.00  0.00     0.263 C 
ATOM      8  H   UNL A   1      32.369  26.865  23.142  1.00  0.00     0.349 HD
ATOM      9  C   UNL A   1      30.851  24.066  23.504  1.00  0.00     0.068 C 
ATOM     10  C   UNL A   1      31.700  24.198  24.748  1.00  0.00     0.083 C 
BRANCH   6  11
ATOM     11  C   UNL A   1      30.706  27.455  23.601  1.00  0.00     0.364 C 
BRANCH  11  12
ATOM     12  C   UNL A   1      31.152  28.660  22.783  1.00  0.00     0.275 C 
ATOM     13  N   UNL A   1      30.299  29.686  22.510  1.00  0.00    -0.348 N 
ATOM     14  H   UNL A   1      30.694  30.406  21.968  1.00  0.00     0.163 HD
ATOM     15  O   UNL A   1      32.311  28.753  22.365  1.00  0.00    -0.268 OA
BRANCH  13  16
ATOM     16  C   UNL A   1      28.894  29.909  22.878  1.00  0.00     0.085 C 
ATOM     17  C   UNL A   1      27.282  31.419  24.154  1.00  0.00     0.010 C 
ATOM     18  C   UNL A   1      28.683  31.300  23.531  1.00  0.00     0.011 C 
ATOM     19  C   UNL A   1      29.004  32.431  22.522  1.00  0.00    -0.009 C 
ATOM     20  C   UNL A   1      28.853  33.828  23.128  1.00  0.00     0.008 C 
ATOM     21  C   UNL A   1      28.174  32.298  21.235  1.00  0.00     0.004 C 
ATOM     22  C   UNL A   1      28.028  29.777  21.615  1.00  0.00     0.025 C 
ATOM     23  C   UNL A   1      28.277  30.906  20.611  1.00  0.00     0.002 C 
ENDBRANCH  13  16
ENDBRANCH  11  12
ENDBRANCH   6  11
ENDBRANCH   3   5
ENDBRANCH   2   3
ENDBRANCH   1   2
BRANCH   1  24
ATOM     24  C   UNL A   1      31.608  29.744  26.302  1.00  0.00     0.275 C 
BRANCH  24  25
ATOM     25  O   UNL A   1      32.915  30.324  26.106  1.00  0.00    -0.458 OA
BRANCH  25  26
ATOM     26  C   UNL A   1      33.258  31.311  26.967  1.00  0.00     0.338 C 
ATOM     27  O   UNL A   1      32.615  32.308  27.244  1.00  0.00    -0.246 OA
BRANCH  26  28
ATOM     28  C   UNL A   1      34.576  31.020  27.557  1.00  0.00     0.060 A 
ATOM     29  C   UNL A   1      34.923  29.709  27.883  1.00  0.00     0.016 A 
ATOM     30  C   UNL A   1      35.424  32.073  27.894  1.00  0.00     0.016 A 
ATOM     31  C   UNL A   1      36.082  29.451  28.613  1.00  0.00     0.010 A 
ATOM     32  C   UNL A   1      36.631  31.802  28.548  1.00  0.00     0.010 A 
ATOM     33  C   UNL A   1      36.960  30.492  28.942  1.00  0.00    -0.014 A 
BRANCH  33  34
ATOM     34  C   UNL A   1      38.204  30.228  29.720  1.00  0.00     0.031 A 
ATOM     35  C   UNL A   1      39.265  29.322  29.151  1.00  0.00     0.074 A 
ATOM     36  C   UNL A   1      38.383  30.788  30.934  1.00  0.00     0.049 A 
ATOM     37  N   UNL A   1      40.303  28.787  29.741  1.00  0.00    -0.248 NA
ATOM     38  C   UNL A   1      39.128  28.963  27.732  1.00  0.00     0.031 C 
ATOM     39  C   UNL A   1      37.464  31.728  31.579  1.00  0.00     0.029 A 
ATOM     40  N   UNL A   1      39.397  30.639  31.850  1.00  0.00    -0.354 N 
ATOM     41  C   UNL A   1      40.924  27.998  28.777  1.00  0.00     0.074 A 
ATOM     42  C   UNL A   1      40.131  28.112  27.570  1.00  0.00     0.031 C 
ATOM     43  C   UNL A   1      37.959  32.079  32.775  1.00  0.00     0.029 A 
ATOM     44  C   UNL A   1      39.182  31.325  33.024  1.00  0.00     0.049 A 
ATOM     45  H   UNL A   1      40.200  30.095  31.682  1.00  0.00     0.167 HD
ATOM     46  C   UNL A   1      42.050  27.249  28.890  1.00  0.00     0.034 A 
ATOM     47  C   UNL A   1      39.859  31.308  34.190  1.00  0.00     0.034 A 
ATOM     48  C   UNL A   1      42.838  27.161  30.096  1.00  0.00     0.049 A 
ATOM     49  C   UNL A   1      41.074  30.425  34.312  1.00  0.00     0.074 A 
ATOM     50  C   UNL A   1      43.974  26.406  30.334  1.00  0.00     0.029 A 
ATOM     51  N   UNL A   1      42.581  27.866  31.265  1.00  0.00    -0.354 N 
ATOM     52  N   UNL A   1      41.602  29.619  33.419  1.00  0.00    -0.248 NA
ATOM     53  C   UNL A   1      41.783  30.445  35.599  1.00  0.00     0.031 C 
ATOM     54  C   UNL A   1      44.377  26.621  31.659  1.00  0.00     0.029 A 
ATOM     55  C   UNL A   1      43.530  27.557  32.227  1.00  0.00     0.049 A 
ATOM     56  H   UNL A   1      41.833  28.493  31.392  1.00  0.00     0.167 HD
ATOM     57  C   UNL A   1      42.714  29.052  34.033  1.00  0.00     0.074 A 
ATOM     58  C   UNL A   1      42.794  29.623  35.362  1.00  0.00     0.031 C 
ATOM     59  C   UNL A   1      43.590  28.137  33.547  1.00  0.00     0.034 A 
BRANCH  46  60
ATOM     60  C   UNL A   1      42.459  26.426  27.693  1.00  0.00     0.023 A 
ATOM     61  C   UNL A   1      42.033  25.097  27.526  1.00  0.00     0.031 A 
ATOM     62  C   UNL A   1      43.307  26.975  26.715  1.00  0.00     0.131 A 
ATOM     63  C   UNL A   1      42.503  24.344  26.439  1.00  0.00     0.055 A 
ATOM     64  C   UNL A   1      43.715  26.243  25.598  1.00  0.00     0.041 A 
ATOM     65  F   UNL A   1      43.763  28.232  26.833  1.00  0.00    -0.206 F 
ATOM     66  C   UNL A   1      43.321  24.915  25.461  1.00  0.00     0.022 A 
BRANCH  63  67
ATOM     67  S   UNL A   1      42.123  22.571  26.380  1.00  0.00     0.124 S 
ATOM     68  O   UNL A   1      42.949  22.131  25.258  1.00  0.00    -0.237 OA
ATOM     69  O   UNL A   1      42.541  22.113  27.699  1.00  0.00    -0.237 OA
ATOM     70  O   UNL A   1      40.682  22.538  26.135  1.00  0.00    -0.744 OA
ENDBRANCH  63  67
ENDBRANCH  46  60
BRANCH  47  71
ATOM     71  C   UNL A   1      39.366  32.088  35.363  1.00  0.00     0.023 A 
ATOM     72  C   UNL A   1      39.759  33.419  35.570  1.00  0.00     0.031 A 
ATOM     73  C   UNL A   1      38.534  31.489  36.327  1.00  0.00     0.131 A 
ATOM     74  C   UNL A   1      39.360  34.093  36.735  1.00  0.00     0.055 A 
ATOM     75  C   UNL A   1      38.091  32.181  37.454  1.00  0.00     0.041 A 
ATOM     76  F   UNL A   1      38.131  30.216  36.181  1.00  0.00    -0.206 F 
ATOM     77  C   UNL A   1      38.517  33.488  37.671  1.00  0.00     0.022 A 
BRANCH  74  78
ATOM     78  S   UNL A   1      40.044  35.741  37.064  1.00  0.00     0.124 S 
ATOM     79  O   UNL A   1      41.466  35.450  37.207  1.00  0.00    -0.237 OA
ATOM     80  O   UNL A   1      39.656  36.473  35.863  1.00  0.00    -0.237 OA
ATOM     81  O   UNL A   1      39.364  36.152  38.290  1.00  0.00    -0.744 OA
ENDBRANCH  74  78
ENDBRANCH  47  71
BRANCH  59  82
ATOM     82  C   UNL A   1      44.734  27.748  34.447  1.00  0.00     0.023 A 
ATOM     83  C   UNL A   1      44.645  26.650  35.321  1.00  0.00     0.031 A 
ATOM     84  C   UNL A   1      45.919  28.503  34.447  1.00  0.00     0.131 A 
ATOM     85  C   UNL A   1      45.703  26.371  36.199  1.00  0.00     0.055 A 
ATOM     86  C   UNL A   1      46.988  28.190  35.286  1.00  0.00     0.041 A 
ATOM     87  F   UNL A   1      46.053  29.562  33.632  1.00  0.00    -0.206 F 
ATOM     88  C   UNL A   1      46.879  27.126  36.177  1.00  0.00     0.022 A 
BRANCH  85  89
ATOM     89  S   UNL A   1      45.491  25.054  37.428  1.00  0.00     0.124 S 
ATOM     90  O   UNL A   1      46.655  24.210  37.174  1.00  0.00    -0.237 OA
ATOM     91  O   UNL A   1      45.501  25.794  38.685  1.00  0.00    -0.237 OA
ATOM     92  O   UNL A   1      44.204  24.457  37.072  1.00  0.00    -0.744 OA
ENDBRANCH  85  89
ENDBRANCH  59  82
ENDBRANCH  33  34
ENDBRANCH  26  28
ENDBRANCH  25  26
ENDBRANCH  24  25
ENDBRANCH   1  24
TORSDOF 17
ENDMDL
MODEL 2
REMARK VINA RESULT:     -11.7      5.135      9.888
REMARK SMILES C[C@@H]1[C@H](C)CCC[C@H]1NC(=O)C[N@@H+]1CCC[C@@H]1C(=O)OCCOC(=O)c1ccc(-c2c3nc(c(-c4cc(S(=O)(=O)[O-])ccc4F)c4ccc([nH]4)c(-c4cc(S(=O)(=O)[O-])ccc4F)c4nc(c(-c5cc(S(=O)(=O)[O-])ccc5F)c5ccc2[nH]5)C=C4)C=C3)cc1
REMARK SMILES IDX 21 1 20 2 18 3 19 4 17 5 13 6 14 7 15 9 16 10 12 11 10 12
REMARK SMILES IDX 9 13 11 15 8 16 1 17 2 18 3 19 4 20 5 21 7 22 6 23 22 24
REMARK SMILES IDX 23 25 24 26 25 27 26 28 27 29 88 30 28 31 87 32 29 33 30 34
REMARK SMILES IDX 31 35 81 36 32 37 86 38 80 39 82 40 33 41 85 42 79 43 78 44
REMARK SMILES IDX 34 46 66 47 46 48 65 49 47 50 50 51 64 52 83 53 48 54 49 55
REMARK SMILES IDX 63 57 84 58 51 59 35 60 36 61 44 62 37 63 43 64 45 65 42 66
REMARK SMILES IDX 38 67 39 68 40 69 41 70 67 71 68 72 76 73 69 74 75 75 77 76
REMARK SMILES IDX 74 77 70 78 71 79 72 80 73 81 52 82 53 83 61 84 54 85 60 86
REMARK SMILES IDX 62 87 59 88 55 89 56 90 57 91 58 92
REMARK H PARENT 13 8 9 14 82 45 50 56
REMARK Flexibility Score: inf
ROOT
ATOM      1  C   UNL A   1      35.663  22.634  24.483  1.00  0.00     0.274 C 
ENDROOT
BRANCH   1   2
ATOM      2  O   UNL A   1      35.010  22.609  23.201  1.00  0.00    -0.458 OA
BRANCH   2   3
ATOM      3  C   UNL A   1      33.940  23.437  23.048  1.00  0.00     0.365 C 
ATOM      4  O   UNL A   1      34.010  24.587  22.626  1.00  0.00    -0.245 OA
BRANCH   3   5
ATOM      5  C   UNL A   1      32.622  22.756  23.433  1.00  0.00     0.295 C 
ATOM      6  N   UNL A   1      32.027  23.090  24.752  1.00  0.00    -0.315 N 
ATOM      7  C   UNL A   1      31.437  21.854  25.257  1.00  0.00     0.263 C 
ATOM      8  H   UNL A   1      31.281  23.778  24.652  1.00  0.00     0.349 HD
ATOM      9  C   UNL A   1      32.290  20.737  24.711  1.00  0.00     0.068 C 
ATOM     10  C   UNL A   1      32.642  21.224  23.324  1.00  0.00     0.083 C 
BRANCH   6  11
ATOM     11  C   UNL A   1      32.796  23.959  25.650  1.00  0.00     0.364 C 
BRANCH  11  12
ATOM     12  C   UNL A   1      31.952  24.885  26.516  1.00  0.00     0.275 C 
ATOM     13  N   UNL A   1      32.162  26.230  26.529  1.00  0.00    -0.348 N 
ATOM     14  H   UNL A   1      31.563  26.727  27.131  1.00  0.00     0.163 HD
ATOM     15  O   UNL A   1      31.033  24.443  27.214  1.00  0.00    -0.268 OA
BRANCH  13  16
ATOM     16  C   UNL A   1      33.126  27.073  25.806  1.00  0.00     0.085 C 
ATOM     17  C   UNL A   1      33.592  28.317  23.630  1.00  0.00     0.010 C 
ATOM     18  C   UNL A   1      32.513  27.668  24.511  1.00  0.00     0.011 C 
ATOM     19  C   UNL A   1      31.341  28.622  24.850  1.00  0.00    -0.009 C 
ATOM     20  C   UNL A   1      30.671  29.205  23.604  1.00  0.00     0.008 C 
ATOM     21  C   UNL A   1      31.775  29.738  25.813  1.00  0.00     0.004 C 
ATOM     22  C   UNL A   1      33.591  28.200  26.741  1.00  0.00     0.025 C 
ATOM     23  C   UNL A   1      32.474  29.197  27.061  1.00  0.00     0.002 C 
ENDBRANCH  13  16
ENDBRANCH  11  12
ENDBRANCH   6  11
ENDBRANCH   3   5
ENDBRANCH   2   3
ENDBRANCH   1   2
BRANCH   1  24
ATOM     24  C   UNL A   1      36.649  21.469  24.550  1.00  0.00     0.275 C 
BRANCH  24  25
ATOM     25  O   UNL A   1      37.251  21.421  25.860  1.00  0.00    -0.458 OA
BRANCH  25  26
ATOM     26  C   UNL A   1      38.594  21.262  25.888  1.00  0.00     0.338 C 
ATOM     27  O   UNL A   1      39.233  20.299  25.502  1.00  0.00    -0.246 OA
BRANCH  26  28
ATOM     28  C   UNL A   1      39.224  22.456  26.479  1.00  0.00     0.060 A 
ATOM     29  C   UNL A   1      38.777  23.729  26.127  1.00  0.00     0.016 A 
ATOM     30  C   UNL A   1      40.341  22.307  27.298  1.00  0.00     0.016 A 
ATOM     31  C   UNL A   1      39.489  24.858  26.529  1.00  0.00     0.010 A 
ATOM     32  C   UNL A   1      41.000  23.445  27.776  1.00  0.00     0.010 A 
ATOM     33  C   UNL A   1      40.601  24.732  27.373  1.00  0.00    -0.014 A 
BRANCH  33  34
ATOM     34  C   UNL A   1      41.368  25.932  27.812  1.00  0.00     0.031 A 
ATOM     35  C   UNL A   1      40.688  26.996  28.635  1.00  0.00     0.074 A 
ATOM     36  C   UNL A   1      42.665  26.078  27.472  1.00  0.00     0.049 A 
ATOM     37  N   UNL A   1      41.094  28.205  28.929  1.00  0.00    -0.248 NA
ATOM     38  C   UNL A   1      39.369  26.654  29.186  1.00  0.00     0.031 C 
ATOM     39  C   UNL A   1      43.462  25.100  26.728  1.00  0.00     0.029 A 
ATOM     40  N   UNL A   1      43.542  27.112  27.698  1.00  0.00    -0.354 N 
ATOM     41  C   UNL A   1      40.067  28.782  29.670  1.00  0.00     0.074 A 
ATOM     42  C   UNL A   1      39.012  27.794  29.760  1.00  0.00     0.031 C 
ATOM     43  C   UNL A   1      44.707  25.574  26.570  1.00  0.00     0.029 A 
ATOM     44  C   UNL A   1      44.777  26.923  27.119  1.00  0.00     0.049 A 
ATOM     45  H   UNL A   1      43.309  27.911  28.224  1.00  0.00     0.167 HD
ATOM     46  C   UNL A   1      40.011  30.021  30.220  1.00  0.00     0.034 A 
ATOM     47  C   UNL A   1      45.828  27.757  26.994  1.00  0.00     0.034 A 
ATOM     48  C   UNL A   1      41.080  30.986  30.135  1.00  0.00     0.049 A 
ATOM     49  C   UNL A   1      45.722  29.149  27.565  1.00  0.00     0.074 A 
ATOM     50  C   UNL A   1      41.118  32.282  30.624  1.00  0.00     0.029 A 
ATOM     51  N   UNL A   1      42.311  30.757  29.533  1.00  0.00    -0.354 N 
ATOM     52  N   UNL A   1      44.713  29.711  28.189  1.00  0.00    -0.248 NA
ATOM     53  C   UNL A   1      46.895  30.020  27.410  1.00  0.00     0.031 C 
ATOM     54  C   UNL A   1      42.352  32.848  30.279  1.00  0.00     0.029 A 
ATOM     55  C   UNL A   1      43.109  31.887  29.632  1.00  0.00     0.049 A 
ATOM     56  H   UNL A   1      42.577  29.915  29.100  1.00  0.00     0.167 HD
ATOM     57  C   UNL A   1      45.138  30.994  28.515  1.00  0.00     0.074 A 
ATOM     58  C   UNL A   1      46.501  31.116  28.040  1.00  0.00     0.031 C 
ATOM     59  C   UNL A   1      44.464  31.988  29.148  1.00  0.00     0.034 A 
BRANCH  46  60
ATOM     60  C   UNL A   1      38.730  30.414  30.915  1.00  0.00     0.023 A 
ATOM     61  C   UNL A   1      37.670  31.027  30.225  1.00  0.00     0.031 A 
ATOM     62  C   UNL A   1      38.577  30.191  32.295  1.00  0.00     0.131 A 
ATOM     63  C   UNL A   1      36.530  31.449  30.927  1.00  0.00     0.055 A 
ATOM     64  C   UNL A   1      37.411  30.549  32.974  1.00  0.00     0.041 A 
ATOM     65  F   UNL A   1      39.565  29.629  33.010  1.00  0.00    -0.206 F 
ATOM     66  C   UNL A   1      36.383  31.192  32.291  1.00  0.00     0.022 A 
BRANCH  63  67
ATOM     67  S   UNL A   1      35.289  32.441  30.053  1.00  0.00     0.124 S 
ATOM     68  O   UNL A   1      36.073  33.608  29.654  1.00  0.00    -0.237 OA
ATOM     69  O   UNL A   1      34.874  31.552  28.974  1.00  0.00    -0.237 OA
ATOM     70  O   UNL A   1      34.275  32.698  31.074  1.00  0.00    -0.744 OA
ENDBRANCH  63  67
ENDBRANCH  46  60
BRANCH  47  71
ATOM     71  C   UNL A   1      47.042  27.338  26.235  1.00  0.00     0.023 A 
ATOM     72  C   UNL A   1      47.244  27.739  24.905  1.00  0.00     0.031 A 
ATOM     73  C   UNL A   1      47.993  26.480  26.816  1.00  0.00     0.131 A 
ATOM     74  C   UNL A   1      48.344  27.245  24.186  1.00  0.00     0.055 A 
ATOM     75  C   UNL A   1      49.117  26.039  26.116  1.00  0.00     0.041 A 
ATOM     76  F   UNL A   1      47.848  26.061  28.084  1.00  0.00    -0.206 F 
ATOM     77  C   UNL A   1      49.289  26.410  24.787  1.00  0.00     0.022 A 
BRANCH  74  78
ATOM     78  S   UNL A   1      48.468  27.628  22.417  1.00  0.00     0.124 S 
ATOM     79  O   UNL A   1      49.687  28.427  22.369  1.00  0.00    -0.237 OA
ATOM     80  O   UNL A   1      48.550  26.296  21.826  1.00  0.00    -0.237 OA
ATOM     81  O   UNL A   1      47.232  28.356  22.139  1.00  0.00    -0.744 OA
ENDBRANCH  74  78
ENDBRANCH  47  71
BRANCH  59  82
ATOM     82  C   UNL A   1      45.220  33.266  29.402  1.00  0.00     0.023 A 
ATOM     83  C   UNL A   1      45.225  34.318  28.471  1.00  0.00     0.031 A 
ATOM     84  C   UNL A   1      45.967  33.419  30.583  1.00  0.00     0.131 A 
ATOM     85  C   UNL A   1      46.006  35.459  28.711  1.00  0.00     0.055 A 
ATOM     86  C   UNL A   1      46.702  34.576  30.840  1.00  0.00     0.041 A 
ATOM     87  F   UNL A   1      45.997  32.442  31.503  1.00  0.00    -0.206 F 
ATOM     88  C   UNL A   1      46.734  35.599  29.896  1.00  0.00     0.022 A 
BRANCH  85  89
ATOM     89  S   UNL A   1      46.122  36.724  27.417  1.00  0.00     0.124 S 
ATOM     90  O   UNL A   1      44.984  37.583  27.728  1.00  0.00    -0.237 OA
ATOM     91  O   UNL A   1      47.441  37.299  27.659  1.00  0.00    -0.237 OA
ATOM     92  O   UNL A   1      46.001  35.958  26.177  1.00  0.00    -0.744 OA
ENDBRANCH  85  89
ENDBRANCH  59  82
ENDBRANCH  33  34
ENDBRANCH  26  28
ENDBRANCH  25  26
ENDBRANCH  24  25
ENDBRANCH   1  24
TORSDOF 17
ENDMDL
MODEL 3
REMARK VINA RESULT:     -11.6      2.066      4.098
REMARK SMILES C[C@@H]1[C@H](C)CCC[C@H]1NC(=O)C[N@@H+]1CCC[C@@H]1C(=O)OCCOC(=O)c1ccc(-c2c3nc(c(-c4cc(S(=O)(=O)[O-])ccc4F)c4ccc([nH]4)c(-c4cc(S(=O)(=O)[O-])ccc4F)c4nc(c(-c5cc(S(=O)(=O)[O-])ccc5F)c5ccc2[nH]5)C=C4)C=C3)cc1
REMARK SMILES IDX 21 1 20 2 18 3 19 4 17 5 13 6 14 7 15 9 16 10 12 11 10 12
REMARK SMILES IDX 9 13 11 15 8 16 1 17 2 18 3 19 4 20 5 21 7 22 6 23 22 24
REMARK SMILES IDX 23 25 24 26 25 27 26 28 27 29 88 30 28 31 87 32 29 33 30 34
REMARK SMILES IDX 31 35 81 36 32 37 86 38 80 39 82 40 33 41 85 42 79 43 78 44
REMARK SMILES IDX 34 46 66 47 46 48 65 49 47 50 50 51 64 52 83 53 48 54 49 55
REMARK SMILES IDX 63 57 84 58 51 59 35 60 36 61 44 62 37 63 43 64 45 65 42 66
REMARK SMILES IDX 38 67 39 68 40 69 41 70 67 71 68 72 76 73 69 74 75 75 77 76
REMARK SMILES IDX 74 77 70 78 71 79 72 80 73 81 52 82 53 83 61 84 54 85 60 86
REMARK SMILES IDX 62 87 59 88 55 89 56 90 57 91 58 92
REMARK H PARENT 13 8 9 14 82 45 50 56
REMARK Flexibility Score: inf
ROOT
ATOM      1  C   UNL A   1      31.970  27.992  27.138  1.00  0.00     0.274 C 
ENDROOT
BRANCH   1   2
ATOM      2  O   UNL A   1      30.822  27.284  26.637  1.00  0.00    -0.458 OA
BRANCH   2   3
ATOM      3  C   UNL A   1      31.037  26.014  26.197  1.00  0.00     0.365 C 
ATOM      4  O   UNL A   1      31.560  25.129  26.867  1.00  0.00    -0.245 OA
BRANCH   3   5
ATOM      5  C   UNL A   1      30.517  25.799  24.770  1.00  0.00     0.295 C 
ATOM      6  N   UNL A   1      31.510  25.781  23.666  1.00  0.00    -0.315 N 
ATOM      7  C   UNL A   1      30.867  26.435  22.530  1.00  0.00     0.263 C 
ATOM      8  H   UNL A   1      31.735  24.824  23.394  1.00  0.00     0.349 HD
ATOM      9  C   UNL A   1      29.929  27.457  23.120  1.00  0.00     0.068 C 
ATOM     10  C   UNL A   1      29.396  26.761  24.351  1.00  0.00     0.083 C 
BRANCH   6  11
ATOM     11  C   UNL A   1      32.907  26.085  23.995  1.00  0.00     0.364 C 
BRANCH  11  12
ATOM     12  C   UNL A   1      33.935  25.291  23.199  1.00  0.00     0.275 C 
ATOM     13  N   UNL A   1      34.780  24.415  23.808  1.00  0.00    -0.348 N 
ATOM     14  H   UNL A   1      35.406  23.965  23.195  1.00  0.00     0.163 HD
ATOM     15  O   UNL A   1      34.013  25.402  21.971  1.00  0.00    -0.268 OA
BRANCH  13  16
ATOM     16  C   UNL A   1      34.927  24.022  25.216  1.00  0.00     0.085 C 
ATOM     17  C   UNL A   1      34.040  22.506  27.066  1.00  0.00     0.010 C 
ATOM     18  C   UNL A   1      34.100  22.752  25.550  1.00  0.00     0.011 C 
ATOM     19  C   UNL A   1      34.623  21.533  24.750  1.00  0.00    -0.009 C 
ATOM     20  C   UNL A   1      33.814  20.261  25.009  1.00  0.00     0.008 C 
ATOM     21  C   UNL A   1      36.121  21.292  24.997  1.00  0.00     0.004 C 
ATOM     22  C   UNL A   1      36.416  23.777  25.505  1.00  0.00     0.025 C 
ATOM     23  C   UNL A   1      36.963  22.548  24.773  1.00  0.00     0.002 C 
ENDBRANCH  13  16
ENDBRANCH  11  12
ENDBRANCH   6  11
ENDBRANCH   3   5
ENDBRANCH   2   3
ENDBRANCH   1   2
BRANCH   1  24
ATOM     24  C   UNL A   1      31.761  29.487  26.900  1.00  0.00     0.275 C 
BRANCH  24  25
ATOM     25  O   UNL A   1      32.989  30.076  26.424  1.00  0.00    -0.458 OA
BRANCH  25  26
ATOM     26  C   UNL A   1      33.425  31.163  27.102  1.00  0.00     0.338 C 
ATOM     27  O   UNL A   1      32.845  32.223  27.251  1.00  0.00    -0.246 OA
BRANCH  26  28
ATOM     28  C   UNL A   1      34.762  30.896  27.662  1.00  0.00     0.060 A 
ATOM     29  C   UNL A   1      35.125  29.597  28.016  1.00  0.00     0.016 A 
ATOM     30  C   UNL A   1      35.612  31.963  27.945  1.00  0.00     0.016 A 
ATOM     31  C   UNL A   1      36.305  29.367  28.721  1.00  0.00     0.010 A 
ATOM     32  C   UNL A   1      36.839  31.718  28.572  1.00  0.00     0.010 A 
ATOM     33  C   UNL A   1      37.187  30.422  28.994  1.00  0.00    -0.014 A 
BRANCH  33  34
ATOM     34  C   UNL A   1      38.453  30.188  29.744  1.00  0.00     0.031 A 
ATOM     35  C   UNL A   1      39.496  29.258  29.181  1.00  0.00     0.074 A 
ATOM     36  C   UNL A   1      38.669  30.795  30.930  1.00  0.00     0.049 A 
ATOM     37  N   UNL A   1      40.552  28.745  29.760  1.00  0.00    -0.248 NA
ATOM     38  C   UNL A   1      39.316  28.842  27.782  1.00  0.00     0.031 C 
ATOM     39  C   UNL A   1      37.770  31.762  31.564  1.00  0.00     0.029 A 
ATOM     40  N   UNL A   1      39.710  30.681  31.819  1.00  0.00    -0.354 N 
ATOM     41  C   UNL A   1      41.143  27.917  28.810  1.00  0.00     0.074 A 
ATOM     42  C   UNL A   1      40.314  27.984  27.624  1.00  0.00     0.031 C 
ATOM     43  C   UNL A   1      38.301  32.159  32.729  1.00  0.00     0.029 A 
ATOM     44  C   UNL A   1      39.531  31.414  32.971  1.00  0.00     0.049 A 
ATOM     45  H   UNL A   1      40.507  30.130  31.649  1.00  0.00     0.167 HD
ATOM     46  C   UNL A   1      42.271  27.171  28.920  1.00  0.00     0.034 A 
ATOM     47  C   UNL A   1      40.243  31.443  34.116  1.00  0.00     0.034 A 
ATOM     48  C   UNL A   1      43.095  27.131  30.103  1.00  0.00     0.049 A 
ATOM     49  C   UNL A   1      41.461  30.564  34.236  1.00  0.00     0.074 A 
ATOM     50  C   UNL A   1      44.238  26.384  30.338  1.00  0.00     0.029 A 
ATOM     51  N   UNL A   1      42.874  27.883  31.251  1.00  0.00    -0.354 N 
ATOM     52  N   UNL A   1      41.961  29.722  33.361  1.00  0.00    -0.248 NA
ATOM     53  C   UNL A   1      42.208  30.634  35.499  1.00  0.00     0.031 C 
ATOM     54  C   UNL A   1      44.681  26.652  31.640  1.00  0.00     0.029 A 
ATOM     55  C   UNL A   1      43.852  27.611  32.195  1.00  0.00     0.049 A 
ATOM     56  H   UNL A   1      42.130  28.515  31.375  1.00  0.00     0.167 HD
ATOM     57  C   UNL A   1      43.091  29.178  33.964  1.00  0.00     0.074 A 
ATOM     58  C   UNL A   1      43.211  29.802  35.266  1.00  0.00     0.031 C 
ATOM     59  C   UNL A   1      43.952  28.243  33.488  1.00  0.00     0.034 A 
BRANCH  46  60
ATOM     60  C   UNL A   1      42.644  26.301  27.745  1.00  0.00     0.023 A 
ATOM     61  C   UNL A   1      42.096  25.018  27.568  1.00  0.00     0.031 A 
ATOM     62  C   UNL A   1      43.580  26.754  26.798  1.00  0.00     0.131 A 
ATOM     63  C   UNL A   1      42.531  24.212  26.505  1.00  0.00     0.055 A 
ATOM     64  C   UNL A   1      43.957  25.974  25.702  1.00  0.00     0.041 A 
ATOM     65  F   UNL A   1      44.153  27.961  26.927  1.00  0.00    -0.206 F 
ATOM     66  C   UNL A   1      43.439  24.690  25.558  1.00  0.00     0.022 A 
BRANCH  63  67
ATOM     67  S   UNL A   1      41.980  22.485  26.441  1.00  0.00     0.124 S 
ATOM     68  O   UNL A   1      42.526  22.050  25.157  1.00  0.00    -0.237 OA
ATOM     69  O   UNL A   1      42.602  21.910  27.628  1.00  0.00    -0.237 OA
ATOM     70  O   UNL A   1      40.523  22.589  26.488  1.00  0.00    -0.744 OA
ENDBRANCH  63  67
ENDBRANCH  46  60
BRANCH  47  71
ATOM     71  C   UNL A   1      39.786  32.271  35.271  1.00  0.00     0.023 A 
ATOM     72  C   UNL A   1      39.016  31.716  36.304  1.00  0.00     0.031 A 
ATOM     73  C   UNL A   1      40.069  33.648  35.326  1.00  0.00     0.131 A 
ATOM     74  C   UNL A   1      38.516  32.541  37.325  1.00  0.00     0.055 A 
ATOM     75  C   UNL A   1      39.620  34.454  36.373  1.00  0.00     0.041 A 
ATOM     76  F   UNL A   1      40.798  34.232  34.361  1.00  0.00    -0.206 F 
ATOM     77  C   UNL A   1      38.825  33.903  37.373  1.00  0.00     0.022 A 
BRANCH  74  78
ATOM     78  S   UNL A   1      37.367  31.830  38.534  1.00  0.00     0.124 S 
ATOM     79  O   UNL A   1      37.198  30.474  38.022  1.00  0.00    -0.237 OA
ATOM     80  O   UNL A   1      38.120  31.957  39.777  1.00  0.00    -0.237 OA
ATOM     81  O   UNL A   1      36.189  32.688  38.430  1.00  0.00    -0.744 OA
ENDBRANCH  74  78
ENDBRANCH  47  71
BRANCH  59  82
ATOM     82  C   UNL A   1      45.122  27.888  34.369  1.00  0.00     0.023 A 
ATOM     83  C   UNL A   1      45.051  26.843  35.305  1.00  0.00     0.031 A 
ATOM     84  C   UNL A   1      46.315  28.627  34.285  1.00  0.00     0.131 A 
ATOM     85  C   UNL A   1      46.137  26.597  36.159  1.00  0.00     0.055 A 
ATOM     86  C   UNL A   1      47.409  28.346  35.103  1.00  0.00     0.041 A 
ATOM     87  F   UNL A   1      46.432  29.637  33.408  1.00  0.00    -0.206 F 
ATOM     88  C   UNL A   1      47.319  27.334  36.055  1.00  0.00     0.022 A 
BRANCH  85  89
ATOM     89  S   UNL A   1      45.953  25.353  37.466  1.00  0.00     0.124 S 
ATOM     90  O   UNL A   1      47.255  24.695  37.445  1.00  0.00    -0.237 OA
ATOM     91  O   UNL A   1      45.671  26.172  38.640  1.00  0.00    -0.237 OA
ATOM     92  O   UNL A   1      44.835  24.532  37.002  1.00  0.00    -0.744 OA
ENDBRANCH  85  89
ENDBRANCH  59  82
ENDBRANCH  33  34
ENDBRANCH  26  28
ENDBRANCH  25  26
ENDBRANCH  24  25
ENDBRANCH   1  24
TORSDOF 17
ENDMDL
