MODEL 1
REMARK VINA RESULT:     -12.2      0.000      0.000
REMARK SMILES C[C@H](c1ccc(C(=O)OCCOC(=O)c2ccc(-c3c4nc(c(-c5cc(S(=O)(=O)[O-])ccc5F)c5ccc([nH]5)c(-c5cc(S(=O)(=O)[O-])ccc5F)c5nc(c(-c6cc(S(=O)(=O)[O-])ccc6F)c6ccc3[nH]6)C=C5)C=C4)cc2)o1)[NH+]1Cc2ccccc2C1
REMARK SMILES IDX 11 1 10 2 9 3 7 4 8 5 6 6 3 7 4 8 78 9 5 10 2 11 1 12 79 13
REMARK SMILES IDX 80 14 87 15 81 17 86 18 82 19 85 20 83 21 84 22 12 23 13 24
REMARK SMILES IDX 14 25 15 26 16 27 77 28 17 29 76 30 18 31 19 32 20 33 70 34
REMARK SMILES IDX 21 35 75 36 69 37 71 38 22 39 74 40 68 41 67 42 23 44 55 45
REMARK SMILES IDX 35 46 54 47 36 48 39 49 53 50 72 51 37 52 38 53 52 55 73 56
REMARK SMILES IDX 40 57 24 58 25 59 33 60 26 61 32 62 34 63 31 64 27 65 28 66
REMARK SMILES IDX 29 67 30 68 56 69 57 70 65 71 58 72 64 73 66 74 63 75 59 76
REMARK SMILES IDX 60 77 61 78 62 79 41 80 42 81 50 82 43 83 49 84 51 85 48 86
REMARK SMILES IDX 44 87 45 88 46 89 47 90
REMARK H PARENT 79 16 71 43 39 54
REMARK Flexibility Score: inf
ROOT
ATOM      1  C   UNL A   1      36.107  20.603  25.037  1.00  0.00     0.275 C 
ENDROOT
BRANCH   1   2
ATOM      2  C   UNL A   1      34.626  20.991  25.103  1.00  0.00     0.275 C 
BRANCH   2   3
ATOM      3  O   UNL A   1      34.467  22.187  25.880  1.00  0.00    -0.456 OA
BRANCH   3   4
ATOM      4  C   UNL A   1      33.200  22.708  25.972  1.00  0.00     0.374 C 
ATOM      5  O   UNL A   1      32.238  22.110  26.411  1.00  0.00    -0.242 OA
BRANCH   4   6
ATOM      6  C   UNL A   1      33.265  24.103  25.591  1.00  0.00     0.212 A 
ATOM      7  C   UNL A   1      32.477  26.151  25.347  1.00  0.00     0.162 A 
ATOM      8  C   UNL A   1      33.858  26.245  25.424  1.00  0.00     0.053 A 
ATOM      9  O   UNL A   1      32.106  24.838  25.459  1.00  0.00    -0.448 OA
ATOM     10  C   UNL A   1      34.357  24.935  25.451  1.00  0.00     0.059 A 
BRANCH   7  11
ATOM     11  C   UNL A   1      31.396  27.217  25.170  1.00  0.00     0.248 C 
ATOM     12  C   UNL A   1      31.876  28.497  25.892  1.00  0.00     0.084 C 
BRANCH  11  13
ATOM     13  N   UNL A   1      30.975  27.304  23.737  1.00  0.00    -0.319 N 
ATOM     14  C   UNL A   1      31.273  28.613  23.137  1.00  0.00     0.300 C 
ATOM     15  C   UNL A   1      29.503  27.126  23.454  1.00  0.00     0.300 C 
ATOM     16  H   UNL A   1      31.509  26.528  23.343  1.00  0.00     0.349 HD
ATOM     17  C   UNL A   1      30.024  29.389  23.301  1.00  0.00     0.015 A 
ATOM     18  C   UNL A   1      28.985  28.501  23.087  1.00  0.00     0.015 A 
ATOM     19  C   UNL A   1      29.769  30.658  23.765  1.00  0.00     0.010 A 
ATOM     20  C   UNL A   1      27.715  28.966  22.820  1.00  0.00     0.010 A 
ATOM     21  C   UNL A   1      28.451  31.104  23.712  1.00  0.00     0.001 A 
ATOM     22  C   UNL A   1      27.457  30.306  23.119  1.00  0.00     0.001 A 
ENDBRANCH  11  13
ENDBRANCH   7  11
ENDBRANCH   4   6
ENDBRANCH   3   4
ENDBRANCH   2   3
ENDBRANCH   1   2
BRANCH   1  23
ATOM     23  O   UNL A   1      36.929  21.540  25.761  1.00  0.00    -0.458 OA
BRANCH  23  24
ATOM     24  C   UNL A   1      38.251  21.239  25.813  1.00  0.00     0.338 C 
ATOM     25  O   UNL A   1      38.779  20.207  25.436  1.00  0.00    -0.246 OA
BRANCH  24  26
ATOM     26  C   UNL A   1      39.006  22.411  26.290  1.00  0.00     0.060 A 
ATOM     27  C   UNL A   1      38.492  23.679  26.022  1.00  0.00     0.016 A 
ATOM     28  C   UNL A   1      40.235  22.273  26.935  1.00  0.00     0.016 A 
ATOM     29  C   UNL A   1      39.199  24.820  26.391  1.00  0.00     0.010 A 
ATOM     30  C   UNL A   1      40.941  23.421  27.318  1.00  0.00     0.010 A 
ATOM     31  C   UNL A   1      40.431  24.703  27.043  1.00  0.00    -0.014 A 
BRANCH  31  32
ATOM     32  C   UNL A   1      41.188  25.929  27.405  1.00  0.00     0.031 A 
ATOM     33  C   UNL A   1      40.554  26.970  28.284  1.00  0.00     0.074 A 
ATOM     34  C   UNL A   1      42.451  26.089  26.967  1.00  0.00     0.049 A 
ATOM     35  N   UNL A   1      41.015  28.138  28.651  1.00  0.00    -0.248 NA
ATOM     36  C   UNL A   1      39.222  26.653  28.818  1.00  0.00     0.031 C 
ATOM     37  C   UNL A   1      43.190  25.121  26.155  1.00  0.00     0.029 A 
ATOM     38  N   UNL A   1      43.341  27.121  27.144  1.00  0.00    -0.354 N 
ATOM     39  C   UNL A   1      40.025  28.707  29.445  1.00  0.00     0.074 A 
ATOM     40  C   UNL A   1      38.925  27.763  29.478  1.00  0.00     0.031 C 
ATOM     41  C   UNL A   1      44.420  25.600  25.911  1.00  0.00     0.029 A 
ATOM     42  C   UNL A   1      44.536  26.935  26.490  1.00  0.00     0.049 A 
ATOM     43  H   UNL A   1      43.141  27.918  27.686  1.00  0.00     0.167 HD
ATOM     44  C   UNL A   1      40.037  29.900  30.088  1.00  0.00     0.034 A 
ATOM     45  C   UNL A   1      45.592  27.759  26.342  1.00  0.00     0.034 A 
ATOM     46  C   UNL A   1      41.145  30.826  30.038  1.00  0.00     0.049 A 
ATOM     47  C   UNL A   1      45.545  29.122  26.990  1.00  0.00     0.074 A 
ATOM     48  C   UNL A   1      41.268  32.058  30.658  1.00  0.00     0.029 A 
ATOM     49  N   UNL A   1      42.320  30.628  29.319  1.00  0.00    -0.354 N 
ATOM     50  N   UNL A   1      44.597  29.655  27.726  1.00  0.00    -0.248 NA
ATOM     51  C   UNL A   1      46.711  29.991  26.789  1.00  0.00     0.031 C 
ATOM     52  C   UNL A   1      42.475  32.638  30.251  1.00  0.00     0.029 A 
ATOM     53  C   UNL A   1      43.152  31.732  29.451  1.00  0.00     0.049 A 
ATOM     54  H   UNL A   1      42.530  29.824  28.793  1.00  0.00     0.167 HD
ATOM     55  C   UNL A   1      45.067  30.910  28.101  1.00  0.00     0.074 A 
ATOM     56  C   UNL A   1      46.389  31.046  27.523  1.00  0.00     0.031 C 
ATOM     57  C   UNL A   1      44.465  31.861  28.860  1.00  0.00     0.034 A 
BRANCH  44  58
ATOM     58  C   UNL A   1      38.792  30.297  30.846  1.00  0.00     0.023 A 
ATOM     59  C   UNL A   1      37.729  30.981  30.229  1.00  0.00     0.031 A 
ATOM     60  C   UNL A   1      38.677  30.007  32.218  1.00  0.00     0.131 A 
ATOM     61  C   UNL A   1      36.636  31.414  30.996  1.00  0.00     0.055 A 
ATOM     62  C   UNL A   1      37.548  30.368  32.957  1.00  0.00     0.041 A 
ATOM     63  F   UNL A   1      39.668  29.378  32.869  1.00  0.00    -0.206 F 
ATOM     64  C   UNL A   1      36.526  31.090  32.350  1.00  0.00     0.022 A 
BRANCH  61  65
ATOM     65  S   UNL A   1      35.432  32.537  30.235  1.00  0.00     0.124 S 
ATOM     66  O   UNL A   1      34.372  32.561  31.240  1.00  0.00    -0.237 OA
ATOM     67  O   UNL A   1      36.198  33.769  30.087  1.00  0.00    -0.237 OA
ATOM     68  O   UNL A   1      35.078  31.867  28.984  1.00  0.00    -0.744 OA
ENDBRANCH  61  65
ENDBRANCH  44  58
BRANCH  45  69
ATOM     69  C   UNL A   1      46.759  27.351  25.507  1.00  0.00     0.023 A 
ATOM     70  C   UNL A   1      46.930  27.840  24.202  1.00  0.00     0.031 A 
ATOM     71  C   UNL A   1      47.700  26.422  25.989  1.00  0.00     0.131 A 
ATOM     72  C   UNL A   1      47.987  27.366  23.410  1.00  0.00     0.055 A 
ATOM     73  C   UNL A   1      48.785  26.000  25.219  1.00  0.00     0.041 A 
ATOM     74  F   UNL A   1      47.582  25.914  27.226  1.00  0.00    -0.206 F 
ATOM     75  C   UNL A   1      48.925  26.463  23.915  1.00  0.00     0.022 A 
BRANCH  72  76
ATOM     76  S   UNL A   1      48.063  27.872  21.669  1.00  0.00     0.124 S 
ATOM     77  O   UNL A   1      46.759  28.499  21.486  1.00  0.00    -0.237 OA
ATOM     78  O   UNL A   1      49.213  28.770  21.664  1.00  0.00    -0.237 OA
ATOM     79  O   UNL A   1      48.255  26.611  20.957  1.00  0.00    -0.744 OA
ENDBRANCH  72  76
ENDBRANCH  45  69
BRANCH  57  80
ATOM     80  C   UNL A   1      45.260  33.113  29.152  1.00  0.00     0.023 A 
ATOM     81  C   UNL A   1      45.181  34.253  28.334  1.00  0.00     0.031 A 
ATOM     82  C   UNL A   1      46.122  33.156  30.263  1.00  0.00     0.131 A 
ATOM     83  C   UNL A   1      45.991  35.366  28.605  1.00  0.00     0.055 A 
ATOM     84  C   UNL A   1      46.876  34.291  30.566  1.00  0.00     0.041 A 
ATOM     85  F   UNL A   1      46.242  32.095  31.077  1.00  0.00    -0.206 F 
ATOM     86  C   UNL A   1      46.824  35.399  29.727  1.00  0.00     0.022 A 
BRANCH  83  87
ATOM     87  S   UNL A   1      46.021  36.736  27.416  1.00  0.00     0.124 S 
ATOM     88  O   UNL A   1      46.883  36.205  26.364  1.00  0.00    -0.237 OA
ATOM     89  O   UNL A   1      44.610  36.882  27.071  1.00  0.00    -0.237 OA
ATOM     90  O   UNL A   1      46.589  37.844  28.181  1.00  0.00    -0.744 OA
ENDBRANCH  83  87
ENDBRANCH  57  80
ENDBRANCH  31  32
ENDBRANCH  24  26
ENDBRANCH  23  24
ENDBRANCH   1  23
TORSDOF 16
ENDMDL
MODEL 2
REMARK VINA RESULT:     -12.1      5.125     10.473
REMARK SMILES C[C@H](c1ccc(C(=O)OCCOC(=O)c2ccc(-c3c4nc(c(-c5cc(S(=O)(=O)[O-])ccc5F)c5ccc([nH]5)c(-c5cc(S(=O)(=O)[O-])ccc5F)c5nc(c(-c6cc(S(=O)(=O)[O-])ccc6F)c6ccc3[nH]6)C=C5)C=C4)cc2)o1)[NH+]1Cc2ccccc2C1
REMARK SMILES IDX 11 1 10 2 9 3 7 4 8 5 6 6 3 7 4 8 78 9 5 10 2 11 1 12 79 13
REMARK SMILES IDX 80 14 87 15 81 17 86 18 82 19 85 20 83 21 84 22 12 23 13 24
REMARK SMILES IDX 14 25 15 26 16 27 77 28 17 29 76 30 18 31 19 32 20 33 70 34
REMARK SMILES IDX 21 35 75 36 69 37 71 38 22 39 74 40 68 41 67 42 23 44 55 45
REMARK SMILES IDX 35 46 54 47 36 48 39 49 53 50 72 51 37 52 38 53 52 55 73 56
REMARK SMILES IDX 40 57 24 58 25 59 33 60 26 61 32 62 34 63 31 64 27 65 28 66
REMARK SMILES IDX 29 67 30 68 56 69 57 70 65 71 58 72 64 73 66 74 63 75 59 76
REMARK SMILES IDX 60 77 61 78 62 79 41 80 42 81 50 82 43 83 49 84 51 85 48 86
REMARK SMILES IDX 44 87 45 88 46 89 47 90
REMARK H PARENT 79 16 71 43 39 54
REMARK Flexibility Score: inf
ROOT
ATOM      1  C   UNL A   1      31.519  30.212  25.706  1.00  0.00     0.275 C 
ENDROOT
BRANCH   1   2
ATOM      2  C   UNL A   1      31.355  29.040  24.732  1.00  0.00     0.275 C 
BRANCH   2   3
ATOM      3  O   UNL A   1      31.980  27.865  25.268  1.00  0.00    -0.456 OA
BRANCH   3   4
ATOM      4  C   UNL A   1      31.576  26.656  24.762  1.00  0.00     0.374 C 
ATOM      5  O   UNL A   1      30.545  26.474  24.146  1.00  0.00    -0.242 OA
BRANCH   4   6
ATOM      6  C   UNL A   1      32.647  25.704  24.975  1.00  0.00     0.212 A 
ATOM      7  C   UNL A   1      33.791  23.857  24.586  1.00  0.00     0.162 A 
ATOM      8  C   UNL A   1      34.657  24.763  25.177  1.00  0.00     0.053 A 
ATOM      9  O   UNL A   1      32.556  24.433  24.449  1.00  0.00    -0.448 OA
ATOM     10  C   UNL A   1      33.894  25.885  25.536  1.00  0.00     0.059 A 
BRANCH   7  11
ATOM     11  C   UNL A   1      33.999  22.422  24.101  1.00  0.00     0.248 C 
ATOM     12  C   UNL A   1      35.392  21.960  24.588  1.00  0.00     0.084 C 
BRANCH  11  13
ATOM     13  N   UNL A   1      32.802  21.582  24.420  1.00  0.00    -0.319 N 
ATOM     14  C   UNL A   1      33.095  20.527  25.401  1.00  0.00     0.300 C 
ATOM     15  C   UNL A   1      32.189  20.819  23.271  1.00  0.00     0.300 C 
ATOM     16  H   UNL A   1      32.159  22.302  24.752  1.00  0.00     0.349 HD
ATOM     17  C   UNL A   1      33.412  19.337  24.583  1.00  0.00     0.015 A 
ATOM     18  C   UNL A   1      32.548  19.367  23.503  1.00  0.00     0.015 A 
ATOM     19  C   UNL A   1      34.439  18.423  24.626  1.00  0.00     0.010 A 
ATOM     20  C   UNL A   1      32.341  18.234  22.745  1.00  0.00     0.010 A 
ATOM     21  C   UNL A   1      34.385  17.361  23.727  1.00  0.00     0.001 A 
ATOM     22  C   UNL A   1      33.271  17.202  22.884  1.00  0.00     0.001 A 
ENDBRANCH  11  13
ENDBRANCH   7  11
ENDBRANCH   4   6
ENDBRANCH   3   4
ENDBRANCH   2   3
ENDBRANCH   1   2
BRANCH   1  23
ATOM     23  O   UNL A   1      32.909  30.465  25.995  1.00  0.00    -0.458 OA
BRANCH  23  24
ATOM     24  C   UNL A   1      33.147  31.423  26.926  1.00  0.00     0.338 C 
ATOM     25  O   UNL A   1      32.405  32.340  27.235  1.00  0.00    -0.246 OA
BRANCH  24  26
ATOM     26  C   UNL A   1      34.412  31.131  27.622  1.00  0.00     0.060 A 
ATOM     27  C   UNL A   1      34.680  29.809  27.974  1.00  0.00     0.016 A 
ATOM     28  C   UNL A   1      35.295  32.148  27.985  1.00  0.00     0.016 A 
ATOM     29  C   UNL A   1      35.828  29.489  28.693  1.00  0.00     0.010 A 
ATOM     30  C   UNL A   1      36.458  31.824  28.697  1.00  0.00     0.010 A 
ATOM     31  C   UNL A   1      36.729  30.493  29.062  1.00  0.00    -0.014 A 
BRANCH  31  32
ATOM     32  C   UNL A   1      37.935  30.140  29.854  1.00  0.00     0.031 A 
ATOM     33  C   UNL A   1      38.957  29.196  29.285  1.00  0.00     0.074 A 
ATOM     34  C   UNL A   1      38.124  30.691  31.069  1.00  0.00     0.049 A 
ATOM     35  N   UNL A   1      40.034  28.705  29.843  1.00  0.00    -0.248 NA
ATOM     36  C   UNL A   1      38.733  28.744  27.905  1.00  0.00     0.031 C 
ATOM     37  C   UNL A   1      37.229  31.663  31.700  1.00  0.00     0.029 A 
ATOM     38  N   UNL A   1      39.128  30.518  31.989  1.00  0.00    -0.354 N 
ATOM     39  C   UNL A   1      40.609  27.870  28.891  1.00  0.00     0.074 A 
ATOM     40  C   UNL A   1      39.740  27.901  27.731  1.00  0.00     0.031 C 
ATOM     41  C   UNL A   1      37.728  32.005  32.899  1.00  0.00     0.029 A 
ATOM     42  C   UNL A   1      38.939  31.230  33.151  1.00  0.00     0.049 A 
ATOM     43  H   UNL A   1      39.908  29.938  31.833  1.00  0.00     0.167 HD
ATOM     44  C   UNL A   1      41.756  27.152  28.977  1.00  0.00     0.034 A 
ATOM     45  C   UNL A   1      39.639  31.232  34.302  1.00  0.00     0.034 A 
ATOM     46  C   UNL A   1      42.605  27.136  30.146  1.00  0.00     0.049 A 
ATOM     47  C   UNL A   1      40.862  30.352  34.409  1.00  0.00     0.074 A 
ATOM     48  C   UNL A   1      43.793  26.452  30.340  1.00  0.00     0.029 A 
ATOM     49  N   UNL A   1      42.353  27.827  31.327  1.00  0.00    -0.354 N 
ATOM     50  N   UNL A   1      41.388  29.556  33.507  1.00  0.00    -0.248 NA
ATOM     51  C   UNL A   1      41.585  30.376  35.687  1.00  0.00     0.031 C 
ATOM     52  C   UNL A   1      44.214  26.663  31.657  1.00  0.00     0.029 A 
ATOM     53  C   UNL A   1      43.343  27.554  32.261  1.00  0.00     0.049 A 
ATOM     54  H   UNL A   1      41.584  28.423  31.478  1.00  0.00     0.167 HD
ATOM     55  C   UNL A   1      42.522  29.008  34.100  1.00  0.00     0.074 A 
ATOM     56  C   UNL A   1      42.610  29.577  35.429  1.00  0.00     0.031 C 
ATOM     57  C   UNL A   1      43.413  28.120  33.589  1.00  0.00     0.034 A 
BRANCH  44  58
ATOM     58  C   UNL A   1      42.123  26.279  27.800  1.00  0.00     0.023 A 
ATOM     59  C   UNL A   1      41.681  24.949  27.692  1.00  0.00     0.031 A 
ATOM     60  C   UNL A   1      42.951  26.780  26.779  1.00  0.00     0.131 A 
ATOM     61  C   UNL A   1      42.127  24.147  26.629  1.00  0.00     0.055 A 
ATOM     62  C   UNL A   1      43.323  26.001  25.681  1.00  0.00     0.041 A 
ATOM     63  F   UNL A   1      43.426  28.034  26.837  1.00  0.00    -0.206 F 
ATOM     64  C   UNL A   1      42.924  24.671  25.609  1.00  0.00     0.022 A 
BRANCH  61  65
ATOM     65  S   UNL A   1      41.775  22.368  26.678  1.00  0.00     0.124 S 
ATOM     66  O   UNL A   1      42.273  21.931  25.375  1.00  0.00    -0.237 OA
ATOM     67  O   UNL A   1      42.543  21.924  27.835  1.00  0.00    -0.237 OA
ATOM     68  O   UNL A   1      40.322  22.308  26.831  1.00  0.00    -0.744 OA
ENDBRANCH  61  65
ENDBRANCH  44  58
BRANCH  45  69
ATOM     69  C   UNL A   1      39.181  32.045  35.465  1.00  0.00     0.023 A 
ATOM     70  C   UNL A   1      39.618  33.367  35.649  1.00  0.00     0.031 A 
ATOM     71  C   UNL A   1      38.331  31.493  36.442  1.00  0.00     0.131 A 
ATOM     72  C   UNL A   1      39.243  34.074  36.802  1.00  0.00     0.055 A 
ATOM     73  C   UNL A   1      37.910  32.222  37.555  1.00  0.00     0.041 A 
ATOM     74  F   UNL A   1      37.888  30.231  36.322  1.00  0.00    -0.206 F 
ATOM     75  C   UNL A   1      38.377  33.517  37.746  1.00  0.00     0.022 A 
BRANCH  72  76
ATOM     76  S   UNL A   1      39.981  35.704  37.100  1.00  0.00     0.124 S 
ATOM     77  O   UNL A   1      39.275  36.133  38.303  1.00  0.00    -0.237 OA
ATOM     78  O   UNL A   1      41.392  35.373  37.269  1.00  0.00    -0.237 OA
ATOM     79  O   UNL A   1      39.658  36.451  35.887  1.00  0.00    -0.744 OA
ENDBRANCH  72  76
ENDBRANCH  45  69
BRANCH  57  80
ATOM     80  C   UNL A   1      44.594  27.753  34.460  1.00  0.00     0.023 A 
ATOM     81  C   UNL A   1      44.567  26.645  35.324  1.00  0.00     0.031 A 
ATOM     82  C   UNL A   1      45.760  28.539  34.431  1.00  0.00     0.131 A 
ATOM     83  C   UNL A   1      45.660  26.387  36.164  1.00  0.00     0.055 A 
ATOM     84  C   UNL A   1      46.871  28.238  35.221  1.00  0.00     0.041 A 
ATOM     85  F   UNL A   1      45.842  29.614  33.629  1.00  0.00    -0.206 F 
ATOM     86  C   UNL A   1      46.820  27.165  36.104  1.00  0.00     0.022 A 
BRANCH  83  87
ATOM     87  S   UNL A   1      45.512  25.079  37.413  1.00  0.00     0.124 S 
ATOM     88  O   UNL A   1      45.769  23.878  36.625  1.00  0.00    -0.237 OA
ATOM     89  O   UNL A   1      46.548  25.445  38.374  1.00  0.00    -0.237 OA
ATOM     90  O   UNL A   1      44.140  25.219  37.898  1.00  0.00    -0.744 OA
ENDBRANCH  83  87
ENDBRANCH  57  80
ENDBRANCH  31  32
ENDBRANCH  24  26
ENDBRANCH  23  24
ENDBRANCH   1  23
TORSDOF 16
ENDMDL
MODEL 3
REMARK VINA RESULT:     -12.1      1.602      2.440
REMARK SMILES C[C@H](c1ccc(C(=O)OCCOC(=O)c2ccc(-c3c4nc(c(-c5cc(S(=O)(=O)[O-])ccc5F)c5ccc([nH]5)c(-c5cc(S(=O)(=O)[O-])ccc5F)c5nc(c(-c6cc(S(=O)(=O)[O-])ccc6F)c6ccc3[nH]6)C=C5)C=C4)cc2)o1)[NH+]1Cc2ccccc2C1
REMARK SMILES IDX 11 1 10 2 9 3 7 4 8 5 6 6 3 7 4 8 78 9 5 10 2 11 1 12 79 13
REMARK SMILES IDX 80 14 87 15 81 17 86 18 82 19 85 20 83 21 84 22 12 23 13 24
REMARK SMILES IDX 14 25 15 26 16 27 77 28 17 29 76 30 18 31 19 32 20 33 70 34
REMARK SMILES IDX 21 35 75 36 69 37 71 38 22 39 74 40 68 41 67 42 23 44 55 45
REMARK SMILES IDX 35 46 54 47 36 48 39 49 53 50 72 51 37 52 38 53 52 55 73 56
REMARK SMILES IDX 40 57 24 58 25 59 33 60 26 61 32 62 34 63 31 64 27 65 28 66
REMARK SMILES IDX 29 67 30 68 56 69 57 70 65 71 58 72 64 73 66 74 63 75 59 76
REMARK SMILES IDX 60 77 61 78 62 79 41 80 42 81 50 82 43 83 49 84 51 85 48 86
REMARK SMILES IDX 44 87 45 88 46 89 47 90
REMARK H PARENT 79 16 71 43 39 54
REMARK Flexibility Score: inf
ROOT
ATOM      1  C   UNL A   1      36.637  20.309  25.005  1.00  0.00     0.275 C 
ENDROOT
BRANCH   1   2
ATOM      2  C   UNL A   1      35.133  20.606  24.998  1.00  0.00     0.275 C 
BRANCH   2   3
ATOM      3  O   UNL A   1      34.403  19.432  24.616  1.00  0.00    -0.456 OA
BRANCH   3   4
ATOM      4  C   UNL A   1      33.054  19.426  24.867  1.00  0.00     0.374 C 
ATOM      5  O   UNL A   1      32.527  18.860  25.804  1.00  0.00    -0.242 OA
BRANCH   4   6
ATOM      6  C   UNL A   1      32.420  20.311  23.912  1.00  0.00     0.212 A 
ATOM      7  C   UNL A   1      31.776  22.267  23.114  1.00  0.00     0.162 A 
ATOM      8  C   UNL A   1      31.870  21.393  22.042  1.00  0.00     0.053 A 
ATOM      9  O   UNL A   1      32.122  21.610  24.265  1.00  0.00    -0.448 OA
ATOM     10  C   UNL A   1      32.155  20.125  22.571  1.00  0.00     0.059 A 
BRANCH   7  11
ATOM     11  C   UNL A   1      31.375  23.740  23.191  1.00  0.00     0.248 C 
ATOM     12  C   UNL A   1      31.015  24.051  24.662  1.00  0.00     0.084 C 
BRANCH  11  13
ATOM     13  N   UNL A   1      32.385  24.595  22.492  1.00  0.00    -0.319 N 
ATOM     14  C   UNL A   1      33.701  24.568  23.147  1.00  0.00     0.300 C 
ATOM     15  C   UNL A   1      32.076  26.070  22.407  1.00  0.00     0.300 C 
ATOM     16  H   UNL A   1      32.368  24.174  21.562  1.00  0.00     0.349 HD
ATOM     17  C   UNL A   1      33.689  25.739  24.051  1.00  0.00     0.015 A 
ATOM     18  C   UNL A   1      33.026  26.746  23.372  1.00  0.00     0.015 A 
ATOM     19  C   UNL A   1      34.027  25.898  25.374  1.00  0.00     0.010 A 
ATOM     20  C   UNL A   1      33.147  28.057  23.781  1.00  0.00     0.010 A 
ATOM     21  C   UNL A   1      33.961  27.187  25.899  1.00  0.00     0.001 A 
ATOM     22  C   UNL A   1      33.650  28.275  25.065  1.00  0.00     0.001 A 
ENDBRANCH  11  13
ENDBRANCH   7  11
ENDBRANCH   4   6
ENDBRANCH   3   4
ENDBRANCH   2   3
ENDBRANCH   1   2
BRANCH   1  23
ATOM     23  O   UNL A   1      37.379  21.366  25.644  1.00  0.00    -0.458 OA
BRANCH  23  24
ATOM     24  C   UNL A   1      38.674  21.081  25.928  1.00  0.00     0.338 C 
ATOM     25  O   UNL A   1      39.244  20.019  25.748  1.00  0.00    -0.246 OA
BRANCH  24  26
ATOM     26  C   UNL A   1      39.358  22.302  26.390  1.00  0.00     0.060 A 
ATOM     27  C   UNL A   1      38.890  23.533  25.932  1.00  0.00     0.016 A 
ATOM     28  C   UNL A   1      40.486  22.240  27.208  1.00  0.00     0.016 A 
ATOM     29  C   UNL A   1      39.542  24.711  26.282  1.00  0.00     0.010 A 
ATOM     30  C   UNL A   1      41.135  23.428  27.573  1.00  0.00     0.010 A 
ATOM     31  C   UNL A   1      40.671  24.671  27.107  1.00  0.00    -0.014 A 
BRANCH  31  32
ATOM     32  C   UNL A   1      41.374  25.935  27.449  1.00  0.00     0.031 A 
ATOM     33  C   UNL A   1      40.682  26.975  28.284  1.00  0.00     0.074 A 
ATOM     34  C   UNL A   1      42.639  26.131  27.033  1.00  0.00     0.049 A 
ATOM     35  N   UNL A   1      41.091  28.170  28.627  1.00  0.00    -0.248 NA
ATOM     36  C   UNL A   1      39.352  26.622  28.799  1.00  0.00     0.031 C 
ATOM     37  C   UNL A   1      43.431  25.169  26.265  1.00  0.00     0.029 A 
ATOM     38  N   UNL A   1      43.485  27.200  27.198  1.00  0.00    -0.354 N 
ATOM     39  C   UNL A   1      40.063  28.722  29.384  1.00  0.00     0.074 A 
ATOM     40  C   UNL A   1      38.999  27.738  29.420  1.00  0.00     0.031 C 
ATOM     41  C   UNL A   1      44.648  25.688  26.032  1.00  0.00     0.029 A 
ATOM     42  C   UNL A   1      44.701  27.041  26.575  1.00  0.00     0.049 A 
ATOM     43  H   UNL A   1      43.244  28.004  27.713  1.00  0.00     0.167 HD
ATOM     44  C   UNL A   1      40.016  29.933  29.992  1.00  0.00     0.034 A 
ATOM     45  C   UNL A   1      45.729  27.901  26.426  1.00  0.00     0.034 A 
ATOM     46  C   UNL A   1      41.090  30.898  29.939  1.00  0.00     0.049 A 
ATOM     47  C   UNL A   1      45.616  29.278  27.033  1.00  0.00     0.074 A 
ATOM     48  C   UNL A   1      41.153  32.151  30.525  1.00  0.00     0.029 A 
ATOM     49  N   UNL A   1      42.287  30.725  29.251  1.00  0.00    -0.354 N 
ATOM     50  N   UNL A   1      44.633  29.795  27.734  1.00  0.00    -0.248 NA
ATOM     51  C   UNL A   1      46.753  30.185  26.832  1.00  0.00     0.031 C 
ATOM     52  C   UNL A   1      42.346  32.764  30.127  1.00  0.00     0.029 A 
ATOM     53  C   UNL A   1      43.074  31.863  29.369  1.00  0.00     0.049 A 
ATOM     54  H   UNL A   1      42.538  29.915  28.752  1.00  0.00     0.167 HD
ATOM     55  C   UNL A   1      45.048  31.077  28.083  1.00  0.00     0.074 A 
ATOM     56  C   UNL A   1      46.376  31.247  27.529  1.00  0.00     0.031 C 
ATOM     57  C   UNL A   1      44.393  32.025  28.802  1.00  0.00     0.034 A 
BRANCH  44  58
ATOM     58  C   UNL A   1      38.741  30.303  30.712  1.00  0.00     0.023 A 
ATOM     59  C   UNL A   1      37.711  31.023  30.083  1.00  0.00     0.031 A 
ATOM     60  C   UNL A   1      38.563  29.950  32.063  1.00  0.00     0.131 A 
ATOM     61  C   UNL A   1      36.587  31.428  30.820  1.00  0.00     0.055 A 
ATOM     62  C   UNL A   1      37.405  30.284  32.768  1.00  0.00     0.041 A 
ATOM     63  F   UNL A   1      39.520  29.282  32.727  1.00  0.00    -0.206 F 
ATOM     64  C   UNL A   1      36.414  31.041  32.151  1.00  0.00     0.022 A 
BRANCH  61  65
ATOM     65  S   UNL A   1      35.424  32.595  30.060  1.00  0.00     0.124 S 
ATOM     66  O   UNL A   1      36.253  33.789  29.916  1.00  0.00    -0.237 OA
ATOM     67  O   UNL A   1      35.061  31.918  28.820  1.00  0.00    -0.237 OA
ATOM     68  O   UNL A   1      34.353  32.706  31.048  1.00  0.00    -0.744 OA
ENDBRANCH  61  65
ENDBRANCH  44  58
BRANCH  45  69
ATOM     69  C   UNL A   1      46.928  27.514  25.628  1.00  0.00     0.023 A 
ATOM     70  C   UNL A   1      47.073  27.911  24.289  1.00  0.00     0.031 A 
ATOM     71  C   UNL A   1      47.930  26.696  26.183  1.00  0.00     0.131 A 
ATOM     72  C   UNL A   1      48.167  27.454  23.538  1.00  0.00     0.055 A 
ATOM     73  C   UNL A   1      49.048  26.295  25.450  1.00  0.00     0.041 A 
ATOM     74  F   UNL A   1      47.840  26.279  27.456  1.00  0.00    -0.206 F 
ATOM     75  C   UNL A   1      49.164  26.664  24.114  1.00  0.00     0.022 A 
BRANCH  72  76
ATOM     76  S   UNL A   1      48.220  27.827  21.763  1.00  0.00     0.124 S 
ATOM     77  O   UNL A   1      48.284  26.490  21.182  1.00  0.00    -0.237 OA
ATOM     78  O   UNL A   1      46.968  28.551  21.568  1.00  0.00    -0.237 OA
ATOM     79  O   UNL A   1      49.433  28.629  21.620  1.00  0.00    -0.744 OA
ENDBRANCH  72  76
ENDBRANCH  45  69
BRANCH  57  80
ATOM     80  C   UNL A   1      45.135  33.314  29.074  1.00  0.00     0.023 A 
ATOM     81  C   UNL A   1      45.044  34.422  28.213  1.00  0.00     0.031 A 
ATOM     82  C   UNL A   1      45.957  33.427  30.210  1.00  0.00     0.131 A 
ATOM     83  C   UNL A   1      45.806  35.571  28.471  1.00  0.00     0.055 A 
ATOM     84  C   UNL A   1      46.660  34.597  30.497  1.00  0.00     0.041 A 
ATOM     85  F   UNL A   1      46.085  32.399  31.066  1.00  0.00    -0.206 F 
ATOM     86  C   UNL A   1      46.599  35.673  29.618  1.00  0.00     0.022 A 
BRANCH  83  87
ATOM     87  S   UNL A   1      45.829  36.899  27.234  1.00  0.00     0.124 S 
ATOM     88  O   UNL A   1      44.412  37.230  27.119  1.00  0.00    -0.237 OA
ATOM     89  O   UNL A   1      46.670  37.907  27.873  1.00  0.00    -0.237 OA
ATOM     90  O   UNL A   1      46.414  36.262  26.056  1.00  0.00    -0.744 OA
ENDBRANCH  83  87
ENDBRANCH  57  80
ENDBRANCH  31  32
ENDBRANCH  24  26
ENDBRANCH  23  24
ENDBRANCH   1  23
TORSDOF 16
ENDMDL
