MODEL 1
REMARK VINA RESULT:     -13.6      0.000      0.000
REMARK SMILES O=C(OCCOC(=O)c1ccc(-c2c3nc(c(-c4cc(S(=O)(=O)[O-])ccc4F)c4ccc([nH]4)c(-c4cc(S(=O)(=O)[O-])ccc4F)c4nc(c(-c5cc(S(=O)(=O)[O-])ccc5F)c5ccc2[nH]5)C=C4)C=C3)cc1)C1=Cc2c(ccc(Cl)c2Oc2ccccc2)O[C@H]1C(F)(F)F
REMARK SMILES IDX 5 1 4 2 3 3 2 4 1 5 72 6 73 7 89 8 74 9 88 10 75 11 80 12
REMARK SMILES IDX 76 13 78 14 77 15 79 16 90 17 91 18 92 19 93 20 81 21 82 22
REMARK SMILES IDX 83 23 87 24 84 25 86 26 85 27 6 28 7 29 8 30 9 31 10 32
REMARK SMILES IDX 71 33 11 34 70 35 12 36 13 37 14 38 64 39 15 40 69 41 63 42
REMARK SMILES IDX 65 43 16 44 68 45 62 46 61 47 17 49 49 50 29 51 48 52 30 53
REMARK SMILES IDX 33 54 47 55 66 56 31 57 32 58 46 60 67 61 34 62 18 63 19 64
REMARK SMILES IDX 27 65 20 66 26 67 28 68 25 69 21 70 22 71 23 72 24 73 50 74
REMARK SMILES IDX 51 75 59 76 52 77 58 78 60 79 57 80 53 81 54 82 55 83 56 84
REMARK SMILES IDX 35 85 36 86 44 87 37 88 43 89 45 90 42 91 38 92 39 93 40 94
REMARK SMILES IDX 41 95
REMARK H PARENT 65 48 33 59
REMARK Flexibility Score: inf
ROOT
ATOM      1  C   UNL A   1      31.974  28.420  27.311  1.00  0.00     0.275 C 
ENDROOT
BRANCH   1   2
ATOM      2  C   UNL A   1      31.458  27.274  26.480  1.00  0.00     0.275 C 
BRANCH   2   3
ATOM      3  O   UNL A   1      32.291  26.118  26.480  1.00  0.00    -0.459 OA
BRANCH   3   4
ATOM      4  C   UNL A   1      31.942  24.828  26.336  1.00  0.00     0.338 C 
ATOM      5  O   UNL A   1      31.460  24.248  27.310  1.00  0.00    -0.246 OA
BRANCH   4   6
ATOM      6  C   UNL A   1      31.977  24.083  25.045  1.00  0.00     0.088 C 
ATOM      7  C   UNL A   1      32.256  22.788  24.755  1.00  0.00     0.031 C 
ATOM      8  C   UNL A   1      32.193  25.075  23.920  1.00  0.00     0.316 C 
ATOM      9  C   UNL A   1      33.670  22.613  24.349  1.00  0.00     0.062 A 
ATOM     10  O   UNL A   1      33.379  24.729  23.141  1.00  0.00    -0.475 OA
ATOM     11  C   UNL A   1      34.196  23.759  23.692  1.00  0.00     0.131 A 
ATOM     12  C   UNL A   1      34.516  21.532  24.688  1.00  0.00     0.156 A 
ATOM     13  C   UNL A   1      35.562  23.952  23.577  1.00  0.00     0.049 A 
ATOM     14  C   UNL A   1      35.905  21.775  24.582  1.00  0.00     0.084 A 
ATOM     15  C   UNL A   1      36.418  22.980  24.078  1.00  0.00     0.028 A 
ATOM     16  Cl  UNL A   1      37.068  20.619  25.154  1.00  0.00    -0.080 Cl
BRANCH   8  17
ATOM     17  C   UNL A   1      30.916  25.226  23.074  1.00  0.00     0.430 C 
ATOM     18  F   UNL A   1      30.276  24.042  22.910  1.00  0.00    -0.167 F 
ATOM     19  F   UNL A   1      30.034  26.079  23.643  1.00  0.00    -0.167 F 
ATOM     20  F   UNL A   1      31.193  25.705  21.839  1.00  0.00    -0.167 F 
ENDBRANCH   8  17
BRANCH  12  21
ATOM     21  O   UNL A   1      34.238  20.281  25.217  1.00  0.00    -0.455 OA
BRANCH  21  22
ATOM     22  C   UNL A   1      33.932  19.142  24.516  1.00  0.00     0.127 A 
ATOM     23  C   UNL A   1      32.703  19.165  23.829  1.00  0.00     0.047 A 
ATOM     24  C   UNL A   1      34.697  17.986  24.487  1.00  0.00     0.047 A 
ATOM     25  C   UNL A   1      32.376  18.160  22.918  1.00  0.00     0.004 A 
ATOM     26  C   UNL A   1      34.332  16.942  23.624  1.00  0.00     0.004 A 
ATOM     27  C   UNL A   1      33.207  17.053  22.800  1.00  0.00     0.000 A 
ENDBRANCH  21  22
ENDBRANCH  12  21
ENDBRANCH   4   6
ENDBRANCH   3   4
ENDBRANCH   2   3
ENDBRANCH   1   2
BRANCH   1  28
ATOM     28  O   UNL A   1      33.128  29.069  26.813  1.00  0.00    -0.458 OA
BRANCH  28  29
ATOM     29  C   UNL A   1      33.295  30.330  27.207  1.00  0.00     0.338 C 
ATOM     30  O   UNL A   1      32.458  31.225  27.140  1.00  0.00    -0.246 OA
BRANCH  29  31
ATOM     31  C   UNL A   1      34.680  30.485  27.674  1.00  0.00     0.060 A 
ATOM     32  C   UNL A   1      35.295  29.321  28.116  1.00  0.00     0.016 A 
ATOM     33  C   UNL A   1      35.336  31.734  27.765  1.00  0.00     0.016 A 
ATOM     34  C   UNL A   1      36.522  29.410  28.730  1.00  0.00     0.010 A 
ATOM     35  C   UNL A   1      36.601  31.816  28.332  1.00  0.00     0.010 A 
ATOM     36  C   UNL A   1      37.171  30.653  28.842  1.00  0.00    -0.014 A 
BRANCH  36  37
ATOM     37  C   UNL A   1      38.493  30.629  29.476  1.00  0.00     0.031 A 
ATOM     38  C   UNL A   1      38.628  31.140  30.868  1.00  0.00     0.074 A 
ATOM     39  C   UNL A   1      39.413  29.895  28.828  1.00  0.00     0.049 A 
ATOM     40  N   UNL A   1      39.504  30.819  31.774  1.00  0.00    -0.248 NA
ATOM     41  C   UNL A   1      37.640  32.138  31.305  1.00  0.00     0.031 C 
ATOM     42  C   UNL A   1      39.254  29.409  27.450  1.00  0.00     0.029 A 
ATOM     43  N   UNL A   1      40.573  29.325  29.257  1.00  0.00    -0.354 N 
ATOM     44  C   UNL A   1      39.171  31.563  32.899  1.00  0.00     0.074 A 
ATOM     45  C   UNL A   1      38.038  32.388  32.544  1.00  0.00     0.031 C 
ATOM     46  C   UNL A   1      40.212  28.512  27.192  1.00  0.00     0.029 A 
ATOM     47  C   UNL A   1      41.070  28.400  28.362  1.00  0.00     0.049 A 
ATOM     48  H   UNL A   1      41.009  29.548  30.110  1.00  0.00     0.167 HD
ATOM     49  C   UNL A   1      39.779  31.531  34.110  1.00  0.00     0.034 A 
ATOM     50  C   UNL A   1      42.081  27.527  28.512  1.00  0.00     0.034 A 
ATOM     51  C   UNL A   1      40.926  30.682  34.350  1.00  0.00     0.049 A 
ATOM     52  C   UNL A   1      42.718  27.489  29.874  1.00  0.00     0.074 A 
ATOM     53  C   UNL A   1      41.685  30.540  35.493  1.00  0.00     0.029 A 
ATOM     54  N   UNL A   1      41.482  29.828  33.394  1.00  0.00    -0.354 N 
ATOM     55  N   UNL A   1      42.396  28.179  30.950  1.00  0.00    -0.248 NA
ATOM     56  C   UNL A   1      43.825  26.554  30.056  1.00  0.00     0.031 C 
ATOM     57  C   UNL A   1      42.740  29.664  35.204  1.00  0.00     0.029 A 
ATOM     58  C   UNL A   1      42.588  29.179  33.911  1.00  0.00     0.049 A 
ATOM     59  H   UNL A   1      41.136  29.707  32.480  1.00  0.00     0.167 HD
ATOM     60  C   UNL A   1      43.259  27.751  31.949  1.00  0.00     0.074 A 
ATOM     61  C   UNL A   1      44.080  26.710  31.346  1.00  0.00     0.031 C 
ATOM     62  C   UNL A   1      43.381  28.171  33.238  1.00  0.00     0.034 A 
BRANCH  49  63
ATOM     63  C   UNL A   1      39.275  32.475  35.177  1.00  0.00     0.023 A 
ATOM     64  C   UNL A   1      39.746  33.797  35.301  1.00  0.00     0.031 A 
ATOM     65  C   UNL A   1      38.355  32.024  36.143  1.00  0.00     0.131 A 
ATOM     66  C   UNL A   1      39.365  34.585  36.401  1.00  0.00     0.055 A 
ATOM     67  C   UNL A   1      37.914  32.842  37.188  1.00  0.00     0.041 A 
ATOM     68  F   UNL A   1      37.891  30.765  36.110  1.00  0.00    -0.206 F 
ATOM     69  C   UNL A   1      38.431  34.125  37.330  1.00  0.00     0.022 A 
BRANCH  66  70
ATOM     70  S   UNL A   1      40.227  36.157  36.691  1.00  0.00     0.124 S 
ATOM     71  O   UNL A   1      39.535  36.657  37.876  1.00  0.00    -0.237 OA
ATOM     72  O   UNL A   1      41.607  35.729  36.892  1.00  0.00    -0.237 OA
ATOM     73  O   UNL A   1      39.981  36.916  35.466  1.00  0.00    -0.744 OA
ENDBRANCH  66  70
ENDBRANCH  49  63
BRANCH  50  74
ATOM     74  C   UNL A   1      42.492  26.642  27.381  1.00  0.00     0.023 A 
ATOM     75  C   UNL A   1      42.083  25.303  27.294  1.00  0.00     0.031 A 
ATOM     76  C   UNL A   1      43.307  27.143  26.347  1.00  0.00     0.131 A 
ATOM     77  C   UNL A   1      42.517  24.505  26.219  1.00  0.00     0.055 A 
ATOM     78  C   UNL A   1      43.683  26.366  25.250  1.00  0.00     0.041 A 
ATOM     79  F   UNL A   1      43.731  28.417  26.371  1.00  0.00    -0.206 F 
ATOM     80  C   UNL A   1      43.298  25.033  25.189  1.00  0.00     0.022 A 
BRANCH  77  81
ATOM     81  S   UNL A   1      42.127  22.732  26.233  1.00  0.00     0.124 S 
ATOM     82  O   UNL A   1      42.839  22.279  27.421  1.00  0.00    -0.237 OA
ATOM     83  O   UNL A   1      40.671  22.744  26.320  1.00  0.00    -0.237 OA
ATOM     84  O   UNL A   1      42.670  22.256  24.961  1.00  0.00    -0.744 OA
ENDBRANCH  77  81
ENDBRANCH  50  74
BRANCH  62  85
ATOM     85  C   UNL A   1      44.436  27.470  34.049  1.00  0.00     0.023 A 
ATOM     86  C   UNL A   1      44.135  26.322  34.798  1.00  0.00     0.031 A 
ATOM     87  C   UNL A   1      45.740  27.989  34.111  1.00  0.00     0.131 A 
ATOM     88  C   UNL A   1      45.097  25.790  35.662  1.00  0.00     0.055 A 
ATOM     89  C   UNL A   1      46.721  27.397  34.902  1.00  0.00     0.041 A 
ATOM     90  F   UNL A   1      46.074  29.087  33.413  1.00  0.00    -0.206 F 
ATOM     91  C   UNL A   1      46.396  26.305  35.702  1.00  0.00     0.022 A 
BRANCH  88  92
ATOM     92  S   UNL A   1      44.573  24.529  36.853  1.00  0.00     0.124 S 
ATOM     93  O   UNL A   1      44.310  23.386  35.983  1.00  0.00    -0.237 OA
ATOM     94  O   UNL A   1      45.740  24.414  37.720  1.00  0.00    -0.237 OA
ATOM     95  O   UNL A   1      43.390  25.120  37.477  1.00  0.00    -0.744 OA
ENDBRANCH  88  92
ENDBRANCH  62  85
ENDBRANCH  36  37
ENDBRANCH  29  31
ENDBRANCH  28  29
ENDBRANCH   1  28
TORSDOF 17
ENDMDL
MODEL 2
REMARK VINA RESULT:     -13.1      4.630      9.969
REMARK SMILES O=C(OCCOC(=O)c1ccc(-c2c3nc(c(-c4cc(S(=O)(=O)[O-])ccc4F)c4ccc([nH]4)c(-c4cc(S(=O)(=O)[O-])ccc4F)c4nc(c(-c5cc(S(=O)(=O)[O-])ccc5F)c5ccc2[nH]5)C=C4)C=C3)cc1)C1=Cc2c(ccc(Cl)c2Oc2ccccc2)O[C@H]1C(F)(F)F
REMARK SMILES IDX 5 1 4 2 3 3 2 4 1 5 72 6 73 7 89 8 74 9 88 10 75 11 80 12
REMARK SMILES IDX 76 13 78 14 77 15 79 16 90 17 91 18 92 19 93 20 81 21 82 22
REMARK SMILES IDX 83 23 87 24 84 25 86 26 85 27 6 28 7 29 8 30 9 31 10 32
REMARK SMILES IDX 71 33 11 34 70 35 12 36 13 37 14 38 64 39 15 40 69 41 63 42
REMARK SMILES IDX 65 43 16 44 68 45 62 46 61 47 17 49 49 50 29 51 48 52 30 53
REMARK SMILES IDX 33 54 47 55 66 56 31 57 32 58 46 60 67 61 34 62 18 63 19 64
REMARK SMILES IDX 27 65 20 66 26 67 28 68 25 69 21 70 22 71 23 72 24 73 50 74
REMARK SMILES IDX 51 75 59 76 52 77 58 78 60 79 57 80 53 81 54 82 55 83 56 84
REMARK SMILES IDX 35 85 36 86 44 87 37 88 43 89 45 90 42 91 38 92 39 93 40 94
REMARK SMILES IDX 41 95
REMARK H PARENT 65 48 33 59
REMARK Flexibility Score: inf
ROOT
ATOM      1  C   UNL A   1      36.569  22.809  23.779  1.00  0.00     0.275 C 
ENDROOT
BRANCH   1   2
ATOM      2  C   UNL A   1      35.132  23.095  23.431  1.00  0.00     0.275 C 
BRANCH   2   3
ATOM      3  O   UNL A   1      34.698  24.418  23.738  1.00  0.00    -0.459 OA
BRANCH   3   4
ATOM      4  C   UNL A   1      33.803  25.183  23.091  1.00  0.00     0.338 C 
ATOM      5  O   UNL A   1      34.151  25.710  22.034  1.00  0.00    -0.246 OA
BRANCH   4   6
ATOM      6  C   UNL A   1      32.376  25.337  23.493  1.00  0.00     0.088 C 
ATOM      7  C   UNL A   1      31.520  26.386  23.412  1.00  0.00     0.031 C 
ATOM      8  C   UNL A   1      32.060  24.307  24.559  1.00  0.00     0.316 C 
ATOM      9  C   UNL A   1      31.467  27.146  24.682  1.00  0.00     0.062 A 
ATOM     10  O   UNL A   1      31.557  24.948  25.771  1.00  0.00    -0.475 OA
ATOM     11  C   UNL A   1      31.691  26.324  25.821  1.00  0.00     0.131 A 
ATOM     12  C   UNL A   1      31.379  28.550  24.821  1.00  0.00     0.156 A 
ATOM     13  C   UNL A   1      32.057  26.873  27.037  1.00  0.00     0.049 A 
ATOM     14  C   UNL A   1      31.785  29.076  26.069  1.00  0.00     0.084 A 
ATOM     15  C   UNL A   1      32.159  28.254  27.143  1.00  0.00     0.028 A 
ATOM     16  Cl  UNL A   1      31.926  30.789  26.321  1.00  0.00    -0.080 Cl
BRANCH   8  17
ATOM     17  C   UNL A   1      31.131  23.214  24.003  1.00  0.00     0.430 C 
ATOM     18  F   UNL A   1      30.145  23.734  23.231  1.00  0.00    -0.167 F 
ATOM     19  F   UNL A   1      31.804  22.322  23.241  1.00  0.00    -0.167 F 
ATOM     20  F   UNL A   1      30.535  22.516  24.998  1.00  0.00    -0.167 F 
ENDBRANCH   8  17
BRANCH  12  21
ATOM     21  O   UNL A   1      31.060  29.543  23.907  1.00  0.00    -0.455 OA
BRANCH  21  22
ATOM     22  C   UNL A   1      29.806  29.889  23.475  1.00  0.00     0.127 A 
ATOM     23  C   UNL A   1      29.348  31.154  23.891  1.00  0.00     0.047 A 
ATOM     24  C   UNL A   1      28.961  29.081  22.729  1.00  0.00     0.047 A 
ATOM     25  C   UNL A   1      28.186  31.706  23.351  1.00  0.00     0.004 A 
ATOM     26  C   UNL A   1      27.756  29.610  22.243  1.00  0.00     0.004 A 
ATOM     27  C   UNL A   1      27.398  30.936  22.505  1.00  0.00     0.000 A 
ENDBRANCH  21  22
ENDBRANCH  12  21
ENDBRANCH   4   6
ENDBRANCH   3   4
ENDBRANCH   2   3
ENDBRANCH   1   2
BRANCH   1  28
ATOM     28  O   UNL A   1      36.911  22.955  25.144  1.00  0.00    -0.458 OA
BRANCH  28  29
ATOM     29  C   UNL A   1      37.945  22.227  25.560  1.00  0.00     0.338 C 
ATOM     30  O   UNL A   1      38.111  21.027  25.359  1.00  0.00    -0.246 OA
BRANCH  29  31
ATOM     31  C   UNL A   1      38.822  23.091  26.363  1.00  0.00     0.060 A 
ATOM     32  C   UNL A   1      38.565  24.453  26.271  1.00  0.00     0.016 A 
ATOM     33  C   UNL A   1      39.918  22.607  27.113  1.00  0.00     0.016 A 
ATOM     34  C   UNL A   1      39.446  25.336  26.849  1.00  0.00     0.010 A 
ATOM     35  C   UNL A   1      40.775  23.496  27.746  1.00  0.00     0.010 A 
ATOM     36  C   UNL A   1      40.550  24.861  27.580  1.00  0.00    -0.014 A 
BRANCH  36  37
ATOM     37  C   UNL A   1      41.403  25.885  28.189  1.00  0.00     0.031 A 
ATOM     38  C   UNL A   1      42.779  26.080  27.657  1.00  0.00     0.074 A 
ATOM     39  C   UNL A   1      40.760  26.739  29.002  1.00  0.00     0.049 A 
ATOM     40  N   UNL A   1      43.519  27.150  27.677  1.00  0.00    -0.248 NA
ATOM     41  C   UNL A   1      43.406  24.920  27.003  1.00  0.00     0.031 C 
ATOM     42  C   UNL A   1      39.402  26.517  29.517  1.00  0.00     0.029 A 
ATOM     43  N   UNL A   1      41.082  27.993  29.427  1.00  0.00    -0.354 N 
ATOM     44  C   UNL A   1      44.698  26.803  27.028  1.00  0.00     0.074 A 
ATOM     45  C   UNL A   1      44.592  25.408  26.666  1.00  0.00     0.031 C 
ATOM     46  C   UNL A   1      38.959  27.649  30.079  1.00  0.00     0.029 A 
ATOM     47  C   UNL A   1      40.015  28.647  30.004  1.00  0.00     0.049 A 
ATOM     48  H   UNL A   1      41.978  28.388  29.333  1.00  0.00     0.167 HD
ATOM     49  C   UNL A   1      45.756  27.611  26.771  1.00  0.00     0.034 A 
ATOM     50  C   UNL A   1      39.903  29.934  30.377  1.00  0.00     0.034 A 
ATOM     51  C   UNL A   1      45.768  28.991  27.201  1.00  0.00     0.049 A 
ATOM     52  C   UNL A   1      41.079  30.814  30.052  1.00  0.00     0.074 A 
ATOM     53  C   UNL A   1      46.756  29.944  27.058  1.00  0.00     0.029 A 
ATOM     54  N   UNL A   1      44.715  29.609  27.881  1.00  0.00    -0.354 N 
ATOM     55  N   UNL A   1      42.192  30.498  29.421  1.00  0.00    -0.248 NA
ATOM     56  C   UNL A   1      40.984  32.214  30.457  1.00  0.00     0.031 C 
ATOM     57  C   UNL A   1      46.333  31.106  27.716  1.00  0.00     0.029 A 
ATOM     58  C   UNL A   1      45.039  30.917  28.188  1.00  0.00     0.049 A 
ATOM     59  H   UNL A   1      43.863  29.173  28.111  1.00  0.00     0.167 HD
ATOM     60  C   UNL A   1      42.932  31.669  29.343  1.00  0.00     0.074 A 
ATOM     61  C   UNL A   1      42.107  32.702  29.954  1.00  0.00     0.031 C 
ATOM     62  C   UNL A   1      44.174  31.885  28.830  1.00  0.00     0.034 A 
BRANCH  49  63
ATOM     63  C   UNL A   1      46.962  26.997  26.094  1.00  0.00     0.023 A 
ATOM     64  C   UNL A   1      47.973  26.330  26.813  1.00  0.00     0.031 A 
ATOM     65  C   UNL A   1      47.146  27.147  24.707  1.00  0.00     0.131 A 
ATOM     66  C   UNL A   1      49.148  25.914  26.163  1.00  0.00     0.055 A 
ATOM     67  C   UNL A   1      48.279  26.655  24.051  1.00  0.00     0.041 A 
ATOM     68  F   UNL A   1      46.242  27.803  23.964  1.00  0.00    -0.206 F 
ATOM     69  C   UNL A   1      49.295  26.049  24.781  1.00  0.00     0.022 A 
BRANCH  66  70
ATOM     70  S   UNL A   1      50.549  25.343  27.168  1.00  0.00     0.124 S 
ATOM     71  O   UNL A   1      50.861  26.540  27.944  1.00  0.00    -0.237 OA
ATOM     72  O   UNL A   1      49.971  24.231  27.914  1.00  0.00    -0.237 OA
ATOM     73  O   UNL A   1      51.556  24.972  26.175  1.00  0.00    -0.744 OA
ENDBRANCH  66  70
ENDBRANCH  49  63
BRANCH  50  74
ATOM     74  C   UNL A   1      38.659  30.426  31.040  1.00  0.00     0.023 A 
ATOM     75  C   UNL A   1      37.634  31.063  30.326  1.00  0.00     0.031 A 
ATOM     76  C   UNL A   1      38.474  30.250  32.426  1.00  0.00     0.131 A 
ATOM     77  C   UNL A   1      36.491  31.529  31.002  1.00  0.00     0.055 A 
ATOM     78  C   UNL A   1      37.311  30.656  33.082  1.00  0.00     0.041 A 
ATOM     79  F   UNL A   1      39.418  29.646  33.167  1.00  0.00    -0.206 F 
ATOM     80  C   UNL A   1      36.317  31.313  32.370  1.00  0.00     0.022 A 
BRANCH  77  81
ATOM     81  S   UNL A   1      35.272  32.512  30.084  1.00  0.00     0.124 S 
ATOM     82  O   UNL A   1      36.079  33.636  29.625  1.00  0.00    -0.237 OA
ATOM     83  O   UNL A   1      34.836  31.571  29.058  1.00  0.00    -0.237 OA
ATOM     84  O   UNL A   1      34.269  32.838  31.097  1.00  0.00    -0.744 OA
ENDBRANCH  77  81
ENDBRANCH  50  74
BRANCH  62  85
ATOM     85  C   UNL A   1      44.669  33.304  28.911  1.00  0.00     0.023 A 
ATOM     86  C   UNL A   1      45.362  33.769  30.039  1.00  0.00     0.031 A 
ATOM     87  C   UNL A   1      44.397  34.207  27.870  1.00  0.00     0.131 A 
ATOM     88  C   UNL A   1      45.667  35.129  30.149  1.00  0.00     0.055 A 
ATOM     89  C   UNL A   1      44.789  35.541  27.945  1.00  0.00     0.041 A 
ATOM     90  F   UNL A   1      43.736  33.808  26.771  1.00  0.00    -0.206 F 
ATOM     91  C   UNL A   1      45.407  36.015  29.099  1.00  0.00     0.022 A 
BRANCH  88  92
ATOM     92  S   UNL A   1      46.251  35.749  31.748  1.00  0.00     0.124 S 
ATOM     93  O   UNL A   1      46.452  37.166  31.466  1.00  0.00    -0.237 OA
ATOM     94  O   UNL A   1      45.136  35.427  32.633  1.00  0.00    -0.237 OA
ATOM     95  O   UNL A   1      47.473  34.982  31.985  1.00  0.00    -0.744 OA
ENDBRANCH  88  92
ENDBRANCH  62  85
ENDBRANCH  36  37
ENDBRANCH  29  31
ENDBRANCH  28  29
ENDBRANCH   1  28
TORSDOF 17
ENDMDL
MODEL 3
REMARK VINA RESULT:     -12.8      1.877      2.194
REMARK SMILES O=C(OCCOC(=O)c1ccc(-c2c3nc(c(-c4cc(S(=O)(=O)[O-])ccc4F)c4ccc([nH]4)c(-c4cc(S(=O)(=O)[O-])ccc4F)c4nc(c(-c5cc(S(=O)(=O)[O-])ccc5F)c5ccc2[nH]5)C=C4)C=C3)cc1)C1=Cc2c(ccc(Cl)c2Oc2ccccc2)O[C@H]1C(F)(F)F
REMARK SMILES IDX 5 1 4 2 3 3 2 4 1 5 72 6 73 7 89 8 74 9 88 10 75 11 80 12
REMARK SMILES IDX 76 13 78 14 77 15 79 16 90 17 91 18 92 19 93 20 81 21 82 22
REMARK SMILES IDX 83 23 87 24 84 25 86 26 85 27 6 28 7 29 8 30 9 31 10 32
REMARK SMILES IDX 71 33 11 34 70 35 12 36 13 37 14 38 64 39 15 40 69 41 63 42
REMARK SMILES IDX 65 43 16 44 68 45 62 46 61 47 17 49 49 50 29 51 48 52 30 53
REMARK SMILES IDX 33 54 47 55 66 56 31 57 32 58 46 60 67 61 34 62 18 63 19 64
REMARK SMILES IDX 27 65 20 66 26 67 28 68 25 69 21 70 22 71 23 72 24 73 50 74
REMARK SMILES IDX 51 75 59 76 52 77 58 78 60 79 57 80 53 81 54 82 55 83 56 84
REMARK SMILES IDX 35 85 36 86 44 87 37 88 43 89 45 90 42 91 38 92 39 93 40 94
REMARK SMILES IDX 41 95
REMARK H PARENT 65 48 33 59
REMARK Flexibility Score: inf
ROOT
ATOM      1  C   UNL A   1      32.690  28.435  26.843  1.00  0.00     0.275 C 
ENDROOT
BRANCH   1   2
ATOM      2  C   UNL A   1      32.980  27.000  26.488  1.00  0.00     0.275 C 
BRANCH   2   3
ATOM      3  O   UNL A   1      31.869  26.118  26.622  1.00  0.00    -0.459 OA
BRANCH   3   4
ATOM      4  C   UNL A   1      31.838  24.779  26.512  1.00  0.00     0.338 C 
ATOM      5  O   UNL A   1      31.718  24.117  27.543  1.00  0.00    -0.246 OA
BRANCH   4   6
ATOM      6  C   UNL A   1      31.810  24.039  25.217  1.00  0.00     0.088 C 
ATOM      7  C   UNL A   1      32.089  22.750  24.905  1.00  0.00     0.031 C 
ATOM      8  C   UNL A   1      31.949  25.039  24.086  1.00  0.00     0.316 C 
ATOM      9  C   UNL A   1      33.480  22.594  24.420  1.00  0.00     0.062 A 
ATOM     10  O   UNL A   1      33.094  24.711  23.240  1.00  0.00    -0.475 OA
ATOM     11  C   UNL A   1      33.953  23.750  23.740  1.00  0.00     0.131 A 
ATOM     12  C   UNL A   1      34.358  21.524  24.706  1.00  0.00     0.156 A 
ATOM     13  C   UNL A   1      35.308  23.962  23.549  1.00  0.00     0.049 A 
ATOM     14  C   UNL A   1      35.735  21.786  24.523  1.00  0.00     0.084 A 
ATOM     15  C   UNL A   1      36.203  22.999  23.996  1.00  0.00     0.028 A 
ATOM     16  Cl  UNL A   1      36.943  20.643  25.024  1.00  0.00    -0.080 Cl
BRANCH   8  17
ATOM     17  C   UNL A   1      30.625  25.176  23.314  1.00  0.00     0.430 C 
ATOM     18  F   UNL A   1      30.733  26.046  22.279  1.00  0.00    -0.167 F 
ATOM     19  F   UNL A   1      30.219  23.993  22.798  1.00  0.00    -0.167 F 
ATOM     20  F   UNL A   1      29.629  25.625  24.112  1.00  0.00    -0.167 F 
ENDBRANCH   8  17
BRANCH  12  21
ATOM     21  O   UNL A   1      34.126  20.267  25.243  1.00  0.00    -0.455 OA
BRANCH  21  22
ATOM     22  C   UNL A   1      33.876  19.110  24.550  1.00  0.00     0.127 A 
ATOM     23  C   UNL A   1      32.716  19.119  23.753  1.00  0.00     0.047 A 
ATOM     24  C   UNL A   1      34.631  17.949  24.626  1.00  0.00     0.047 A 
ATOM     25  C   UNL A   1      32.466  18.090  22.845  1.00  0.00     0.004 A 
ATOM     26  C   UNL A   1      34.338  16.883  23.763  1.00  0.00     0.004 A 
ATOM     27  C   UNL A   1      33.295  16.976  22.836  1.00  0.00     0.000 A 
ENDBRANCH  21  22
ENDBRANCH  12  21
ENDBRANCH   4   6
ENDBRANCH   3   4
ENDBRANCH   2   3
ENDBRANCH   1   2
BRANCH   1  28
ATOM     28  O   UNL A   1      33.671  29.376  26.451  1.00  0.00    -0.458 OA
BRANCH  28  29
ATOM     29  C   UNL A   1      33.787  30.448  27.233  1.00  0.00     0.338 C 
ATOM     30  O   UNL A   1      32.908  31.273  27.463  1.00  0.00    -0.246 OA
BRANCH  29  31
ATOM     31  C   UNL A   1      35.171  30.512  27.722  1.00  0.00     0.060 A 
ATOM     32  C   UNL A   1      35.737  29.293  28.076  1.00  0.00     0.016 A 
ATOM     33  C   UNL A   1      35.873  31.722  27.917  1.00  0.00     0.016 A 
ATOM     34  C   UNL A   1      36.959  29.285  28.705  1.00  0.00     0.010 A 
ATOM     35  C   UNL A   1      37.134  31.711  28.498  1.00  0.00     0.010 A 
ATOM     36  C   UNL A   1      37.654  30.490  28.920  1.00  0.00    -0.014 A 
BRANCH  36  37
ATOM     37  C   UNL A   1      38.967  30.365  29.560  1.00  0.00     0.031 A 
ATOM     38  C   UNL A   1      39.124  30.827  30.967  1.00  0.00     0.074 A 
ATOM     39  C   UNL A   1      39.844  29.593  28.897  1.00  0.00     0.049 A 
ATOM     40  N   UNL A   1      39.971  30.426  31.868  1.00  0.00    -0.248 NA
ATOM     41  C   UNL A   1      38.197  31.873  31.426  1.00  0.00     0.031 C 
ATOM     42  C   UNL A   1      39.665  29.157  27.505  1.00  0.00     0.029 A 
ATOM     43  N   UNL A   1      40.962  28.939  29.316  1.00  0.00    -0.354 N 
ATOM     44  C   UNL A   1      39.677  31.158  33.012  1.00  0.00     0.074 A 
ATOM     45  C   UNL A   1      38.600  32.062  32.675  1.00  0.00     0.031 C 
ATOM     46  C   UNL A   1      40.567  28.208  27.227  1.00  0.00     0.029 A 
ATOM     47  C   UNL A   1      41.407  28.010  28.398  1.00  0.00     0.049 A 
ATOM     48  H   UNL A   1      41.405  29.110  30.178  1.00  0.00     0.167 HD
ATOM     49  C   UNL A   1      40.273  31.053  34.225  1.00  0.00     0.034 A 
ATOM     50  C   UNL A   1      42.360  27.071  28.529  1.00  0.00     0.034 A 
ATOM     51  C   UNL A   1      41.362  30.128  34.448  1.00  0.00     0.049 A 
ATOM     52  C   UNL A   1      42.983  26.955  29.893  1.00  0.00     0.074 A 
ATOM     53  C   UNL A   1      42.103  29.906  35.591  1.00  0.00     0.029 A 
ATOM     54  N   UNL A   1      41.871  29.268  33.470  1.00  0.00    -0.354 N 
ATOM     55  N   UNL A   1      42.698  27.633  30.987  1.00  0.00    -0.248 NA
ATOM     56  C   UNL A   1      44.028  25.947  30.054  1.00  0.00     0.031 C 
ATOM     57  C   UNL A   1      43.102  28.974  35.283  1.00  0.00     0.029 A 
ATOM     58  C   UNL A   1      42.930  28.536  33.975  1.00  0.00     0.049 A 
ATOM     59  H   UNL A   1      41.525  29.194  32.552  1.00  0.00     0.167 HD
ATOM     60  C   UNL A   1      43.524  27.124  31.978  1.00  0.00     0.074 A 
ATOM     61  C   UNL A   1      44.283  26.051  31.350  1.00  0.00     0.031 C 
ATOM     62  C   UNL A   1      43.663  27.499  33.278  1.00  0.00     0.034 A 
BRANCH  49  63
ATOM     63  C   UNL A   1      39.821  31.998  35.316  1.00  0.00     0.023 A 
ATOM     64  C   UNL A   1      39.042  31.570  36.409  1.00  0.00     0.031 A 
ATOM     65  C   UNL A   1      40.110  33.372  35.226  1.00  0.00     0.131 A 
ATOM     66  C   UNL A   1      38.515  32.510  37.313  1.00  0.00     0.055 A 
ATOM     67  C   UNL A   1      39.654  34.291  36.176  1.00  0.00     0.041 A 
ATOM     68  F   UNL A   1      40.816  33.856  34.193  1.00  0.00    -0.206 F 
ATOM     69  C   UNL A   1      38.838  33.864  37.218  1.00  0.00     0.022 A 
BRANCH  66  70
ATOM     70  S   UNL A   1      37.271  31.962  38.518  1.00  0.00     0.124 S 
ATOM     71  O   UNL A   1      37.962  32.197  39.782  1.00  0.00    -0.237 OA
ATOM     72  O   UNL A   1      36.144  32.842  38.233  1.00  0.00    -0.237 OA
ATOM     73  O   UNL A   1      37.063  30.554  38.182  1.00  0.00    -0.744 OA
ENDBRANCH  66  70
ENDBRANCH  49  63
BRANCH  50  74
ATOM     74  C   UNL A   1      42.723  26.194  27.376  1.00  0.00     0.023 A 
ATOM     75  C   UNL A   1      42.229  24.887  27.246  1.00  0.00     0.031 A 
ATOM     76  C   UNL A   1      43.578  26.670  26.362  1.00  0.00     0.131 A 
ATOM     77  C   UNL A   1      42.620  24.094  26.152  1.00  0.00     0.055 A 
ATOM     78  C   UNL A   1      43.913  25.902  25.245  1.00  0.00     0.041 A 
ATOM     79  F   UNL A   1      44.084  27.913  26.427  1.00  0.00    -0.206 F 
ATOM     80  C   UNL A   1      43.443  24.599  25.144  1.00  0.00     0.022 A 
BRANCH  77  81
ATOM     81  S   UNL A   1      42.116  22.351  26.111  1.00  0.00     0.124 S 
ATOM     82  O   UNL A   1      40.666  22.462  26.008  1.00  0.00    -0.237 OA
ATOM     83  O   UNL A   1      42.809  21.864  24.924  1.00  0.00    -0.237 OA
ATOM     84  O   UNL A   1      42.612  21.824  27.381  1.00  0.00    -0.744 OA
ENDBRANCH  77  81
ENDBRANCH  50  74
BRANCH  62  85
ATOM     85  C   UNL A   1      44.666  26.710  34.076  1.00  0.00     0.023 A 
ATOM     86  C   UNL A   1      46.025  27.058  34.081  1.00  0.00     0.031 A 
ATOM     87  C   UNL A   1      44.260  25.573  34.793  1.00  0.00     0.131 A 
ATOM     88  C   UNL A   1      46.950  26.213  34.703  1.00  0.00     0.055 A 
ATOM     89  C   UNL A   1      45.175  24.788  35.489  1.00  0.00     0.041 A 
ATOM     90  F   UNL A   1      42.970  25.201  34.815  1.00  0.00    -0.206 F 
ATOM     91  C   UNL A   1      46.532  25.093  35.428  1.00  0.00     0.022 A 
BRANCH  88  92
ATOM     92  S   UNL A   1      48.713  26.507  34.404  1.00  0.00     0.124 S 
ATOM     93  O   UNL A   1      49.281  25.183  34.634  1.00  0.00    -0.237 OA
ATOM     94  O   UNL A   1      48.721  26.974  33.022  1.00  0.00    -0.237 OA
ATOM     95  O   UNL A   1      49.064  27.516  35.403  1.00  0.00    -0.744 OA
ENDBRANCH  88  92
ENDBRANCH  62  85
ENDBRANCH  36  37
ENDBRANCH  29  31
ENDBRANCH  28  29
ENDBRANCH   1  28
TORSDOF 17
ENDMDL
