MODEL 1
REMARK VINA RESULT:     -11.8      0.000      0.000
REMARK SMILES C=Cc1cccc(-c2ccc([C@@H](C)C(=O)OCCOC(=O)c3ccc(-c4c5nc(c(-c6cc(S(=O)(=O)[O-])ccc6F)c6ccc([nH]6)c(-c6cc(S(=O)(=O)[O-])ccc6F)c6nc(c(-c7cc(S(=O)(=O)[O-])ccc7F)c7ccc4[nH]7)C=C6)C=C5)cc3)cc2)c1
REMARK SMILES IDX 17 1 16 2 14 3 15 4 12 5 13 6 11 7 8 8 9 9 86 10 10 11 85 12
REMARK SMILES IDX 7 13 3 14 4 15 87 16 5 17 6 18 2 19 1 20 18 21 19 22 20 23
REMARK SMILES IDX 21 24 22 25 23 26 84 27 24 28 83 29 25 30 26 31 27 32 77 33
REMARK SMILES IDX 28 34 82 35 76 36 78 37 29 38 81 39 75 40 74 41 30 43 62 44
REMARK SMILES IDX 42 45 61 46 43 47 46 48 60 49 79 50 44 51 45 52 59 54 80 55
REMARK SMILES IDX 47 56 31 57 32 58 40 59 33 60 39 61 41 62 38 63 34 64 35 65
REMARK SMILES IDX 36 66 37 67 63 68 64 69 72 70 65 71 71 72 73 73 70 74 66 75
REMARK SMILES IDX 67 76 68 77 69 78 48 79 49 80 57 81 50 82 56 83 58 84 55 85
REMARK SMILES IDX 51 86 52 87 53 88 54 89
REMARK H PARENT 78 42 46 53
REMARK Flexibility Score: inf
ROOT
ATOM      1  C   UNL A   1      35.704  20.246  25.041  1.00  0.00     0.274 C 
ENDROOT
BRANCH   1   2
ATOM      2  O   UNL A   1      34.620  21.057  24.548  1.00  0.00    -0.462 OA
BRANCH   2   3
ATOM      3  C   UNL A   1      33.657  21.401  25.441  1.00  0.00     0.313 C 
ATOM      4  O   UNL A   1      32.510  20.964  25.418  1.00  0.00    -0.252 OA
BRANCH   3   5
ATOM      5  C   UNL A   1      34.105  22.443  26.460  1.00  0.00     0.126 C 
ATOM      6  C   UNL A   1      33.833  21.930  27.873  1.00  0.00     0.025 C 
BRANCH   5   7
ATOM      7  C   UNL A   1      33.581  23.855  26.244  1.00  0.00    -0.034 A 
ATOM      8  C   UNL A   1      32.653  26.513  25.848  1.00  0.00    -0.018 A 
ATOM      9  C   UNL A   1      31.815  25.522  26.381  1.00  0.00     0.009 A 
ATOM     10  C   UNL A   1      33.960  26.148  25.502  1.00  0.00     0.009 A 
ATOM     11  C   UNL A   1      32.271  24.217  26.582  1.00  0.00     0.005 A 
ATOM     12  C   UNL A   1      34.419  24.839  25.698  1.00  0.00     0.005 A 
BRANCH   8  13
ATOM     13  C   UNL A   1      32.171  27.895  25.682  1.00  0.00    -0.018 A 
ATOM     14  C   UNL A   1      30.800  29.559  24.517  1.00  0.00    -0.026 A 
ATOM     15  C   UNL A   1      31.273  30.546  25.387  1.00  0.00     0.008 A 
ATOM     16  C   UNL A   1      31.264  28.242  24.663  1.00  0.00     0.016 A 
ATOM     17  C   UNL A   1      32.174  30.224  26.401  1.00  0.00     0.001 A 
ATOM     18  C   UNL A   1      32.616  28.909  26.546  1.00  0.00     0.009 A 
BRANCH  14  19
ATOM     19  C   UNL A   1      29.878  29.951  23.444  1.00  0.00     0.000 C 
ATOM     20  C   UNL A   1      28.961  30.921  23.556  1.00  0.00     0.009 C 
ENDBRANCH  14  19
ENDBRANCH   8  13
ENDBRANCH   5   7
ENDBRANCH   3   5
ENDBRANCH   2   3
ENDBRANCH   1   2
BRANCH   1  21
ATOM     21  C   UNL A   1      37.055  20.852  24.663  1.00  0.00     0.275 C 
BRANCH  21  22
ATOM     22  O   UNL A   1      37.583  21.644  25.741  1.00  0.00    -0.458 OA
BRANCH  22  23
ATOM     23  C   UNL A   1      38.868  21.379  26.075  1.00  0.00     0.338 C 
ATOM     24  O   UNL A   1      39.481  20.341  25.903  1.00  0.00    -0.246 OA
BRANCH  23  25
ATOM     25  C   UNL A   1      39.477  22.595  26.628  1.00  0.00     0.060 A 
ATOM     26  C   UNL A   1      39.046  23.837  26.158  1.00  0.00     0.016 A 
ATOM     27  C   UNL A   1      40.521  22.504  27.548  1.00  0.00     0.016 A 
ATOM     28  C   UNL A   1      39.665  25.004  26.600  1.00  0.00     0.010 A 
ATOM     29  C   UNL A   1      41.133  23.674  28.002  1.00  0.00     0.010 A 
ATOM     30  C   UNL A   1      40.717  24.929  27.522  1.00  0.00    -0.014 A 
BRANCH  30  31
ATOM     31  C   UNL A   1      41.427  26.157  27.953  1.00  0.00     0.031 A 
ATOM     32  C   UNL A   1      40.679  27.214  28.712  1.00  0.00     0.074 A 
ATOM     33  C   UNL A   1      42.727  26.326  27.649  1.00  0.00     0.049 A 
ATOM     34  N   UNL A   1      41.052  28.425  29.036  1.00  0.00    -0.248 NA
ATOM     35  C   UNL A   1      39.323  26.859  29.157  1.00  0.00     0.031 C 
ATOM     36  C   UNL A   1      43.569  25.342  26.967  1.00  0.00     0.029 A 
ATOM     37  N   UNL A   1      43.563  27.394  27.856  1.00  0.00    -0.354 N 
ATOM     38  C   UNL A   1      39.970  28.988  29.703  1.00  0.00     0.074 A 
ATOM     39  C   UNL A   1      38.921  27.990  29.718  1.00  0.00     0.031 C 
ATOM     40  C   UNL A   1      44.797  25.857  26.801  1.00  0.00     0.029 A 
ATOM     41  C   UNL A   1      44.812  27.227  27.306  1.00  0.00     0.049 A 
ATOM     42  H   UNL A   1      43.294  28.203  28.351  1.00  0.00     0.167 HD
ATOM     43  C   UNL A   1      39.867  30.226  30.247  1.00  0.00     0.034 A 
ATOM     44  C   UNL A   1      45.835  28.097  27.181  1.00  0.00     0.034 A 
ATOM     45  C   UNL A   1      40.928  31.204  30.218  1.00  0.00     0.049 A 
ATOM     46  C   UNL A   1      45.668  29.496  27.717  1.00  0.00     0.074 A 
ATOM     47  C   UNL A   1      40.937  32.486  30.741  1.00  0.00     0.029 A 
ATOM     48  N   UNL A   1      42.169  31.011  29.623  1.00  0.00    -0.354 N 
ATOM     49  N   UNL A   1      44.630  30.032  28.317  1.00  0.00    -0.248 NA
ATOM     50  C   UNL A   1      46.806  30.410  27.553  1.00  0.00     0.031 C 
ATOM     51  C   UNL A   1      42.158  33.086  30.412  1.00  0.00     0.029 A 
ATOM     52  C   UNL A   1      42.939  32.157  29.742  1.00  0.00     0.049 A 
ATOM     53  H   UNL A   1      42.459  30.180  29.182  1.00  0.00     0.167 HD
ATOM     54  C   UNL A   1      45.002  31.337  28.626  1.00  0.00     0.074 A 
ATOM     55  C   UNL A   1      46.360  31.506  28.150  1.00  0.00     0.031 C 
ATOM     56  C   UNL A   1      44.289  32.307  29.253  1.00  0.00     0.034 A 
BRANCH  43  57
ATOM     57  C   UNL A   1      38.540  30.604  30.859  1.00  0.00     0.023 A 
ATOM     58  C   UNL A   1      37.521  31.213  30.106  1.00  0.00     0.031 A 
ATOM     59  C   UNL A   1      38.306  30.381  32.227  1.00  0.00     0.131 A 
ATOM     60  C   UNL A   1      36.344  31.642  30.740  1.00  0.00     0.055 A 
ATOM     61  C   UNL A   1      37.103  30.742  32.837  1.00  0.00     0.041 A 
ATOM     62  F   UNL A   1      39.251  29.823  33.000  1.00  0.00    -0.206 F 
ATOM     63  C   UNL A   1      36.120  31.391  32.096  1.00  0.00     0.022 A 
BRANCH  60  64
ATOM     64  S   UNL A   1      35.169  32.653  29.798  1.00  0.00     0.124 S 
ATOM     65  O   UNL A   1      36.028  33.734  29.320  1.00  0.00    -0.237 OA
ATOM     66  O   UNL A   1      34.690  31.720  28.786  1.00  0.00    -0.237 OA
ATOM     67  O   UNL A   1      34.181  33.050  30.799  1.00  0.00    -0.744 OA
ENDBRANCH  60  64
ENDBRANCH  43  57
BRANCH  44  68
ATOM     68  C   UNL A   1      47.078  27.696  26.465  1.00  0.00     0.023 A 
ATOM     69  C   UNL A   1      47.211  27.879  25.080  1.00  0.00     0.031 A 
ATOM     70  C   UNL A   1      48.143  27.090  27.156  1.00  0.00     0.131 A 
ATOM     71  C   UNL A   1      48.368  27.429  24.424  1.00  0.00     0.055 A 
ATOM     72  C   UNL A   1      49.311  26.688  26.508  1.00  0.00     0.041 A 
ATOM     73  F   UNL A   1      48.066  26.890  28.482  1.00  0.00    -0.206 F 
ATOM     74  C   UNL A   1      49.423  26.847  25.131  1.00  0.00     0.022 A 
BRANCH  71  75
ATOM     75  S   UNL A   1      48.444  27.547  22.616  1.00  0.00     0.124 S 
ATOM     76  O   UNL A   1      47.228  28.296  22.315  1.00  0.00    -0.237 OA
ATOM     77  O   UNL A   1      49.702  28.258  22.412  1.00  0.00    -0.237 OA
ATOM     78  O   UNL A   1      48.440  26.152  22.182  1.00  0.00    -0.744 OA
ENDBRANCH  71  75
ENDBRANCH  44  68
BRANCH  56  79
ATOM     79  C   UNL A   1      44.991  33.617  29.504  1.00  0.00     0.023 A 
ATOM     80  C   UNL A   1      45.010  34.642  28.544  1.00  0.00     0.031 A 
ATOM     81  C   UNL A   1      45.646  33.837  30.729  1.00  0.00     0.131 A 
ATOM     82  C   UNL A   1      45.707  35.831  28.810  1.00  0.00     0.055 A 
ATOM     83  C   UNL A   1      46.297  35.039  31.005  1.00  0.00     0.041 A 
ATOM     84  F   UNL A   1      45.656  32.887  31.678  1.00  0.00    -0.206 F 
ATOM     85  C   UNL A   1      46.337  36.041  30.041  1.00  0.00     0.022 A 
BRANCH  82  86
ATOM     86  S   UNL A   1      45.830  37.083  27.503  1.00  0.00     0.124 S 
ATOM     87  O   UNL A   1      47.005  37.841  27.918  1.00  0.00    -0.237 OA
ATOM     88  O   UNL A   1      45.988  36.269  26.302  1.00  0.00    -0.237 OA
ATOM     89  O   UNL A   1      44.561  37.804  27.598  1.00  0.00    -0.744 OA
ENDBRANCH  82  86
ENDBRANCH  56  79
ENDBRANCH  30  31
ENDBRANCH  23  25
ENDBRANCH  22  23
ENDBRANCH  21  22
ENDBRANCH   1  21
TORSDOF 17
ENDMDL
MODEL 2
REMARK VINA RESULT:     -11.5      5.299      9.648
REMARK SMILES C=Cc1cccc(-c2ccc([C@@H](C)C(=O)OCCOC(=O)c3ccc(-c4c5nc(c(-c6cc(S(=O)(=O)[O-])ccc6F)c6ccc([nH]6)c(-c6cc(S(=O)(=O)[O-])ccc6F)c6nc(c(-c7cc(S(=O)(=O)[O-])ccc7F)c7ccc4[nH]7)C=C6)C=C5)cc3)cc2)c1
REMARK SMILES IDX 17 1 16 2 14 3 15 4 12 5 13 6 11 7 8 8 9 9 86 10 10 11 85 12
REMARK SMILES IDX 7 13 3 14 4 15 87 16 5 17 6 18 2 19 1 20 18 21 19 22 20 23
REMARK SMILES IDX 21 24 22 25 23 26 84 27 24 28 83 29 25 30 26 31 27 32 77 33
REMARK SMILES IDX 28 34 82 35 76 36 78 37 29 38 81 39 75 40 74 41 30 43 62 44
REMARK SMILES IDX 42 45 61 46 43 47 46 48 60 49 79 50 44 51 45 52 59 54 80 55
REMARK SMILES IDX 47 56 31 57 32 58 40 59 33 60 39 61 41 62 38 63 34 64 35 65
REMARK SMILES IDX 36 66 37 67 63 68 64 69 72 70 65 71 71 72 73 73 70 74 66 75
REMARK SMILES IDX 67 76 68 77 69 78 48 79 49 80 57 81 50 82 56 83 58 84 55 85
REMARK SMILES IDX 51 86 52 87 53 88 54 89
REMARK H PARENT 78 42 46 53
REMARK Flexibility Score: inf
ROOT
ATOM      1  C   UNL A   1      33.804  34.549  29.632  1.00  0.00     0.274 C 
ENDROOT
BRANCH   1   2
ATOM      2  O   UNL A   1      33.794  33.920  30.927  1.00  0.00    -0.462 OA
BRANCH   2   3
ATOM      3  C   UNL A   1      34.713  34.355  31.827  1.00  0.00     0.313 C 
ATOM      4  O   UNL A   1      34.690  35.464  32.352  1.00  0.00    -0.252 OA
BRANCH   3   5
ATOM      5  C   UNL A   1      35.835  33.357  32.094  1.00  0.00     0.126 C 
ATOM      6  C   UNL A   1      35.976  33.133  33.599  1.00  0.00     0.025 C 
BRANCH   5   7
ATOM      7  C   UNL A   1      37.168  33.658  31.425  1.00  0.00    -0.034 A 
ATOM      8  C   UNL A   1      39.668  34.260  30.211  1.00  0.00    -0.018 A 
ATOM      9  C   UNL A   1      38.615  33.704  29.469  1.00  0.00     0.009 A 
ATOM     10  C   UNL A   1      39.454  34.496  31.575  1.00  0.00     0.009 A 
ATOM     11  C   UNL A   1      37.383  33.413  30.063  1.00  0.00     0.005 A 
ATOM     12  C   UNL A   1      38.223  34.201  32.174  1.00  0.00     0.005 A 
BRANCH   8  13
ATOM     13  C   UNL A   1      40.946  34.602  29.562  1.00  0.00    -0.018 A 
ATOM     14  C   UNL A   1      42.252  35.942  27.981  1.00  0.00    -0.026 A 
ATOM     15  C   UNL A   1      43.400  35.227  28.336  1.00  0.00     0.008 A 
ATOM     16  C   UNL A   1      41.030  35.613  28.588  1.00  0.00     0.016 A 
ATOM     17  C   UNL A   1      43.338  34.219  29.298  1.00  0.00     0.001 A 
ATOM     18  C   UNL A   1      42.120  33.913  29.905  1.00  0.00     0.009 A 
BRANCH  14  19
ATOM     19  C   UNL A   1      42.360  36.972  26.940  1.00  0.00     0.000 C 
ATOM     20  C   UNL A   1      43.051  38.111  27.076  1.00  0.00     0.009 C 
ENDBRANCH  14  19
ENDBRANCH   8  13
ENDBRANCH   5   7
ENDBRANCH   3   5
ENDBRANCH   2   3
ENDBRANCH   1   2
BRANCH   1  21
ATOM     21  C   UNL A   1      33.957  33.511  28.521  1.00  0.00     0.275 C 
BRANCH  21  22
ATOM     22  O   UNL A   1      34.312  32.228  29.063  1.00  0.00    -0.458 OA
BRANCH  22  23
ATOM     23  C   UNL A   1      34.579  31.268  28.145  1.00  0.00     0.338 C 
ATOM     24  O   UNL A   1      33.951  31.015  27.133  1.00  0.00    -0.246 OA
BRANCH  23  25
ATOM     25  C   UNL A   1      35.830  30.593  28.511  1.00  0.00     0.060 A 
ATOM     26  C   UNL A   1      35.891  29.899  29.721  1.00  0.00     0.016 A 
ATOM     27  C   UNL A   1      36.957  30.711  27.698  1.00  0.00     0.016 A 
ATOM     28  C   UNL A   1      37.089  29.321  30.134  1.00  0.00     0.010 A 
ATOM     29  C   UNL A   1      38.156  30.121  28.107  1.00  0.00     0.010 A 
ATOM     30  C   UNL A   1      38.232  29.434  29.331  1.00  0.00    -0.014 A 
BRANCH  30  31
ATOM     31  C   UNL A   1      39.529  28.880  29.788  1.00  0.00     0.031 A 
ATOM     32  C   UNL A   1      40.287  29.580  30.878  1.00  0.00     0.074 A 
ATOM     33  C   UNL A   1      40.027  27.769  29.214  1.00  0.00     0.049 A 
ATOM     34  N   UNL A   1      41.503  29.369  31.310  1.00  0.00    -0.248 NA
ATOM     35  C   UNL A   1      39.579  30.669  31.566  1.00  0.00     0.031 C 
ATOM     36  C   UNL A   1      39.351  26.974  28.188  1.00  0.00     0.029 A 
ATOM     37  N   UNL A   1      41.225  27.128  29.399  1.00  0.00    -0.354 N 
ATOM     38  C   UNL A   1      41.719  30.315  32.307  1.00  0.00     0.074 A 
ATOM     39  C   UNL A   1      40.512  31.110  32.398  1.00  0.00     0.031 C 
ATOM     40  C   UNL A   1      40.151  25.959  27.824  1.00  0.00     0.029 A 
ATOM     41  C   UNL A   1      41.417  26.067  28.543  1.00  0.00     0.049 A 
ATOM     42  H   UNL A   1      41.885  27.400  30.078  1.00  0.00     0.167 HD
ATOM     43  C   UNL A   1      42.825  30.499  33.068  1.00  0.00     0.034 A 
ATOM     44  C   UNL A   1      42.507  25.302  28.331  1.00  0.00     0.034 A 
ATOM     45  C   UNL A   1      44.017  29.692  32.957  1.00  0.00     0.049 A 
ATOM     46  C   UNL A   1      43.755  25.579  29.129  1.00  0.00     0.074 A 
ATOM     47  C   UNL A   1      45.194  29.785  33.680  1.00  0.00     0.029 A 
ATOM     48  N   UNL A   1      44.187  28.648  32.057  1.00  0.00    -0.354 N 
ATOM     49  N   UNL A   1      43.963  26.497  30.046  1.00  0.00    -0.248 NA
ATOM     50  C   UNL A   1      44.919  24.725  28.859  1.00  0.00     0.031 C 
ATOM     51  C   UNL A   1      46.093  28.837  33.177  1.00  0.00     0.029 A 
ATOM     52  C   UNL A   1      45.456  28.106  32.187  1.00  0.00     0.049 A 
ATOM     53  H   UNL A   1      43.503  28.337  31.420  1.00  0.00     0.167 HD
ATOM     54  C   UNL A   1      45.271  26.309  30.481  1.00  0.00     0.074 A 
ATOM     55  C   UNL A   1      45.803  25.191  29.729  1.00  0.00     0.031 C 
ATOM     56  C   UNL A   1      45.969  26.996  31.422  1.00  0.00     0.034 A 
BRANCH  43  57
ATOM     57  C   UNL A   1      42.812  31.656  34.038  1.00  0.00     0.023 A 
ATOM     58  C   UNL A   1      42.259  31.540  35.325  1.00  0.00     0.031 A 
ATOM     59  C   UNL A   1      43.331  32.904  33.652  1.00  0.00     0.131 A 
ATOM     60  C   UNL A   1      42.175  32.670  36.154  1.00  0.00     0.055 A 
ATOM     61  C   UNL A   1      43.312  34.006  34.510  1.00  0.00     0.041 A 
ATOM     62  F   UNL A   1      43.851  33.079  32.428  1.00  0.00    -0.206 F 
ATOM     63  C   UNL A   1      42.717  33.896  35.763  1.00  0.00     0.022 A 
BRANCH  60  64
ATOM     64  S   UNL A   1      41.224  32.548  37.694  1.00  0.00     0.124 S 
ATOM     65  O   UNL A   1      42.048  31.630  38.477  1.00  0.00    -0.237 OA
ATOM     66  O   UNL A   1      41.192  33.931  38.155  1.00  0.00    -0.237 OA
ATOM     67  O   UNL A   1      39.939  32.005  37.261  1.00  0.00    -0.744 OA
ENDBRANCH  60  64
ENDBRANCH  43  57
BRANCH  44  68
ATOM     68  C   UNL A   1      42.491  24.249  27.278  1.00  0.00     0.023 A 
ATOM     69  C   UNL A   1      41.794  23.046  27.464  1.00  0.00     0.031 A 
ATOM     70  C   UNL A   1      43.206  24.419  26.079  1.00  0.00     0.131 A 
ATOM     71  C   UNL A   1      41.855  22.044  26.481  1.00  0.00     0.055 A 
ATOM     72  C   UNL A   1      43.224  23.442  25.084  1.00  0.00     0.041 A 
ATOM     73  F   UNL A   1      43.892  25.552  25.852  1.00  0.00    -0.206 F 
ATOM     74  C   UNL A   1      42.554  22.240  25.288  1.00  0.00     0.022 A 
BRANCH  71  75
ATOM     75  S   UNL A   1      41.065  20.447  26.817  1.00  0.00     0.124 S 
ATOM     76  O   UNL A   1      40.937  20.477  28.270  1.00  0.00    -0.237 OA
ATOM     77  O   UNL A   1      39.821  20.559  26.062  1.00  0.00    -0.237 OA
ATOM     78  O   UNL A   1      42.024  19.476  26.295  1.00  0.00    -0.744 OA
ENDBRANCH  71  75
ENDBRANCH  44  68
BRANCH  56  79
ATOM     79  C   UNL A   1      47.365  26.514  31.723  1.00  0.00     0.023 A 
ATOM     80  C   UNL A   1      47.625  25.595  32.754  1.00  0.00     0.031 A 
ATOM     81  C   UNL A   1      48.448  26.981  30.958  1.00  0.00     0.131 A 
ATOM     82  C   UNL A   1      48.946  25.203  33.019  1.00  0.00     0.055 A 
ATOM     83  C   UNL A   1      49.753  26.551  31.195  1.00  0.00     0.041 A 
ATOM     84  F   UNL A   1      48.251  27.860  29.961  1.00  0.00    -0.206 F 
ATOM     85  C   UNL A   1      50.009  25.663  32.236  1.00  0.00     0.022 A 
BRANCH  82  86
ATOM     86  S   UNL A   1      49.269  24.123  34.440  1.00  0.00     0.124 S 
ATOM     87  O   UNL A   1      48.020  24.221  35.187  1.00  0.00    -0.237 OA
ATOM     88  O   UNL A   1      49.531  22.836  33.803  1.00  0.00    -0.237 OA
ATOM     89  O   UNL A   1      50.428  24.740  35.084  1.00  0.00    -0.744 OA
ENDBRANCH  82  86
ENDBRANCH  56  79
ENDBRANCH  30  31
ENDBRANCH  23  25
ENDBRANCH  22  23
ENDBRANCH  21  22
ENDBRANCH   1  21
TORSDOF 17
ENDMDL
MODEL 3
REMARK VINA RESULT:     -11.5      1.838      2.456
REMARK SMILES C=Cc1cccc(-c2ccc([C@@H](C)C(=O)OCCOC(=O)c3ccc(-c4c5nc(c(-c6cc(S(=O)(=O)[O-])ccc6F)c6ccc([nH]6)c(-c6cc(S(=O)(=O)[O-])ccc6F)c6nc(c(-c7cc(S(=O)(=O)[O-])ccc7F)c7ccc4[nH]7)C=C6)C=C5)cc3)cc2)c1
REMARK SMILES IDX 17 1 16 2 14 3 15 4 12 5 13 6 11 7 8 8 9 9 86 10 10 11 85 12
REMARK SMILES IDX 7 13 3 14 4 15 87 16 5 17 6 18 2 19 1 20 18 21 19 22 20 23
REMARK SMILES IDX 21 24 22 25 23 26 84 27 24 28 83 29 25 30 26 31 27 32 77 33
REMARK SMILES IDX 28 34 82 35 76 36 78 37 29 38 81 39 75 40 74 41 30 43 62 44
REMARK SMILES IDX 42 45 61 46 43 47 46 48 60 49 79 50 44 51 45 52 59 54 80 55
REMARK SMILES IDX 47 56 31 57 32 58 40 59 33 60 39 61 41 62 38 63 34 64 35 65
REMARK SMILES IDX 36 66 37 67 63 68 64 69 72 70 65 71 71 72 73 73 70 74 66 75
REMARK SMILES IDX 67 76 68 77 69 78 48 79 49 80 57 81 50 82 56 83 58 84 55 85
REMARK SMILES IDX 51 86 52 87 53 88 54 89
REMARK H PARENT 78 42 46 53
REMARK Flexibility Score: inf
ROOT
ATOM      1  C   UNL A   1      35.102  20.449  25.331  1.00  0.00     0.274 C 
ENDROOT
BRANCH   1   2
ATOM      2  O   UNL A   1      34.349  19.469  24.593  1.00  0.00    -0.462 OA
BRANCH   2   3
ATOM      3  C   UNL A   1      33.012  19.422  24.824  1.00  0.00     0.313 C 
ATOM      4  O   UNL A   1      32.479  18.659  25.625  1.00  0.00    -0.252 OA
BRANCH   3   5
ATOM      5  C   UNL A   1      32.201  20.370  23.947  1.00  0.00     0.126 C 
ATOM      6  C   UNL A   1      32.244  19.890  22.497  1.00  0.00     0.025 C 
BRANCH   5   7
ATOM      7  C   UNL A   1      32.533  21.849  24.080  1.00  0.00    -0.034 A 
ATOM      8  C   UNL A   1      33.109  24.619  24.360  1.00  0.00    -0.018 A 
ATOM      9  C   UNL A   1      33.487  23.910  23.209  1.00  0.00     0.009 A 
ATOM     10  C   UNL A   1      32.451  23.914  25.376  1.00  0.00     0.009 A 
ATOM     11  C   UNL A   1      33.200  22.550  23.067  1.00  0.00     0.005 A 
ATOM     12  C   UNL A   1      32.166  22.550  25.238  1.00  0.00     0.005 A 
BRANCH   8  13
ATOM     13  C   UNL A   1      33.381  26.062  24.477  1.00  0.00    -0.018 A 
ATOM     14  C   UNL A   1      33.862  28.047  25.830  1.00  0.00    -0.026 A 
ATOM     15  C   UNL A   1      33.893  28.823  24.667  1.00  0.00     0.008 A 
ATOM     16  C   UNL A   1      33.592  26.673  25.726  1.00  0.00     0.016 A 
ATOM     17  C   UNL A   1      33.684  28.237  23.419  1.00  0.00     0.001 A 
ATOM     18  C   UNL A   1      33.433  26.868  23.328  1.00  0.00     0.009 A 
BRANCH  14  19
ATOM     19  C   UNL A   1      34.055  28.713  27.124  1.00  0.00     0.000 C 
ATOM     20  C   UNL A   1      35.033  29.592  27.381  1.00  0.00     0.009 C 
ENDBRANCH  14  19
ENDBRANCH   8  13
ENDBRANCH   5   7
ENDBRANCH   3   5
ENDBRANCH   2   3
ENDBRANCH   1   2
BRANCH   1  21
ATOM     21  C   UNL A   1      36.582  20.402  24.949  1.00  0.00     0.275 C 
BRANCH  21  22
ATOM     22  O   UNL A   1      37.322  21.427  25.633  1.00  0.00    -0.458 OA
BRANCH  22  23
ATOM     23  C   UNL A   1      38.615  21.125  25.898  1.00  0.00     0.338 C 
ATOM     24  O   UNL A   1      39.193  20.078  25.672  1.00  0.00    -0.246 OA
BRANCH  23  25
ATOM     25  C   UNL A   1      39.278  22.312  26.451  1.00  0.00     0.060 A 
ATOM     26  C   UNL A   1      38.830  23.576  26.062  1.00  0.00     0.016 A 
ATOM     27  C   UNL A   1      40.386  22.174  27.288  1.00  0.00     0.016 A 
ATOM     28  C   UNL A   1      39.495  24.718  26.502  1.00  0.00     0.010 A 
ATOM     29  C   UNL A   1      41.045  23.320  27.739  1.00  0.00     0.010 A 
ATOM     30  C   UNL A   1      40.611  24.597  27.340  1.00  0.00    -0.014 A 
BRANCH  30  31
ATOM     31  C   UNL A   1      41.366  25.800  27.764  1.00  0.00     0.031 A 
ATOM     32  C   UNL A   1      40.661  26.883  28.526  1.00  0.00     0.074 A 
ATOM     33  C   UNL A   1      42.670  25.923  27.451  1.00  0.00     0.049 A 
ATOM     34  N   UNL A   1      41.078  28.081  28.845  1.00  0.00    -0.248 NA
ATOM     35  C   UNL A   1      39.296  26.577  28.980  1.00  0.00     0.031 C 
ATOM     36  C   UNL A   1      43.471  24.908  26.765  1.00  0.00     0.029 A 
ATOM     37  N   UNL A   1      43.543  26.961  27.651  1.00  0.00    -0.354 N 
ATOM     38  C   UNL A   1      40.022  28.682  29.519  1.00  0.00     0.074 A 
ATOM     39  C   UNL A   1      38.938  27.721  29.543  1.00  0.00     0.031 C 
ATOM     40  C   UNL A   1      44.716  25.380  26.589  1.00  0.00     0.029 A 
ATOM     41  C   UNL A   1      44.783  26.749  27.092  1.00  0.00     0.049 A 
ATOM     42  H   UNL A   1      43.306  27.779  28.146  1.00  0.00     0.167 HD
ATOM     43  C   UNL A   1      39.965  29.924  30.061  1.00  0.00     0.034 A 
ATOM     44  C   UNL A   1      45.834  27.583  26.959  1.00  0.00     0.034 A 
ATOM     45  C   UNL A   1      41.060  30.864  30.023  1.00  0.00     0.049 A 
ATOM     46  C   UNL A   1      45.720  28.988  27.494  1.00  0.00     0.074 A 
ATOM     47  C   UNL A   1      41.117  32.146  30.544  1.00  0.00     0.029 A 
ATOM     48  N   UNL A   1      42.289  30.627  29.421  1.00  0.00    -0.354 N 
ATOM     49  N   UNL A   1      44.705  29.560  28.100  1.00  0.00    -0.248 NA
ATOM     50  C   UNL A   1      46.888  29.861  27.321  1.00  0.00     0.031 C 
ATOM     51  C   UNL A   1      42.356  32.702  30.206  1.00  0.00     0.029 A 
ATOM     52  C   UNL A   1      43.100  31.746  29.532  1.00  0.00     0.049 A 
ATOM     53  H   UNL A   1      42.547  29.785  28.979  1.00  0.00     0.167 HD
ATOM     54  C   UNL A   1      45.125  30.852  28.404  1.00  0.00     0.074 A 
ATOM     55  C   UNL A   1      46.485  30.972  27.918  1.00  0.00     0.031 C 
ATOM     56  C   UNL A   1      44.450  31.847  29.034  1.00  0.00     0.034 A 
BRANCH  43  57
ATOM     57  C   UNL A   1      38.656  30.349  30.681  1.00  0.00     0.023 A 
ATOM     58  C   UNL A   1      37.762  31.204  30.016  1.00  0.00     0.031 A 
ATOM     59  C   UNL A   1      38.317  29.917  31.975  1.00  0.00     0.131 A 
ATOM     60  C   UNL A   1      36.606  31.656  30.672  1.00  0.00     0.055 A 
ATOM     61  C   UNL A   1      37.129  30.311  32.596  1.00  0.00     0.041 A 
ATOM     62  F   UNL A   1      39.143  29.118  32.668  1.00  0.00    -0.206 F 
ATOM     63  C   UNL A   1      36.273  31.198  31.949  1.00  0.00     0.022 A 
BRANCH  60  64
ATOM     64  S   UNL A   1      35.614  32.958  29.889  1.00  0.00     0.124 S 
ATOM     65  O   UNL A   1      35.272  33.797  31.034  1.00  0.00    -0.237 OA
ATOM     66  O   UNL A   1      36.550  33.534  28.930  1.00  0.00    -0.237 OA
ATOM     67  O   UNL A   1      34.492  32.227  29.304  1.00  0.00    -0.744 OA
ENDBRANCH  60  64
ENDBRANCH  43  57
BRANCH  44  68
ATOM     68  C   UNL A   1      47.058  27.138  26.235  1.00  0.00     0.023 A 
ATOM     69  C   UNL A   1      48.086  26.452  26.900  1.00  0.00     0.031 A 
ATOM     70  C   UNL A   1      47.231  27.426  24.869  1.00  0.00     0.131 A 
ATOM     71  C   UNL A   1      49.257  26.106  26.205  1.00  0.00     0.055 A 
ATOM     72  C   UNL A   1      48.375  27.037  24.172  1.00  0.00     0.041 A 
ATOM     73  F   UNL A   1      46.278  28.082  24.188  1.00  0.00    -0.206 F 
ATOM     74  C   UNL A   1      49.401  26.382  24.843  1.00  0.00     0.022 A 
BRANCH  71  75
ATOM     75  S   UNL A   1      50.624  25.352  27.128  1.00  0.00     0.124 S 
ATOM     76  O   UNL A   1      51.533  24.968  26.053  1.00  0.00    -0.237 OA
ATOM     77  O   UNL A   1      51.063  26.455  27.976  1.00  0.00    -0.237 OA
ATOM     78  O   UNL A   1      49.988  24.241  27.833  1.00  0.00    -0.744 OA
ENDBRANCH  71  75
ENDBRANCH  44  68
BRANCH  56  79
ATOM     79  C   UNL A   1      45.200  33.132  29.278  1.00  0.00     0.023 A 
ATOM     80  C   UNL A   1      45.242  34.157  28.319  1.00  0.00     0.031 A 
ATOM     81  C   UNL A   1      45.877  33.328  30.495  1.00  0.00     0.131 A 
ATOM     82  C   UNL A   1      45.982  35.321  28.578  1.00  0.00     0.055 A 
ATOM     83  C   UNL A   1      46.571  34.507  30.765  1.00  0.00     0.041 A 
ATOM     84  F   UNL A   1      45.865  32.377  31.443  1.00  0.00    -0.206 F 
ATOM     85  C   UNL A   1      46.634  35.508  29.801  1.00  0.00     0.022 A 
BRANCH  82  86
ATOM     86  S   UNL A   1      46.133  36.571  27.271  1.00  0.00     0.124 S 
ATOM     87  O   UNL A   1      46.187  35.748  26.068  1.00  0.00    -0.237 OA
ATOM     88  O   UNL A   1      44.918  37.360  27.450  1.00  0.00    -0.237 OA
ATOM     89  O   UNL A   1      47.376  37.267  27.603  1.00  0.00    -0.744 OA
ENDBRANCH  82  86
ENDBRANCH  56  79
ENDBRANCH  30  31
ENDBRANCH  23  25
ENDBRANCH  22  23
ENDBRANCH  21  22
ENDBRANCH   1  21
TORSDOF 17
ENDMDL
