MODEL 1
REMARK VINA RESULT:     -10.6      0.000      0.000
REMARK SMILES CCC(CC)(NC(=O)C[C@@H]1CCC[NH2+]C1)C(=O)OCCOC(=O)c1ccc(-c2c3nc(c(-c4cc(S(=O)(=O)[O-])ccc4F)c4ccc([nH]4)c(-c4cc(S(=O)(=O)[O-])ccc4F)c4nc(c(-c5cc(S(=O)(=O)[O-])ccc5F)c5ccc2[nH]5)C=C4)C=C3)cc1
REMARK SMILES IDX 19 1 18 2 16 3 17 4 3 5 2 6 1 7 4 8 5 9 6 10 7 11 8 13 9 14
REMARK SMILES IDX 10 15 11 16 15 17 12 18 14 19 13 20 20 23 21 24 22 25 23 26
REMARK SMILES IDX 24 27 25 28 86 29 26 30 85 31 27 32 28 33 29 34 79 35 30 36
REMARK SMILES IDX 84 37 78 38 80 39 31 40 83 41 77 42 76 43 32 45 64 46 44 47
REMARK SMILES IDX 63 48 45 49 48 50 62 51 81 52 46 53 47 54 61 56 82 57 49 58
REMARK SMILES IDX 33 59 34 60 42 61 35 62 41 63 43 64 40 65 36 66 37 67 38 68
REMARK SMILES IDX 39 69 65 70 66 71 74 72 67 73 73 74 75 75 72 76 68 77 69 78
REMARK SMILES IDX 70 79 71 80 50 81 51 82 59 83 52 84 58 85 60 86 57 87 53 88
REMARK SMILES IDX 54 89 55 90 56 91
REMARK H PARENT 6 12 14 21 14 22 80 44 48 55
REMARK Flexibility Score: inf
ROOT
ATOM      1  C   UNL A   1      36.584  22.184  24.058  1.00  0.00     0.274 C 
ENDROOT
BRANCH   1   2
ATOM      2  O   UNL A   1      35.195  21.822  23.893  1.00  0.00    -0.460 OA
BRANCH   2   3
ATOM      3  C   UNL A   1      34.392  22.124  24.949  1.00  0.00     0.331 C 
ATOM      4  O   UNL A   1      34.424  21.493  26.003  1.00  0.00    -0.249 OA
BRANCH   3   5
ATOM      5  C   UNL A   1      33.533  23.426  24.768  1.00  0.00     0.137 C 
BRANCH   5   6
ATOM      6  C   UNL A   1      33.903  24.438  25.880  1.00  0.00     0.037 C 
ATOM      7  C   UNL A   1      34.138  25.883  25.421  1.00  0.00     0.007 C 
ENDBRANCH   5   6
BRANCH   5   8
ATOM      8  C   UNL A   1      32.038  22.956  24.945  1.00  0.00     0.037 C 
ATOM      9  C   UNL A   1      31.396  23.211  26.313  1.00  0.00     0.007 C 
ENDBRANCH   5   8
BRANCH   5  10
ATOM     10  N   UNL A   1      33.574  24.138  23.443  1.00  0.00    -0.340 N 
ATOM     11  C   UNL A   1      32.748  24.624  22.493  1.00  0.00     0.221 C 
ATOM     12  H   UNL A   1      34.510  24.305  23.186  1.00  0.00     0.164 HD
ATOM     13  O   UNL A   1      33.236  24.653  21.356  1.00  0.00    -0.275 OA
BRANCH  11  14
ATOM     14  C   UNL A   1      31.402  25.265  22.724  1.00  0.00     0.109 C 
BRANCH  14  15
ATOM     15  C   UNL A   1      31.327  26.457  23.680  1.00  0.00     0.054 C 
ATOM     16  C   UNL A   1      29.980  26.649  24.383  1.00  0.00     0.016 C 
ATOM     17  C   UNL A   1      31.730  27.754  22.937  1.00  0.00     0.264 C 
ATOM     18  C   UNL A   1      28.935  27.294  23.482  1.00  0.00     0.062 C 
ATOM     19  N   UNL A   1      30.681  28.287  22.067  1.00  0.00    -0.346 N 
ATOM     20  C   UNL A   1      29.472  28.570  22.845  1.00  0.00     0.260 C 
ATOM     21  H   UNL A   1      31.010  29.148  21.632  1.00  0.00     0.346 HD
ATOM     22  H   UNL A   1      30.461  27.595  21.350  1.00  0.00     0.346 HD
ENDBRANCH  14  15
ENDBRANCH  11  14
ENDBRANCH   5  10
ENDBRANCH   3   5
ENDBRANCH   2   3
ENDBRANCH   1   2
BRANCH   1  23
ATOM     23  C   UNL A   1      37.439  21.015  24.579  1.00  0.00     0.275 C 
BRANCH  23  24
ATOM     24  O   UNL A   1      37.937  21.158  25.927  1.00  0.00    -0.458 OA
BRANCH  24  25
ATOM     25  C   UNL A   1      39.252  21.418  26.076  1.00  0.00     0.338 C 
ATOM     26  O   UNL A   1      40.167  20.638  25.864  1.00  0.00    -0.246 OA
BRANCH  25  27
ATOM     27  C   UNL A   1      39.436  22.720  26.756  1.00  0.00     0.060 A 
ATOM     28  C   UNL A   1      40.518  22.801  27.622  1.00  0.00     0.016 A 
ATOM     29  C   UNL A   1      38.673  23.862  26.515  1.00  0.00     0.016 A 
ATOM     30  C   UNL A   1      40.855  23.990  28.259  1.00  0.00     0.010 A 
ATOM     31  C   UNL A   1      39.103  25.103  27.040  1.00  0.00     0.010 A 
ATOM     32  C   UNL A   1      40.238  25.185  27.868  1.00  0.00    -0.014 A 
BRANCH  32  33
ATOM     33  C   UNL A   1      40.976  26.461  28.138  1.00  0.00     0.031 A 
ATOM     34  C   UNL A   1      42.394  26.696  27.703  1.00  0.00     0.074 A 
ATOM     35  C   UNL A   1      40.301  27.462  28.752  1.00  0.00     0.049 A 
ATOM     36  N   UNL A   1      43.150  27.749  27.899  1.00  0.00    -0.248 NA
ATOM     37  C   UNL A   1      43.050  25.616  26.958  1.00  0.00     0.031 C 
ATOM     38  C   UNL A   1      38.909  27.374  29.213  1.00  0.00     0.029 A 
ATOM     39  N   UNL A   1      40.656  28.753  29.065  1.00  0.00    -0.354 N 
ATOM     40  C   UNL A   1      44.376  27.463  27.309  1.00  0.00     0.074 A 
ATOM     41  C   UNL A   1      44.264  26.120  26.768  1.00  0.00     0.031 C 
ATOM     42  C   UNL A   1      38.509  28.569  29.661  1.00  0.00     0.029 A 
ATOM     43  C   UNL A   1      39.642  29.482  29.649  1.00  0.00     0.049 A 
ATOM     44  H   UNL A   1      41.552  29.122  28.888  1.00  0.00     0.167 HD
ATOM     45  C   UNL A   1      45.485  28.246  27.230  1.00  0.00     0.034 A 
ATOM     46  C   UNL A   1      39.618  30.727  30.164  1.00  0.00     0.034 A 
ATOM     47  C   UNL A   1      45.584  29.578  27.790  1.00  0.00     0.049 A 
ATOM     48  C   UNL A   1      40.880  31.542  30.122  1.00  0.00     0.074 A 
ATOM     49  C   UNL A   1      46.678  30.431  27.804  1.00  0.00     0.029 A 
ATOM     50  N   UNL A   1      44.556  30.258  28.434  1.00  0.00    -0.354 N 
ATOM     51  N   UNL A   1      42.047  31.225  29.610  1.00  0.00    -0.248 NA
ATOM     52  C   UNL A   1      40.827  32.874  30.733  1.00  0.00     0.031 C 
ATOM     53  C   UNL A   1      46.331  31.592  28.508  1.00  0.00     0.029 A 
ATOM     54  C   UNL A   1      44.998  31.504  28.867  1.00  0.00     0.049 A 
ATOM     55  H   UNL A   1      43.646  29.907  28.566  1.00  0.00     0.167 HD
ATOM     56  C   UNL A   1      42.866  32.326  29.834  1.00  0.00     0.074 A 
ATOM     57  C   UNL A   1      42.046  33.328  30.485  1.00  0.00     0.031 C 
ATOM     58  C   UNL A   1      44.182  32.489  29.541  1.00  0.00     0.034 A 
BRANCH  45  59
ATOM     59  C   UNL A   1      46.706  27.651  26.565  1.00  0.00     0.023 A 
ATOM     60  C   UNL A   1      47.031  27.930  25.225  1.00  0.00     0.031 A 
ATOM     61  C   UNL A   1      47.549  26.776  27.274  1.00  0.00     0.131 A 
ATOM     62  C   UNL A   1      48.123  27.286  24.620  1.00  0.00     0.055 A 
ATOM     63  C   UNL A   1      48.680  26.201  26.690  1.00  0.00     0.041 A 
ATOM     64  F   UNL A   1      47.282  26.457  28.551  1.00  0.00    -0.206 F 
ATOM     65  C   UNL A   1      48.964  26.443  25.351  1.00  0.00     0.022 A 
BRANCH  62  66
ATOM     66  S   UNL A   1      48.344  27.452  22.828  1.00  0.00     0.124 S 
ATOM     67  O   UNL A   1      48.374  26.054  22.406  1.00  0.00    -0.237 OA
ATOM     68  O   UNL A   1      47.166  28.214  22.434  1.00  0.00    -0.237 OA
ATOM     69  O   UNL A   1      49.617  28.160  22.703  1.00  0.00    -0.744 OA
ENDBRANCH  62  66
ENDBRANCH  45  59
BRANCH  46  70
ATOM     70  C   UNL A   1      38.391  31.245  30.845  1.00  0.00     0.023 A 
ATOM     71  C   UNL A   1      37.334  31.820  30.122  1.00  0.00     0.031 A 
ATOM     72  C   UNL A   1      38.284  31.215  32.249  1.00  0.00     0.131 A 
ATOM     73  C   UNL A   1      36.242  32.381  30.807  1.00  0.00     0.055 A 
ATOM     74  C   UNL A   1      37.165  31.707  32.920  1.00  0.00     0.041 A 
ATOM     75  F   UNL A   1      39.267  30.686  32.995  1.00  0.00    -0.206 F 
ATOM     76  C   UNL A   1      36.141  32.310  32.198  1.00  0.00     0.022 A 
BRANCH  73  77
ATOM     77  S   UNL A   1      35.002  33.308  29.860  1.00  0.00     0.124 S 
ATOM     78  O   UNL A   1      35.838  34.218  29.085  1.00  0.00    -0.237 OA
ATOM     79  O   UNL A   1      34.340  32.248  29.108  1.00  0.00    -0.237 OA
ATOM     80  O   UNL A   1      34.186  33.939  30.896  1.00  0.00    -0.744 OA
ENDBRANCH  73  77
ENDBRANCH  46  70
BRANCH  58  81
ATOM     81  C   UNL A   1      44.791  33.822  29.907  1.00  0.00     0.023 A 
ATOM     82  C   UNL A   1      44.744  34.921  29.029  1.00  0.00     0.031 A 
ATOM     83  C   UNL A   1      45.488  33.977  31.118  1.00  0.00     0.131 A 
ATOM     84  C   UNL A   1      45.447  36.095  29.337  1.00  0.00     0.055 A 
ATOM     85  C   UNL A   1      46.127  35.172  31.451  1.00  0.00     0.041 A 
ATOM     86  F   UNL A   1      45.573  32.961  31.993  1.00  0.00    -0.206 F 
ATOM     87  C   UNL A   1      46.126  36.234  30.550  1.00  0.00     0.022 A 
BRANCH  84  88
ATOM     88  S   UNL A   1      45.576  37.388  28.071  1.00  0.00     0.124 S 
ATOM     89  O   UNL A   1      44.937  36.754  26.922  1.00  0.00    -0.237 OA
ATOM     90  O   UNL A   1      44.842  38.494  28.679  1.00  0.00    -0.237 OA
ATOM     91  O   UNL A   1      47.017  37.599  27.942  1.00  0.00    -0.744 OA
ENDBRANCH  84  88
ENDBRANCH  58  81
ENDBRANCH  32  33
ENDBRANCH  25  27
ENDBRANCH  24  25
ENDBRANCH  23  24
ENDBRANCH   1  23
TORSDOF 19
ENDMDL
MODEL 2
REMARK VINA RESULT:     -10.5      1.776      3.244
REMARK SMILES CCC(CC)(NC(=O)C[C@@H]1CCC[NH2+]C1)C(=O)OCCOC(=O)c1ccc(-c2c3nc(c(-c4cc(S(=O)(=O)[O-])ccc4F)c4ccc([nH]4)c(-c4cc(S(=O)(=O)[O-])ccc4F)c4nc(c(-c5cc(S(=O)(=O)[O-])ccc5F)c5ccc2[nH]5)C=C4)C=C3)cc1
REMARK SMILES IDX 19 1 18 2 16 3 17 4 3 5 2 6 1 7 4 8 5 9 6 10 7 11 8 13 9 14
REMARK SMILES IDX 10 15 11 16 15 17 12 18 14 19 13 20 20 23 21 24 22 25 23 26
REMARK SMILES IDX 24 27 25 28 86 29 26 30 85 31 27 32 28 33 29 34 79 35 30 36
REMARK SMILES IDX 84 37 78 38 80 39 31 40 83 41 77 42 76 43 32 45 64 46 44 47
REMARK SMILES IDX 63 48 45 49 48 50 62 51 81 52 46 53 47 54 61 56 82 57 49 58
REMARK SMILES IDX 33 59 34 60 42 61 35 62 41 63 43 64 40 65 36 66 37 67 38 68
REMARK SMILES IDX 39 69 65 70 66 71 74 72 67 73 73 74 75 75 72 76 68 77 69 78
REMARK SMILES IDX 70 79 71 80 50 81 51 82 59 83 52 84 58 85 60 86 57 87 53 88
REMARK SMILES IDX 54 89 55 90 56 91
REMARK H PARENT 6 12 14 21 14 22 80 44 48 55
REMARK Flexibility Score: inf
ROOT
ATOM      1  C   UNL A   1      36.471  20.920  25.326  1.00  0.00     0.274 C 
ENDROOT
BRANCH   1   2
ATOM      2  O   UNL A   1      35.978  22.134  25.936  1.00  0.00    -0.460 OA
BRANCH   2   3
ATOM      3  C   UNL A   1      34.701  22.068  26.400  1.00  0.00     0.331 C 
ATOM      4  O   UNL A   1      34.418  21.562  27.484  1.00  0.00    -0.249 OA
BRANCH   3   5
ATOM      5  C   UNL A   1      33.643  22.817  25.514  1.00  0.00     0.137 C 
BRANCH   5   6
ATOM      6  C   UNL A   1      34.360  23.903  24.674  1.00  0.00     0.037 C 
ATOM      7  C   UNL A   1      34.202  23.788  23.153  1.00  0.00     0.007 C 
ENDBRANCH   5   6
BRANCH   5   8
ATOM      8  C   UNL A   1      32.658  23.497  26.542  1.00  0.00     0.037 C 
ATOM      9  C   UNL A   1      31.353  24.060  25.972  1.00  0.00     0.007 C 
ENDBRANCH   5   8
BRANCH   5  10
ATOM     10  N   UNL A   1      32.767  22.007  24.597  1.00  0.00    -0.340 N 
ATOM     11  C   UNL A   1      32.675  20.773  24.061  1.00  0.00     0.221 C 
ATOM     12  H   UNL A   1      32.013  22.560  24.286  1.00  0.00     0.164 HD
ATOM     13  O   UNL A   1      32.092  20.729  22.969  1.00  0.00    -0.275 OA
BRANCH  11  14
ATOM     14  C   UNL A   1      33.057  19.478  24.734  1.00  0.00     0.109 C 
BRANCH  14  15
ATOM     15  C   UNL A   1      32.497  18.175  24.160  1.00  0.00     0.054 C 
ATOM     16  C   UNL A   1      32.061  17.136  25.196  1.00  0.00     0.016 C 
ATOM     17  C   UNL A   1      33.517  17.551  23.176  1.00  0.00     0.264 C 
ATOM     18  C   UNL A   1      33.238  16.376  25.796  1.00  0.00     0.062 C 
ATOM     19  N   UNL A   1      34.633  16.872  23.835  1.00  0.00    -0.346 N 
ATOM     20  C   UNL A   1      34.133  15.803  24.704  1.00  0.00     0.260 C 
ATOM     21  H   UNL A   1      35.248  16.470  23.127  1.00  0.00     0.346 HD
ATOM     22  H   UNL A   1      35.147  17.547  24.400  1.00  0.00     0.346 HD
ENDBRANCH  14  15
ENDBRANCH  11  14
ENDBRANCH   5  10
ENDBRANCH   3   5
ENDBRANCH   2   3
ENDBRANCH   1   2
BRANCH   1  23
ATOM     23  C   UNL A   1      37.997  20.936  25.134  1.00  0.00     0.275 C 
BRANCH  23  24
ATOM     24  O   UNL A   1      38.780  20.750  26.333  1.00  0.00    -0.458 OA
BRANCH  24  25
ATOM     25  C   UNL A   1      40.049  21.206  26.321  1.00  0.00     0.338 C 
ATOM     26  O   UNL A   1      41.038  20.568  25.994  1.00  0.00    -0.246 OA
BRANCH  25  27
ATOM     27  C   UNL A   1      40.117  22.530  26.978  1.00  0.00     0.060 A 
ATOM     28  C   UNL A   1      41.154  22.702  27.885  1.00  0.00     0.016 A 
ATOM     29  C   UNL A   1      39.289  23.613  26.683  1.00  0.00     0.016 A 
ATOM     30  C   UNL A   1      41.384  23.923  28.509  1.00  0.00     0.010 A 
ATOM     31  C   UNL A   1      39.612  24.890  27.196  1.00  0.00     0.010 A 
ATOM     32  C   UNL A   1      40.704  25.065  28.067  1.00  0.00    -0.014 A 
BRANCH  32  33
ATOM     33  C   UNL A   1      41.343  26.394  28.338  1.00  0.00     0.031 A 
ATOM     34  C   UNL A   1      42.736  26.740  27.896  1.00  0.00     0.074 A 
ATOM     35  C   UNL A   1      40.596  27.338  28.959  1.00  0.00     0.049 A 
ATOM     36  N   UNL A   1      43.408  27.847  28.091  1.00  0.00    -0.248 NA
ATOM     37  C   UNL A   1      43.469  25.715  27.143  1.00  0.00     0.031 C 
ATOM     38  C   UNL A   1      39.217  27.140  29.427  1.00  0.00     0.029 A 
ATOM     39  N   UNL A   1      40.851  28.651  29.275  1.00  0.00    -0.354 N 
ATOM     40  C   UNL A   1      44.650  27.659  27.493  1.00  0.00     0.074 A 
ATOM     41  C   UNL A   1      44.639  26.313  26.949  1.00  0.00     0.031 C 
ATOM     42  C   UNL A   1      38.729  28.299  29.882  1.00  0.00     0.029 A 
ATOM     43  C   UNL A   1      39.787  29.297  29.867  1.00  0.00     0.049 A 
ATOM     44  H   UNL A   1      41.715  29.089  29.094  1.00  0.00     0.167 HD
ATOM     45  C   UNL A   1      45.694  28.526  27.412  1.00  0.00     0.034 A 
ATOM     46  C   UNL A   1      39.669  30.535  30.387  1.00  0.00     0.034 A 
ATOM     47  C   UNL A   1      45.693  29.860  27.976  1.00  0.00     0.049 A 
ATOM     48  C   UNL A   1      40.865  31.445  30.342  1.00  0.00     0.074 A 
ATOM     49  C   UNL A   1      46.717  30.795  27.987  1.00  0.00     0.029 A 
ATOM     50  N   UNL A   1      44.619  30.456  28.629  1.00  0.00    -0.354 N 
ATOM     51  N   UNL A   1      42.050  31.222  29.821  1.00  0.00    -0.248 NA
ATOM     52  C   UNL A   1      40.712  32.767  30.957  1.00  0.00     0.031 C 
ATOM     53  C   UNL A   1      46.286  31.923  28.698  1.00  0.00     0.029 A 
ATOM     54  C   UNL A   1      44.966  31.731  29.064  1.00  0.00     0.049 A 
ATOM     55  H   UNL A   1      43.740  30.035  28.764  1.00  0.00     0.167 HD
ATOM     56  C   UNL A   1      42.782  32.382  30.046  1.00  0.00     0.074 A 
ATOM     57  C   UNL A   1      41.890  33.315  30.705  1.00  0.00     0.031 C 
ATOM     58  C   UNL A   1      44.080  32.647  29.745  1.00  0.00     0.034 A 
BRANCH  45  59
ATOM     59  C   UNL A   1      46.954  28.030  26.738  1.00  0.00     0.023 A 
ATOM     60  C   UNL A   1      47.143  28.136  25.348  1.00  0.00     0.031 A 
ATOM     61  C   UNL A   1      47.974  27.422  27.492  1.00  0.00     0.131 A 
ATOM     62  C   UNL A   1      48.288  27.582  24.752  1.00  0.00     0.055 A 
ATOM     63  C   UNL A   1      49.147  26.944  26.903  1.00  0.00     0.041 A 
ATOM     64  F   UNL A   1      47.845  27.274  28.821  1.00  0.00    -0.206 F 
ATOM     65  C   UNL A   1      49.303  27.009  25.523  1.00  0.00     0.022 A 
BRANCH  62  66
ATOM     66  S   UNL A   1      48.366  27.490  22.942  1.00  0.00     0.124 S 
ATOM     67  O   UNL A   1      47.179  28.250  22.559  1.00  0.00    -0.237 OA
ATOM     68  O   UNL A   1      49.649  28.117  22.649  1.00  0.00    -0.237 OA
ATOM     69  O   UNL A   1      48.294  26.056  22.668  1.00  0.00    -0.744 OA
ENDBRANCH  62  66
ENDBRANCH  45  59
BRANCH  46  70
ATOM     70  C   UNL A   1      38.410  30.954  31.077  1.00  0.00     0.023 A 
ATOM     71  C   UNL A   1      37.358  31.569  30.380  1.00  0.00     0.031 A 
ATOM     72  C   UNL A   1      38.265  30.786  32.467  1.00  0.00     0.131 A 
ATOM     73  C   UNL A   1      36.232  32.033  31.082  1.00  0.00     0.055 A 
ATOM     74  C   UNL A   1      37.114  31.183  33.148  1.00  0.00     0.041 A 
ATOM     75  F   UNL A   1      39.241  30.213  33.189  1.00  0.00    -0.206 F 
ATOM     76  C   UNL A   1      36.095  31.827  32.456  1.00  0.00     0.022 A 
BRANCH  73  77
ATOM     77  S   UNL A   1      34.994  33.016  30.191  1.00  0.00     0.124 S 
ATOM     78  O   UNL A   1      35.796  34.129  29.695  1.00  0.00    -0.237 OA
ATOM     79  O   UNL A   1      34.521  32.070  29.187  1.00  0.00    -0.237 OA
ATOM     80  O   UNL A   1      34.023  33.360  31.228  1.00  0.00    -0.744 OA
ENDBRANCH  73  77
ENDBRANCH  46  70
BRANCH  58  81
ATOM     81  C   UNL A   1      44.586  34.022  30.114  1.00  0.00     0.023 A 
ATOM     82  C   UNL A   1      44.497  35.105  29.218  1.00  0.00     0.031 A 
ATOM     83  C   UNL A   1      45.227  34.238  31.346  1.00  0.00     0.131 A 
ATOM     84  C   UNL A   1      45.110  36.326  29.533  1.00  0.00     0.055 A 
ATOM     85  C   UNL A   1      45.773  35.478  31.683  1.00  0.00     0.041 A 
ATOM     86  F   UNL A   1      45.347  33.241  32.238  1.00  0.00    -0.206 F 
ATOM     87  C   UNL A   1      45.734  36.525  30.767  1.00  0.00     0.022 A 
BRANCH  84  88
ATOM     88  S   UNL A   1      45.199  37.610  28.253  1.00  0.00     0.124 S 
ATOM     89  O   UNL A   1      45.587  36.840  27.077  1.00  0.00    -0.237 OA
ATOM     90  O   UNL A   1      43.839  38.140  28.249  1.00  0.00    -0.237 OA
ATOM     91  O   UNL A   1      46.219  38.528  28.759  1.00  0.00    -0.744 OA
ENDBRANCH  84  88
ENDBRANCH  58  81
ENDBRANCH  32  33
ENDBRANCH  25  27
ENDBRANCH  24  25
ENDBRANCH  23  24
ENDBRANCH   1  23
TORSDOF 19
ENDMDL
MODEL 3
REMARK VINA RESULT:     -10.5      2.522      8.511
REMARK SMILES CCC(CC)(NC(=O)C[C@@H]1CCC[NH2+]C1)C(=O)OCCOC(=O)c1ccc(-c2c3nc(c(-c4cc(S(=O)(=O)[O-])ccc4F)c4ccc([nH]4)c(-c4cc(S(=O)(=O)[O-])ccc4F)c4nc(c(-c5cc(S(=O)(=O)[O-])ccc5F)c5ccc2[nH]5)C=C4)C=C3)cc1
REMARK SMILES IDX 19 1 18 2 16 3 17 4 3 5 2 6 1 7 4 8 5 9 6 10 7 11 8 13 9 14
REMARK SMILES IDX 10 15 11 16 15 17 12 18 14 19 13 20 20 23 21 24 22 25 23 26
REMARK SMILES IDX 24 27 25 28 86 29 26 30 85 31 27 32 28 33 29 34 79 35 30 36
REMARK SMILES IDX 84 37 78 38 80 39 31 40 83 41 77 42 76 43 32 45 64 46 44 47
REMARK SMILES IDX 63 48 45 49 48 50 62 51 81 52 46 53 47 54 61 56 82 57 49 58
REMARK SMILES IDX 33 59 34 60 42 61 35 62 41 63 43 64 40 65 36 66 37 67 38 68
REMARK SMILES IDX 39 69 65 70 66 71 74 72 67 73 73 74 75 75 72 76 68 77 69 78
REMARK SMILES IDX 70 79 71 80 50 81 51 82 59 83 52 84 58 85 60 86 57 87 53 88
REMARK SMILES IDX 54 89 55 90 56 91
REMARK H PARENT 6 12 14 21 14 22 80 44 48 55
REMARK Flexibility Score: inf
ROOT
ATOM      1  C   UNL A   1      37.033  21.941  24.321  1.00  0.00     0.274 C 
ENDROOT
BRANCH   1   2
ATOM      2  O   UNL A   1      35.627  21.716  24.076  1.00  0.00    -0.460 OA
BRANCH   2   3
ATOM      3  C   UNL A   1      34.818  21.899  25.154  1.00  0.00     0.331 C 
ATOM      4  O   UNL A   1      35.212  21.744  26.308  1.00  0.00    -0.249 OA
BRANCH   3   5
ATOM      5  C   UNL A   1      33.394  22.465  24.815  1.00  0.00     0.137 C 
BRANCH   5   6
ATOM      6  C   UNL A   1      33.502  23.984  24.535  1.00  0.00     0.037 C 
ATOM      7  C   UNL A   1      34.237  24.811  25.597  1.00  0.00     0.007 C 
ENDBRANCH   5   6
BRANCH   5   8
ATOM      8  C   UNL A   1      32.537  22.219  26.117  1.00  0.00     0.037 C 
ATOM      9  C   UNL A   1      31.078  22.683  26.076  1.00  0.00     0.007 C 
ENDBRANCH   5   8
BRANCH   5  10
ATOM     10  N   UNL A   1      32.612  21.830  23.697  1.00  0.00    -0.340 N 
ATOM     11  C   UNL A   1      32.305  20.615  23.196  1.00  0.00     0.221 C 
ATOM     12  H   UNL A   1      32.185  22.530  23.152  1.00  0.00     0.164 HD
ATOM     13  O   UNL A   1      32.073  20.606  21.980  1.00  0.00    -0.275 OA
BRANCH  11  14
ATOM     14  C   UNL A   1      32.064  19.357  23.993  1.00  0.00     0.109 C 
BRANCH  14  15
ATOM     15  C   UNL A   1      33.239  18.760  24.769  1.00  0.00     0.054 C 
ATOM     16  C   UNL A   1      34.310  18.078  23.913  1.00  0.00     0.016 C 
ATOM     17  C   UNL A   1      32.715  17.781  25.848  1.00  0.00     0.264 C 
ATOM     18  C   UNL A   1      33.895  16.686  23.454  1.00  0.00     0.062 C 
ATOM     19  N   UNL A   1      32.306  16.481  25.317  1.00  0.00    -0.346 N 
ATOM     20  C   UNL A   1      33.429  15.837  24.631  1.00  0.00     0.260 C 
ATOM     21  H   UNL A   1      31.995  15.886  26.084  1.00  0.00     0.346 HD
ATOM     22  H   UNL A   1      31.545  16.618  24.651  1.00  0.00     0.346 HD
ENDBRANCH  14  15
ENDBRANCH  11  14
ENDBRANCH   5  10
ENDBRANCH   3   5
ENDBRANCH   2   3
ENDBRANCH   1   2
BRANCH   1  23
ATOM     23  C   UNL A   1      37.767  20.660  24.758  1.00  0.00     0.275 C 
BRANCH  23  24
ATOM     24  O   UNL A   1      38.354  20.695  26.077  1.00  0.00    -0.458 OA
BRANCH  24  25
ATOM     25  C   UNL A   1      39.660  21.014  26.165  1.00  0.00     0.338 C 
ATOM     26  O   UNL A   1      40.599  20.267  25.934  1.00  0.00    -0.246 OA
BRANCH  25  27
ATOM     27  C   UNL A   1      39.816  22.340  26.804  1.00  0.00     0.060 A 
ATOM     28  C   UNL A   1      40.901  22.474  27.660  1.00  0.00     0.016 A 
ATOM     29  C   UNL A   1      39.024  23.455  26.534  1.00  0.00     0.016 A 
ATOM     30  C   UNL A   1      41.212  23.689  28.259  1.00  0.00     0.010 A 
ATOM     31  C   UNL A   1      39.425  24.721  27.018  1.00  0.00     0.010 A 
ATOM     32  C   UNL A   1      40.563  24.856  27.836  1.00  0.00    -0.014 A 
BRANCH  32  33
ATOM     33  C   UNL A   1      41.271  26.158  28.063  1.00  0.00     0.031 A 
ATOM     34  C   UNL A   1      40.654  27.309  28.805  1.00  0.00     0.074 A 
ATOM     35  C   UNL A   1      42.548  26.267  27.623  1.00  0.00     0.049 A 
ATOM     36  N   UNL A   1      41.156  28.495  29.045  1.00  0.00    -0.248 NA
ATOM     37  C   UNL A   1      39.304  27.107  29.344  1.00  0.00     0.031 C 
ATOM     38  C   UNL A   1      43.277  25.216  26.900  1.00  0.00     0.029 A 
ATOM     39  N   UNL A   1      43.478  27.272  27.740  1.00  0.00    -0.354 N 
ATOM     40  C   UNL A   1      40.186  29.191  29.758  1.00  0.00     0.074 A 
ATOM     41  C   UNL A   1      39.053  28.292  29.887  1.00  0.00     0.031 C 
ATOM     42  C   UNL A   1      44.547  25.594  26.721  1.00  0.00     0.029 A 
ATOM     43  C   UNL A   1      44.704  26.962  27.192  1.00  0.00     0.049 A 
ATOM     44  H   UNL A   1      43.285  28.134  28.175  1.00  0.00     0.167 HD
ATOM     45  C   UNL A   1      40.238  30.457  30.251  1.00  0.00     0.034 A 
ATOM     46  C   UNL A   1      45.824  27.694  27.033  1.00  0.00     0.034 A 
ATOM     47  C   UNL A   1      41.371  31.346  30.098  1.00  0.00     0.049 A 
ATOM     48  C   UNL A   1      45.826  29.113  27.530  1.00  0.00     0.074 A 
ATOM     49  C   UNL A   1      41.503  32.661  30.520  1.00  0.00     0.029 A 
ATOM     50  N   UNL A   1      42.572  31.019  29.477  1.00  0.00    -0.354 N 
ATOM     51  N   UNL A   1      44.872  29.769  28.150  1.00  0.00    -0.248 NA
ATOM     52  C   UNL A   1      47.046  29.892  27.300  1.00  0.00     0.031 C 
ATOM     53  C   UNL A   1      42.749  33.144  30.100  1.00  0.00     0.029 A 
ATOM     54  C   UNL A   1      43.434  32.111  29.485  1.00  0.00     0.049 A 
ATOM     55  H   UNL A   1      42.781  30.140  29.086  1.00  0.00     0.167 HD
ATOM     56  C   UNL A   1      45.384  31.039  28.388  1.00  0.00     0.074 A 
ATOM     57  C   UNL A   1      46.743  31.039  27.886  1.00  0.00     0.031 C 
ATOM     58  C   UNL A   1      44.780  32.113  28.958  1.00  0.00     0.034 A 
BRANCH  45  59
ATOM     59  C   UNL A   1      39.003  30.978  30.952  1.00  0.00     0.023 A 
ATOM     60  C   UNL A   1      37.977  31.638  30.253  1.00  0.00     0.031 A 
ATOM     61  C   UNL A   1      38.857  30.829  32.343  1.00  0.00     0.131 A 
ATOM     62  C   UNL A   1      36.890  32.185  30.955  1.00  0.00     0.055 A 
ATOM     63  C   UNL A   1      37.735  31.305  33.025  1.00  0.00     0.041 A 
ATOM     64  F   UNL A   1      39.811  30.223  33.069  1.00  0.00    -0.206 F 
ATOM     65  C   UNL A   1      36.750  32.001  32.333  1.00  0.00     0.022 A 
BRANCH  62  66
ATOM     66  S   UNL A   1      35.736  33.264  30.065  1.00  0.00     0.124 S 
ATOM     67  O   UNL A   1      35.264  34.136  31.138  1.00  0.00    -0.237 OA
ATOM     68  O   UNL A   1      36.595  33.888  29.065  1.00  0.00    -0.237 OA
ATOM     69  O   UNL A   1      34.735  32.337  29.540  1.00  0.00    -0.744 OA
ENDBRANCH  62  66
ENDBRANCH  45  59
BRANCH  46  70
ATOM     70  C   UNL A   1      47.000  27.136  26.297  1.00  0.00     0.023 A 
ATOM     71  C   UNL A   1      48.038  26.466  26.964  1.00  0.00     0.031 A 
ATOM     72  C   UNL A   1      47.124  27.314  24.905  1.00  0.00     0.131 A 
ATOM     73  C   UNL A   1      49.170  26.042  26.248  1.00  0.00     0.055 A 
ATOM     74  C   UNL A   1      48.215  26.826  24.188  1.00  0.00     0.041 A 
ATOM     75  F   UNL A   1      46.168  27.955  24.213  1.00  0.00    -0.206 F 
ATOM     76  C   UNL A   1      49.256  26.199  24.863  1.00  0.00     0.022 A 
BRANCH  73  77
ATOM     77  S   UNL A   1      50.586  25.378  27.168  1.00  0.00     0.124 S 
ATOM     78  O   UNL A   1      49.980  24.261  27.883  1.00  0.00    -0.237 OA
ATOM     79  O   UNL A   1      51.508  25.028  26.094  1.00  0.00    -0.237 OA
ATOM     80  O   UNL A   1      51.004  26.501  28.005  1.00  0.00    -0.744 OA
ENDBRANCH  73  77
ENDBRANCH  46  70
BRANCH  58  81
ATOM     81  C   UNL A   1      45.616  33.365  29.084  1.00  0.00     0.023 A 
ATOM     82  C   UNL A   1      46.393  33.621  30.230  1.00  0.00     0.031 A 
ATOM     83  C   UNL A   1      45.583  34.347  28.079  1.00  0.00     0.131 A 
ATOM     84  C   UNL A   1      47.037  34.858  30.378  1.00  0.00     0.055 A 
ATOM     85  C   UNL A   1      46.285  35.547  28.201  1.00  0.00     0.041 A 
ATOM     86  F   UNL A   1      44.855  34.162  26.966  1.00  0.00    -0.206 F 
ATOM     87  C   UNL A   1      47.001  35.818  29.364  1.00  0.00     0.022 A 
BRANCH  84  88
ATOM     88  S   UNL A   1      47.811  35.250  31.972  1.00  0.00     0.124 S 
ATOM     89  O   UNL A   1      49.117  35.753  31.560  1.00  0.00    -0.237 OA
ATOM     90  O   UNL A   1      46.893  36.238  32.530  1.00  0.00    -0.237 OA
ATOM     91  O   UNL A   1      47.833  33.964  32.667  1.00  0.00    -0.744 OA
ENDBRANCH  84  88
ENDBRANCH  58  81
ENDBRANCH  32  33
ENDBRANCH  25  27
ENDBRANCH  24  25
ENDBRANCH  23  24
ENDBRANCH   1  23
TORSDOF 19
ENDMDL
