MODEL 1
REMARK VINA RESULT:     -12.5      0.000      0.000
REMARK SMILES NS(=O)(=O)c1ccc(-n2nc(C(=O)NCCCC(=O)OCCOC(=O)c3ccc(-c4c5nc(c(-c6cc(S(=O)(=O)[O-])ccc6F)c6ccc([nH]6)c(-c6cc(S(=O)(=O)[O-])ccc6F)c6nc(c(-c7cc(S(=O)(=O)[O-])ccc7F)c7ccc4[nH]7)C=C6)C=C5)cc3)cc2-c2ccccc2)cc1
REMARK SMILES IDX 18 1 19 2 17 3 16 4 15 5 14 6 12 7 13 8 11 10 9 11 10 12
REMARK SMILES IDX 90 13 89 14 8 15 5 16 6 17 98 18 7 19 97 20 2 21 3 22 4 23
REMARK SMILES IDX 1 24 91 27 92 28 96 29 93 30 95 31 94 32 20 33 21 34 22 35
REMARK SMILES IDX 23 36 24 37 25 38 26 39 27 40 88 41 28 42 87 43 29 44 30 45
REMARK SMILES IDX 31 46 81 47 32 48 86 49 80 50 82 51 33 52 85 53 79 54 78 55
REMARK SMILES IDX 34 57 66 58 46 59 65 60 47 61 50 62 64 63 83 64 48 65 49 66
REMARK SMILES IDX 63 68 84 69 51 70 35 71 36 72 44 73 37 74 43 75 45 76 42 77
REMARK SMILES IDX 38 78 39 79 40 80 41 81 67 82 68 83 76 84 69 85 75 86 77 87
REMARK SMILES IDX 74 88 70 89 71 90 72 91 73 92 52 93 53 94 61 95 54 96 60 97
REMARK SMILES IDX 62 98 59 99 55 100 56 101 57 102 58 103
REMARK H PARENT 14 9 1 25 1 26 82 56 50 67
REMARK Flexibility Score: inf
ROOT
ATOM      1  C   UNL A   1      32.479  28.922  25.088  1.00  0.00     0.305 C 
ATOM      2  O   UNL A   1      31.426  29.140  25.673  1.00  0.00    -0.252 OA
ENDROOT
BRANCH   1   3
ATOM      3  C   UNL A   1      32.543  28.491  23.640  1.00  0.00     0.124 C 
BRANCH   3   4
ATOM      4  C   UNL A   1      31.222  28.342  22.890  1.00  0.00     0.033 C 
BRANCH   4   5
ATOM      5  C   UNL A   1      30.520  26.985  22.960  1.00  0.00     0.117 C 
BRANCH   5   6
ATOM      6  N   UNL A   1      29.931  26.726  24.259  1.00  0.00    -0.351 N 
ATOM      7  C   UNL A   1      30.187  25.748  25.192  1.00  0.00     0.271 C 
ATOM      8  O   UNL A   1      29.432  25.715  26.169  1.00  0.00    -0.267 OA
ATOM      9  H   UNL A   1      29.224  27.360  24.518  1.00  0.00     0.163 HD
BRANCH   7  10
ATOM     10  C   UNL A   1      31.319  24.812  25.037  1.00  0.00     0.151 A 
ATOM     11  N   UNL A   1      32.316  22.949  24.677  1.00  0.00    -0.232 N 
ATOM     12  N   UNL A   1      31.126  23.576  24.528  1.00  0.00    -0.162 NA
ATOM     13  C   UNL A   1      33.335  23.838  24.979  1.00  0.00     0.075 A 
ATOM     14  C   UNL A   1      32.686  24.987  25.381  1.00  0.00     0.065 A 
BRANCH  11  15
ATOM     15  C   UNL A   1      32.418  21.538  24.560  1.00  0.00     0.065 A 
ATOM     16  C   UNL A   1      32.876  18.806  24.334  1.00  0.00     0.082 A 
ATOM     17  C   UNL A   1      32.897  19.402  25.596  1.00  0.00     0.024 A 
ATOM     18  C   UNL A   1      32.568  19.556  23.191  1.00  0.00     0.024 A 
ATOM     19  C   UNL A   1      32.680  20.772  25.707  1.00  0.00     0.030 A 
ATOM     20  C   UNL A   1      32.302  20.924  23.308  1.00  0.00     0.030 A 
BRANCH  16  21
ATOM     21  S   UNL A   1      33.348  17.111  24.168  1.00  0.00     0.238 S 
ATOM     22  O   UNL A   1      33.440  16.790  22.754  1.00  0.00    -0.207 OA
ATOM     23  O   UNL A   1      32.588  16.322  25.094  1.00  0.00    -0.207 OA
BRANCH  21  24
ATOM     24  N   UNL A   1      34.937  17.090  24.717  1.00  0.00    -0.225 NA
ATOM     25  H   UNL A   1      35.262  18.048  24.856  1.00  0.00     0.137 HD
ATOM     26  H   UNL A   1      35.529  16.627  24.028  1.00  0.00     0.137 HD
ENDBRANCH  21  24
ENDBRANCH  16  21
ENDBRANCH  11  15
BRANCH  13  27
ATOM     27  C   UNL A   1      34.769  23.590  24.808  1.00  0.00     0.000 A 
ATOM     28  C   UNL A   1      35.612  23.495  25.928  1.00  0.00     0.010 A 
ATOM     29  C   UNL A   1      35.311  23.380  23.536  1.00  0.00     0.010 A 
ATOM     30  C   UNL A   1      36.970  23.212  25.777  1.00  0.00     0.001 A 
ATOM     31  C   UNL A   1      36.670  23.092  23.386  1.00  0.00     0.001 A 
ATOM     32  C   UNL A   1      37.498  23.009  24.505  1.00  0.00     0.000 A 
ENDBRANCH  13  27
ENDBRANCH   7  10
ENDBRANCH   5   6
ENDBRANCH   4   5
ENDBRANCH   3   4
ENDBRANCH   1   3
BRANCH   1  33
ATOM     33  O   UNL A   1      33.710  28.946  25.667  1.00  0.00    -0.462 OA
BRANCH  33  34
ATOM     34  C   UNL A   1      33.907  29.917  26.714  1.00  0.00     0.274 C 
BRANCH  34  35
ATOM     35  C   UNL A   1      34.904  29.439  27.763  1.00  0.00     0.275 C 
BRANCH  35  36
ATOM     36  O   UNL A   1      35.888  30.438  28.022  1.00  0.00    -0.458 OA
BRANCH  36  37
ATOM     37  C   UNL A   1      36.702  30.161  29.064  1.00  0.00     0.338 C 
ATOM     38  O   UNL A   1      36.703  30.715  30.150  1.00  0.00    -0.246 OA
BRANCH  37  39
ATOM     39  C   UNL A   1      37.740  29.213  28.663  1.00  0.00     0.060 A 
ATOM     40  C   UNL A   1      38.158  28.277  29.617  1.00  0.00     0.016 A 
ATOM     41  C   UNL A   1      38.482  29.490  27.511  1.00  0.00     0.016 A 
ATOM     42  C   UNL A   1      39.429  27.758  29.512  1.00  0.00     0.010 A 
ATOM     43  C   UNL A   1      39.759  29.000  27.428  1.00  0.00     0.010 A 
ATOM     44  C   UNL A   1      40.240  28.204  28.468  1.00  0.00    -0.014 A 
BRANCH  44  45
ATOM     45  C   UNL A   1      41.624  27.787  28.433  1.00  0.00     0.031 A 
ATOM     46  C   UNL A   1      41.829  26.489  27.761  1.00  0.00     0.074 A 
ATOM     47  C   UNL A   1      42.615  28.614  28.814  1.00  0.00     0.049 A 
ATOM     48  N   UNL A   1      42.240  25.379  28.275  1.00  0.00    -0.248 NA
ATOM     49  C   UNL A   1      41.342  26.363  26.376  1.00  0.00     0.031 C 
ATOM     50  C   UNL A   1      42.508  30.026  29.192  1.00  0.00     0.029 A 
ATOM     51  N   UNL A   1      43.956  28.396  28.810  1.00  0.00    -0.354 N 
ATOM     52  C   UNL A   1      42.286  24.479  27.217  1.00  0.00     0.074 A 
ATOM     53  C   UNL A   1      41.498  25.058  26.166  1.00  0.00     0.031 C 
ATOM     54  C   UNL A   1      43.736  30.589  29.155  1.00  0.00     0.029 A 
ATOM     55  C   UNL A   1      44.720  29.555  28.874  1.00  0.00     0.049 A 
ATOM     56  H   UNL A   1      44.352  27.495  28.768  1.00  0.00     0.167 HD
ATOM     57  C   UNL A   1      43.196  23.470  27.187  1.00  0.00     0.034 A 
ATOM     58  C   UNL A   1      46.051  29.662  28.621  1.00  0.00     0.034 A 
ATOM     59  C   UNL A   1      43.742  23.231  28.504  1.00  0.00     0.049 A 
ATOM     60  C   UNL A   1      46.628  28.300  28.754  1.00  0.00     0.074 A 
ATOM     61  C   UNL A   1      43.204  22.869  29.724  1.00  0.00     0.029 A 
ATOM     62  N   UNL A   1      44.992  23.740  28.785  1.00  0.00    -0.354 N 
ATOM     63  N   UNL A   1      46.656  27.638  29.878  1.00  0.00    -0.248 NA
ATOM     64  C   UNL A   1      46.743  27.478  27.557  1.00  0.00     0.031 C 
ATOM     65  C   UNL A   1      43.947  23.609  30.692  1.00  0.00     0.029 A 
ATOM     66  C   UNL A   1      44.938  24.331  30.024  1.00  0.00     0.049 A 
ATOM     67  H   UNL A   1      45.782  23.690  28.200  1.00  0.00     0.167 HD
ATOM     68  C   UNL A   1      46.354  26.328  29.536  1.00  0.00     0.074 A 
ATOM     69  C   UNL A   1      46.536  26.268  28.087  1.00  0.00     0.031 C 
ATOM     70  C   UNL A   1      45.711  25.498  30.411  1.00  0.00     0.034 A 
BRANCH  57  71
ATOM     71  C   UNL A   1      43.862  22.961  25.925  1.00  0.00     0.023 A 
ATOM     72  C   UNL A   1      43.933  21.566  25.763  1.00  0.00     0.031 A 
ATOM     73  C   UNL A   1      44.657  23.719  25.031  1.00  0.00     0.131 A 
ATOM     74  C   UNL A   1      44.827  20.988  24.846  1.00  0.00     0.055 A 
ATOM     75  C   UNL A   1      45.489  23.140  24.070  1.00  0.00     0.041 A 
ATOM     76  F   UNL A   1      44.757  25.051  25.085  1.00  0.00    -0.206 F 
ATOM     77  C   UNL A   1      45.606  21.766  23.996  1.00  0.00     0.022 A 
BRANCH  74  78
ATOM     78  S   UNL A   1      45.090  19.199  24.921  1.00  0.00     0.124 S 
ATOM     79  O   UNL A   1      43.964  18.772  25.744  1.00  0.00    -0.237 OA
ATOM     80  O   UNL A   1      45.036  18.832  23.510  1.00  0.00    -0.237 OA
ATOM     81  O   UNL A   1      46.403  19.078  25.549  1.00  0.00    -0.744 OA
ENDBRANCH  74  78
ENDBRANCH  57  71
BRANCH  58  82
ATOM     82  C   UNL A   1      46.731  30.788  27.924  1.00  0.00     0.023 A 
ATOM     83  C   UNL A   1      46.044  31.725  27.125  1.00  0.00     0.031 A 
ATOM     84  C   UNL A   1      48.079  31.089  28.232  1.00  0.00     0.131 A 
ATOM     85  C   UNL A   1      46.703  32.891  26.667  1.00  0.00     0.055 A 
ATOM     86  C   UNL A   1      48.727  32.235  27.770  1.00  0.00     0.041 A 
ATOM     87  F   UNL A   1      48.790  30.314  29.066  1.00  0.00    -0.206 F 
ATOM     88  C   UNL A   1      48.038  33.148  26.991  1.00  0.00     0.022 A 
BRANCH  85  89
ATOM     89  S   UNL A   1      45.799  34.145  25.703  1.00  0.00     0.124 S 
ATOM     90  O   UNL A   1      45.205  34.971  26.747  1.00  0.00    -0.237 OA
ATOM     91  O   UNL A   1      46.862  34.758  24.915  1.00  0.00    -0.237 OA
ATOM     92  O   UNL A   1      44.842  33.355  24.927  1.00  0.00    -0.744 OA
ENDBRANCH  85  89
ENDBRANCH  58  82
BRANCH  70  93
ATOM     93  C   UNL A   1      45.612  25.934  31.862  1.00  0.00     0.023 A 
ATOM     94  C   UNL A   1      44.441  26.435  32.479  1.00  0.00     0.031 A 
ATOM     95  C   UNL A   1      46.734  25.712  32.679  1.00  0.00     0.131 A 
ATOM     96  C   UNL A   1      44.430  26.699  33.863  1.00  0.00     0.055 A 
ATOM     97  C   UNL A   1      46.714  25.956  34.051  1.00  0.00     0.041 A 
ATOM     98  F   UNL A   1      47.866  25.209  32.158  1.00  0.00    -0.206 F 
ATOM     99  C   UNL A   1      45.562  26.456  34.649  1.00  0.00     0.022 A 
BRANCH  96 100
ATOM    100  S   UNL A   1      42.941  27.372  34.672  1.00  0.00     0.124 S 
ATOM    101  O   UNL A   1      42.482  28.398  33.744  1.00  0.00    -0.237 OA
ATOM    102  O   UNL A   1      42.087  26.194  34.798  1.00  0.00    -0.237 OA
ATOM    103  O   UNL A   1      43.446  27.888  35.947  1.00  0.00    -0.744 OA
ENDBRANCH  96 100
ENDBRANCH  70  93
ENDBRANCH  44  45
ENDBRANCH  37  39
ENDBRANCH  36  37
ENDBRANCH  35  36
ENDBRANCH  34  35
ENDBRANCH  33  34
ENDBRANCH   1  33
TORSDOF 22
ENDMDL
MODEL 2
REMARK VINA RESULT:     -11.6      5.399     10.834
REMARK SMILES NS(=O)(=O)c1ccc(-n2nc(C(=O)NCCCC(=O)OCCOC(=O)c3ccc(-c4c5nc(c(-c6cc(S(=O)(=O)[O-])ccc6F)c6ccc([nH]6)c(-c6cc(S(=O)(=O)[O-])ccc6F)c6nc(c(-c7cc(S(=O)(=O)[O-])ccc7F)c7ccc4[nH]7)C=C6)C=C5)cc3)cc2-c2ccccc2)cc1
REMARK SMILES IDX 18 1 19 2 17 3 16 4 15 5 14 6 12 7 13 8 11 10 9 11 10 12
REMARK SMILES IDX 90 13 89 14 8 15 5 16 6 17 98 18 7 19 97 20 2 21 3 22 4 23
REMARK SMILES IDX 1 24 91 27 92 28 96 29 93 30 95 31 94 32 20 33 21 34 22 35
REMARK SMILES IDX 23 36 24 37 25 38 26 39 27 40 88 41 28 42 87 43 29 44 30 45
REMARK SMILES IDX 31 46 81 47 32 48 86 49 80 50 82 51 33 52 85 53 79 54 78 55
REMARK SMILES IDX 34 57 66 58 46 59 65 60 47 61 50 62 64 63 83 64 48 65 49 66
REMARK SMILES IDX 63 68 84 69 51 70 35 71 36 72 44 73 37 74 43 75 45 76 42 77
REMARK SMILES IDX 38 78 39 79 40 80 41 81 67 82 68 83 76 84 69 85 75 86 77 87
REMARK SMILES IDX 74 88 70 89 71 90 72 91 73 92 52 93 53 94 61 95 54 96 60 97
REMARK SMILES IDX 62 98 59 99 55 100 56 101 57 102 58 103
REMARK H PARENT 14 9 1 25 1 26 82 56 50 67
REMARK Flexibility Score: inf
ROOT
ATOM      1  C   UNL A   1      33.195  36.197  30.443  1.00  0.00     0.305 C 
ATOM      2  O   UNL A   1      32.081  36.439  29.996  1.00  0.00    -0.252 OA
ENDROOT
BRANCH   1   3
ATOM      3  C   UNL A   1      33.868  37.058  31.488  1.00  0.00     0.124 C 
BRANCH   3   4
ATOM      4  C   UNL A   1      33.566  36.756  32.953  1.00  0.00     0.033 C 
BRANCH   4   5
ATOM      5  C   UNL A   1      34.359  35.629  33.618  1.00  0.00     0.117 C 
BRANCH   5   6
ATOM      6  N   UNL A   1      33.964  34.316  33.149  1.00  0.00    -0.351 N 
ATOM      7  C   UNL A   1      34.695  33.299  32.579  1.00  0.00     0.271 C 
ATOM      8  O   UNL A   1      34.052  32.328  32.171  1.00  0.00    -0.267 OA
ATOM      9  H   UNL A   1      33.005  34.117  33.255  1.00  0.00     0.163 HD
BRANCH   7  10
ATOM     10  C   UNL A   1      36.168  33.365  32.491  1.00  0.00     0.151 A 
ATOM     11  N   UNL A   1      38.203  33.211  33.147  1.00  0.00    -0.232 N 
ATOM     12  N   UNL A   1      36.941  32.837  33.464  1.00  0.00    -0.162 NA
ATOM     13  C   UNL A   1      38.289  33.695  31.852  1.00  0.00     0.075 A 
ATOM     14  C   UNL A   1      36.985  33.961  31.492  1.00  0.00     0.065 A 
BRANCH  11  15
ATOM     15  C   UNL A   1      39.251  33.124  34.100  1.00  0.00     0.065 A 
ATOM     16  C   UNL A   1      41.470  32.952  35.765  1.00  0.00     0.082 A 
ATOM     17  C   UNL A   1      41.064  34.201  35.291  1.00  0.00     0.024 A 
ATOM     18  C   UNL A   1      40.739  31.797  35.461  1.00  0.00     0.024 A 
ATOM     19  C   UNL A   1      39.960  34.284  34.448  1.00  0.00     0.030 A 
ATOM     20  C   UNL A   1      39.601  31.887  34.653  1.00  0.00     0.030 A 
BRANCH  16  21
ATOM     21  S   UNL A   1      42.982  32.818  36.669  1.00  0.00     0.238 S 
ATOM     22  O   UNL A   1      43.840  33.935  36.310  1.00  0.00    -0.207 OA
ATOM     23  O   UNL A   1      43.429  31.455  36.632  1.00  0.00    -0.207 OA
BRANCH  21  24
ATOM     24  N   UNL A   1      42.520  33.124  38.256  1.00  0.00    -0.225 NA
ATOM     25  H   UNL A   1      42.156  34.075  38.327  1.00  0.00     0.137 HD
ATOM     26  H   UNL A   1      43.327  33.022  38.871  1.00  0.00     0.137 HD
ENDBRANCH  21  24
ENDBRANCH  16  21
ENDBRANCH  11  15
BRANCH  13  27
ATOM     27  C   UNL A   1      39.514  33.799  31.055  1.00  0.00     0.000 A 
ATOM     28  C   UNL A   1      39.680  34.854  30.141  1.00  0.00     0.010 A 
ATOM     29  C   UNL A   1      40.563  32.891  31.235  1.00  0.00     0.010 A 
ATOM     30  C   UNL A   1      40.863  34.987  29.413  1.00  0.00     0.001 A 
ATOM     31  C   UNL A   1      41.748  33.029  30.508  1.00  0.00     0.001 A 
ATOM     32  C   UNL A   1      41.897  34.075  29.599  1.00  0.00     0.000 A 
ENDBRANCH  13  27
ENDBRANCH   7  10
ENDBRANCH   5   6
ENDBRANCH   4   5
ENDBRANCH   3   4
ENDBRANCH   1   3
BRANCH   1  33
ATOM     33  O   UNL A   1      34.006  35.196  30.008  1.00  0.00    -0.462 OA
BRANCH  33  34
ATOM     34  C   UNL A   1      33.428  34.261  29.075  1.00  0.00     0.274 C 
BRANCH  34  35
ATOM     35  C   UNL A   1      34.477  33.361  28.435  1.00  0.00     0.275 C 
BRANCH  35  36
ATOM     36  O   UNL A   1      34.270  31.999  28.799  1.00  0.00    -0.458 OA
BRANCH  36  37
ATOM     37  C   UNL A   1      35.076  31.122  28.161  1.00  0.00     0.338 C 
ATOM     38  O   UNL A   1      34.826  30.529  27.126  1.00  0.00    -0.246 OA
BRANCH  37  39
ATOM     39  C   UNL A   1      36.248  30.816  28.981  1.00  0.00     0.060 A 
ATOM     40  C   UNL A   1      37.372  31.637  28.825  1.00  0.00     0.016 A 
ATOM     41  C   UNL A   1      36.314  29.566  29.603  1.00  0.00     0.016 A 
ATOM     42  C   UNL A   1      38.611  31.114  29.120  1.00  0.00     0.010 A 
ATOM     43  C   UNL A   1      37.550  29.035  29.863  1.00  0.00     0.010 A 
ATOM     44  C   UNL A   1      38.682  29.786  29.546  1.00  0.00    -0.014 A 
BRANCH  44  45
ATOM     45  C   UNL A   1      39.983  29.176  29.712  1.00  0.00     0.031 A 
ATOM     46  C   UNL A   1      40.370  28.996  31.125  1.00  0.00     0.074 A 
ATOM     47  C   UNL A   1      40.656  28.665  28.666  1.00  0.00     0.049 A 
ATOM     48  N   UNL A   1      41.333  29.564  31.768  1.00  0.00    -0.248 NA
ATOM     49  C   UNL A   1      39.455  28.220  31.981  1.00  0.00     0.031 C 
ATOM     50  C   UNL A   1      40.190  28.527  27.282  1.00  0.00     0.029 A 
ATOM     51  N   UNL A   1      41.858  28.034  28.651  1.00  0.00    -0.354 N 
ATOM     52  C   UNL A   1      41.284  29.029  33.050  1.00  0.00     0.074 A 
ATOM     53  C   UNL A   1      39.988  28.427  33.182  1.00  0.00     0.031 C 
ATOM     54  C   UNL A   1      40.994  27.657  26.630  1.00  0.00     0.029 A 
ATOM     55  C   UNL A   1      42.091  27.280  27.507  1.00  0.00     0.049 A 
ATOM     56  H   UNL A   1      42.509  28.104  29.388  1.00  0.00     0.167 HD
ATOM     57  C   UNL A   1      42.411  28.878  33.796  1.00  0.00     0.034 A 
ATOM     58  C   UNL A   1      43.064  26.347  27.336  1.00  0.00     0.034 A 
ATOM     59  C   UNL A   1      43.484  29.697  33.278  1.00  0.00     0.049 A 
ATOM     60  C   UNL A   1      44.109  26.619  28.357  1.00  0.00     0.074 A 
ATOM     61  C   UNL A   1      43.657  31.053  33.078  1.00  0.00     0.029 A 
ATOM     62  N   UNL A   1      44.453  29.083  32.514  1.00  0.00    -0.354 N 
ATOM     63  N   UNL A   1      44.829  27.707  28.376  1.00  0.00    -0.248 NA
ATOM     64  C   UNL A   1      44.034  25.913  29.629  1.00  0.00     0.031 C 
ATOM     65  C   UNL A   1      44.390  31.159  31.859  1.00  0.00     0.029 A 
ATOM     66  C   UNL A   1      44.683  29.869  31.412  1.00  0.00     0.049 A 
ATOM     67  H   UNL A   1      44.899  28.230  32.722  1.00  0.00     0.167 HD
ATOM     68  C   UNL A   1      44.928  28.054  29.716  1.00  0.00     0.074 A 
ATOM     69  C   UNL A   1      44.523  26.853  30.444  1.00  0.00     0.031 C 
ATOM     70  C   UNL A   1      45.049  29.359  30.102  1.00  0.00     0.034 A 
BRANCH  57  71
ATOM     71  C   UNL A   1      42.654  27.723  34.746  1.00  0.00     0.023 A 
ATOM     72  C   UNL A   1      43.399  26.639  34.249  1.00  0.00     0.031 A 
ATOM     73  C   UNL A   1      41.990  27.493  35.975  1.00  0.00     0.131 A 
ATOM     74  C   UNL A   1      43.375  25.389  34.890  1.00  0.00     0.055 A 
ATOM     75  C   UNL A   1      42.030  26.269  36.647  1.00  0.00     0.041 A 
ATOM     76  F   UNL A   1      41.189  28.392  36.558  1.00  0.00    -0.206 F 
ATOM     77  C   UNL A   1      42.695  25.196  36.088  1.00  0.00     0.022 A 
BRANCH  74  78
ATOM     78  S   UNL A   1      44.093  23.971  34.025  1.00  0.00     0.124 S 
ATOM     79  O   UNL A   1      43.046  22.969  34.187  1.00  0.00    -0.237 OA
ATOM     80  O   UNL A   1      44.273  24.505  32.679  1.00  0.00    -0.237 OA
ATOM     81  O   UNL A   1      45.324  23.713  34.766  1.00  0.00    -0.744 OA
ENDBRANCH  74  78
ENDBRANCH  57  71
BRANCH  58  82
ATOM     82  C   UNL A   1      42.935  25.058  26.603  1.00  0.00     0.023 A 
ATOM     83  C   UNL A   1      43.970  24.515  25.814  1.00  0.00     0.031 A 
ATOM     84  C   UNL A   1      41.831  24.212  26.865  1.00  0.00     0.131 A 
ATOM     85  C   UNL A   1      43.871  23.192  25.321  1.00  0.00     0.055 A 
ATOM     86  C   UNL A   1      41.734  22.912  26.368  1.00  0.00     0.041 A 
ATOM     87  F   UNL A   1      40.841  24.597  27.687  1.00  0.00    -0.206 F 
ATOM     88  C   UNL A   1      42.760  22.392  25.599  1.00  0.00     0.022 A 
BRANCH  85  89
ATOM     89  S   UNL A   1      45.240  22.456  24.369  1.00  0.00     0.124 S 
ATOM     90  O   UNL A   1      44.536  21.580  23.440  1.00  0.00    -0.237 OA
ATOM     91  O   UNL A   1      45.885  23.630  23.793  1.00  0.00    -0.237 OA
ATOM     92  O   UNL A   1      46.031  21.763  25.387  1.00  0.00    -0.744 OA
ENDBRANCH  85  89
ENDBRANCH  58  82
BRANCH  70  93
ATOM     93  C   UNL A   1      45.384  30.388  29.036  1.00  0.00     0.023 A 
ATOM     94  C   UNL A   1      46.693  30.729  28.624  1.00  0.00     0.031 A 
ATOM     95  C   UNL A   1      44.309  30.954  28.328  1.00  0.00     0.131 A 
ATOM     96  C   UNL A   1      46.885  31.613  27.542  1.00  0.00     0.055 A 
ATOM     97  C   UNL A   1      44.502  31.813  27.247  1.00  0.00     0.041 A 
ATOM     98  F   UNL A   1      43.043  30.645  28.653  1.00  0.00    -0.206 F 
ATOM     99  C   UNL A   1      45.792  32.150  26.853  1.00  0.00     0.022 A 
BRANCH  96 100
ATOM    100  S   UNL A   1      48.564  32.088  27.013  1.00  0.00     0.124 S 
ATOM    101  O   UNL A   1      49.180  32.588  28.237  1.00  0.00    -0.237 OA
ATOM    102  O   UNL A   1      49.101  30.833  26.493  1.00  0.00    -0.237 OA
ATOM    103  O   UNL A   1      48.325  33.110  25.991  1.00  0.00    -0.744 OA
ENDBRANCH  96 100
ENDBRANCH  70  93
ENDBRANCH  44  45
ENDBRANCH  37  39
ENDBRANCH  36  37
ENDBRANCH  35  36
ENDBRANCH  34  35
ENDBRANCH  33  34
ENDBRANCH   1  33
TORSDOF 22
ENDMDL
MODEL 3
REMARK VINA RESULT:     -11.2      2.458      3.611
REMARK SMILES NS(=O)(=O)c1ccc(-n2nc(C(=O)NCCCC(=O)OCCOC(=O)c3ccc(-c4c5nc(c(-c6cc(S(=O)(=O)[O-])ccc6F)c6ccc([nH]6)c(-c6cc(S(=O)(=O)[O-])ccc6F)c6nc(c(-c7cc(S(=O)(=O)[O-])ccc7F)c7ccc4[nH]7)C=C6)C=C5)cc3)cc2-c2ccccc2)cc1
REMARK SMILES IDX 18 1 19 2 17 3 16 4 15 5 14 6 12 7 13 8 11 10 9 11 10 12
REMARK SMILES IDX 90 13 89 14 8 15 5 16 6 17 98 18 7 19 97 20 2 21 3 22 4 23
REMARK SMILES IDX 1 24 91 27 92 28 96 29 93 30 95 31 94 32 20 33 21 34 22 35
REMARK SMILES IDX 23 36 24 37 25 38 26 39 27 40 88 41 28 42 87 43 29 44 30 45
REMARK SMILES IDX 31 46 81 47 32 48 86 49 80 50 82 51 33 52 85 53 79 54 78 55
REMARK SMILES IDX 34 57 66 58 46 59 65 60 47 61 50 62 64 63 83 64 48 65 49 66
REMARK SMILES IDX 63 68 84 69 51 70 35 71 36 72 44 73 37 74 43 75 45 76 42 77
REMARK SMILES IDX 38 78 39 79 40 80 41 81 67 82 68 83 76 84 69 85 75 86 77 87
REMARK SMILES IDX 74 88 70 89 71 90 72 91 73 92 52 93 53 94 61 95 54 96 60 97
REMARK SMILES IDX 62 98 59 99 55 100 56 101 57 102 58 103
REMARK H PARENT 14 9 1 25 1 26 82 56 50 67
REMARK Flexibility Score: inf
ROOT
ATOM      1  C   UNL A   1      31.843  29.199  26.218  1.00  0.00     0.305 C 
ATOM      2  O   UNL A   1      31.593  28.671  27.294  1.00  0.00    -0.252 OA
ENDROOT
BRANCH   1   3
ATOM      3  C   UNL A   1      31.068  28.899  24.955  1.00  0.00     0.124 C 
BRANCH   3   4
ATOM      4  C   UNL A   1      31.069  27.458  24.451  1.00  0.00     0.033 C 
BRANCH   4   5
ATOM      5  C   UNL A   1      32.426  26.783  24.248  1.00  0.00     0.117 C 
BRANCH   5   6
ATOM      6  N   UNL A   1      32.728  26.544  22.851  1.00  0.00    -0.351 N 
ATOM      7  C   UNL A   1      33.345  25.486  22.225  1.00  0.00     0.271 C 
ATOM      8  O   UNL A   1      33.568  25.621  21.018  1.00  0.00    -0.267 OA
ATOM      9  H   UNL A   1      32.444  27.266  22.245  1.00  0.00     0.163 HD
BRANCH   7  10
ATOM     10  C   UNL A   1      33.693  24.252  22.959  1.00  0.00     0.151 A 
ATOM     11  N   UNL A   1      34.862  22.936  24.181  1.00  0.00    -0.232 N 
ATOM     12  N   UNL A   1      34.734  24.233  23.820  1.00  0.00    -0.162 NA
ATOM     13  C   UNL A   1      33.754  22.186  23.820  1.00  0.00     0.075 A 
ATOM     14  C   UNL A   1      33.093  22.966  22.895  1.00  0.00     0.065 A 
BRANCH  11  15
ATOM     15  C   UNL A   1      36.042  22.468  24.817  1.00  0.00     0.065 A 
ATOM     16  C   UNL A   1      38.486  21.659  25.866  1.00  0.00     0.082 A 
ATOM     17  C   UNL A   1      38.031  22.956  26.110  1.00  0.00     0.024 A 
ATOM     18  C   UNL A   1      37.699  20.746  25.151  1.00  0.00     0.024 A 
ATOM     19  C   UNL A   1      36.813  23.364  25.575  1.00  0.00     0.030 A 
ATOM     20  C   UNL A   1      36.453  21.141  24.654  1.00  0.00     0.030 A 
BRANCH  16  21
ATOM     21  S   UNL A   1      40.116  21.203  26.372  1.00  0.00     0.238 S 
ATOM     22  O   UNL A   1      40.425  19.894  25.821  1.00  0.00    -0.207 OA
ATOM     23  O   UNL A   1      40.278  21.517  27.762  1.00  0.00    -0.207 OA
BRANCH  21  24
ATOM     24  N   UNL A   1      41.103  22.268  25.525  1.00  0.00    -0.225 NA
ATOM     25  H   UNL A   1      40.768  23.223  25.659  1.00  0.00     0.137 HD
ATOM     26  H   UNL A   1      41.081  22.037  24.532  1.00  0.00     0.137 HD
ENDBRANCH  21  24
ENDBRANCH  16  21
ENDBRANCH  11  15
BRANCH  13  27
ATOM     27  C   UNL A   1      33.371  20.891  24.390  1.00  0.00     0.000 A 
ATOM     28  C   UNL A   1      33.055  19.811  23.549  1.00  0.00     0.010 A 
ATOM     29  C   UNL A   1      33.378  20.690  25.773  1.00  0.00     0.010 A 
ATOM     30  C   UNL A   1      32.735  18.562  24.082  1.00  0.00     0.001 A 
ATOM     31  C   UNL A   1      33.062  19.438  26.306  1.00  0.00     0.001 A 
ATOM     32  C   UNL A   1      32.741  18.376  25.461  1.00  0.00     0.000 A 
ENDBRANCH  13  27
ENDBRANCH   7  10
ENDBRANCH   5   6
ENDBRANCH   4   5
ENDBRANCH   3   4
ENDBRANCH   1   3
BRANCH   1  33
ATOM     33  O   UNL A   1      32.887  30.040  25.989  1.00  0.00    -0.462 OA
BRANCH  33  34
ATOM     34  C   UNL A   1      33.701  30.377  27.130  1.00  0.00     0.274 C 
BRANCH  34  35
ATOM     35  C   UNL A   1      34.902  29.451  27.274  1.00  0.00     0.275 C 
BRANCH  35  36
ATOM     36  O   UNL A   1      36.096  30.198  27.499  1.00  0.00    -0.458 OA
BRANCH  36  37
ATOM     37  C   UNL A   1      36.694  29.948  28.684  1.00  0.00     0.338 C 
ATOM     38  O   UNL A   1      36.428  30.468  29.754  1.00  0.00    -0.246 OA
BRANCH  37  39
ATOM     39  C   UNL A   1      37.862  29.090  28.496  1.00  0.00     0.060 A 
ATOM     40  C   UNL A   1      38.132  28.144  29.492  1.00  0.00     0.016 A 
ATOM     41  C   UNL A   1      38.815  29.464  27.543  1.00  0.00     0.016 A 
ATOM     42  C   UNL A   1      39.430  27.716  29.656  1.00  0.00     0.010 A 
ATOM     43  C   UNL A   1      40.112  29.065  27.730  1.00  0.00     0.010 A 
ATOM     44  C   UNL A   1      40.414  28.259  28.828  1.00  0.00    -0.014 A 
BRANCH  44  45
ATOM     45  C   UNL A   1      41.799  27.937  29.087  1.00  0.00     0.031 A 
ATOM     46  C   UNL A   1      42.272  26.747  28.352  1.00  0.00     0.074 A 
ATOM     47  C   UNL A   1      42.594  28.771  29.782  1.00  0.00     0.049 A 
ATOM     48  N   UNL A   1      42.650  25.611  28.832  1.00  0.00    -0.248 NA
ATOM     49  C   UNL A   1      42.136  26.763  26.886  1.00  0.00     0.031 C 
ATOM     50  C   UNL A   1      42.274  30.116  30.269  1.00  0.00     0.029 A 
ATOM     51  N   UNL A   1      43.912  28.640  30.082  1.00  0.00    -0.354 N 
ATOM     52  C   UNL A   1      43.024  24.853  27.728  1.00  0.00     0.074 A 
ATOM     53  C   UNL A   1      42.454  25.507  26.584  1.00  0.00     0.031 C 
ATOM     54  C   UNL A   1      43.420  30.756  30.590  1.00  0.00     0.029 A 
ATOM     55  C   UNL A   1      44.532  29.828  30.450  1.00  0.00     0.049 A 
ATOM     56  H   UNL A   1      44.387  27.778  30.042  1.00  0.00     0.167 HD
ATOM     57  C   UNL A   1      44.003  23.914  27.815  1.00  0.00     0.034 A 
ATOM     58  C   UNL A   1      45.870  30.049  30.541  1.00  0.00     0.034 A 
ATOM     59  C   UNL A   1      44.245  23.549  29.193  1.00  0.00     0.049 A 
ATOM     60  C   UNL A   1      46.521  28.719  30.667  1.00  0.00     0.074 A 
ATOM     61  C   UNL A   1      43.471  23.006  30.200  1.00  0.00     0.029 A 
ATOM     62  N   UNL A   1      45.343  24.097  29.821  1.00  0.00    -0.354 N 
ATOM     63  N   UNL A   1      46.345  27.927  31.688  1.00  0.00    -0.248 NA
ATOM     64  C   UNL A   1      46.987  28.060  29.454  1.00  0.00     0.031 C 
ATOM     65  C   UNL A   1      43.897  23.666  31.392  1.00  0.00     0.029 A 
ATOM     66  C   UNL A   1      44.948  24.525  31.064  1.00  0.00     0.049 A 
ATOM     67  H   UNL A   1      46.249  24.169  29.444  1.00  0.00     0.167 HD
ATOM     68  C   UNL A   1      46.251  26.653  31.147  1.00  0.00     0.074 A 
ATOM     69  C   UNL A   1      46.772  26.784  29.788  1.00  0.00     0.031 C 
ATOM     70  C   UNL A   1      45.499  25.683  31.748  1.00  0.00     0.034 A 
BRANCH  57  71
ATOM     71  C   UNL A   1      44.989  23.608  26.706  1.00  0.00     0.023 A 
ATOM     72  C   UNL A   1      45.877  24.637  26.346  1.00  0.00     0.031 A 
ATOM     73  C   UNL A   1      44.936  22.510  25.814  1.00  0.00     0.131 A 
ATOM     74  C   UNL A   1      46.567  24.604  25.123  1.00  0.00     0.055 A 
ATOM     75  C   UNL A   1      45.681  22.448  24.633  1.00  0.00     0.041 A 
ATOM     76  F   UNL A   1      44.102  21.476  25.969  1.00  0.00    -0.206 F 
ATOM     77  C   UNL A   1      46.476  23.515  24.262  1.00  0.00     0.022 A 
BRANCH  74  78
ATOM     78  S   UNL A   1      47.436  26.099  24.591  1.00  0.00     0.124 S 
ATOM     79  O   UNL A   1      46.324  27.006  24.329  1.00  0.00    -0.237 OA
ATOM     80  O   UNL A   1      48.254  26.400  25.761  1.00  0.00    -0.237 OA
ATOM     81  O   UNL A   1      48.172  25.658  23.409  1.00  0.00    -0.744 OA
ENDBRANCH  74  78
ENDBRANCH  57  71
BRANCH  58  82
ATOM     82  C   UNL A   1      46.590  31.293  30.152  1.00  0.00     0.023 A 
ATOM     83  C   UNL A   1      46.956  31.584  28.822  1.00  0.00     0.031 A 
ATOM     84  C   UNL A   1      46.729  32.342  31.090  1.00  0.00     0.131 A 
ATOM     85  C   UNL A   1      47.441  32.870  28.482  1.00  0.00     0.055 A 
ATOM     86  C   UNL A   1      47.217  33.606  30.752  1.00  0.00     0.041 A 
ATOM     87  F   UNL A   1      46.315  32.199  32.359  1.00  0.00    -0.206 F 
ATOM     88  C   UNL A   1      47.568  33.878  29.441  1.00  0.00     0.022 A 
BRANCH  85  89
ATOM     89  S   UNL A   1      47.840  33.280  26.752  1.00  0.00     0.124 S 
ATOM     90  O   UNL A   1      46.589  32.979  26.065  1.00  0.00    -0.237 OA
ATOM     91  O   UNL A   1      48.210  34.687  26.842  1.00  0.00    -0.237 OA
ATOM     92  O   UNL A   1      48.947  32.377  26.433  1.00  0.00    -0.744 OA
ENDBRANCH  85  89
ENDBRANCH  58  82
BRANCH  70  93
ATOM     93  C   UNL A   1      45.024  25.929  33.168  1.00  0.00     0.023 A 
ATOM     94  C   UNL A   1      43.837  26.614  33.518  1.00  0.00     0.031 A 
ATOM     95  C   UNL A   1      45.758  25.328  34.206  1.00  0.00     0.131 A 
ATOM     96  C   UNL A   1      43.432  26.683  34.866  1.00  0.00     0.055 A 
ATOM     97  C   UNL A   1      45.345  25.382  35.536  1.00  0.00     0.041 A 
ATOM     98  F   UNL A   1      46.878  24.637  33.934  1.00  0.00    -0.206 F 
ATOM     99  C   UNL A   1      44.181  26.065  35.873  1.00  0.00     0.022 A 
BRANCH  96 100
ATOM    100  S   UNL A   1      41.921  27.586  35.341  1.00  0.00     0.124 S 
ATOM    101  O   UNL A   1      41.434  26.852  36.503  1.00  0.00    -0.237 OA
ATOM    102  O   UNL A   1      42.422  28.934  35.600  1.00  0.00    -0.237 OA
ATOM    103  O   UNL A   1      41.069  27.478  34.154  1.00  0.00    -0.744 OA
ENDBRANCH  96 100
ENDBRANCH  70  93
ENDBRANCH  44  45
ENDBRANCH  37  39
ENDBRANCH  36  37
ENDBRANCH  35  36
ENDBRANCH  34  35
ENDBRANCH  33  34
ENDBRANCH   1  33
TORSDOF 22
ENDMDL
