MODEL 1
REMARK VINA RESULT:     -11.0      0.000      0.000
REMARK SMILES CC[NH2+][C@]1(C(=O)OCCOC(=O)c2ccc(-c3c4nc(c(-c5cc(S(=O)(=O)[O-])ccc5F)c5ccc([nH]5)c(-c5cc(S(=O)(=O)[O-])ccc5F)c5nc(c(-c6cc(S(=O)(=O)[O-])ccc6F)c6ccc3[nH]6)C=C5)C=C4)cc2)CCC[C@H]1CC[N@H+]1CCC[C@@H](CC)C1
REMARK SMILES IDX 8 1 7 2 5 3 6 4 4 5 76 6 79 7 77 8 78 9 3 10 2 13 1 14 80 15
REMARK SMILES IDX 81 16 82 17 83 18 89 19 84 21 86 22 85 23 87 24 88 25 9 26
REMARK SMILES IDX 10 27 11 28 12 29 13 30 14 31 75 32 15 33 74 34 16 35 17 36
REMARK SMILES IDX 18 37 68 38 19 39 73 40 67 41 69 42 20 43 72 44 66 45 65 46
REMARK SMILES IDX 21 48 53 49 33 50 52 51 34 52 37 53 51 54 70 55 35 56 36 57
REMARK SMILES IDX 50 59 71 60 38 61 22 62 23 63 31 64 24 65 30 66 32 67 29 68
REMARK SMILES IDX 25 69 26 70 27 71 28 72 54 73 55 74 63 75 56 76 62 77 64 78
REMARK SMILES IDX 61 79 57 80 58 81 59 82 60 83 39 84 40 85 48 86 41 87 47 88
REMARK SMILES IDX 49 89 46 90 42 91 43 92 44 93 45 94
REMARK H PARENT 3 11 3 12 82 20 69 47 37 58
REMARK Flexibility Score: inf
ROOT
ATOM      1  C   UNL A   1      32.879  29.418  25.088  1.00  0.00     0.274 C 
ENDROOT
BRANCH   1   2
ATOM      2  O   UNL A   1      32.637  29.358  23.664  1.00  0.00    -0.457 OA
BRANCH   2   3
ATOM      3  C   UNL A   1      33.320  28.361  23.014  1.00  0.00     0.368 C 
ATOM      4  O   UNL A   1      34.469  28.500  22.607  1.00  0.00    -0.245 OA
BRANCH   3   5
ATOM      5  C   UNL A   1      32.418  27.140  22.659  1.00  0.00     0.197 C 
ATOM      6  C   UNL A   1      33.272  26.159  21.815  1.00  0.00     0.081 C 
ATOM      7  C   UNL A   1      31.877  26.209  23.794  1.00  0.00     0.068 C 
ATOM      8  C   UNL A   1      32.638  24.781  21.952  1.00  0.00     0.008 C 
ATOM      9  C   UNL A   1      31.501  24.947  22.960  1.00  0.00     0.011 C 
BRANCH   5  10
ATOM     10  N   UNL A   1      31.172  27.651  22.004  1.00  0.00    -0.332 N 
ATOM     11  H   UNL A   1      31.394  28.568  21.616  1.00  0.00     0.347 HD
ATOM     12  H   UNL A   1      30.931  26.915  21.339  1.00  0.00     0.347 HD
BRANCH  10  13
ATOM     13  C   UNL A   1      29.966  27.808  22.788  1.00  0.00     0.257 C 
ATOM     14  C   UNL A   1      29.386  29.186  22.502  1.00  0.00     0.071 C 
ENDBRANCH  10  13
ENDBRANCH   5  10
BRANCH   7  15
ATOM     15  C   UNL A   1      32.823  25.737  24.918  1.00  0.00     0.072 C 
BRANCH  15  16
ATOM     16  C   UNL A   1      32.455  24.504  25.781  1.00  0.00     0.262 C 
BRANCH  16  17
ATOM     17  N   UNL A   1      33.109  23.200  25.703  1.00  0.00    -0.335 N 
ATOM     18  C   UNL A   1      32.222  22.159  25.202  1.00  0.00     0.262 C 
ATOM     19  C   UNL A   1      34.488  23.168  25.232  1.00  0.00     0.265 C 
ATOM     20  H   UNL A   1      33.283  22.952  26.677  1.00  0.00     0.348 HD
ATOM     21  C   UNL A   1      32.823  20.764  25.281  1.00  0.00     0.062 C 
ATOM     22  C   UNL A   1      35.115  21.753  25.304  1.00  0.00     0.044 C 
ATOM     23  C   UNL A   1      34.196  20.720  24.640  1.00  0.00     0.015 C 
BRANCH  22  24
ATOM     24  C   UNL A   1      36.519  21.761  24.670  1.00  0.00     0.006 C 
ATOM     25  C   UNL A   1      36.636  22.662  23.447  1.00  0.00     0.004 C 
ENDBRANCH  22  24
ENDBRANCH  16  17
ENDBRANCH  15  16
ENDBRANCH   7  15
ENDBRANCH   3   5
ENDBRANCH   2   3
ENDBRANCH   1   2
BRANCH   1  26
ATOM     26  C   UNL A   1      31.934  30.361  25.827  1.00  0.00     0.275 C 
BRANCH  26  27
ATOM     27  O   UNL A   1      32.368  30.544  27.185  1.00  0.00    -0.458 OA
BRANCH  27  28
ATOM     28  C   UNL A   1      33.222  31.580  27.352  1.00  0.00     0.338 C 
ATOM     29  O   UNL A   1      32.941  32.761  27.228  1.00  0.00    -0.246 OA
BRANCH  28  30
ATOM     30  C   UNL A   1      34.582  31.146  27.739  1.00  0.00     0.060 A 
ATOM     31  C   UNL A   1      34.856  29.825  28.082  1.00  0.00     0.016 A 
ATOM     32  C   UNL A   1      35.531  32.140  28.004  1.00  0.00     0.016 A 
ATOM     33  C   UNL A   1      36.009  29.529  28.813  1.00  0.00     0.010 A 
ATOM     34  C   UNL A   1      36.738  31.817  28.632  1.00  0.00     0.010 A 
ATOM     35  C   UNL A   1      36.978  30.512  29.082  1.00  0.00    -0.014 A 
BRANCH  35  36
ATOM     36  C   UNL A   1      38.242  30.149  29.787  1.00  0.00     0.031 A 
ATOM     37  C   UNL A   1      39.275  29.238  29.166  1.00  0.00     0.074 A 
ATOM     38  C   UNL A   1      38.477  30.672  31.009  1.00  0.00     0.049 A 
ATOM     39  N   UNL A   1      40.357  28.734  29.706  1.00  0.00    -0.248 NA
ATOM     40  C   UNL A   1      39.071  28.843  27.763  1.00  0.00     0.031 C 
ATOM     41  C   UNL A   1      37.582  31.592  31.716  1.00  0.00     0.029 A 
ATOM     42  N   UNL A   1      39.543  30.533  31.861  1.00  0.00    -0.354 N 
ATOM     43  C   UNL A   1      40.946  27.936  28.728  1.00  0.00     0.074 A 
ATOM     44  C   UNL A   1      40.097  28.026  27.557  1.00  0.00     0.031 C 
ATOM     45  C   UNL A   1      38.167  31.994  32.849  1.00  0.00     0.029 A 
ATOM     46  C   UNL A   1      39.417  31.265  33.017  1.00  0.00     0.049 A 
ATOM     47  H   UNL A   1      40.321  29.963  31.663  1.00  0.00     0.167 HD
ATOM     48  C   UNL A   1      42.079  27.193  28.808  1.00  0.00     0.034 A 
ATOM     49  C   UNL A   1      40.176  31.308  34.127  1.00  0.00     0.034 A 
ATOM     50  C   UNL A   1      42.931  27.130  29.977  1.00  0.00     0.049 A 
ATOM     51  C   UNL A   1      41.372  30.413  34.224  1.00  0.00     0.074 A 
ATOM     52  C   UNL A   1      44.116  26.430  30.145  1.00  0.00     0.029 A 
ATOM     53  N   UNL A   1      42.693  27.785  31.178  1.00  0.00    -0.354 N 
ATOM     54  N   UNL A   1      41.855  29.587  33.327  1.00  0.00    -0.248 NA
ATOM     55  C   UNL A   1      42.100  30.428  35.498  1.00  0.00     0.031 C 
ATOM     56  C   UNL A   1      44.556  26.612  31.463  1.00  0.00     0.029 A 
ATOM     57  C   UNL A   1      43.684  27.478  32.100  1.00  0.00     0.049 A 
ATOM     58  H   UNL A   1      41.929  28.384  31.350  1.00  0.00     0.167 HD
ATOM     59  C   UNL A   1      42.933  28.961  33.939  1.00  0.00     0.074 A 
ATOM     60  C   UNL A   1      43.049  29.532  35.267  1.00  0.00     0.031 C 
ATOM     61  C   UNL A   1      43.749  27.995  33.445  1.00  0.00     0.034 A 
BRANCH  48  62
ATOM     62  C   UNL A   1      42.439  26.324  27.625  1.00  0.00     0.023 A 
ATOM     63  C   UNL A   1      42.020  24.987  27.514  1.00  0.00     0.031 A 
ATOM     64  C   UNL A   1      43.195  26.868  26.570  1.00  0.00     0.131 A 
ATOM     65  C   UNL A   1      42.384  24.232  26.385  1.00  0.00     0.055 A 
ATOM     66  C   UNL A   1      43.512  26.128  25.429  1.00  0.00     0.041 A 
ATOM     67  F   UNL A   1      43.635  28.136  26.629  1.00  0.00    -0.206 F 
ATOM     68  C   UNL A   1      43.112  24.800  25.335  1.00  0.00     0.022 A 
BRANCH  65  69
ATOM     69  S   UNL A   1      41.972  22.465  26.336  1.00  0.00     0.124 S 
ATOM     70  O   UNL A   1      42.638  22.031  25.110  1.00  0.00    -0.237 OA
ATOM     71  O   UNL A   1      42.547  21.975  27.583  1.00  0.00    -0.237 OA
ATOM     72  O   UNL A   1      40.512  22.454  26.277  1.00  0.00    -0.744 OA
ENDBRANCH  65  69
ENDBRANCH  48  62
BRANCH  49  73
ATOM     73  C   UNL A   1      39.742  32.150  35.274  1.00  0.00     0.023 A 
ATOM     74  C   UNL A   1      38.882  31.648  36.259  1.00  0.00     0.031 A 
ATOM     75  C   UNL A   1      40.228  33.463  35.414  1.00  0.00     0.131 A 
ATOM     76  C   UNL A   1      38.537  32.458  37.352  1.00  0.00     0.055 A 
ATOM     77  C   UNL A   1      39.917  34.247  36.522  1.00  0.00     0.041 A 
ATOM     78  F   UNL A   1      41.060  33.980  34.495  1.00  0.00    -0.206 F 
ATOM     79  C   UNL A   1      39.064  33.746  37.500  1.00  0.00     0.022 A 
BRANCH  76  80
ATOM     80  S   UNL A   1      37.377  31.812  38.587  1.00  0.00     0.124 S 
ATOM     81  O   UNL A   1      37.157  30.453  38.106  1.00  0.00    -0.237 OA
ATOM     82  O   UNL A   1      38.142  31.940  39.823  1.00  0.00    -0.237 OA
ATOM     83  O   UNL A   1      36.228  32.707  38.476  1.00  0.00    -0.744 OA
ENDBRANCH  76  80
ENDBRANCH  49  73
BRANCH  61  84
ATOM     84  C   UNL A   1      44.823  27.500  34.376  1.00  0.00     0.023 A 
ATOM     85  C   UNL A   1      44.615  26.373  35.191  1.00  0.00     0.031 A 
ATOM     86  C   UNL A   1      46.033  28.203  34.509  1.00  0.00     0.131 A 
ATOM     87  C   UNL A   1      45.577  26.017  36.148  1.00  0.00     0.055 A 
ATOM     88  C   UNL A   1      47.008  27.814  35.429  1.00  0.00     0.041 A 
ATOM     89  F   UNL A   1      46.276  29.292  33.762  1.00  0.00    -0.206 F 
ATOM     90  C   UNL A   1      46.777  26.726  36.265  1.00  0.00     0.022 A 
BRANCH  87  91
ATOM     91  S   UNL A   1      45.195  24.680  37.314  1.00  0.00     0.124 S 
ATOM     92  O   UNL A   1      44.151  25.284  38.137  1.00  0.00    -0.237 OA
ATOM     93  O   UNL A   1      44.764  23.605  36.426  1.00  0.00    -0.237 OA
ATOM     94  O   UNL A   1      46.464  24.448  37.999  1.00  0.00    -0.744 OA
ENDBRANCH  87  91
ENDBRANCH  61  84
ENDBRANCH  35  36
ENDBRANCH  28  30
ENDBRANCH  27  28
ENDBRANCH  26  27
ENDBRANCH   1  26
TORSDOF 20
ENDMDL
MODEL 2
REMARK VINA RESULT:     -10.6      5.125     10.380
REMARK SMILES CC[NH2+][C@]1(C(=O)OCCOC(=O)c2ccc(-c3c4nc(c(-c5cc(S(=O)(=O)[O-])ccc5F)c5ccc([nH]5)c(-c5cc(S(=O)(=O)[O-])ccc5F)c5nc(c(-c6cc(S(=O)(=O)[O-])ccc6F)c6ccc3[nH]6)C=C5)C=C4)cc2)CCC[C@H]1CC[N@H+]1CCC[C@@H](CC)C1
REMARK SMILES IDX 8 1 7 2 5 3 6 4 4 5 76 6 79 7 77 8 78 9 3 10 2 13 1 14 80 15
REMARK SMILES IDX 81 16 82 17 83 18 89 19 84 21 86 22 85 23 87 24 88 25 9 26
REMARK SMILES IDX 10 27 11 28 12 29 13 30 14 31 75 32 15 33 74 34 16 35 17 36
REMARK SMILES IDX 18 37 68 38 19 39 73 40 67 41 69 42 20 43 72 44 66 45 65 46
REMARK SMILES IDX 21 48 53 49 33 50 52 51 34 52 37 53 51 54 70 55 35 56 36 57
REMARK SMILES IDX 50 59 71 60 38 61 22 62 23 63 31 64 24 65 30 66 32 67 29 68
REMARK SMILES IDX 25 69 26 70 27 71 28 72 54 73 55 74 63 75 56 76 62 77 64 78
REMARK SMILES IDX 61 79 57 80 58 81 59 82 60 83 39 84 40 85 48 86 41 87 47 88
REMARK SMILES IDX 49 89 46 90 42 91 43 92 44 93 45 94
REMARK H PARENT 3 11 3 12 82 20 69 47 37 58
REMARK Flexibility Score: inf
ROOT
ATOM      1  C   UNL A   1      35.911  20.106  25.002  1.00  0.00     0.274 C 
ENDROOT
BRANCH   1   2
ATOM      2  O   UNL A   1      35.202  21.210  25.609  1.00  0.00    -0.457 OA
BRANCH   2   3
ATOM      3  C   UNL A   1      34.239  21.773  24.811  1.00  0.00     0.368 C 
ATOM      4  O   UNL A   1      34.502  22.361  23.767  1.00  0.00    -0.245 OA
BRANCH   3   5
ATOM      5  C   UNL A   1      32.829  21.780  25.474  1.00  0.00     0.197 C 
ATOM      6  C   UNL A   1      32.966  22.471  26.856  1.00  0.00     0.081 C 
ATOM      7  C   UNL A   1      31.658  22.586  24.820  1.00  0.00     0.068 C 
ATOM      8  C   UNL A   1      31.583  22.986  27.238  1.00  0.00     0.008 C 
ATOM      9  C   UNL A   1      30.687  22.697  26.034  1.00  0.00     0.011 C 
BRANCH   5  10
ATOM     10  N   UNL A   1      32.313  20.373  25.497  1.00  0.00    -0.332 N 
ATOM     11  H   UNL A   1      32.835  19.877  26.219  1.00  0.00     0.347 HD
ATOM     12  H   UNL A   1      31.311  20.487  25.649  1.00  0.00     0.347 HD
BRANCH  10  13
ATOM     13  C   UNL A   1      32.385  19.568  24.297  1.00  0.00     0.257 C 
ATOM     14  C   UNL A   1      32.661  18.127  24.704  1.00  0.00     0.071 C 
ENDBRANCH  10  13
ENDBRANCH   5  10
BRANCH   7  15
ATOM     15  C   UNL A   1      31.904  24.021  24.311  1.00  0.00     0.072 C 
BRANCH  15  16
ATOM     16  C   UNL A   1      30.707  24.956  24.001  1.00  0.00     0.262 C 
BRANCH  16  17
ATOM     17  N   UNL A   1      30.792  26.406  23.850  1.00  0.00    -0.335 N 
ATOM     18  C   UNL A   1      32.125  26.851  23.465  1.00  0.00     0.262 C 
ATOM     19  C   UNL A   1      29.668  27.081  23.215  1.00  0.00     0.265 C 
ATOM     20  H   UNL A   1      30.659  26.761  24.796  1.00  0.00     0.348 HD
ATOM     21  C   UNL A   1      32.284  28.364  23.477  1.00  0.00     0.062 C 
ATOM     22  C   UNL A   1      29.814  28.624  23.216  1.00  0.00     0.044 C 
ATOM     23  C   UNL A   1      31.188  29.037  22.674  1.00  0.00     0.015 C 
BRANCH  22  24
ATOM     24  C   UNL A   1      28.665  29.267  22.417  1.00  0.00     0.006 C 
ATOM     25  C   UNL A   1      27.863  30.291  23.211  1.00  0.00     0.004 C 
ENDBRANCH  22  24
ENDBRANCH  16  17
ENDBRANCH  15  16
ENDBRANCH   7  15
ENDBRANCH   3   5
ENDBRANCH   2   3
ENDBRANCH   1   2
BRANCH   1  26
ATOM     26  C   UNL A   1      37.395  20.383  24.782  1.00  0.00     0.275 C 
BRANCH  26  27
ATOM     27  O   UNL A   1      37.798  21.560  25.500  1.00  0.00    -0.458 OA
BRANCH  27  28
ATOM     28  C   UNL A   1      38.992  21.440  26.125  1.00  0.00     0.338 C 
ATOM     29  O   UNL A   1      39.647  20.414  26.216  1.00  0.00    -0.246 OA
BRANCH  28  30
ATOM     30  C   UNL A   1      39.476  22.716  26.693  1.00  0.00     0.060 A 
ATOM     31  C   UNL A   1      38.983  23.943  26.255  1.00  0.00     0.016 A 
ATOM     32  C   UNL A   1      40.624  22.679  27.493  1.00  0.00     0.016 A 
ATOM     33  C   UNL A   1      39.716  25.106  26.499  1.00  0.00     0.010 A 
ATOM     34  C   UNL A   1      41.289  23.862  27.833  1.00  0.00     0.010 A 
ATOM     35  C   UNL A   1      40.867  25.090  27.307  1.00  0.00    -0.014 A 
BRANCH  35  36
ATOM     36  C   UNL A   1      41.580  26.362  27.624  1.00  0.00     0.031 A 
ATOM     37  C   UNL A   1      40.956  27.441  28.477  1.00  0.00     0.074 A 
ATOM     38  C   UNL A   1      42.833  26.539  27.154  1.00  0.00     0.049 A 
ATOM     39  N   UNL A   1      41.401  28.648  28.733  1.00  0.00    -0.248 NA
ATOM     40  C   UNL A   1      39.672  27.132  29.126  1.00  0.00     0.031 C 
ATOM     41  C   UNL A   1      43.572  25.566  26.345  1.00  0.00     0.029 A 
ATOM     42  N   UNL A   1      43.716  27.577  27.304  1.00  0.00    -0.354 N 
ATOM     43  C   UNL A   1      40.442  29.255  29.539  1.00  0.00     0.074 A 
ATOM     44  C   UNL A   1      39.389  28.279  29.733  1.00  0.00     0.031 C 
ATOM     45  C   UNL A   1      44.814  26.015  26.140  1.00  0.00     0.029 A 
ATOM     46  C   UNL A   1      44.924  27.361  26.685  1.00  0.00     0.049 A 
ATOM     47  H   UNL A   1      43.504  28.398  27.806  1.00  0.00     0.167 HD
ATOM     48  C   UNL A   1      40.440  30.509  30.057  1.00  0.00     0.034 A 
ATOM     49  C   UNL A   1      45.988  28.166  26.509  1.00  0.00     0.034 A 
ATOM     50  C   UNL A   1      41.511  31.467  29.876  1.00  0.00     0.049 A 
ATOM     51  C   UNL A   1      45.924  29.574  27.014  1.00  0.00     0.074 A 
ATOM     52  C   UNL A   1      41.614  32.752  30.386  1.00  0.00     0.029 A 
ATOM     53  N   UNL A   1      42.660  31.251  29.127  1.00  0.00    -0.354 N 
ATOM     54  N   UNL A   1      44.964  30.163  27.687  1.00  0.00    -0.248 NA
ATOM     55  C   UNL A   1      47.070  30.434  26.702  1.00  0.00     0.031 C 
ATOM     56  C   UNL A   1      42.792  33.331  29.893  1.00  0.00     0.029 A 
ATOM     57  C   UNL A   1      43.458  32.388  29.129  1.00  0.00     0.049 A 
ATOM     58  H   UNL A   1      42.877  30.411  28.660  1.00  0.00     0.167 HD
ATOM     59  C   UNL A   1      45.380  31.477  27.855  1.00  0.00     0.074 A 
ATOM     60  C   UNL A   1      46.692  31.582  27.246  1.00  0.00     0.031 C 
ATOM     61  C   UNL A   1      44.729  32.505  28.457  1.00  0.00     0.034 A 
BRANCH  48  62
ATOM     62  C   UNL A   1      39.212  30.959  30.816  1.00  0.00     0.023 A 
ATOM     63  C   UNL A   1      38.121  31.583  30.187  1.00  0.00     0.031 A 
ATOM     64  C   UNL A   1      39.129  30.722  32.201  1.00  0.00     0.131 A 
ATOM     65  C   UNL A   1      37.006  31.972  30.948  1.00  0.00     0.055 A 
ATOM     66  C   UNL A   1      37.998  31.068  32.943  1.00  0.00     0.041 A 
ATOM     67  F   UNL A   1      40.147  30.142  32.857  1.00  0.00    -0.206 F 
ATOM     68  C   UNL A   1      36.930  31.703  32.318  1.00  0.00     0.022 A 
BRANCH  65  69
ATOM     69  S   UNL A   1      35.680  32.920  30.148  1.00  0.00     0.124 S 
ATOM     70  O   UNL A   1      34.968  31.882  29.408  1.00  0.00    -0.237 OA
ATOM     71  O   UNL A   1      34.972  33.492  31.288  1.00  0.00    -0.237 OA
ATOM     72  O   UNL A   1      36.400  33.883  29.317  1.00  0.00    -0.744 OA
ENDBRANCH  65  69
ENDBRANCH  48  62
BRANCH  49  73
ATOM     73  C   UNL A   1      47.146  27.679  25.714  1.00  0.00     0.023 A 
ATOM     74  C   UNL A   1      47.217  27.886  24.331  1.00  0.00     0.031 A 
ATOM     75  C   UNL A   1      48.223  27.035  26.352  1.00  0.00     0.131 A 
ATOM     76  C   UNL A   1      48.350  27.455  23.625  1.00  0.00     0.055 A 
ATOM     77  C   UNL A   1      49.365  26.648  25.653  1.00  0.00     0.041 A 
ATOM     78  F   UNL A   1      48.198  26.823  27.678  1.00  0.00    -0.206 F 
ATOM     79  C   UNL A   1      49.432  26.856  24.280  1.00  0.00     0.022 A 
BRANCH  76  80
ATOM     80  S   UNL A   1      48.397  27.679  21.826  1.00  0.00     0.124 S 
ATOM     81  O   UNL A   1      49.495  28.628  21.673  1.00  0.00    -0.237 OA
ATOM     82  O   UNL A   1      48.652  26.322  21.354  1.00  0.00    -0.237 OA
ATOM     83  O   UNL A   1      47.070  28.203  21.513  1.00  0.00    -0.744 OA
ENDBRANCH  76  80
ENDBRANCH  49  73
BRANCH  61  84
ATOM     84  C   UNL A   1      45.445  33.830  28.456  1.00  0.00     0.023 A 
ATOM     85  C   UNL A   1      46.359  34.162  29.472  1.00  0.00     0.031 A 
ATOM     86  C   UNL A   1      45.155  34.798  27.479  1.00  0.00     0.131 A 
ATOM     87  C   UNL A   1      46.904  35.453  29.525  1.00  0.00     0.055 A 
ATOM     88  C   UNL A   1      45.740  36.064  27.509  1.00  0.00     0.041 A 
ATOM     89  F   UNL A   1      44.282  34.534  26.494  1.00  0.00    -0.206 F 
ATOM     90  C   UNL A   1      46.608  36.403  28.543  1.00  0.00     0.022 A 
BRANCH  87  91
ATOM     91  S   UNL A   1      47.924  35.911  30.954  1.00  0.00     0.124 S 
ATOM     92  O   UNL A   1      48.989  34.914  30.899  1.00  0.00    -0.237 OA
ATOM     93  O   UNL A   1      48.315  37.280  30.632  1.00  0.00    -0.237 OA
ATOM     94  O   UNL A   1      47.010  35.778  32.086  1.00  0.00    -0.744 OA
ENDBRANCH  87  91
ENDBRANCH  61  84
ENDBRANCH  35  36
ENDBRANCH  28  30
ENDBRANCH  27  28
ENDBRANCH  26  27
ENDBRANCH   1  26
TORSDOF 20
ENDMDL
MODEL 3
REMARK VINA RESULT:     -10.5      2.030      2.332
REMARK SMILES CC[NH2+][C@]1(C(=O)OCCOC(=O)c2ccc(-c3c4nc(c(-c5cc(S(=O)(=O)[O-])ccc5F)c5ccc([nH]5)c(-c5cc(S(=O)(=O)[O-])ccc5F)c5nc(c(-c6cc(S(=O)(=O)[O-])ccc6F)c6ccc3[nH]6)C=C5)C=C4)cc2)CCC[C@H]1CC[N@H+]1CCC[C@@H](CC)C1
REMARK SMILES IDX 8 1 7 2 5 3 6 4 4 5 76 6 79 7 77 8 78 9 3 10 2 13 1 14 80 15
REMARK SMILES IDX 81 16 82 17 83 18 89 19 84 21 86 22 85 23 87 24 88 25 9 26
REMARK SMILES IDX 10 27 11 28 12 29 13 30 14 31 75 32 15 33 74 34 16 35 17 36
REMARK SMILES IDX 18 37 68 38 19 39 73 40 67 41 69 42 20 43 72 44 66 45 65 46
REMARK SMILES IDX 21 48 53 49 33 50 52 51 34 52 37 53 51 54 70 55 35 56 36 57
REMARK SMILES IDX 50 59 71 60 38 61 22 62 23 63 31 64 24 65 30 66 32 67 29 68
REMARK SMILES IDX 25 69 26 70 27 71 28 72 54 73 55 74 63 75 56 76 62 77 64 78
REMARK SMILES IDX 61 79 57 80 58 81 59 82 60 83 39 84 40 85 48 86 41 87 47 88
REMARK SMILES IDX 49 89 46 90 42 91 43 92 44 93 45 94
REMARK H PARENT 3 11 3 12 82 20 69 47 37 58
REMARK Flexibility Score: inf
ROOT
ATOM      1  C   UNL A   1      31.962  28.823  27.076  1.00  0.00     0.274 C 
ENDROOT
BRANCH   1   2
ATOM      2  O   UNL A   1      31.375  27.923  26.109  1.00  0.00    -0.457 OA
BRANCH   2   3
ATOM      3  C   UNL A   1      32.232  26.966  25.630  1.00  0.00     0.368 C 
ATOM      4  O   UNL A   1      33.426  26.942  25.915  1.00  0.00    -0.245 OA
BRANCH   3   5
ATOM      5  C   UNL A   1      31.588  26.067  24.533  1.00  0.00     0.197 C 
ATOM      6  C   UNL A   1      32.740  25.430  23.714  1.00  0.00     0.081 C 
ATOM      7  C   UNL A   1      30.747  24.812  24.942  1.00  0.00     0.068 C 
ATOM      8  C   UNL A   1      32.185  24.170  23.063  1.00  0.00     0.008 C 
ATOM      9  C   UNL A   1      30.762  24.021  23.599  1.00  0.00     0.011 C 
BRANCH   5  10
ATOM     10  N   UNL A   1      30.616  26.900  23.754  1.00  0.00    -0.332 N 
ATOM     11  H   UNL A   1      29.793  26.320  23.589  1.00  0.00     0.347 HD
ATOM     12  H   UNL A   1      30.489  27.728  24.336  1.00  0.00     0.347 HD
BRANCH  10  13
ATOM     13  C   UNL A   1      31.010  27.444  22.472  1.00  0.00     0.257 C 
ATOM     14  C   UNL A   1      31.548  28.851  22.695  1.00  0.00     0.071 C 
ENDBRANCH  10  13
ENDBRANCH   5  10
BRANCH   7  15
ATOM     15  C   UNL A   1      31.273  23.856  26.032  1.00  0.00     0.072 C 
BRANCH  15  16
ATOM     16  C   UNL A   1      31.211  22.322  25.820  1.00  0.00     0.262 C 
BRANCH  16  17
ATOM     17  N   UNL A   1      32.373  21.440  25.738  1.00  0.00    -0.335 N 
ATOM     18  C   UNL A   1      32.126  20.266  24.912  1.00  0.00     0.262 C 
ATOM     19  C   UNL A   1      33.683  22.065  25.613  1.00  0.00     0.265 C 
ATOM     20  H   UNL A   1      32.475  21.078  26.686  1.00  0.00     0.348 HD
ATOM     21  C   UNL A   1      33.254  19.247  24.957  1.00  0.00     0.062 C 
ATOM     22  C   UNL A   1      34.844  21.040  25.655  1.00  0.00     0.044 C 
ATOM     23  C   UNL A   1      34.593  19.896  24.666  1.00  0.00     0.015 C 
BRANCH  22  24
ATOM     24  C   UNL A   1      36.187  21.747  25.385  1.00  0.00     0.006 C 
ATOM     25  C   UNL A   1      37.325  20.794  25.041  1.00  0.00     0.004 C 
ENDBRANCH  22  24
ENDBRANCH  16  17
ENDBRANCH  15  16
ENDBRANCH   7  15
ENDBRANCH   3   5
ENDBRANCH   2   3
ENDBRANCH   1   2
BRANCH   1  26
ATOM     26  C   UNL A   1      31.865  30.293  26.677  1.00  0.00     0.275 C 
BRANCH  26  27
ATOM     27  O   UNL A   1      33.157  30.797  26.300  1.00  0.00    -0.458 OA
BRANCH  27  28
ATOM     28  C   UNL A   1      33.709  31.628  27.214  1.00  0.00     0.338 C 
ATOM     29  O   UNL A   1      33.207  32.659  27.633  1.00  0.00    -0.246 OA
BRANCH  28  30
ATOM     30  C   UNL A   1      35.020  31.153  27.706  1.00  0.00     0.060 A 
ATOM     31  C   UNL A   1      35.198  29.850  28.163  1.00  0.00     0.016 A 
ATOM     32  C   UNL A   1      36.011  32.111  27.946  1.00  0.00     0.016 A 
ATOM     33  C   UNL A   1      36.293  29.550  28.976  1.00  0.00     0.010 A 
ATOM     34  C   UNL A   1      37.165  31.773  28.662  1.00  0.00     0.010 A 
ATOM     35  C   UNL A   1      37.304  30.497  29.222  1.00  0.00    -0.014 A 
BRANCH  35  36
ATOM     36  C   UNL A   1      38.507  30.122  30.021  1.00  0.00     0.031 A 
ATOM     37  C   UNL A   1      39.574  29.199  29.480  1.00  0.00     0.074 A 
ATOM     38  C   UNL A   1      38.656  30.646  31.255  1.00  0.00     0.049 A 
ATOM     39  N   UNL A   1      40.608  28.684  30.101  1.00  0.00    -0.248 NA
ATOM     40  C   UNL A   1      39.471  28.802  28.067  1.00  0.00     0.031 C 
ATOM     41  C   UNL A   1      37.721  31.576  31.892  1.00  0.00     0.029 A 
ATOM     42  N   UNL A   1      39.653  30.497  32.186  1.00  0.00    -0.354 N 
ATOM     43  C   UNL A   1      41.259  27.877  29.171  1.00  0.00     0.074 A 
ATOM     44  C   UNL A   1      40.501  27.973  27.940  1.00  0.00     0.031 C 
ATOM     45  C   UNL A   1      38.224  31.975  33.065  1.00  0.00     0.029 A 
ATOM     46  C   UNL A   1      39.449  31.233  33.328  1.00  0.00     0.049 A 
ATOM     47  H   UNL A   1      40.438  29.918  32.048  1.00  0.00     0.167 HD
ATOM     48  C   UNL A   1      42.375  27.122  29.337  1.00  0.00     0.034 A 
ATOM     49  C   UNL A   1      40.124  31.271  34.492  1.00  0.00     0.034 A 
ATOM     50  C   UNL A   1      43.136  27.053  30.566  1.00  0.00     0.049 A 
ATOM     51  C   UNL A   1      41.299  30.364  34.680  1.00  0.00     0.074 A 
ATOM     52  C   UNL A   1      44.297  26.341  30.824  1.00  0.00     0.029 A 
ATOM     53  N   UNL A   1      42.815  27.714  31.745  1.00  0.00    -0.354 N 
ATOM     54  N   UNL A   1      41.839  29.530  33.822  1.00  0.00    -0.248 NA
ATOM     55  C   UNL A   1      41.929  30.374  36.004  1.00  0.00     0.031 C 
ATOM     56  C   UNL A   1      44.640  26.521  32.171  1.00  0.00     0.029 A 
ATOM     57  C   UNL A   1      43.732  27.399  32.740  1.00  0.00     0.049 A 
ATOM     58  H   UNL A   1      42.048  28.321  31.858  1.00  0.00     0.167 HD
ATOM     59  C   UNL A   1      42.861  28.894  34.515  1.00  0.00     0.074 A 
ATOM     60  C   UNL A   1      42.883  29.467  35.847  1.00  0.00     0.031 C 
ATOM     61  C   UNL A   1      43.701  27.918  34.085  1.00  0.00     0.034 A 
BRANCH  48  62
ATOM     62  C   UNL A   1      42.813  26.246  28.186  1.00  0.00     0.023 A 
ATOM     63  C   UNL A   1      42.355  24.927  28.022  1.00  0.00     0.031 A 
ATOM     64  C   UNL A   1      43.688  26.766  27.213  1.00  0.00     0.131 A 
ATOM     65  C   UNL A   1      42.797  24.165  26.926  1.00  0.00     0.055 A 
ATOM     66  C   UNL A   1      44.084  26.021  26.101  1.00  0.00     0.041 A 
ATOM     67  F   UNL A   1      44.168  28.015  27.325  1.00  0.00    -0.206 F 
ATOM     68  C   UNL A   1      43.643  24.710  25.956  1.00  0.00     0.022 A 
BRANCH  65  69
ATOM     69  S   UNL A   1      42.323  22.416  26.822  1.00  0.00     0.124 S 
ATOM     70  O   UNL A   1      43.218  21.921  25.779  1.00  0.00    -0.237 OA
ATOM     71  O   UNL A   1      42.591  21.938  28.173  1.00  0.00    -0.237 OA
ATOM     72  O   UNL A   1      40.911  22.464  26.447  1.00  0.00    -0.744 OA
ENDBRANCH  65  69
ENDBRANCH  48  62
BRANCH  49  73
ATOM     73  C   UNL A   1      39.614  32.120  35.601  1.00  0.00     0.023 A 
ATOM     74  C   UNL A   1      40.039  33.446  35.755  1.00  0.00     0.031 A 
ATOM     75  C   UNL A   1      38.651  31.616  36.495  1.00  0.00     0.131 A 
ATOM     76  C   UNL A   1      39.496  34.230  36.785  1.00  0.00     0.055 A 
ATOM     77  C   UNL A   1      38.084  32.412  37.488  1.00  0.00     0.041 A 
ATOM     78  F   UNL A   1      38.212  30.353  36.378  1.00  0.00    -0.206 F 
ATOM     79  C   UNL A   1      38.508  33.728  37.639  1.00  0.00     0.022 A 
BRANCH  76  80
ATOM     80  S   UNL A   1      40.102  35.924  37.006  1.00  0.00     0.124 S 
ATOM     81  O   UNL A   1      41.541  35.713  37.120  1.00  0.00    -0.237 OA
ATOM     82  O   UNL A   1      39.644  36.576  35.783  1.00  0.00    -0.237 OA
ATOM     83  O   UNL A   1      39.437  36.368  38.228  1.00  0.00    -0.744 OA
ENDBRANCH  76  80
ENDBRANCH  49  73
BRANCH  61  84
ATOM     84  C   UNL A   1      44.698  27.414  35.095  1.00  0.00     0.023 A 
ATOM     85  C   UNL A   1      45.958  28.021  35.236  1.00  0.00     0.031 A 
ATOM     86  C   UNL A   1      44.418  26.273  35.866  1.00  0.00     0.131 A 
ATOM     87  C   UNL A   1      46.918  27.447  36.082  1.00  0.00     0.055 A 
ATOM     88  C   UNL A   1      45.360  25.735  36.745  1.00  0.00     0.041 A 
ATOM     89  F   UNL A   1      43.233  25.651  35.760  1.00  0.00    -0.206 F 
ATOM     90  C   UNL A   1      46.622  26.313  36.845  1.00  0.00     0.022 A 
BRANCH  87  91
ATOM     91  S   UNL A   1      48.596  28.137  36.095  1.00  0.00     0.124 S 
ATOM     92  O   UNL A   1      48.654  28.770  37.409  1.00  0.00    -0.237 OA
ATOM     93  O   UNL A   1      49.424  26.948  35.922  1.00  0.00    -0.237 OA
ATOM     94  O   UNL A   1      48.596  29.062  34.963  1.00  0.00    -0.744 OA
ENDBRANCH  87  91
ENDBRANCH  61  84
ENDBRANCH  35  36
ENDBRANCH  28  30
ENDBRANCH  27  28
ENDBRANCH  26  27
ENDBRANCH   1  26
TORSDOF 20
ENDMDL
