MODEL 1
REMARK VINA RESULT:     -11.1      0.000      0.000
REMARK SMILES CC(C)(C)OC(=O)N[C@H](c1ccccc1)[C@@H](O)CC(=O)OCCOC(=O)c1ccc(-c2c3nc(c(-c4cc(S(=O)(=O)[O-])ccc4F)c4ccc([nH]4)c(-c4cc(S(=O)(=O)[O-])ccc4F)c4nc(c(-c5cc(S(=O)(=O)[O-])ccc5F)c5ccc2[nH]5)C=C4)C=C3)cc1
REMARK SMILES IDX 22 1 21 2 19 3 20 4 18 5 16 6 9 7 8 8 6 9 7 10 5 12 2 13
REMARK SMILES IDX 1 14 3 15 4 16 10 17 11 18 15 19 12 20 14 21 13 22 17 23
REMARK SMILES IDX 23 25 24 26 25 27 26 28 27 29 28 30 89 31 29 32 88 33 30 34
REMARK SMILES IDX 31 35 32 36 82 37 33 38 87 39 81 40 83 41 34 42 86 43 80 44
REMARK SMILES IDX 79 45 35 47 67 48 47 49 66 50 48 51 51 52 65 53 84 54 49 55
REMARK SMILES IDX 50 56 64 58 85 59 52 60 36 61 37 62 45 63 38 64 44 65 46 66
REMARK SMILES IDX 43 67 39 68 40 69 41 70 42 71 68 72 69 73 77 74 70 75 76 76
REMARK SMILES IDX 78 77 75 78 71 79 72 80 73 81 74 82 53 83 54 84 62 85 55 86
REMARK SMILES IDX 61 87 63 88 60 89 56 90 57 91 58 92 59 93
REMARK H PARENT 8 11 17 24 83 46 51 57
REMARK Flexibility Score: inf
ROOT
ATOM      1  C   UNL A   1      33.914  20.819  26.447  1.00  0.00     0.274 C 
ENDROOT
BRANCH   1   2
ATOM      2  O   UNL A   1      33.583  21.869  27.416  1.00  0.00    -0.462 OA
BRANCH   2   3
ATOM      3  C   UNL A   1      32.709  22.882  27.163  1.00  0.00     0.308 C 
ATOM      4  O   UNL A   1      31.582  22.907  27.656  1.00  0.00    -0.252 OA
BRANCH   3   5
ATOM      5  C   UNL A   1      33.225  24.085  26.283  1.00  0.00     0.157 C 
BRANCH   5   6
ATOM      6  C   UNL A   1      32.725  24.446  24.860  1.00  0.00     0.152 C 
BRANCH   6   7
ATOM      7  C   UNL A   1      32.448  25.938  24.752  1.00  0.00     0.145 C 
BRANCH   7   8
ATOM      8  N   UNL A   1      33.154  26.505  23.633  1.00  0.00    -0.312 N 
ATOM      9  C   UNL A   1      32.782  26.944  22.409  1.00  0.00     0.408 C 
ATOM     10  O   UNL A   1      33.768  26.859  21.672  1.00  0.00    -0.225 OA
ATOM     11  H   UNL A   1      34.121  26.594  23.795  1.00  0.00     0.167 HD
BRANCH   9  12
ATOM     12  O   UNL A   1      31.540  27.479  22.208  1.00  0.00    -0.444 OA
BRANCH  12  13
ATOM     13  C   UNL A   1      30.487  28.440  22.782  1.00  0.00     0.106 C 
ATOM     14  C   UNL A   1      29.479  27.556  23.519  1.00  0.00     0.056 C 
ATOM     15  C   UNL A   1      29.735  29.528  21.986  1.00  0.00     0.056 C 
ATOM     16  C   UNL A   1      31.200  29.349  23.819  1.00  0.00     0.056 C 
ENDBRANCH  12  13
ENDBRANCH   9  12
ENDBRANCH   7   8
BRANCH   7  17
ATOM     17  C   UNL A   1      32.678  26.897  25.929  1.00  0.00    -0.023 A 
ATOM     18  C   UNL A   1      31.593  27.222  26.757  1.00  0.00     0.006 A 
ATOM     19  C   UNL A   1      33.838  27.699  26.009  1.00  0.00     0.006 A 
ATOM     20  C   UNL A   1      31.610  28.392  27.524  1.00  0.00     0.000 A 
ATOM     21  C   UNL A   1      33.841  28.878  26.756  1.00  0.00     0.000 A 
ATOM     22  C   UNL A   1      32.716  29.238  27.491  1.00  0.00     0.000 A 
ENDBRANCH   7  17
ENDBRANCH   6   7
BRANCH   6  23
ATOM     23  O   UNL A   1      33.685  24.001  23.890  1.00  0.00    -0.390 OA
ATOM     24  H   UNL A   1      33.762  24.663  23.185  1.00  0.00     0.211 HD
ENDBRANCH   6  23
ENDBRANCH   5   6
ENDBRANCH   3   5
ENDBRANCH   2   3
ENDBRANCH   1   2
BRANCH   1  25
ATOM     25  C   UNL A   1      35.201  21.094  25.534  1.00  0.00     0.275 C 
BRANCH  25  26
ATOM     26  O   UNL A   1      36.331  21.801  26.162  1.00  0.00    -0.458 OA
BRANCH  26  27
ATOM     27  C   UNL A   1      37.635  21.595  25.727  1.00  0.00     0.338 C 
ATOM     28  O   UNL A   1      37.994  20.576  25.153  1.00  0.00    -0.246 OA
BRANCH  27  29
ATOM     29  C   UNL A   1      38.630  22.711  26.142  1.00  0.00     0.060 A 
ATOM     30  C   UNL A   1      38.531  24.093  25.828  1.00  0.00     0.016 A 
ATOM     31  C   UNL A   1      39.698  22.366  26.969  1.00  0.00     0.016 A 
ATOM     32  C   UNL A   1      39.277  25.094  26.454  1.00  0.00     0.010 A 
ATOM     33  C   UNL A   1      40.507  23.368  27.558  1.00  0.00     0.010 A 
ATOM     34  C   UNL A   1      40.266  24.738  27.347  1.00  0.00    -0.014 A 
BRANCH  34  35
ATOM     35  C   UNL A   1      41.148  25.788  27.900  1.00  0.00     0.031 A 
ATOM     36  C   UNL A   1      40.523  26.821  28.782  1.00  0.00     0.074 A 
ATOM     37  C   UNL A   1      42.470  25.834  27.645  1.00  0.00     0.049 A 
ATOM     38  N   UNL A   1      40.963  28.004  29.109  1.00  0.00    -0.248 NA
ATOM     39  C   UNL A   1      39.217  26.469  29.360  1.00  0.00     0.031 C 
ATOM     40  C   UNL A   1      43.251  24.800  26.969  1.00  0.00     0.029 A 
ATOM     41  N   UNL A   1      43.385  26.826  27.909  1.00  0.00    -0.354 N 
ATOM     42  C   UNL A   1      39.955  28.571  29.877  1.00  0.00     0.074 A 
ATOM     43  C   UNL A   1      38.900  27.587  29.991  1.00  0.00     0.031 C 
ATOM     44  C   UNL A   1      44.515  25.240  26.817  1.00  0.00     0.029 A 
ATOM     45  C   UNL A   1      44.612  26.610  27.323  1.00  0.00     0.049 A 
ATOM     46  H   UNL A   1      43.182  27.615  28.462  1.00  0.00     0.167 HD
ATOM     47  C   UNL A   1      39.903  29.815  30.406  1.00  0.00     0.034 A 
ATOM     48  C   UNL A   1      45.657  27.450  27.153  1.00  0.00     0.034 A 
ATOM     49  C   UNL A   1      40.949  30.789  30.254  1.00  0.00     0.049 A 
ATOM     50  C   UNL A   1      45.533  28.883  27.635  1.00  0.00     0.074 A 
ATOM     51  C   UNL A   1      40.970  32.108  30.666  1.00  0.00     0.029 A 
ATOM     52  N   UNL A   1      42.166  30.545  29.631  1.00  0.00    -0.354 N 
ATOM     53  N   UNL A   1      44.533  29.466  28.257  1.00  0.00    -0.248 NA
ATOM     54  C   UNL A   1      46.670  29.779  27.369  1.00  0.00     0.031 C 
ATOM     55  C   UNL A   1      42.180  32.676  30.249  1.00  0.00     0.029 A 
ATOM     56  C   UNL A   1      42.941  31.692  29.639  1.00  0.00     0.049 A 
ATOM     57  H   UNL A   1      42.438  29.683  29.240  1.00  0.00     0.167 HD
ATOM     58  C   UNL A   1      44.941  30.779  28.490  1.00  0.00     0.074 A 
ATOM     59  C   UNL A   1      46.274  30.906  27.941  1.00  0.00     0.031 C 
ATOM     60  C   UNL A   1      44.278  31.789  29.108  1.00  0.00     0.034 A 
BRANCH  47  61
ATOM     61  C   UNL A   1      38.614  30.195  31.080  1.00  0.00     0.023 A 
ATOM     62  C   UNL A   1      37.568  30.809  30.370  1.00  0.00     0.031 A 
ATOM     63  C   UNL A   1      38.484  30.057  32.472  1.00  0.00     0.131 A 
ATOM     64  C   UNL A   1      36.483  31.353  31.072  1.00  0.00     0.055 A 
ATOM     65  C   UNL A   1      37.358  30.520  33.152  1.00  0.00     0.041 A 
ATOM     66  F   UNL A   1      39.471  29.510  33.201  1.00  0.00    -0.206 F 
ATOM     67  C   UNL A   1      36.358  31.192  32.454  1.00  0.00     0.022 A 
BRANCH  64  68
ATOM     68  S   UNL A   1      35.337  32.436  30.175  1.00  0.00     0.124 S 
ATOM     69  O   UNL A   1      34.269  32.612  31.157  1.00  0.00    -0.237 OA
ATOM     70  O   UNL A   1      36.157  33.612  29.908  1.00  0.00    -0.237 OA
ATOM     71  O   UNL A   1      34.971  31.648  29.000  1.00  0.00    -0.744 OA
ENDBRANCH  64  68
ENDBRANCH  47  61
BRANCH  48  72
ATOM     72  C   UNL A   1      46.880  27.028  26.405  1.00  0.00     0.023 A 
ATOM     73  C   UNL A   1      47.136  27.510  25.110  1.00  0.00     0.031 A 
ATOM     74  C   UNL A   1      47.748  26.050  26.925  1.00  0.00     0.131 A 
ATOM     75  C   UNL A   1      48.192  26.970  24.356  1.00  0.00     0.055 A 
ATOM     76  C   UNL A   1      48.830  25.557  26.192  1.00  0.00     0.041 A 
ATOM     77  F   UNL A   1      47.546  25.545  28.152  1.00  0.00    -0.206 F 
ATOM     78  C   UNL A   1      49.048  26.006  24.893  1.00  0.00     0.022 A 
BRANCH  75  79
ATOM     79  S   UNL A   1      48.368  27.472  22.621  1.00  0.00     0.124 S 
ATOM     80  O   UNL A   1      47.137  28.224  22.405  1.00  0.00    -0.237 OA
ATOM     81  O   UNL A   1      49.600  28.251  22.655  1.00  0.00    -0.237 OA
ATOM     82  O   UNL A   1      48.457  26.199  21.907  1.00  0.00    -0.744 OA
ENDBRANCH  75  79
ENDBRANCH  48  72
BRANCH  60  83
ATOM     83  C   UNL A   1      45.013  33.091  29.313  1.00  0.00     0.023 A 
ATOM     84  C   UNL A   1      44.912  34.163  28.411  1.00  0.00     0.031 A 
ATOM     85  C   UNL A   1      45.792  33.268  30.472  1.00  0.00     0.131 A 
ATOM     86  C   UNL A   1      45.602  35.358  28.670  1.00  0.00     0.055 A 
ATOM     87  C   UNL A   1      46.440  34.473  30.745  1.00  0.00     0.041 A 
ATOM     88  F   UNL A   1      45.917  32.276  31.368  1.00  0.00    -0.206 F 
ATOM     89  C   UNL A   1      46.351  35.524  29.839  1.00  0.00     0.022 A 
BRANCH  86  90
ATOM     90  S   UNL A   1      45.539  36.694  27.443  1.00  0.00     0.124 S 
ATOM     91  O   UNL A   1      46.009  37.840  28.214  1.00  0.00    -0.237 OA
ATOM     92  O   UNL A   1      46.444  36.209  26.406  1.00  0.00    -0.237 OA
ATOM     93  O   UNL A   1      44.129  36.742  27.059  1.00  0.00    -0.744 OA
ENDBRANCH  86  90
ENDBRANCH  60  83
ENDBRANCH  34  35
ENDBRANCH  27  29
ENDBRANCH  26  27
ENDBRANCH  25  26
ENDBRANCH   1  25
TORSDOF 21
ENDMDL
MODEL 2
REMARK VINA RESULT:     -10.9      4.943      9.809
REMARK SMILES CC(C)(C)OC(=O)N[C@H](c1ccccc1)[C@@H](O)CC(=O)OCCOC(=O)c1ccc(-c2c3nc(c(-c4cc(S(=O)(=O)[O-])ccc4F)c4ccc([nH]4)c(-c4cc(S(=O)(=O)[O-])ccc4F)c4nc(c(-c5cc(S(=O)(=O)[O-])ccc5F)c5ccc2[nH]5)C=C4)C=C3)cc1
REMARK SMILES IDX 22 1 21 2 19 3 20 4 18 5 16 6 9 7 8 8 6 9 7 10 5 12 2 13
REMARK SMILES IDX 1 14 3 15 4 16 10 17 11 18 15 19 12 20 14 21 13 22 17 23
REMARK SMILES IDX 23 25 24 26 25 27 26 28 27 29 28 30 89 31 29 32 88 33 30 34
REMARK SMILES IDX 31 35 32 36 82 37 33 38 87 39 81 40 83 41 34 42 86 43 80 44
REMARK SMILES IDX 79 45 35 47 67 48 47 49 66 50 48 51 51 52 65 53 84 54 49 55
REMARK SMILES IDX 50 56 64 58 85 59 52 60 36 61 37 62 45 63 38 64 44 65 46 66
REMARK SMILES IDX 43 67 39 68 40 69 41 70 42 71 68 72 69 73 77 74 70 75 76 76
REMARK SMILES IDX 78 77 75 78 71 79 72 80 73 81 74 82 53 83 54 84 62 85 55 86
REMARK SMILES IDX 61 87 63 88 60 89 56 90 57 91 58 92 59 93
REMARK H PARENT 8 11 17 24 83 46 51 57
REMARK Flexibility Score: inf
ROOT
ATOM      1  C   UNL A   1      31.545  27.739  26.592  1.00  0.00     0.274 C 
ENDROOT
BRANCH   1   2
ATOM      2  O   UNL A   1      31.892  26.331  26.375  1.00  0.00    -0.462 OA
BRANCH   2   3
ATOM      3  C   UNL A   1      30.981  25.367  26.061  1.00  0.00     0.308 C 
ATOM      4  O   UNL A   1      29.907  25.638  25.525  1.00  0.00    -0.252 OA
BRANCH   3   5
ATOM      5  C   UNL A   1      31.392  23.867  26.320  1.00  0.00     0.157 C 
BRANCH   5   6
ATOM      6  C   UNL A   1      31.229  22.697  25.315  1.00  0.00     0.152 C 
BRANCH   6   7
ATOM      7  C   UNL A   1      32.430  22.618  24.385  1.00  0.00     0.145 C 
BRANCH   7   8
ATOM      8  N   UNL A   1      33.625  22.304  25.123  1.00  0.00    -0.312 N 
ATOM      9  C   UNL A   1      34.257  21.153  25.447  1.00  0.00     0.408 C 
ATOM     10  O   UNL A   1      34.914  21.369  26.469  1.00  0.00    -0.225 OA
ATOM     11  H   UNL A   1      34.083  23.104  25.469  1.00  0.00     0.167 HD
BRANCH   9  12
ATOM     12  O   UNL A   1      34.190  20.065  24.622  1.00  0.00    -0.444 OA
BRANCH  12  13
ATOM     13  C   UNL A   1      33.460  18.737  24.363  1.00  0.00     0.106 C 
ATOM     14  C   UNL A   1      32.750  18.394  25.673  1.00  0.00     0.056 C 
ATOM     15  C   UNL A   1      34.100  17.462  23.772  1.00  0.00     0.056 C 
ATOM     16  C   UNL A   1      32.388  18.999  23.271  1.00  0.00     0.056 C 
ENDBRANCH  12  13
ENDBRANCH   9  12
ENDBRANCH   7   8
BRANCH   7  17
ATOM     17  C   UNL A   1      32.805  23.769  23.440  1.00  0.00    -0.023 A 
ATOM     18  C   UNL A   1      33.945  24.535  23.727  1.00  0.00     0.006 A 
ATOM     19  C   UNL A   1      31.884  24.278  22.498  1.00  0.00     0.006 A 
ATOM     20  C   UNL A   1      34.083  25.827  23.209  1.00  0.00     0.000 A 
ATOM     21  C   UNL A   1      32.013  25.576  22.003  1.00  0.00     0.000 A 
ATOM     22  C   UNL A   1      33.097  26.361  22.382  1.00  0.00     0.000 A 
ENDBRANCH   7  17
ENDBRANCH   6   7
BRANCH   6  23
ATOM     23  O   UNL A   1      31.022  21.473  26.037  1.00  0.00    -0.390 OA
ATOM     24  H   UNL A   1      31.823  20.929  25.989  1.00  0.00     0.211 HD
ENDBRANCH   6  23
ENDBRANCH   5   6
ENDBRANCH   3   5
ENDBRANCH   2   3
ENDBRANCH   1   2
BRANCH   1  25
ATOM     25  C   UNL A   1      31.799  28.718  25.349  1.00  0.00     0.275 C 
BRANCH  25  26
ATOM     26  O   UNL A   1      32.908  29.680  25.469  1.00  0.00    -0.458 OA
BRANCH  26  27
ATOM     27  C   UNL A   1      32.934  30.618  26.494  1.00  0.00     0.338 C 
ATOM     28  O   UNL A   1      32.094  31.500  26.614  1.00  0.00    -0.246 OA
BRANCH  27  29
ATOM     29  C   UNL A   1      34.186  30.534  27.406  1.00  0.00     0.060 A 
ATOM     30  C   UNL A   1      34.741  29.357  27.977  1.00  0.00     0.016 A 
ATOM     31  C   UNL A   1      34.906  31.704  27.645  1.00  0.00     0.016 A 
ATOM     32  C   UNL A   1      36.016  29.286  28.543  1.00  0.00     0.010 A 
ATOM     33  C   UNL A   1      36.172  31.655  28.280  1.00  0.00     0.010 A 
ATOM     34  C   UNL A   1      36.756  30.441  28.682  1.00  0.00    -0.014 A 
BRANCH  34  35
ATOM     35  C   UNL A   1      38.043  30.387  29.409  1.00  0.00     0.031 A 
ATOM     36  C   UNL A   1      39.141  29.568  28.809  1.00  0.00     0.074 A 
ATOM     37  C   UNL A   1      38.252  31.048  30.564  1.00  0.00     0.049 A 
ATOM     38  N   UNL A   1      40.209  29.079  29.375  1.00  0.00    -0.248 NA
ATOM     39  C   UNL A   1      39.001  29.251  27.380  1.00  0.00     0.031 C 
ATOM     40  C   UNL A   1      37.354  32.032  31.165  1.00  0.00     0.029 A 
ATOM     41  N   UNL A   1      39.295  30.957  31.455  1.00  0.00    -0.354 N 
ATOM     42  C   UNL A   1      40.838  28.334  28.386  1.00  0.00     0.074 A 
ATOM     43  C   UNL A   1      40.046  28.466  27.182  1.00  0.00     0.031 C 
ATOM     44  C   UNL A   1      37.856  32.406  32.358  1.00  0.00     0.029 A 
ATOM     45  C   UNL A   1      39.073  31.639  32.631  1.00  0.00     0.049 A 
ATOM     46  H   UNL A   1      40.121  30.452  31.271  1.00  0.00     0.167 HD
ATOM     47  C   UNL A   1      41.956  27.578  28.489  1.00  0.00     0.034 A 
ATOM     48  C   UNL A   1      39.735  31.587  33.807  1.00  0.00     0.034 A 
ATOM     49  C   UNL A   1      42.710  27.434  29.704  1.00  0.00     0.049 A 
ATOM     50  C   UNL A   1      40.907  30.634  33.949  1.00  0.00     0.074 A 
ATOM     51  C   UNL A   1      43.804  26.627  29.953  1.00  0.00     0.029 A 
ATOM     52  N   UNL A   1      42.440  28.117  30.882  1.00  0.00    -0.354 N 
ATOM     53  N   UNL A   1      41.437  29.832  33.053  1.00  0.00    -0.248 NA
ATOM     54  C   UNL A   1      41.555  30.562  35.268  1.00  0.00     0.031 C 
ATOM     55  C   UNL A   1      44.166  26.785  31.296  1.00  0.00     0.029 A 
ATOM     56  C   UNL A   1      43.341  27.743  31.864  1.00  0.00     0.049 A 
ATOM     57  H   UNL A   1      41.715  28.772  31.002  1.00  0.00     0.167 HD
ATOM     58  C   UNL A   1      42.502  29.196  33.692  1.00  0.00     0.074 A 
ATOM     59  C   UNL A   1      42.539  29.703  35.047  1.00  0.00     0.031 C 
ATOM     60  C   UNL A   1      43.375  28.280  33.202  1.00  0.00     0.034 A 
BRANCH  47  61
ATOM     61  C   UNL A   1      42.323  26.770  27.276  1.00  0.00     0.023 A 
ATOM     62  C   UNL A   1      41.917  25.433  27.133  1.00  0.00     0.031 A 
ATOM     63  C   UNL A   1      43.197  27.307  26.316  1.00  0.00     0.131 A 
ATOM     64  C   UNL A   1      42.465  24.649  26.109  1.00  0.00     0.055 A 
ATOM     65  C   UNL A   1      43.667  26.546  25.246  1.00  0.00     0.041 A 
ATOM     66  F   UNL A   1      43.644  28.569  26.426  1.00  0.00    -0.206 F 
ATOM     67  C   UNL A   1      43.319  25.201  25.150  1.00  0.00     0.022 A 
BRANCH  64  68
ATOM     68  S   UNL A   1      42.196  22.856  26.162  1.00  0.00     0.124 S 
ATOM     69  O   UNL A   1      42.929  22.483  27.371  1.00  0.00    -0.237 OA
ATOM     70  O   UNL A   1      40.743  22.757  26.242  1.00  0.00    -0.237 OA
ATOM     71  O   UNL A   1      42.787  22.384  24.913  1.00  0.00    -0.744 OA
ENDBRANCH  64  68
ENDBRANCH  47  61
BRANCH  48  72
ATOM     72  C   UNL A   1      39.268  32.360  34.998  1.00  0.00     0.023 A 
ATOM     73  C   UNL A   1      39.758  33.651  35.258  1.00  0.00     0.031 A 
ATOM     74  C   UNL A   1      38.416  31.776  35.953  1.00  0.00     0.131 A 
ATOM     75  C   UNL A   1      39.443  34.290  36.469  1.00  0.00     0.055 A 
ATOM     76  C   UNL A   1      38.062  32.438  37.131  1.00  0.00     0.041 A 
ATOM     77  F   UNL A   1      37.927  30.541  35.765  1.00  0.00    -0.206 F 
ATOM     78  C   UNL A   1      38.589  33.697  37.402  1.00  0.00     0.022 A 
BRANCH  75  79
ATOM     79  S   UNL A   1      40.254  35.867  36.858  1.00  0.00     0.124 S 
ATOM     80  O   UNL A   1      39.817  36.092  38.231  1.00  0.00    -0.237 OA
ATOM     81  O   UNL A   1      41.662  35.536  36.678  1.00  0.00    -0.237 OA
ATOM     82  O   UNL A   1      39.699  36.787  35.866  1.00  0.00    -0.744 OA
ENDBRANCH  75  79
ENDBRANCH  48  72
BRANCH  60  83
ATOM     83  C   UNL A   1      44.505  27.837  34.099  1.00  0.00     0.023 A 
ATOM     84  C   UNL A   1      44.364  26.792  35.027  1.00  0.00     0.031 A 
ATOM     85  C   UNL A   1      45.765  28.451  33.976  1.00  0.00     0.131 A 
ATOM     86  C   UNL A   1      45.460  26.409  35.816  1.00  0.00     0.055 A 
ATOM     87  C   UNL A   1      46.862  28.038  34.733  1.00  0.00     0.041 A 
ATOM     88  F   UNL A   1      45.954  29.452  33.101  1.00  0.00    -0.206 F 
ATOM     89  C   UNL A   1      46.711  27.015  35.663  1.00  0.00     0.022 A 
BRANCH  86  90
ATOM     90  S   UNL A   1      45.230  25.125  37.079  1.00  0.00     0.124 S 
ATOM     91  O   UNL A   1      46.476  24.373  36.982  1.00  0.00    -0.237 OA
ATOM     92  O   UNL A   1      45.053  25.911  38.296  1.00  0.00    -0.237 OA
ATOM     93  O   UNL A   1      44.037  24.410  36.628  1.00  0.00    -0.744 OA
ENDBRANCH  86  90
ENDBRANCH  60  83
ENDBRANCH  34  35
ENDBRANCH  27  29
ENDBRANCH  26  27
ENDBRANCH  25  26
ENDBRANCH   1  25
TORSDOF 21
ENDMDL
MODEL 3
REMARK VINA RESULT:     -10.8      1.593      2.084
REMARK SMILES CC(C)(C)OC(=O)N[C@H](c1ccccc1)[C@@H](O)CC(=O)OCCOC(=O)c1ccc(-c2c3nc(c(-c4cc(S(=O)(=O)[O-])ccc4F)c4ccc([nH]4)c(-c4cc(S(=O)(=O)[O-])ccc4F)c4nc(c(-c5cc(S(=O)(=O)[O-])ccc5F)c5ccc2[nH]5)C=C4)C=C3)cc1
REMARK SMILES IDX 22 1 21 2 19 3 20 4 18 5 16 6 9 7 8 8 6 9 7 10 5 12 2 13
REMARK SMILES IDX 1 14 3 15 4 16 10 17 11 18 15 19 12 20 14 21 13 22 17 23
REMARK SMILES IDX 23 25 24 26 25 27 26 28 27 29 28 30 89 31 29 32 88 33 30 34
REMARK SMILES IDX 31 35 32 36 82 37 33 38 87 39 81 40 83 41 34 42 86 43 80 44
REMARK SMILES IDX 79 45 35 47 67 48 47 49 66 50 48 51 51 52 65 53 84 54 49 55
REMARK SMILES IDX 50 56 64 58 85 59 52 60 36 61 37 62 45 63 38 64 44 65 46 66
REMARK SMILES IDX 43 67 39 68 40 69 41 70 42 71 68 72 69 73 77 74 70 75 76 76
REMARK SMILES IDX 78 77 75 78 71 79 72 80 73 81 74 82 53 83 54 84 62 85 55 86
REMARK SMILES IDX 61 87 63 88 60 89 56 90 57 91 58 92 59 93
REMARK H PARENT 8 11 17 24 83 46 51 57
REMARK Flexibility Score: inf
ROOT
ATOM      1  C   UNL A   1      33.888  21.114  24.742  1.00  0.00     0.274 C 
ENDROOT
BRANCH   1   2
ATOM      2  O   UNL A   1      32.883  22.165  24.932  1.00  0.00    -0.462 OA
BRANCH   2   3
ATOM      3  C   UNL A   1      32.620  23.135  24.014  1.00  0.00     0.308 C 
ATOM      4  O   UNL A   1      32.392  22.870  22.834  1.00  0.00    -0.252 OA
BRANCH   3   5
ATOM      5  C   UNL A   1      32.523  24.620  24.534  1.00  0.00     0.157 C 
BRANCH   5   6
ATOM      6  C   UNL A   1      31.404  25.189  25.445  1.00  0.00     0.152 C 
BRANCH   6   7
ATOM      7  C   UNL A   1      31.279  26.694  25.267  1.00  0.00     0.145 C 
BRANCH   7   8
ATOM      8  N   UNL A   1      31.474  27.060  23.889  1.00  0.00    -0.312 N 
ATOM      9  C   UNL A   1      30.787  27.825  23.011  1.00  0.00     0.408 C 
ATOM     10  O   UNL A   1      31.069  27.428  21.877  1.00  0.00    -0.225 OA
ATOM     11  H   UNL A   1      32.289  26.668  23.500  1.00  0.00     0.167 HD
BRANCH   9  12
ATOM     12  O   UNL A   1      30.053  28.895  23.444  1.00  0.00    -0.444 OA
BRANCH  12  13
ATOM     13  C   UNL A   1      28.966  29.906  23.047  1.00  0.00     0.106 C 
ATOM     14  C   UNL A   1      29.219  31.144  23.909  1.00  0.00     0.056 C 
ATOM     15  C   UNL A   1      27.450  29.618  22.988  1.00  0.00     0.056 C 
ATOM     16  C   UNL A   1      29.199  30.282  21.559  1.00  0.00     0.056 C 
ENDBRANCH  12  13
ENDBRANCH   9  12
ENDBRANCH   7   8
BRANCH   7  17
ATOM     17  C   UNL A   1      32.115  27.684  26.091  1.00  0.00    -0.023 A 
ATOM     18  C   UNL A   1      31.519  28.880  26.519  1.00  0.00     0.006 A 
ATOM     19  C   UNL A   1      33.523  27.585  26.154  1.00  0.00     0.006 A 
ATOM     20  C   UNL A   1      32.306  29.988  26.851  1.00  0.00     0.000 A 
ATOM     21  C   UNL A   1      34.304  28.700  26.462  1.00  0.00     0.000 A 
ATOM     22  C   UNL A   1      33.696  29.908  26.782  1.00  0.00     0.000 A 
ENDBRANCH   7  17
ENDBRANCH   6   7
BRANCH   6  23
ATOM     23  O   UNL A   1      30.171  24.507  25.169  1.00  0.00    -0.390 OA
ATOM     24  H   UNL A   1      30.074  24.388  24.211  1.00  0.00     0.211 HD
ENDBRANCH   6  23
ENDBRANCH   5   6
ENDBRANCH   3   5
ENDBRANCH   2   3
ENDBRANCH   1   2
BRANCH   1  25
ATOM     25  C   UNL A   1      35.220  21.257  25.620  1.00  0.00     0.275 C 
BRANCH  25  26
ATOM     26  O   UNL A   1      36.402  21.834  24.957  1.00  0.00    -0.458 OA
BRANCH  26  27
ATOM     27  C   UNL A   1      37.683  21.392  25.265  1.00  0.00     0.338 C 
ATOM     28  O   UNL A   1      38.069  20.252  25.039  1.00  0.00    -0.246 OA
BRANCH  27  29
ATOM     29  C   UNL A   1      38.547  22.424  26.036  1.00  0.00     0.060 A 
ATOM     30  C   UNL A   1      39.731  22.155  26.774  1.00  0.00     0.016 A 
ATOM     31  C   UNL A   1      38.195  23.771  25.951  1.00  0.00     0.016 A 
ATOM     32  C   UNL A   1      40.627  23.137  27.204  1.00  0.00     0.010 A 
ATOM     33  C   UNL A   1      39.063  24.776  26.444  1.00  0.00     0.010 A 
ATOM     34  C   UNL A   1      40.307  24.466  27.022  1.00  0.00    -0.014 A 
BRANCH  34  35
ATOM     35  C   UNL A   1      41.187  25.503  27.603  1.00  0.00     0.031 A 
ATOM     36  C   UNL A   1      40.559  26.509  28.514  1.00  0.00     0.074 A 
ATOM     37  C   UNL A   1      42.508  25.560  27.349  1.00  0.00     0.049 A 
ATOM     38  N   UNL A   1      40.997  27.684  28.874  1.00  0.00    -0.248 NA
ATOM     39  C   UNL A   1      39.255  26.138  29.083  1.00  0.00     0.031 C 
ATOM     40  C   UNL A   1      43.292  24.547  26.645  1.00  0.00     0.029 A 
ATOM     41  N   UNL A   1      43.421  26.546  27.640  1.00  0.00    -0.354 N 
ATOM     42  C   UNL A   1      39.988  28.226  29.659  1.00  0.00     0.074 A 
ATOM     43  C   UNL A   1      38.935  27.236  29.745  1.00  0.00     0.031 C 
ATOM     44  C   UNL A   1      44.554  24.994  26.503  1.00  0.00     0.029 A 
ATOM     45  C   UNL A   1      44.649  26.350  27.048  1.00  0.00     0.049 A 
ATOM     46  H   UNL A   1      43.216  27.319  28.216  1.00  0.00     0.167 HD
ATOM     47  C   UNL A   1      39.933  29.455  30.222  1.00  0.00     0.034 A 
ATOM     48  C   UNL A   1      45.691  27.197  26.902  1.00  0.00     0.034 A 
ATOM     49  C   UNL A   1      40.976  30.435  30.097  1.00  0.00     0.049 A 
ATOM     50  C   UNL A   1      45.564  28.616  27.423  1.00  0.00     0.074 A 
ATOM     51  C   UNL A   1      40.994  31.743  30.546  1.00  0.00     0.029 A 
ATOM     52  N   UNL A   1      42.193  30.212  29.466  1.00  0.00    -0.354 N 
ATOM     53  N   UNL A   1      44.563  29.178  28.062  1.00  0.00    -0.248 NA
ATOM     54  C   UNL A   1      46.698  29.521  27.181  1.00  0.00     0.031 C 
ATOM     55  C   UNL A   1      42.202  32.325  30.144  1.00  0.00     0.029 A 
ATOM     56  C   UNL A   1      42.965  31.360  29.506  1.00  0.00     0.049 A 
ATOM     57  H   UNL A   1      42.467  29.362  29.052  1.00  0.00     0.167 HD
ATOM     58  C   UNL A   1      44.967  30.485  28.331  1.00  0.00     0.074 A 
ATOM     59  C   UNL A   1      46.300  30.631  27.785  1.00  0.00     0.031 C 
ATOM     60  C   UNL A   1      44.302  31.476  28.977  1.00  0.00     0.034 A 
BRANCH  47  61
ATOM     61  C   UNL A   1      38.643  29.812  30.907  1.00  0.00     0.023 A 
ATOM     62  C   UNL A   1      37.655  30.573  30.259  1.00  0.00     0.031 A 
ATOM     63  C   UNL A   1      38.460  29.498  32.264  1.00  0.00     0.131 A 
ATOM     64  C   UNL A   1      36.576  31.077  30.999  1.00  0.00     0.055 A 
ATOM     65  C   UNL A   1      37.337  29.927  32.970  1.00  0.00     0.041 A 
ATOM     66  F   UNL A   1      39.392  28.805  32.938  1.00  0.00    -0.206 F 
ATOM     67  C   UNL A   1      36.397  30.740  32.343  1.00  0.00     0.022 A 
BRANCH  64  68
ATOM     68  S   UNL A   1      35.518  32.331  30.226  1.00  0.00     0.124 S 
ATOM     69  O   UNL A   1      35.086  31.644  29.010  1.00  0.00    -0.237 OA
ATOM     70  O   UNL A   1      34.488  32.543  31.238  1.00  0.00    -0.237 OA
ATOM     71  O   UNL A   1      36.423  33.457  30.009  1.00  0.00    -0.744 OA
ENDBRANCH  64  68
ENDBRANCH  47  61
BRANCH  48  72
ATOM     72  C   UNL A   1      46.915  26.800  26.141  1.00  0.00     0.023 A 
ATOM     73  C   UNL A   1      47.994  26.171  26.786  1.00  0.00     0.031 A 
ATOM     74  C   UNL A   1      47.072  27.147  24.787  1.00  0.00     0.131 A 
ATOM     75  C   UNL A   1      49.200  25.965  26.096  1.00  0.00     0.055 A 
ATOM     76  C   UNL A   1      48.254  26.889  24.090  1.00  0.00     0.041 A 
ATOM     77  F   UNL A   1      46.080  27.759  24.122  1.00  0.00    -0.206 F 
ATOM     78  C   UNL A   1      49.334  26.309  24.749  1.00  0.00     0.022 A 
BRANCH  75  79
ATOM     79  S   UNL A   1      50.633  25.336  27.016  1.00  0.00     0.124 S 
ATOM     80  O   UNL A   1      51.512  24.908  25.934  1.00  0.00    -0.237 OA
ATOM     81  O   UNL A   1      51.057  26.516  27.760  1.00  0.00    -0.237 OA
ATOM     82  O   UNL A   1      50.069  24.259  27.828  1.00  0.00    -0.744 OA
ENDBRANCH  75  79
ENDBRANCH  48  72
BRANCH  60  83
ATOM     83  C   UNL A   1      45.033  32.773  29.219  1.00  0.00     0.023 A 
ATOM     84  C   UNL A   1      44.958  33.857  28.328  1.00  0.00     0.031 A 
ATOM     85  C   UNL A   1      45.783  32.934  30.399  1.00  0.00     0.131 A 
ATOM     86  C   UNL A   1      45.643  35.048  28.621  1.00  0.00     0.055 A 
ATOM     87  C   UNL A   1      46.426  34.133  30.705  1.00  0.00     0.041 A 
ATOM     88  F   UNL A   1      45.883  31.929  31.285  1.00  0.00    -0.206 F 
ATOM     89  C   UNL A   1      46.362  35.197  29.811  1.00  0.00     0.022 A 
BRANCH  86  90
ATOM     90  S   UNL A   1      45.614  36.400  27.410  1.00  0.00     0.124 S 
ATOM     91  O   UNL A   1      44.214  36.807  27.440  1.00  0.00    -0.237 OA
ATOM     92  O   UNL A   1      46.566  37.349  27.978  1.00  0.00    -0.237 OA
ATOM     93  O   UNL A   1      46.047  35.759  26.170  1.00  0.00    -0.744 OA
ENDBRANCH  86  90
ENDBRANCH  60  83
ENDBRANCH  34  35
ENDBRANCH  27  29
ENDBRANCH  26  27
ENDBRANCH  25  26
ENDBRANCH   1  25
TORSDOF 21
ENDMDL
