MODEL 1
REMARK VINA RESULT:     -12.9      0.000      0.000
REMARK SMILES CC[C@@H](NC(=O)NC1(CC(=O)OCCOC(=O)c2ccc(-c3c4nc(c(-c5cc(S(=O)(=O)[O-])ccc5F)c5ccc([nH]5)c(-c5cc(S(=O)(=O)[O-])ccc5F)c5nc(c(-c6cc(S(=O)(=O)[O-])ccc6F)c6ccc3[nH]6)C=C5)C=C4)cc2)CCC1)C(C)C
REMARK SMILES IDX 13 1 12 2 10 3 11 4 9 5 8 6 81 7 83 8 82 9 7 10 4 11 5 12
REMARK SMILES IDX 6 14 3 16 2 17 1 18 84 19 85 20 86 21 14 22 15 23 16 24
REMARK SMILES IDX 17 25 18 26 19 27 80 28 20 29 79 30 21 31 22 32 23 33 73 34
REMARK SMILES IDX 24 35 78 36 72 37 74 38 25 39 77 40 71 41 70 42 26 44 58 45
REMARK SMILES IDX 38 46 57 47 39 48 42 49 56 50 75 51 40 52 41 53 55 55 76 56
REMARK SMILES IDX 43 57 27 58 28 59 36 60 29 61 35 62 37 63 34 64 30 65 31 66
REMARK SMILES IDX 32 67 33 68 59 69 60 70 68 71 61 72 67 73 69 74 66 75 62 76
REMARK SMILES IDX 63 77 64 78 65 79 44 80 45 81 53 82 46 83 52 84 54 85 51 86
REMARK SMILES IDX 47 87 48 88 49 89 50 90
REMARK H PARENT 4 13 7 15 74 43 42 54
REMARK Flexibility Score: inf
ROOT
ATOM      1  C   UNL A   1      34.026  27.862  24.845  1.00  0.00     0.274 C 
ENDROOT
BRANCH   1   2
ATOM      2  O   UNL A   1      34.108  26.310  25.613  1.00  0.00    -0.462 OA
BRANCH   2   3
ATOM      3  C   UNL A   1      34.701  24.920  25.397  1.00  0.00     0.308 C 
ATOM      4  O   UNL A   1      35.871  24.510  25.390  1.00  0.00    -0.252 OA
BRANCH   3   5
ATOM      5  C   UNL A   1      33.762  23.830  25.443  1.00  0.00     0.151 C 
BRANCH   5   6
ATOM      6  C   UNL A   1      33.868  23.311  24.078  1.00  0.00     0.052 C 
ATOM      7  C   UNL A   1      32.790  22.216  23.884  1.00  0.00     0.029 C 
ATOM      8  C   UNL A   1      34.899  22.136  23.925  1.00  0.00     0.029 C 
ATOM      9  C   UNL A   1      33.808  21.242  24.570  1.00  0.00     0.005 C 
BRANCH   6  10
ATOM     10  N   UNL A   1      33.932  24.563  23.179  1.00  0.00    -0.332 N 
ATOM     11  N   UNL A   1      31.596  25.826  22.813  1.00  0.00    -0.335 N 
ATOM     12  C   UNL A   1      32.994  25.359  22.444  1.00  0.00     0.315 C 
ATOM     13  H   UNL A   1      31.393  26.466  22.092  1.00  0.00     0.165 HD
ATOM     14  O   UNL A   1      33.587  25.850  21.476  1.00  0.00    -0.249 OA
ATOM     15  H   UNL A   1      34.852  24.901  23.086  1.00  0.00     0.165 HD
BRANCH  11  16
ATOM     16  C   UNL A   1      30.077  25.885  23.821  1.00  0.00     0.086 C 
BRANCH  16  17
ATOM     17  C   UNL A   1      29.072  27.074  23.566  1.00  0.00     0.022 C 
ATOM     18  C   UNL A   1      29.479  28.450  23.091  1.00  0.00     0.006 C 
ENDBRANCH  16  17
BRANCH  16  19
ATOM     19  C   UNL A   1      29.994  25.682  25.575  1.00  0.00     0.005 C 
ATOM     20  C   UNL A   1      30.263  24.286  26.180  1.00  0.00     0.009 C 
ATOM     21  C   UNL A   1      30.846  26.671  26.414  1.00  0.00     0.009 C 
ENDBRANCH  16  19
ENDBRANCH  11  16
ENDBRANCH   6  10
ENDBRANCH   5   6
ENDBRANCH   3   5
ENDBRANCH   2   3
ENDBRANCH   1   2
BRANCH   1  22
ATOM     22  C   UNL A   1      32.998  29.316  24.991  1.00  0.00     0.275 C 
BRANCH  22  23
ATOM     23  O   UNL A   1      32.402  29.845  26.285  1.00  0.00    -0.458 OA
BRANCH  23  24
ATOM     24  C   UNL A   1      32.816  31.043  26.859  1.00  0.00     0.338 C 
ATOM     25  O   UNL A   1      32.143  32.065  26.799  1.00  0.00    -0.246 OA
BRANCH  24  26
ATOM     26  C   UNL A   1      34.129  30.966  27.708  1.00  0.00     0.060 A 
ATOM     27  C   UNL A   1      34.986  32.055  27.954  1.00  0.00     0.016 A 
ATOM     28  C   UNL A   1      34.641  29.709  28.081  1.00  0.00     0.016 A 
ATOM     29  C   UNL A   1      36.333  31.892  28.336  1.00  0.00     0.010 A 
ATOM     30  C   UNL A   1      35.951  29.563  28.621  1.00  0.00     0.010 A 
ATOM     31  C   UNL A   1      36.830  30.653  28.735  1.00  0.00    -0.014 A 
BRANCH  31  32
ATOM     32  C   UNL A   1      38.182  30.516  29.377  1.00  0.00     0.031 A 
ATOM     33  C   UNL A   1      39.238  29.599  28.807  1.00  0.00     0.074 A 
ATOM     34  C   UNL A   1      38.438  31.154  30.541  1.00  0.00     0.049 A 
ATOM     35  N   UNL A   1      40.280  29.059  29.392  1.00  0.00    -0.248 NA
ATOM     36  C   UNL A   1      39.101  29.251  27.387  1.00  0.00     0.031 C 
ATOM     37  C   UNL A   1      37.577  32.161  31.166  1.00  0.00     0.029 A 
ATOM     38  N   UNL A   1      39.473  31.012  31.441  1.00  0.00    -0.354 N 
ATOM     39  C   UNL A   1      40.896  28.261  28.430  1.00  0.00     0.074 A 
ATOM     40  C   UNL A   1      40.112  28.405  27.217  1.00  0.00     0.031 C 
ATOM     41  C   UNL A   1      38.084  32.507  32.357  1.00  0.00     0.029 A 
ATOM     42  C   UNL A   1      39.249  31.677  32.629  1.00  0.00     0.049 A 
ATOM     43  H   UNL A   1      40.287  30.491  31.255  1.00  0.00     0.167 HD
ATOM     44  C   UNL A   1      41.994  27.469  28.561  1.00  0.00     0.034 A 
ATOM     45  C   UNL A   1      39.843  31.573  33.835  1.00  0.00     0.034 A 
ATOM     46  C   UNL A   1      42.756  27.349  29.789  1.00  0.00     0.049 A 
ATOM     47  C   UNL A   1      40.977  30.600  34.005  1.00  0.00     0.074 A 
ATOM     48  C   UNL A   1      43.874  26.571  30.045  1.00  0.00     0.029 A 
ATOM     49  N   UNL A   1      42.474  28.026  30.969  1.00  0.00    -0.354 N 
ATOM     50  N   UNL A   1      41.502  29.783  33.121  1.00  0.00    -0.248 NA
ATOM     51  C   UNL A   1      41.597  30.530  35.334  1.00  0.00     0.031 C 
ATOM     52  C   UNL A   1      44.219  26.721  31.394  1.00  0.00     0.029 A 
ATOM     53  C   UNL A   1      43.374  27.660  31.961  1.00  0.00     0.049 A 
ATOM     54  H   UNL A   1      41.742  28.674  31.085  1.00  0.00     0.167 HD
ATOM     55  C   UNL A   1      42.538  29.128  33.780  1.00  0.00     0.074 A 
ATOM     56  C   UNL A   1      42.568  29.651  35.130  1.00  0.00     0.031 C 
ATOM     57  C   UNL A   1      43.392  28.185  33.307  1.00  0.00     0.034 A 
BRANCH  44  58
ATOM     58  C   UNL A   1      42.393  26.604  27.382  1.00  0.00     0.023 A 
ATOM     59  C   UNL A   1      41.988  25.262  27.260  1.00  0.00     0.031 A 
ATOM     60  C   UNL A   1      43.202  27.135  26.358  1.00  0.00     0.131 A 
ATOM     61  C   UNL A   1      42.449  24.484  26.183  1.00  0.00     0.055 A 
ATOM     62  C   UNL A   1      43.593  26.379  25.251  1.00  0.00     0.041 A 
ATOM     63  F   UNL A   1      43.635  28.405  26.419  1.00  0.00    -0.206 F 
ATOM     64  C   UNL A   1      43.230  25.039  25.166  1.00  0.00     0.022 A 
BRANCH  61  65
ATOM     65  S   UNL A   1      42.130  22.698  26.197  1.00  0.00     0.124 S 
ATOM     66  O   UNL A   1      42.813  22.281  27.416  1.00  0.00    -0.237 OA
ATOM     67  O   UNL A   1      40.668  22.639  26.233  1.00  0.00    -0.237 OA
ATOM     68  O   UNL A   1      42.738  22.227  24.956  1.00  0.00    -0.744 OA
ENDBRANCH  61  65
ENDBRANCH  44  58
BRANCH  45  69
ATOM     69  C   UNL A   1      39.320  32.349  35.000  1.00  0.00     0.023 A 
ATOM     70  C   UNL A   1      39.812  33.628  35.293  1.00  0.00     0.031 A 
ATOM     71  C   UNL A   1      38.337  31.810  35.854  1.00  0.00     0.131 A 
ATOM     72  C   UNL A   1      39.349  34.315  36.427  1.00  0.00     0.055 A 
ATOM     73  C   UNL A   1      37.835  32.521  36.946  1.00  0.00     0.041 A 
ATOM     74  F   UNL A   1      37.832  30.588  35.625  1.00  0.00    -0.206 F 
ATOM     75  C   UNL A   1      38.351  33.778  37.245  1.00  0.00     0.022 A 
BRANCH  72  76
ATOM     76  S   UNL A   1      40.131  35.890  36.866  1.00  0.00     0.124 S 
ATOM     77  O   UNL A   1      39.470  36.209  38.127  1.00  0.00    -0.237 OA
ATOM     78  O   UNL A   1      41.538  35.514  36.957  1.00  0.00    -0.237 OA
ATOM     79  O   UNL A   1      39.793  36.763  35.744  1.00  0.00    -0.744 OA
ENDBRANCH  72  76
ENDBRANCH  45  69
BRANCH  57  80
ATOM     80  C   UNL A   1      44.475  27.715  34.246  1.00  0.00     0.023 A 
ATOM     81  C   UNL A   1      44.317  26.578  35.058  1.00  0.00     0.031 A 
ATOM     82  C   UNL A   1      45.679  28.435  34.345  1.00  0.00     0.131 A 
ATOM     83  C   UNL A   1      45.323  26.226  35.971  1.00  0.00     0.055 A 
ATOM     84  C   UNL A   1      46.702  28.045  35.210  1.00  0.00     0.041 A 
ATOM     85  F   UNL A   1      45.882  29.534  33.598  1.00  0.00    -0.206 F 
ATOM     86  C   UNL A   1      46.521  26.942  36.039  1.00  0.00     0.022 A 
BRANCH  83  87
ATOM     87  S   UNL A   1      45.009  24.872  37.137  1.00  0.00     0.124 S 
ATOM     88  O   UNL A   1      46.353  24.353  37.368  1.00  0.00    -0.237 OA
ATOM     89  O   UNL A   1      44.390  25.565  38.262  1.00  0.00    -0.237 OA
ATOM     90  O   UNL A   1      44.118  23.980  36.396  1.00  0.00    -0.744 OA
ENDBRANCH  83  87
ENDBRANCH  57  80
ENDBRANCH  31  32
ENDBRANCH  24  26
ENDBRANCH  23  24
ENDBRANCH  22  23
ENDBRANCH   1  22
TORSDOF 19
ENDMDL
MODEL 2
REMARK VINA RESULT:     -12.6      1.720      2.762
REMARK SMILES CC[C@@H](NC(=O)NC1(CC(=O)OCCOC(=O)c2ccc(-c3c4nc(c(-c5cc(S(=O)(=O)[O-])ccc5F)c5ccc([nH]5)c(-c5cc(S(=O)(=O)[O-])ccc5F)c5nc(c(-c6cc(S(=O)(=O)[O-])ccc6F)c6ccc3[nH]6)C=C5)C=C4)cc2)CCC1)C(C)C
REMARK SMILES IDX 13 1 12 2 10 3 11 4 9 5 8 6 81 7 83 8 82 9 7 10 4 11 5 12
REMARK SMILES IDX 6 14 3 16 2 17 1 18 84 19 85 20 86 21 14 22 15 23 16 24
REMARK SMILES IDX 17 25 18 26 19 27 80 28 20 29 79 30 21 31 22 32 23 33 73 34
REMARK SMILES IDX 24 35 78 36 72 37 74 38 25 39 77 40 71 41 70 42 26 44 58 45
REMARK SMILES IDX 38 46 57 47 39 48 42 49 56 50 75 51 40 52 41 53 55 55 76 56
REMARK SMILES IDX 43 57 27 58 28 59 36 60 29 61 35 62 37 63 34 64 30 65 31 66
REMARK SMILES IDX 32 67 33 68 59 69 60 70 68 71 61 72 67 73 69 74 66 75 62 76
REMARK SMILES IDX 63 77 64 78 65 79 44 80 45 81 53 82 46 83 52 84 54 85 51 86
REMARK SMILES IDX 47 87 48 88 49 89 50 90
REMARK H PARENT 4 13 7 15 74 43 42 54
REMARK Flexibility Score: inf
ROOT
ATOM      1  C   UNL A   1      31.196  29.075  23.777  1.00  0.00     0.274 C 
ENDROOT
BRANCH   1   2
ATOM      2  O   UNL A   1      31.878  27.783  22.844  1.00  0.00    -0.462 OA
BRANCH   2   3
ATOM      3  C   UNL A   1      33.230  27.154  22.517  1.00  0.00     0.308 C 
ATOM      4  O   UNL A   1      33.894  27.115  21.470  1.00  0.00    -0.252 OA
BRANCH   3   5
ATOM      5  C   UNL A   1      34.009  26.731  23.651  1.00  0.00     0.151 C 
BRANCH   5   6
ATOM      6  C   UNL A   1      33.386  25.441  23.954  1.00  0.00     0.052 C 
ATOM      7  C   UNL A   1      32.260  25.674  24.992  1.00  0.00     0.029 C 
ATOM      8  C   UNL A   1      34.101  24.647  25.104  1.00  0.00     0.029 C 
ATOM      9  C   UNL A   1      33.394  25.630  26.073  1.00  0.00     0.005 C 
BRANCH   6  10
ATOM     10  N   UNL A   1      33.110  24.799  22.579  1.00  0.00    -0.332 N 
ATOM     11  N   UNL A   1      32.692  22.152  22.620  1.00  0.00    -0.335 N 
ATOM     12  C   UNL A   1      33.144  23.476  22.030  1.00  0.00     0.315 C 
ATOM     13  H   UNL A   1      32.755  21.545  21.846  1.00  0.00     0.165 HD
ATOM     14  O   UNL A   1      33.407  23.571  20.824  1.00  0.00    -0.249 OA
ATOM     15  H   UNL A   1      32.843  25.468  21.908  1.00  0.00     0.165 HD
BRANCH  11  16
ATOM     16  C   UNL A   1      32.098  21.036  23.935  1.00  0.00     0.086 C 
BRANCH  16  17
ATOM     17  C   UNL A   1      32.008  21.612  25.402  1.00  0.00     0.022 C 
ATOM     18  C   UNL A   1      30.894  22.501  25.904  1.00  0.00     0.006 C 
ENDBRANCH  16  17
BRANCH  16  19
ATOM     19  C   UNL A   1      32.645  19.378  24.207  1.00  0.00     0.005 C 
ATOM     20  C   UNL A   1      32.436  18.329  23.091  1.00  0.00     0.009 C 
ATOM     21  C   UNL A   1      34.120  19.215  24.661  1.00  0.00     0.009 C 
ENDBRANCH  16  19
ENDBRANCH  11  16
ENDBRANCH   6  10
ENDBRANCH   5   6
ENDBRANCH   3   5
ENDBRANCH   2   3
ENDBRANCH   1   2
BRANCH   1  22
ATOM     22  C   UNL A   1      31.509  29.810  25.375  1.00  0.00     0.275 C 
BRANCH  22  23
ATOM     23  O   UNL A   1      32.884  30.080  25.965  1.00  0.00    -0.458 OA
BRANCH  23  24
ATOM     24  C   UNL A   1      33.116  31.113  26.868  1.00  0.00     0.338 C 
ATOM     25  O   UNL A   1      32.293  31.996  27.078  1.00  0.00    -0.246 OA
BRANCH  24  26
ATOM     26  C   UNL A   1      34.435  30.996  27.702  1.00  0.00     0.060 A 
ATOM     27  C   UNL A   1      35.350  32.047  27.900  1.00  0.00     0.016 A 
ATOM     28  C   UNL A   1      34.887  29.728  28.111  1.00  0.00     0.016 A 
ATOM     29  C   UNL A   1      36.693  31.827  28.270  1.00  0.00     0.010 A 
ATOM     30  C   UNL A   1      36.196  29.531  28.638  1.00  0.00     0.010 A 
ATOM     31  C   UNL A   1      37.131  30.577  28.705  1.00  0.00    -0.014 A 
BRANCH  31  32
ATOM     32  C   UNL A   1      38.483  30.392  29.334  1.00  0.00     0.031 A 
ATOM     33  C   UNL A   1      39.481  29.401  28.784  1.00  0.00     0.074 A 
ATOM     34  C   UNL A   1      38.790  31.056  30.470  1.00  0.00     0.049 A 
ATOM     35  N   UNL A   1      40.502  28.827  29.373  1.00  0.00    -0.248 NA
ATOM     36  C   UNL A   1      39.305  29.010  27.379  1.00  0.00     0.031 C 
ATOM     37  C   UNL A   1      37.992  32.130  31.069  1.00  0.00     0.029 A 
ATOM     38  N   UNL A   1      39.830  30.892  31.361  1.00  0.00    -0.354 N 
ATOM     39  C   UNL A   1      41.061  27.964  28.433  1.00  0.00     0.074 A 
ATOM     40  C   UNL A   1      40.268  28.106  27.226  1.00  0.00     0.031 C 
ATOM     41  C   UNL A   1      38.535  32.489  32.241  1.00  0.00     0.029 A 
ATOM     42  C   UNL A   1      39.658  31.609  32.527  1.00  0.00     0.049 A 
ATOM     43  H   UNL A   1      40.612  30.322  31.183  1.00  0.00     0.167 HD
ATOM     44  C   UNL A   1      42.118  27.121  28.579  1.00  0.00     0.034 A 
ATOM     45  C   UNL A   1      40.263  31.517  33.728  1.00  0.00     0.034 A 
ATOM     46  C   UNL A   1      42.891  27.004  29.800  1.00  0.00     0.049 A 
ATOM     47  C   UNL A   1      41.348  30.492  33.918  1.00  0.00     0.074 A 
ATOM     48  C   UNL A   1      43.970  26.177  30.070  1.00  0.00     0.029 A 
ATOM     49  N   UNL A   1      42.662  27.737  30.959  1.00  0.00    -0.354 N 
ATOM     50  N   UNL A   1      41.815  29.618  33.058  1.00  0.00    -0.248 NA
ATOM     51  C   UNL A   1      41.983  30.436  35.241  1.00  0.00     0.031 C 
ATOM     52  C   UNL A   1      44.343  26.357  31.408  1.00  0.00     0.029 A 
ATOM     53  C   UNL A   1      43.556  27.359  31.952  1.00  0.00     0.049 A 
ATOM     54  H   UNL A   1      41.966  28.426  31.061  1.00  0.00     0.167 HD
ATOM     55  C   UNL A   1      42.825  28.932  33.727  1.00  0.00     0.074 A 
ATOM     56  C   UNL A   1      42.903  29.500  35.057  1.00  0.00     0.031 C 
ATOM     57  C   UNL A   1      43.622  27.930  33.277  1.00  0.00     0.034 A 
BRANCH  44  58
ATOM     58  C   UNL A   1      42.453  26.195  27.426  1.00  0.00     0.023 A 
ATOM     59  C   UNL A   1      42.122  24.827  27.437  1.00  0.00     0.031 A 
ATOM     60  C   UNL A   1      43.125  26.693  26.293  1.00  0.00     0.131 A 
ATOM     61  C   UNL A   1      42.524  23.998  26.374  1.00  0.00     0.055 A 
ATOM     62  C   UNL A   1      43.453  25.879  25.205  1.00  0.00     0.041 A 
ATOM     63  F   UNL A   1      43.483  27.985  26.224  1.00  0.00    -0.206 F 
ATOM     64  C   UNL A   1      43.166  24.519  25.248  1.00  0.00     0.022 A 
BRANCH  61  65
ATOM     65  S   UNL A   1      42.317  22.203  26.541  1.00  0.00     0.124 S 
ATOM     66  O   UNL A   1      43.652  21.717  26.207  1.00  0.00    -0.237 OA
ATOM     67  O   UNL A   1      41.918  22.060  27.941  1.00  0.00    -0.237 OA
ATOM     68  O   UNL A   1      41.280  21.882  25.565  1.00  0.00    -0.744 OA
ENDBRANCH  61  65
ENDBRANCH  44  58
BRANCH  45  69
ATOM     69  C   UNL A   1      39.799  32.361  34.871  1.00  0.00     0.023 A 
ATOM     70  C   UNL A   1      39.054  31.805  35.921  1.00  0.00     0.031 A 
ATOM     71  C   UNL A   1      40.073  33.742  34.917  1.00  0.00     0.131 A 
ATOM     72  C   UNL A   1      38.578  32.628  36.954  1.00  0.00     0.055 A 
ATOM     73  C   UNL A   1      39.650  34.546  35.978  1.00  0.00     0.041 A 
ATOM     74  F   UNL A   1      40.779  34.329  33.938  1.00  0.00    -0.206 F 
ATOM     75  C   UNL A   1      38.886  33.990  36.999  1.00  0.00     0.022 A 
BRANCH  72  76
ATOM     76  S   UNL A   1      37.478  31.905  38.200  1.00  0.00     0.124 S 
ATOM     77  O   UNL A   1      38.281  32.028  39.412  1.00  0.00    -0.237 OA
ATOM     78  O   UNL A   1      36.310  32.776  38.114  1.00  0.00    -0.237 OA
ATOM     79  O   UNL A   1      37.271  30.540  37.722  1.00  0.00    -0.744 OA
ENDBRANCH  72  76
ENDBRANCH  45  69
BRANCH  57  80
ATOM     80  C   UNL A   1      44.693  27.437  34.219  1.00  0.00     0.023 A 
ATOM     81  C   UNL A   1      44.511  26.300  35.025  1.00  0.00     0.031 A 
ATOM     82  C   UNL A   1      45.909  28.135  34.325  1.00  0.00     0.131 A 
ATOM     83  C   UNL A   1      45.507  25.926  35.941  1.00  0.00     0.055 A 
ATOM     84  C   UNL A   1      46.921  27.723  35.192  1.00  0.00     0.041 A 
ATOM     85  F   UNL A   1      46.134  29.232  33.583  1.00  0.00    -0.206 F 
ATOM     86  C   UNL A   1      46.717  26.620  36.016  1.00  0.00     0.022 A 
BRANCH  83  87
ATOM     87  S   UNL A   1      45.164  24.574  37.100  1.00  0.00     0.124 S 
ATOM     88  O   UNL A   1      44.273  25.216  38.061  1.00  0.00    -0.237 OA
ATOM     89  O   UNL A   1      44.555  23.568  36.237  1.00  0.00    -0.237 OA
ATOM     90  O   UNL A   1      46.486  24.223  37.620  1.00  0.00    -0.744 OA
ENDBRANCH  83  87
ENDBRANCH  57  80
ENDBRANCH  31  32
ENDBRANCH  24  26
ENDBRANCH  23  24
ENDBRANCH  22  23
ENDBRANCH   1  22
TORSDOF 19
ENDMDL
MODEL 3
REMARK VINA RESULT:     -12.6      1.170      2.529
REMARK SMILES CC[C@@H](NC(=O)NC1(CC(=O)OCCOC(=O)c2ccc(-c3c4nc(c(-c5cc(S(=O)(=O)[O-])ccc5F)c5ccc([nH]5)c(-c5cc(S(=O)(=O)[O-])ccc5F)c5nc(c(-c6cc(S(=O)(=O)[O-])ccc6F)c6ccc3[nH]6)C=C5)C=C4)cc2)CCC1)C(C)C
REMARK SMILES IDX 13 1 12 2 10 3 11 4 9 5 8 6 81 7 83 8 82 9 7 10 4 11 5 12
REMARK SMILES IDX 6 14 3 16 2 17 1 18 84 19 85 20 86 21 14 22 15 23 16 24
REMARK SMILES IDX 17 25 18 26 19 27 80 28 20 29 79 30 21 31 22 32 23 33 73 34
REMARK SMILES IDX 24 35 78 36 72 37 74 38 25 39 77 40 71 41 70 42 26 44 58 45
REMARK SMILES IDX 38 46 57 47 39 48 42 49 56 50 75 51 40 52 41 53 55 55 76 56
REMARK SMILES IDX 43 57 27 58 28 59 36 60 29 61 35 62 37 63 34 64 30 65 31 66
REMARK SMILES IDX 32 67 33 68 59 69 60 70 68 71 61 72 67 73 69 74 66 75 62 76
REMARK SMILES IDX 63 77 64 78 65 79 44 80 45 81 53 82 46 83 52 84 54 85 51 86
REMARK SMILES IDX 47 87 48 88 49 89 50 90
REMARK H PARENT 4 13 7 15 74 43 42 54
REMARK Flexibility Score: inf
ROOT
ATOM      1  C   UNL A   1      32.355  27.248  26.389  1.00  0.00     0.274 C 
ENDROOT
BRANCH   1   2
ATOM      2  O   UNL A   1      32.227  25.612  25.830  1.00  0.00    -0.462 OA
BRANCH   2   3
ATOM      3  C   UNL A   1      31.362  24.745  24.917  1.00  0.00     0.308 C 
ATOM      4  O   UNL A   1      30.620  23.779  25.151  1.00  0.00    -0.252 OA
BRANCH   3   5
ATOM      5  C   UNL A   1      31.161  25.252  23.585  1.00  0.00     0.151 C 
BRANCH   5   6
ATOM      6  C   UNL A   1      32.266  24.610  22.871  1.00  0.00     0.052 C 
ATOM      7  C   UNL A   1      33.599  25.087  23.499  1.00  0.00     0.029 C 
ATOM      8  C   UNL A   1      32.738  25.396  21.596  1.00  0.00     0.029 C 
ATOM      9  C   UNL A   1      33.452  26.352  22.586  1.00  0.00     0.005 C 
BRANCH   6  10
ATOM     10  N   UNL A   1      31.882  23.117  22.803  1.00  0.00    -0.332 N 
ATOM     11  N   UNL A   1      33.499  21.461  24.154  1.00  0.00    -0.335 N 
ATOM     12  C   UNL A   1      32.539  21.868  23.051  1.00  0.00     0.315 C 
ATOM     13  H   UNL A   1      33.569  20.487  24.023  1.00  0.00     0.165 HD
ATOM     14  O   UNL A   1      32.019  21.014  22.321  1.00  0.00    -0.249 OA
ATOM     15  H   UNL A   1      30.949  22.991  22.516  1.00  0.00     0.165 HD
BRANCH  11  16
ATOM     16  C   UNL A   1      34.599  21.735  25.583  1.00  0.00     0.086 C 
BRANCH  16  17
ATOM     17  C   UNL A   1      34.152  22.797  26.662  1.00  0.00     0.022 C 
ATOM     18  C   UNL A   1      33.032  22.587  27.653  1.00  0.00     0.006 C 
ENDBRANCH  16  17
BRANCH  16  19
ATOM     19  C   UNL A   1      36.348  21.978  25.508  1.00  0.00     0.005 C 
ATOM     20  C   UNL A   1      37.220  20.922  24.792  1.00  0.00     0.009 C 
ATOM     21  C   UNL A   1      36.819  23.351  24.959  1.00  0.00     0.009 C 
ENDBRANCH  16  19
ENDBRANCH  11  16
ENDBRANCH   6  10
ENDBRANCH   5   6
ENDBRANCH   3   5
ENDBRANCH   2   3
ENDBRANCH   1   2
BRANCH   1  22
ATOM     22  C   UNL A   1      31.917  28.860  25.757  1.00  0.00     0.275 C 
BRANCH  22  23
ATOM     23  O   UNL A   1      32.851  30.057  25.676  1.00  0.00    -0.458 OA
BRANCH  23  24
ATOM     24  C   UNL A   1      32.944  30.998  26.697  1.00  0.00     0.338 C 
ATOM     25  O   UNL A   1      32.026  31.762  26.968  1.00  0.00    -0.246 OA
BRANCH  24  26
ATOM     26  C   UNL A   1      34.242  30.922  27.568  1.00  0.00     0.060 A 
ATOM     27  C   UNL A   1      35.101  32.007  27.817  1.00  0.00     0.016 A 
ATOM     28  C   UNL A   1      34.739  29.665  27.963  1.00  0.00     0.016 A 
ATOM     29  C   UNL A   1      36.441  31.840  28.223  1.00  0.00     0.010 A 
ATOM     30  C   UNL A   1      36.039  29.516  28.526  1.00  0.00     0.010 A 
ATOM     31  C   UNL A   1      36.923  30.602  28.644  1.00  0.00    -0.014 A 
BRANCH  31  32
ATOM     32  C   UNL A   1      38.263  30.463  29.310  1.00  0.00     0.031 A 
ATOM     33  C   UNL A   1      39.320  29.528  28.772  1.00  0.00     0.074 A 
ATOM     34  C   UNL A   1      38.507  31.116  30.468  1.00  0.00     0.049 A 
ATOM     35  N   UNL A   1      40.347  28.988  29.381  1.00  0.00    -0.248 NA
ATOM     36  C   UNL A   1      39.204  29.159  27.355  1.00  0.00     0.031 C 
ATOM     37  C   UNL A   1      37.645  32.141  31.063  1.00  0.00     0.029 A 
ATOM     38  N   UNL A   1      39.526  30.980  31.387  1.00  0.00    -0.354 N 
ATOM     39  C   UNL A   1      40.972  28.170  28.442  1.00  0.00     0.074 A 
ATOM     40  C   UNL A   1      40.209  28.302  27.214  1.00  0.00     0.031 C 
ATOM     41  C   UNL A   1      38.136  32.500  32.257  1.00  0.00     0.029 A 
ATOM     42  C   UNL A   1      39.288  31.665  32.561  1.00  0.00     0.049 A 
ATOM     43  H   UNL A   1      40.338  30.449  31.222  1.00  0.00     0.167 HD
ATOM     44  C   UNL A   1      42.061  27.371  28.603  1.00  0.00     0.034 A 
ATOM     45  C   UNL A   1      39.861  31.574  33.777  1.00  0.00     0.034 A 
ATOM     46  C   UNL A   1      42.802  27.263  29.845  1.00  0.00     0.049 A 
ATOM     47  C   UNL A   1      40.984  30.594  33.981  1.00  0.00     0.074 A 
ATOM     48  C   UNL A   1      43.908  26.479  30.131  1.00  0.00     0.029 A 
ATOM     49  N   UNL A   1      42.507  27.961  31.010  1.00  0.00    -0.354 N 
ATOM     50  N   UNL A   1      41.515  29.760  33.118  1.00  0.00    -0.248 NA
ATOM     51  C   UNL A   1      41.582  30.540  35.321  1.00  0.00     0.031 C 
ATOM     52  C   UNL A   1      44.233  26.647  31.483  1.00  0.00     0.029 A 
ATOM     53  C   UNL A   1      43.387  27.603  32.022  1.00  0.00     0.049 A 
ATOM     54  H   UNL A   1      41.778  28.617  31.104  1.00  0.00     0.167 HD
ATOM     55  C   UNL A   1      42.535  29.105  33.804  1.00  0.00     0.074 A 
ATOM     56  C   UNL A   1      42.547  29.649  35.147  1.00  0.00     0.031 C 
ATOM     57  C   UNL A   1      43.388  28.148  33.359  1.00  0.00     0.034 A 
BRANCH  44  58
ATOM     58  C   UNL A   1      42.470  26.484  27.444  1.00  0.00     0.023 A 
ATOM     59  C   UNL A   1      42.027  25.155  27.317  1.00  0.00     0.031 A 
ATOM     60  C   UNL A   1      43.331  26.981  26.445  1.00  0.00     0.131 A 
ATOM     61  C   UNL A   1      42.498  24.354  26.262  1.00  0.00     0.055 A 
ATOM     62  C   UNL A   1      43.735  26.203  25.357  1.00  0.00     0.041 A 
ATOM     63  F   UNL A   1      43.803  28.236  26.512  1.00  0.00    -0.206 F 
ATOM     64  C   UNL A   1      43.330  24.875  25.268  1.00  0.00     0.022 A 
BRANCH  61  65
ATOM     65  S   UNL A   1      42.120  22.579  26.277  1.00  0.00     0.124 S 
ATOM     66  O   UNL A   1      42.776  22.124  25.056  1.00  0.00    -0.237 OA
ATOM     67  O   UNL A   1      42.729  22.137  27.532  1.00  0.00    -0.237 OA
ATOM     68  O   UNL A   1      40.661  22.535  26.248  1.00  0.00    -0.744 OA
ENDBRANCH  61  65
ENDBRANCH  44  58
BRANCH  45  69
ATOM     69  C   UNL A   1      39.327  32.373  34.922  1.00  0.00     0.023 A 
ATOM     70  C   UNL A   1      39.837  33.646  35.213  1.00  0.00     0.031 A 
ATOM     71  C   UNL A   1      38.313  31.863  35.758  1.00  0.00     0.131 A 
ATOM     72  C   UNL A   1      39.361  34.353  36.329  1.00  0.00     0.055 A 
ATOM     73  C   UNL A   1      37.800  32.595  36.830  1.00  0.00     0.041 A 
ATOM     74  F   UNL A   1      37.790  30.648  35.529  1.00  0.00    -0.206 F 
ATOM     75  C   UNL A   1      38.334  33.845  37.128  1.00  0.00     0.022 A 
BRANCH  72  76
ATOM     76  S   UNL A   1      40.164  35.918  36.770  1.00  0.00     0.124 S 
ATOM     77  O   UNL A   1      39.575  36.195  38.076  1.00  0.00    -0.237 OA
ATOM     78  O   UNL A   1      41.575  35.545  36.768  1.00  0.00    -0.237 OA
ATOM     79  O   UNL A   1      39.760  36.823  35.696  1.00  0.00    -0.744 OA
ENDBRANCH  72  76
ENDBRANCH  45  69
BRANCH  57  80
ATOM     80  C   UNL A   1      44.452  27.683  34.324  1.00  0.00     0.023 A 
ATOM     81  C   UNL A   1      44.183  26.745  35.335  1.00  0.00     0.031 A 
ATOM     82  C   UNL A   1      45.753  28.210  34.239  1.00  0.00     0.131 A 
ATOM     83  C   UNL A   1      45.186  26.402  36.255  1.00  0.00     0.055 A 
ATOM     84  C   UNL A   1      46.764  27.819  35.118  1.00  0.00     0.041 A 
ATOM     85  F   UNL A   1      46.064  29.115  33.297  1.00  0.00    -0.206 F 
ATOM     86  C   UNL A   1      46.478  26.920  36.142  1.00  0.00     0.022 A 
BRANCH  83  87
ATOM     87  S   UNL A   1      44.755  25.339  37.661  1.00  0.00     0.124 S 
ATOM     88  O   UNL A   1      45.838  24.361  37.644  1.00  0.00    -0.237 OA
ATOM     89  O   UNL A   1      44.761  26.278  38.777  1.00  0.00    -0.237 OA
ATOM     90  O   UNL A   1      43.439  24.813  37.303  1.00  0.00    -0.744 OA
ENDBRANCH  83  87
ENDBRANCH  57  80
ENDBRANCH  31  32
ENDBRANCH  24  26
ENDBRANCH  23  24
ENDBRANCH  22  23
ENDBRANCH   1  22
TORSDOF 19
ENDMDL
