MODEL 1
REMARK VINA RESULT:     -12.9      0.000      0.000
REMARK SMILES COc1ccc(-c2ccc(/C=C3\SC(=S)N([C@H](Cc4ccccc4)C(=O)OCCOC(=O)c4ccc(-c5c6nc(c(-c7cc(S(=O)(=O)[O-])ccc7F)c7ccc([nH]7)c(-c7cc(S(=O)(=O)[O-])ccc7F)c7nc(c(-c8cc(S(=O)(=O)[O-])ccc8F)c8ccc5[nH]8)C=C7)C=C6)cc4)C3=O)o2)cc1
REMARK SMILES IDX 28 1 27 2 25 3 26 4 17 5 16 6 11 7 12 8 13 9 96 10 14 11
REMARK SMILES IDX 97 12 15 13 10 14 7 15 8 16 98 17 9 18 6 19 3 20 4 21 100 22
REMARK SMILES IDX 5 23 99 24 2 25 1 26 18 27 19 28 20 29 24 30 21 31 23 32
REMARK SMILES IDX 22 33 29 34 30 35 31 36 32 37 33 38 34 39 95 40 35 41 94 42
REMARK SMILES IDX 36 43 37 44 38 45 88 46 39 47 93 48 87 49 89 50 40 51 92 52
REMARK SMILES IDX 86 53 85 54 41 56 73 57 53 58 72 59 54 60 57 61 71 62 90 63
REMARK SMILES IDX 55 64 56 65 70 67 91 68 58 69 42 70 43 71 51 72 44 73 50 74
REMARK SMILES IDX 52 75 49 76 45 77 46 78 47 79 48 80 74 81 75 82 83 83 76 84
REMARK SMILES IDX 82 85 84 86 81 87 77 88 78 89 79 90 80 91 59 92 60 93 68 94
REMARK SMILES IDX 61 95 67 96 69 97 66 98 62 99 63 100 64 101 65 102
REMARK H PARENT 89 55 57 66
REMARK Flexibility Score: inf
ROOT
ATOM      1  C   UNL A   1      31.210  30.375  25.619  1.00  0.00     0.274 C 
ENDROOT
BRANCH   1   2
ATOM      2  O   UNL A   1      32.222  29.812  24.759  1.00  0.00    -0.461 OA
BRANCH   2   3
ATOM      3  C   UNL A   1      32.459  28.484  24.913  1.00  0.00     0.329 C 
ATOM      4  O   UNL A   1      33.292  28.018  25.686  1.00  0.00    -0.250 OA
BRANCH   3   5
ATOM      5  C   UNL A   1      31.553  27.595  24.058  1.00  0.00     0.206 C 
BRANCH   5   6
ATOM      6  N   UNL A   1      31.939  26.181  24.248  1.00  0.00    -0.278 N 
ATOM      7  C   UNL A   1      34.689  23.913  23.939  1.00  0.00     0.068 C 
ATOM      8  C   UNL A   1      33.455  24.394  24.126  1.00  0.00     0.084 C 
ATOM      9  S   UNL A   1      32.169  23.743  25.056  1.00  0.00    -0.054 SA
ATOM     10  C   UNL A   1      33.068  25.720  23.591  1.00  0.00     0.267 C 
ATOM     11  C   UNL A   1      31.299  25.275  25.068  1.00  0.00     0.149 C 
ATOM     12  O   UNL A   1      33.694  26.305  22.719  1.00  0.00    -0.268 OA
ATOM     13  S   UNL A   1      29.919  25.489  25.981  1.00  0.00    -0.052 S 
BRANCH   7  14
ATOM     14  C   UNL A   1      35.098  22.639  24.403  1.00  0.00     0.128 A 
ATOM     15  C   UNL A   1      35.061  20.464  24.830  1.00  0.00     0.134 A 
ATOM     16  C   UNL A   1      36.148  20.969  25.505  1.00  0.00     0.051 A 
ATOM     17  O   UNL A   1      34.429  21.459  24.145  1.00  0.00    -0.457 OA
ATOM     18  C   UNL A   1      36.178  22.349  25.226  1.00  0.00     0.051 A 
BRANCH  15  19
ATOM     19  C   UNL A   1      34.481  19.134  24.777  1.00  0.00     0.017 A 
ATOM     20  C   UNL A   1      33.386  16.543  24.934  1.00  0.00     0.118 A 
ATOM     21  C   UNL A   1      34.671  16.745  24.421  1.00  0.00     0.047 A 
ATOM     22  C   UNL A   1      32.643  17.644  25.357  1.00  0.00     0.047 A 
ATOM     23  C   UNL A   1      35.213  18.032  24.328  1.00  0.00     0.016 A 
ATOM     24  C   UNL A   1      33.190  18.929  25.281  1.00  0.00     0.016 A 
BRANCH  20  25
ATOM     25  O   UNL A   1      32.984  15.236  25.006  1.00  0.00    -0.497 OA
ATOM     26  C   UNL A   1      31.920  14.953  25.908  1.00  0.00     0.278 C 
ENDBRANCH  20  25
ENDBRANCH  15  19
ENDBRANCH   7  14
ENDBRANCH   5   6
BRANCH   5  27
ATOM     27  C   UNL A   1      31.266  27.968  22.590  1.00  0.00     0.073 C 
BRANCH  27  28
ATOM     28  C   UNL A   1      29.921  28.677  22.475  1.00  0.00    -0.045 A 
ATOM     29  C   UNL A   1      28.763  28.140  23.061  1.00  0.00     0.004 A 
ATOM     30  C   UNL A   1      29.843  29.947  21.881  1.00  0.00     0.004 A 
ATOM     31  C   UNL A   1      27.581  28.883  23.117  1.00  0.00     0.000 A 
ATOM     32  C   UNL A   1      28.649  30.672  21.907  1.00  0.00     0.000 A 
ATOM     33  C   UNL A   1      27.525  30.149  22.541  1.00  0.00     0.000 A 
ENDBRANCH  27  28
ENDBRANCH   5  27
ENDBRANCH   3   5
ENDBRANCH   2   3
ENDBRANCH   1   2
BRANCH   1  34
ATOM     34  C   UNL A   1      31.799  31.431  26.561  1.00  0.00     0.275 C 
BRANCH  34  35
ATOM     35  O   UNL A   1      33.005  30.983  27.210  1.00  0.00    -0.458 OA
BRANCH  35  36
ATOM     36  C   UNL A   1      33.795  31.976  27.684  1.00  0.00     0.338 C 
ATOM     37  O   UNL A   1      33.473  33.137  27.877  1.00  0.00    -0.246 OA
BRANCH  36  38
ATOM     38  C   UNL A   1      35.111  31.449  28.068  1.00  0.00     0.060 A 
ATOM     39  C   UNL A   1      35.195  30.101  28.416  1.00  0.00     0.016 A 
ATOM     40  C   UNL A   1      36.212  32.290  28.227  1.00  0.00     0.016 A 
ATOM     41  C   UNL A   1      36.356  29.593  28.983  1.00  0.00     0.010 A 
ATOM     42  C   UNL A   1      37.396  31.768  28.759  1.00  0.00     0.010 A 
ATOM     43  C   UNL A   1      37.467  30.422  29.164  1.00  0.00    -0.014 A 
BRANCH  43  44
ATOM     44  C   UNL A   1      38.677  29.875  29.823  1.00  0.00     0.031 A 
ATOM     45  C   UNL A   1      39.056  30.342  31.200  1.00  0.00     0.074 A 
ATOM     46  C   UNL A   1      39.401  28.925  29.200  1.00  0.00     0.049 A 
ATOM     47  N   UNL A   1      40.119  30.063  31.907  1.00  0.00    -0.248 NA
ATOM     48  C   UNL A   1      38.113  31.254  31.864  1.00  0.00     0.031 C 
ATOM     49  C   UNL A   1      39.086  28.348  27.891  1.00  0.00     0.029 A 
ATOM     50  N   UNL A   1      40.544  28.274  29.584  1.00  0.00    -0.354 N 
ATOM     51  C   UNL A   1      39.990  30.783  33.089  1.00  0.00     0.074 A 
ATOM     52  C   UNL A   1      38.754  31.531  32.991  1.00  0.00     0.031 C 
ATOM     53  C   UNL A   1      40.007  27.420  27.589  1.00  0.00     0.029 A 
ATOM     54  C   UNL A   1      41.011  27.384  28.646  1.00  0.00     0.049 A 
ATOM     55  H   UNL A   1      40.988  28.428  30.450  1.00  0.00     0.167 HD
ATOM     56  C   UNL A   1      40.827  30.809  34.157  1.00  0.00     0.034 A 
ATOM     57  C   UNL A   1      42.141  26.651  28.623  1.00  0.00     0.034 A 
ATOM     58  C   UNL A   1      42.048  30.043  34.235  1.00  0.00     0.049 A 
ATOM     59  C   UNL A   1      43.090  26.754  29.788  1.00  0.00     0.074 A 
ATOM     60  C   UNL A   1      42.972  29.992  35.264  1.00  0.00     0.029 A 
ATOM     61  N   UNL A   1      42.516  29.189  33.244  1.00  0.00    -0.354 N 
ATOM     62  N   UNL A   1      42.981  27.472  30.882  1.00  0.00    -0.248 NA
ATOM     63  C   UNL A   1      44.315  25.950  29.713  1.00  0.00     0.031 C 
ATOM     64  C   UNL A   1      44.026  29.160  34.869  1.00  0.00     0.029 A 
ATOM     65  C   UNL A   1      43.727  28.631  33.624  1.00  0.00     0.049 A 
ATOM     66  H   UNL A   1      42.054  29.006  32.392  1.00  0.00     0.167 HD
ATOM     67  C   UNL A   1      44.114  27.188  31.637  1.00  0.00     0.074 A 
ATOM     68  C   UNL A   1      44.883  26.219  30.880  1.00  0.00     0.031 C 
ATOM     69  C   UNL A   1      44.487  27.679  32.847  1.00  0.00     0.034 A 
BRANCH  56  70
ATOM     70  C   UNL A   1      40.477  31.746  35.289  1.00  0.00     0.023 A 
ATOM     71  C   UNL A   1      39.493  31.431  36.243  1.00  0.00     0.031 A 
ATOM     72  C   UNL A   1      41.117  32.995  35.394  1.00  0.00     0.131 A 
ATOM     73  C   UNL A   1      39.130  32.378  37.215  1.00  0.00     0.055 A 
ATOM     74  C   UNL A   1      40.806  33.901  36.409  1.00  0.00     0.041 A 
ATOM     75  F   UNL A   1      42.047  33.362  34.498  1.00  0.00    -0.206 F 
ATOM     76  C   UNL A   1      39.797  33.601  37.319  1.00  0.00     0.022 A 
BRANCH  73  77
ATOM     77  S   UNL A   1      37.681  32.046  38.254  1.00  0.00     0.124 S 
ATOM     78  O   UNL A   1      37.339  30.682  37.858  1.00  0.00    -0.237 OA
ATOM     79  O   UNL A   1      38.215  32.205  39.601  1.00  0.00    -0.237 OA
ATOM     80  O   UNL A   1      36.720  33.066  37.839  1.00  0.00    -0.744 OA
ENDBRANCH  73  77
ENDBRANCH  56  70
BRANCH  57  81
ATOM     81  C   UNL A   1      42.465  25.803  27.441  1.00  0.00     0.023 A 
ATOM     82  C   UNL A   1      42.071  24.457  27.383  1.00  0.00     0.031 A 
ATOM     83  C   UNL A   1      43.208  26.321  26.365  1.00  0.00     0.131 A 
ATOM     84  C   UNL A   1      42.454  23.665  26.289  1.00  0.00     0.055 A 
ATOM     85  C   UNL A   1      43.542  25.544  25.256  1.00  0.00     0.041 A 
ATOM     86  F   UNL A   1      43.611  27.602  26.371  1.00  0.00    -0.206 F 
ATOM     87  C   UNL A   1      43.175  24.202  25.219  1.00  0.00     0.022 A 
BRANCH  84  88
ATOM     88  S   UNL A   1      42.065  21.894  26.320  1.00  0.00     0.124 S 
ATOM     89  O   UNL A   1      42.892  21.388  25.230  1.00  0.00    -0.237 OA
ATOM     90  O   UNL A   1      42.478  21.516  27.667  1.00  0.00    -0.237 OA
ATOM     91  O   UNL A   1      40.624  21.858  26.079  1.00  0.00    -0.744 OA
ENDBRANCH  84  88
ENDBRANCH  57  81
BRANCH  69  92
ATOM     92  C   UNL A   1      45.765  27.135  33.433  1.00  0.00     0.023 A 
ATOM     93  C   UNL A   1      45.775  25.990  34.249  1.00  0.00     0.031 A 
ATOM     94  C   UNL A   1      46.986  27.789  33.194  1.00  0.00     0.131 A 
ATOM     95  C   UNL A   1      46.974  25.567  34.843  1.00  0.00     0.055 A 
ATOM     96  C   UNL A   1      48.185  27.331  33.741  1.00  0.00     0.041 A 
ATOM     97  F   UNL A   1      47.033  28.890  32.426  1.00  0.00    -0.206 F 
ATOM     98  C   UNL A   1      48.181  26.222  34.583  1.00  0.00     0.022 A 
BRANCH  95  99
ATOM     99  S   UNL A   1      46.919  24.206  36.042  1.00  0.00     0.124 S 
ATOM    100  O   UNL A   1      45.971  24.710  37.031  1.00  0.00    -0.237 OA
ATOM    101  O   UNL A   1      46.454  23.089  35.225  1.00  0.00    -0.237 OA
ATOM    102  O   UNL A   1      48.300  24.101  36.504  1.00  0.00    -0.744 OA
ENDBRANCH  95  99
ENDBRANCH  69  92
ENDBRANCH  43  44
ENDBRANCH  36  38
ENDBRANCH  35  36
ENDBRANCH  34  35
ENDBRANCH   1  34
TORSDOF 20
ENDMDL
MODEL 2
REMARK VINA RESULT:     -12.7      1.849      7.412
REMARK SMILES COc1ccc(-c2ccc(/C=C3\SC(=S)N([C@H](Cc4ccccc4)C(=O)OCCOC(=O)c4ccc(-c5c6nc(c(-c7cc(S(=O)(=O)[O-])ccc7F)c7ccc([nH]7)c(-c7cc(S(=O)(=O)[O-])ccc7F)c7nc(c(-c8cc(S(=O)(=O)[O-])ccc8F)c8ccc5[nH]8)C=C7)C=C6)cc4)C3=O)o2)cc1
REMARK SMILES IDX 28 1 27 2 25 3 26 4 17 5 16 6 11 7 12 8 13 9 96 10 14 11
REMARK SMILES IDX 97 12 15 13 10 14 7 15 8 16 98 17 9 18 6 19 3 20 4 21 100 22
REMARK SMILES IDX 5 23 99 24 2 25 1 26 18 27 19 28 20 29 24 30 21 31 23 32
REMARK SMILES IDX 22 33 29 34 30 35 31 36 32 37 33 38 34 39 95 40 35 41 94 42
REMARK SMILES IDX 36 43 37 44 38 45 88 46 39 47 93 48 87 49 89 50 40 51 92 52
REMARK SMILES IDX 86 53 85 54 41 56 73 57 53 58 72 59 54 60 57 61 71 62 90 63
REMARK SMILES IDX 55 64 56 65 70 67 91 68 58 69 42 70 43 71 51 72 44 73 50 74
REMARK SMILES IDX 52 75 49 76 45 77 46 78 47 79 48 80 74 81 75 82 83 83 76 84
REMARK SMILES IDX 82 85 84 86 81 87 77 88 78 89 79 90 80 91 59 92 60 93 68 94
REMARK SMILES IDX 61 95 67 96 69 97 66 98 62 99 63 100 64 101 65 102
REMARK H PARENT 89 55 57 66
REMARK Flexibility Score: inf
ROOT
ATOM      1  C   UNL A   1      31.534  29.026  26.250  1.00  0.00     0.274 C 
ENDROOT
BRANCH   1   2
ATOM      2  O   UNL A   1      32.654  28.542  25.482  1.00  0.00    -0.461 OA
BRANCH   2   3
ATOM      3  C   UNL A   1      32.486  28.523  24.135  1.00  0.00     0.329 C 
ATOM      4  O   UNL A   1      33.165  29.176  23.347  1.00  0.00    -0.250 OA
BRANCH   3   5
ATOM      5  C   UNL A   1      31.387  27.566  23.666  1.00  0.00     0.206 C 
BRANCH   5   6
ATOM      6  N   UNL A   1      31.801  26.174  23.941  1.00  0.00    -0.278 N 
ATOM      7  C   UNL A   1      34.558  23.914  23.646  1.00  0.00     0.068 C 
ATOM      8  C   UNL A   1      33.331  24.397  23.868  1.00  0.00     0.084 C 
ATOM      9  S   UNL A   1      32.110  23.809  24.919  1.00  0.00    -0.054 SA
ATOM     10  C   UNL A   1      32.897  25.674  23.257  1.00  0.00     0.267 C 
ATOM     11  C   UNL A   1      31.222  25.330  24.864  1.00  0.00     0.149 C 
ATOM     12  O   UNL A   1      33.463  26.195  22.306  1.00  0.00    -0.268 OA
ATOM     13  S   UNL A   1      29.894  25.602  25.837  1.00  0.00    -0.052 S 
BRANCH   7  14
ATOM     14  C   UNL A   1      35.011  22.683  24.182  1.00  0.00     0.128 A 
ATOM     15  C   UNL A   1      35.040  20.539  24.749  1.00  0.00     0.134 A 
ATOM     16  C   UNL A   1      36.125  21.114  25.367  1.00  0.00     0.051 A 
ATOM     17  O   UNL A   1      34.369  21.472  24.015  1.00  0.00    -0.457 OA
ATOM     18  C   UNL A   1      36.114  22.474  24.999  1.00  0.00     0.051 A 
BRANCH  15  19
ATOM     19  C   UNL A   1      34.495  19.195  24.793  1.00  0.00     0.017 A 
ATOM     20  C   UNL A   1      33.486  16.570  24.622  1.00  0.00     0.118 A 
ATOM     21  C   UNL A   1      32.620  17.659  24.758  1.00  0.00     0.047 A 
ATOM     22  C   UNL A   1      34.861  16.795  24.586  1.00  0.00     0.047 A 
ATOM     23  C   UNL A   1      33.118  18.964  24.858  1.00  0.00     0.016 A 
ATOM     24  C   UNL A   1      35.359  18.100  24.667  1.00  0.00     0.016 A 
BRANCH  20  25
ATOM     25  O   UNL A   1      32.876  15.351  24.499  1.00  0.00    -0.497 OA
ATOM     26  C   UNL A   1      32.563  14.677  25.713  1.00  0.00     0.278 C 
ENDBRANCH  20  25
ENDBRANCH  15  19
ENDBRANCH   7  14
ENDBRANCH   5   6
BRANCH   5  27
ATOM     27  C   UNL A   1      30.735  27.757  22.281  1.00  0.00     0.073 C 
BRANCH  27  28
ATOM     28  C   UNL A   1      29.625  28.800  22.356  1.00  0.00    -0.045 A 
ATOM     29  C   UNL A   1      28.387  28.504  22.950  1.00  0.00     0.004 A 
ATOM     30  C   UNL A   1      29.869  30.118  21.938  1.00  0.00     0.004 A 
ATOM     31  C   UNL A   1      27.450  29.513  23.187  1.00  0.00     0.000 A 
ATOM     32  C   UNL A   1      28.913  31.117  22.142  1.00  0.00     0.000 A 
ATOM     33  C   UNL A   1      27.714  30.819  22.784  1.00  0.00     0.000 A 
ENDBRANCH  27  28
ENDBRANCH   5  27
ENDBRANCH   3   5
ENDBRANCH   2   3
ENDBRANCH   1   2
BRANCH   1  34
ATOM     34  C   UNL A   1      31.773  30.455  26.749  1.00  0.00     0.275 C 
BRANCH  34  35
ATOM     35  O   UNL A   1      33.093  30.938  26.436  1.00  0.00    -0.458 OA
BRANCH  35  36
ATOM     36  C   UNL A   1      33.554  31.904  27.266  1.00  0.00     0.338 C 
ATOM     37  O   UNL A   1      32.962  32.913  27.614  1.00  0.00    -0.246 OA
BRANCH  36  38
ATOM     38  C   UNL A   1      34.862  31.527  27.818  1.00  0.00     0.060 A 
ATOM     39  C   UNL A   1      35.022  30.220  28.277  1.00  0.00     0.016 A 
ATOM     40  C   UNL A   1      35.865  32.475  28.021  1.00  0.00     0.016 A 
ATOM     41  C   UNL A   1      36.155  29.861  28.994  1.00  0.00     0.010 A 
ATOM     42  C   UNL A   1      37.026  32.102  28.707  1.00  0.00     0.010 A 
ATOM     43  C   UNL A   1      37.167  30.799  29.220  1.00  0.00    -0.014 A 
BRANCH  43  44
ATOM     44  C   UNL A   1      38.342  30.411  30.036  1.00  0.00     0.031 A 
ATOM     45  C   UNL A   1      39.359  29.456  29.479  1.00  0.00     0.074 A 
ATOM     46  C   UNL A   1      38.514  30.956  31.255  1.00  0.00     0.049 A 
ATOM     47  N   UNL A   1      40.398  28.919  30.061  1.00  0.00    -0.248 NA
ATOM     48  C   UNL A   1      39.173  29.045  28.079  1.00  0.00     0.031 C 
ATOM     49  C   UNL A   1      37.624  31.947  31.867  1.00  0.00     0.029 A 
ATOM     50  N   UNL A   1      39.493  30.764  32.194  1.00  0.00    -0.354 N 
ATOM     51  C   UNL A   1      40.979  28.086  29.111  1.00  0.00     0.074 A 
ATOM     52  C   UNL A   1      40.158  28.172  27.921  1.00  0.00     0.031 C 
ATOM     53  C   UNL A   1      38.108  32.282  33.074  1.00  0.00     0.029 A 
ATOM     54  C   UNL A   1      39.298  31.485  33.348  1.00  0.00     0.049 A 
ATOM     55  H   UNL A   1      40.263  30.165  32.055  1.00  0.00     0.167 HD
ATOM     56  C   UNL A   1      42.096  27.325  29.226  1.00  0.00     0.034 A 
ATOM     57  C   UNL A   1      39.980  31.477  34.510  1.00  0.00     0.034 A 
ATOM     58  C   UNL A   1      42.905  27.267  30.420  1.00  0.00     0.049 A 
ATOM     59  C   UNL A   1      41.174  30.568  34.637  1.00  0.00     0.074 A 
ATOM     60  C   UNL A   1      44.056  26.531  30.651  1.00  0.00     0.029 A 
ATOM     61  N   UNL A   1      42.650  27.974  31.589  1.00  0.00    -0.354 N 
ATOM     62  N   UNL A   1      41.689  29.750  33.748  1.00  0.00    -0.248 NA
ATOM     63  C   UNL A   1      41.877  30.580  35.925  1.00  0.00     0.031 C 
ATOM     64  C   UNL A   1      44.457  26.745  31.975  1.00  0.00     0.029 A 
ATOM     65  C   UNL A   1      43.602  27.671  32.551  1.00  0.00     0.049 A 
ATOM     66  H   UNL A   1      41.900  28.600  31.717  1.00  0.00     0.167 HD
ATOM     67  C   UNL A   1      42.792  29.166  34.363  1.00  0.00     0.074 A 
ATOM     68  C   UNL A   1      42.876  29.741  35.692  1.00  0.00     0.031 C 
ATOM     69  C   UNL A   1      43.658  28.242  33.876  1.00  0.00     0.034 A 
BRANCH  56  70
ATOM     70  C   UNL A   1      42.463  26.450  28.050  1.00  0.00     0.023 A 
ATOM     71  C   UNL A   1      41.927  25.161  27.881  1.00  0.00     0.031 A 
ATOM     72  C   UNL A   1      43.394  26.903  27.098  1.00  0.00     0.131 A 
ATOM     73  C   UNL A   1      42.377  24.346  26.830  1.00  0.00     0.055 A 
ATOM     74  C   UNL A   1      43.781  26.117  26.011  1.00  0.00     0.041 A 
ATOM     75  F   UNL A   1      43.959  28.115  27.219  1.00  0.00    -0.206 F 
ATOM     76  C   UNL A   1      43.282  24.825  25.879  1.00  0.00     0.022 A 
BRANCH  73  77
ATOM     77  S   UNL A   1      41.868  22.606  26.799  1.00  0.00     0.124 S 
ATOM     78  O   UNL A   1      42.707  22.034  27.850  1.00  0.00    -0.237 OA
ATOM     79  O   UNL A   1      40.443  22.687  27.093  1.00  0.00    -0.237 OA
ATOM     80  O   UNL A   1      42.202  22.174  25.443  1.00  0.00    -0.744 OA
ENDBRANCH  73  77
ENDBRANCH  56  70
BRANCH  57  81
ATOM     81  C   UNL A   1      39.521  32.308  35.658  1.00  0.00     0.023 A 
ATOM     82  C   UNL A   1      39.953  33.635  35.812  1.00  0.00     0.031 A 
ATOM     83  C   UNL A   1      38.669  31.772  36.641  1.00  0.00     0.131 A 
ATOM     84  C   UNL A   1      39.562  34.369  36.944  1.00  0.00     0.055 A 
ATOM     85  C   UNL A   1      38.241  32.522  37.736  1.00  0.00     0.041 A 
ATOM     86  F   UNL A   1      38.228  30.508  36.541  1.00  0.00    -0.206 F 
ATOM     87  C   UNL A   1      38.698  33.827  37.899  1.00  0.00     0.022 A 
BRANCH  84  88
ATOM     88  S   UNL A   1      40.263  36.023  37.192  1.00  0.00     0.124 S 
ATOM     89  O   UNL A   1      41.695  35.743  37.184  1.00  0.00    -0.237 OA
ATOM     90  O   UNL A   1      39.745  36.748  36.037  1.00  0.00    -0.237 OA
ATOM     91  O   UNL A   1      39.714  36.435  38.482  1.00  0.00    -0.744 OA
ENDBRANCH  84  88
ENDBRANCH  57  81
BRANCH  69  92
ATOM     92  C   UNL A   1      44.793  27.835  34.783  1.00  0.00     0.023 A 
ATOM     93  C   UNL A   1      46.015  28.531  34.795  1.00  0.00     0.031 A 
ATOM     94  C   UNL A   1      44.658  26.718  35.625  1.00  0.00     0.131 A 
ATOM     95  C   UNL A   1      47.073  28.068  35.591  1.00  0.00     0.055 A 
ATOM     96  C   UNL A   1      45.696  26.296  36.457  1.00  0.00     0.041 A 
ATOM     97  F   UNL A   1      43.515  26.014  35.649  1.00  0.00    -0.206 F 
ATOM     98  C   UNL A   1      46.917  26.964  36.433  1.00  0.00     0.022 A 
BRANCH  95  99
ATOM     99  S   UNL A   1      48.693  28.871  35.438  1.00  0.00     0.124 S 
ATOM    100  O   UNL A   1      49.421  27.929  34.593  1.00  0.00    -0.237 OA
ATOM    101  O   UNL A   1      48.352  30.149  34.820  1.00  0.00    -0.237 OA
ATOM    102  O   UNL A   1      49.164  28.958  36.818  1.00  0.00    -0.744 OA
ENDBRANCH  95  99
ENDBRANCH  69  92
ENDBRANCH  43  44
ENDBRANCH  36  38
ENDBRANCH  35  36
ENDBRANCH  34  35
ENDBRANCH   1  34
TORSDOF 20
ENDMDL
MODEL 3
REMARK VINA RESULT:     -12.4      0.653      7.120
REMARK SMILES COc1ccc(-c2ccc(/C=C3\SC(=S)N([C@H](Cc4ccccc4)C(=O)OCCOC(=O)c4ccc(-c5c6nc(c(-c7cc(S(=O)(=O)[O-])ccc7F)c7ccc([nH]7)c(-c7cc(S(=O)(=O)[O-])ccc7F)c7nc(c(-c8cc(S(=O)(=O)[O-])ccc8F)c8ccc5[nH]8)C=C7)C=C6)cc4)C3=O)o2)cc1
REMARK SMILES IDX 28 1 27 2 25 3 26 4 17 5 16 6 11 7 12 8 13 9 96 10 14 11
REMARK SMILES IDX 97 12 15 13 10 14 7 15 8 16 98 17 9 18 6 19 3 20 4 21 100 22
REMARK SMILES IDX 5 23 99 24 2 25 1 26 18 27 19 28 20 29 24 30 21 31 23 32
REMARK SMILES IDX 22 33 29 34 30 35 31 36 32 37 33 38 34 39 95 40 35 41 94 42
REMARK SMILES IDX 36 43 37 44 38 45 88 46 39 47 93 48 87 49 89 50 40 51 92 52
REMARK SMILES IDX 86 53 85 54 41 56 73 57 53 58 72 59 54 60 57 61 71 62 90 63
REMARK SMILES IDX 55 64 56 65 70 67 91 68 58 69 42 70 43 71 51 72 44 73 50 74
REMARK SMILES IDX 52 75 49 76 45 77 46 78 47 79 48 80 74 81 75 82 83 83 76 84
REMARK SMILES IDX 82 85 84 86 81 87 77 88 78 89 79 90 80 91 59 92 60 93 68 94
REMARK SMILES IDX 61 95 67 96 69 97 66 98 62 99 63 100 64 101 65 102
REMARK H PARENT 89 55 57 66
REMARK Flexibility Score: inf
ROOT
ATOM      1  C   UNL A   1      31.070  30.703  25.680  1.00  0.00     0.274 C 
ENDROOT
BRANCH   1   2
ATOM      2  O   UNL A   1      32.066  29.937  24.973  1.00  0.00    -0.461 OA
BRANCH   2   3
ATOM      3  C   UNL A   1      32.082  28.604  25.229  1.00  0.00     0.329 C 
ATOM      4  O   UNL A   1      32.596  28.098  26.223  1.00  0.00    -0.250 OA
BRANCH   3   5
ATOM      5  C   UNL A   1      31.351  27.768  24.175  1.00  0.00     0.206 C 
BRANCH   5   6
ATOM      6  N   UNL A   1      31.759  26.353  24.307  1.00  0.00    -0.278 N 
ATOM      7  C   UNL A   1      34.588  24.173  24.097  1.00  0.00     0.068 C 
ATOM      8  C   UNL A   1      33.329  24.613  24.205  1.00  0.00     0.084 C 
ATOM      9  S   UNL A   1      31.987  23.873  24.974  1.00  0.00    -0.054 SA
ATOM     10  C   UNL A   1      32.953  25.963  23.725  1.00  0.00     0.267 C 
ATOM     11  C   UNL A   1      31.077  25.381  25.007  1.00  0.00     0.149 C 
ATOM     12  O   UNL A   1      33.636  26.618  22.950  1.00  0.00    -0.268 OA
ATOM     13  S   UNL A   1      29.616  25.503  25.807  1.00  0.00    -0.052 S 
BRANCH   7  14
ATOM     14  C   UNL A   1      34.991  22.880  24.513  1.00  0.00     0.128 A 
ATOM     15  C   UNL A   1      34.982  20.680  24.789  1.00  0.00     0.134 A 
ATOM     16  C   UNL A   1      35.983  21.164  25.599  1.00  0.00     0.051 A 
ATOM     17  O   UNL A   1      34.387  21.705  24.114  1.00  0.00    -0.457 OA
ATOM     18  C   UNL A   1      35.997  22.561  25.416  1.00  0.00     0.051 A 
BRANCH  15  19
ATOM     19  C   UNL A   1      34.452  19.344  24.592  1.00  0.00     0.017 A 
ATOM     20  C   UNL A   1      33.340  16.758  24.458  1.00  0.00     0.118 A 
ATOM     21  C   UNL A   1      34.725  16.937  24.520  1.00  0.00     0.047 A 
ATOM     22  C   UNL A   1      32.510  17.878  24.449  1.00  0.00     0.047 A 
ATOM     23  C   UNL A   1      35.282  18.220  24.573  1.00  0.00     0.016 A 
ATOM     24  C   UNL A   1      33.065  19.160  24.519  1.00  0.00     0.016 A 
BRANCH  20  25
ATOM     25  O   UNL A   1      32.920  15.456  24.447  1.00  0.00    -0.497 OA
ATOM     26  C   UNL A   1      32.841  14.809  25.713  1.00  0.00     0.278 C 
ENDBRANCH  20  25
ENDBRANCH  15  19
ENDBRANCH   7  14
ENDBRANCH   5   6
BRANCH   5  27
ATOM     27  C   UNL A   1      31.276  28.258  22.715  1.00  0.00     0.073 C 
BRANCH  27  28
ATOM     28  C   UNL A   1      29.935  28.933  22.449  1.00  0.00    -0.045 A 
ATOM     29  C   UNL A   1      28.763  28.499  23.089  1.00  0.00     0.004 A 
ATOM     30  C   UNL A   1      29.873  30.084  21.649  1.00  0.00     0.004 A 
ATOM     31  C   UNL A   1      27.581  29.237  22.991  1.00  0.00     0.000 A 
ATOM     32  C   UNL A   1      28.679  30.799  21.522  1.00  0.00     0.000 A 
ATOM     33  C   UNL A   1      27.539  30.387  22.209  1.00  0.00     0.000 A 
ENDBRANCH  27  28
ENDBRANCH   5  27
ENDBRANCH   3   5
ENDBRANCH   2   3
ENDBRANCH   1   2
BRANCH   1  34
ATOM     34  C   UNL A   1      31.713  31.755  26.591  1.00  0.00     0.275 C 
BRANCH  34  35
ATOM     35  O   UNL A   1      33.024  31.367  27.046  1.00  0.00    -0.458 OA
BRANCH  35  36
ATOM     36  C   UNL A   1      33.721  32.349  27.665  1.00  0.00     0.338 C 
ATOM     37  O   UNL A   1      33.321  33.470  27.937  1.00  0.00    -0.246 OA
BRANCH  36  38
ATOM     38  C   UNL A   1      35.034  31.854  28.097  1.00  0.00     0.060 A 
ATOM     39  C   UNL A   1      35.110  30.550  28.584  1.00  0.00     0.016 A 
ATOM     40  C   UNL A   1      36.143  32.698  28.162  1.00  0.00     0.016 A 
ATOM     41  C   UNL A   1      36.270  30.095  29.197  1.00  0.00     0.010 A 
ATOM     42  C   UNL A   1      37.326  32.226  28.741  1.00  0.00     0.010 A 
ATOM     43  C   UNL A   1      37.388  30.929  29.285  1.00  0.00    -0.014 A 
BRANCH  43  44
ATOM     44  C   UNL A   1      38.597  30.444  29.993  1.00  0.00     0.031 A 
ATOM     45  C   UNL A   1      39.477  29.410  29.350  1.00  0.00     0.074 A 
ATOM     46  C   UNL A   1      38.923  30.971  31.188  1.00  0.00     0.049 A 
ATOM     47  N   UNL A   1      40.518  28.788  29.837  1.00  0.00    -0.248 NA
ATOM     48  C   UNL A   1      39.131  29.020  27.974  1.00  0.00     0.031 C 
ATOM     49  C   UNL A   1      38.178  32.030  31.874  1.00  0.00     0.029 A 
ATOM     50  N   UNL A   1      39.965  30.695  32.035  1.00  0.00    -0.354 N 
ATOM     51  C   UNL A   1      40.939  27.912  28.843  1.00  0.00     0.074 A 
ATOM     52  C   UNL A   1      40.022  28.069  27.732  1.00  0.00     0.031 C 
ATOM     53  C   UNL A   1      38.795  32.321  33.030  1.00  0.00     0.029 A 
ATOM     54  C   UNL A   1      39.936  31.428  33.198  1.00  0.00     0.049 A 
ATOM     55  H   UNL A   1      40.667  30.036  31.830  1.00  0.00     0.167 HD
ATOM     56  C   UNL A   1      41.996  27.062  28.859  1.00  0.00     0.034 A 
ATOM     57  C   UNL A   1      40.718  31.360  34.293  1.00  0.00     0.034 A 
ATOM     58  C   UNL A   1      42.903  26.934  29.975  1.00  0.00     0.049 A 
ATOM     59  C   UNL A   1      41.840  30.356  34.316  1.00  0.00     0.074 A 
ATOM     60  C   UNL A   1      44.005  26.106  30.103  1.00  0.00     0.029 A 
ATOM     61  N   UNL A   1      42.814  27.657  31.158  1.00  0.00    -0.354 N 
ATOM     62  N   UNL A   1      42.204  29.501  33.387  1.00  0.00    -0.248 NA
ATOM     63  C   UNL A   1      42.656  30.307  35.534  1.00  0.00     0.031 C 
ATOM     64  C   UNL A   1      44.542  26.283  31.384  1.00  0.00     0.029 A 
ATOM     65  C   UNL A   1      43.822  27.274  32.031  1.00  0.00     0.049 A 
ATOM     66  H   UNL A   1      42.133  28.343  31.351  1.00  0.00     0.167 HD
ATOM     67  C   UNL A   1      43.306  28.827  33.902  1.00  0.00     0.074 A 
ATOM     68  C   UNL A   1      43.558  29.389  35.215  1.00  0.00     0.031 C 
ATOM     69  C   UNL A   1      44.046  27.835  33.343  1.00  0.00     0.034 A 
BRANCH  56  70
ATOM     70  C   UNL A   1      42.180  26.163  27.659  1.00  0.00     0.023 A 
ATOM     71  C   UNL A   1      41.743  24.826  27.651  1.00  0.00     0.031 A 
ATOM     72  C   UNL A   1      42.839  26.644  26.513  1.00  0.00     0.131 A 
ATOM     73  C   UNL A   1      42.029  24.001  26.553  1.00  0.00     0.055 A 
ATOM     74  C   UNL A   1      43.054  25.840  25.392  1.00  0.00     0.041 A 
ATOM     75  F   UNL A   1      43.302  27.904  26.469  1.00  0.00    -0.206 F 
ATOM     76  C   UNL A   1      42.660  24.505  25.413  1.00  0.00     0.022 A 
BRANCH  73  77
ATOM     77  S   UNL A   1      41.690  22.224  26.687  1.00  0.00     0.124 S 
ATOM     78  O   UNL A   1      42.872  21.648  26.049  1.00  0.00    -0.237 OA
ATOM     79  O   UNL A   1      41.585  22.031  28.129  1.00  0.00    -0.237 OA
ATOM     80  O   UNL A   1      40.444  22.055  25.942  1.00  0.00    -0.744 OA
ENDBRANCH  73  77
ENDBRANCH  56  70
BRANCH  57  81
ATOM     81  C   UNL A   1      40.436  32.224  35.474  1.00  0.00     0.023 A 
ATOM     82  C   UNL A   1      39.508  31.835  36.453  1.00  0.00     0.031 A 
ATOM     83  C   UNL A   1      41.067  33.472  35.621  1.00  0.00     0.131 A 
ATOM     84  C   UNL A   1      39.209  32.703  37.515  1.00  0.00     0.055 A 
ATOM     85  C   UNL A   1      40.807  34.308  36.707  1.00  0.00     0.041 A 
ATOM     86  F   UNL A   1      41.963  33.892  34.713  1.00  0.00    -0.206 F 
ATOM     87  C   UNL A   1      39.862  33.931  37.657  1.00  0.00     0.022 A 
BRANCH  84  88
ATOM     88  S   UNL A   1      37.892  32.239  38.673  1.00  0.00     0.124 S 
ATOM     89  O   UNL A   1      37.044  33.426  38.649  1.00  0.00    -0.237 OA
ATOM     90  O   UNL A   1      37.342  31.045  38.042  1.00  0.00    -0.237 OA
ATOM     91  O   UNL A   1      38.608  32.007  39.926  1.00  0.00    -0.744 OA
ENDBRANCH  84  88
ENDBRANCH  57  81
BRANCH  69  92
ATOM     92  C   UNL A   1      45.221  27.335  34.144  1.00  0.00     0.023 A 
ATOM     93  C   UNL A   1      45.108  26.239  35.017  1.00  0.00     0.031 A 
ATOM     94  C   UNL A   1      46.466  27.983  34.052  1.00  0.00     0.131 A 
ATOM     95  C   UNL A   1      46.203  25.860  35.808  1.00  0.00     0.055 A 
ATOM     96  C   UNL A   1      47.568  27.565  34.798  1.00  0.00     0.041 A 
ATOM     97  F   UNL A   1      46.628  29.037  33.237  1.00  0.00    -0.206 F 
ATOM     98  C   UNL A   1      47.436  26.507  35.693  1.00  0.00     0.022 A 
BRANCH  95  99
ATOM     99  S   UNL A   1      45.968  24.570  37.062  1.00  0.00     0.124 S 
ATOM    100  O   UNL A   1      47.078  23.666  36.780  1.00  0.00    -0.237 OA
ATOM    101  O   UNL A   1      46.062  25.325  38.308  1.00  0.00    -0.237 OA
ATOM    102  O   UNL A   1      44.642  24.037  36.761  1.00  0.00    -0.744 OA
ENDBRANCH  95  99
ENDBRANCH  69  92
ENDBRANCH  43  44
ENDBRANCH  36  38
ENDBRANCH  35  36
ENDBRANCH  34  35
ENDBRANCH   1  34
TORSDOF 20
ENDMDL
