MODEL 1
REMARK VINA RESULT:     -12.2      0.000      0.000
REMARK SMILES COc1cc(S(=O)(=O)Nc2cccc(C(=O)OCCOC(=O)c3ccc(-c4c5nc(c(-c6cc(S(=O)(=O)[O-])ccc6F)c6ccc([nH]6)c(-c6cc(S(=O)(=O)[O-])ccc6F)c6nc(c(-c7cc(S(=O)(=O)[O-])ccc7F)c7ccc4[nH]7)C=C6)C=C5)cc3)c2)c(OC)cc1C
REMARK SMILES IDX 18 1 17 2 15 3 16 4 14 5 10 6 11 7 86 8 12 9 13 10 9 11 6 13
REMARK SMILES IDX 7 14 8 15 5 16 3 17 4 18 91 19 90 20 92 21 87 22 2 23 1 24
REMARK SMILES IDX 88 25 89 26 19 27 20 28 21 29 22 30 23 31 24 32 85 33 25 34
REMARK SMILES IDX 84 35 26 36 27 37 28 38 78 39 29 40 83 41 77 42 79 43 30 44
REMARK SMILES IDX 82 45 76 46 75 47 31 49 63 50 43 51 62 52 44 53 47 54 61 55
REMARK SMILES IDX 80 56 45 57 46 58 60 60 81 61 48 62 32 63 33 64 41 65 34 66
REMARK SMILES IDX 40 67 42 68 39 69 35 70 36 71 37 72 38 73 64 74 65 75 73 76
REMARK SMILES IDX 66 77 72 78 74 79 71 80 67 81 68 82 69 83 70 84 49 85 50 86
REMARK SMILES IDX 58 87 51 88 57 89 59 90 56 91 52 92 53 93 54 94 55 95
REMARK H PARENT 9 12 79 48 47 59
REMARK Flexibility Score: inf
ROOT
ATOM      1  C   UNL A   1      32.183  29.675  26.443  1.00  0.00     0.275 C 
ENDROOT
BRANCH   1   2
ATOM      2  O   UNL A   1      32.292  29.366  25.042  1.00  0.00    -0.458 OA
BRANCH   2   3
ATOM      3  C   UNL A   1      31.090  29.171  24.454  1.00  0.00     0.338 C 
ATOM      4  O   UNL A   1      30.277  30.034  24.157  1.00  0.00    -0.246 OA
BRANCH   3   5
ATOM      5  C   UNL A   1      30.751  27.743  24.300  1.00  0.00     0.062 A 
ATOM      6  C   UNL A   1      30.805  25.513  25.262  1.00  0.00     0.050 A 
ATOM      7  C   UNL A   1      30.909  24.975  23.981  1.00  0.00     0.027 A 
ATOM      8  C   UNL A   1      30.617  26.898  25.408  1.00  0.00     0.042 A 
ATOM      9  C   UNL A   1      30.971  25.818  22.867  1.00  0.00     0.003 A 
ATOM     10  C   UNL A   1      30.934  27.200  23.029  1.00  0.00     0.016 A 
BRANCH   6  11
ATOM     11  N   UNL A   1      30.955  24.738  26.456  1.00  0.00    -0.279 N 
ATOM     12  H   UNL A   1      30.630  25.133  27.296  1.00  0.00     0.180 HD
BRANCH  11  13
ATOM     13  S   UNL A   1      31.643  23.201  26.533  1.00  0.00     0.265 S 
ATOM     14  O   UNL A   1      30.853  22.336  25.679  1.00  0.00    -0.201 OA
ATOM     15  O   UNL A   1      31.763  22.896  27.949  1.00  0.00    -0.201 OA
BRANCH  13  16
ATOM     16  C   UNL A   1      33.297  23.176  25.866  1.00  0.00     0.133 A 
ATOM     17  C   UNL A   1      34.985  21.789  24.766  1.00  0.00     0.123 A 
ATOM     18  C   UNL A   1      33.790  21.909  25.485  1.00  0.00     0.073 A 
ATOM     19  C   UNL A   1      35.624  22.939  24.304  1.00  0.00    -0.005 A 
ATOM     20  C   UNL A   1      35.192  24.181  24.793  1.00  0.00     0.055 A 
ATOM     21  C   UNL A   1      36.757  22.931  23.319  1.00  0.00     0.048 C 
ATOM     22  C   UNL A   1      34.062  24.311  25.612  1.00  0.00     0.139 A 
BRANCH  17  23
ATOM     23  O   UNL A   1      35.409  20.516  24.491  1.00  0.00    -0.496 OA
ATOM     24  C   UNL A   1      36.704  20.226  25.031  1.00  0.00     0.278 C 
ENDBRANCH  17  23
BRANCH  22  25
ATOM     25  O   UNL A   1      33.711  25.492  26.195  1.00  0.00    -0.495 OA
ATOM     26  C   UNL A   1      34.232  26.679  25.602  1.00  0.00     0.278 C 
ENDBRANCH  22  25
ENDBRANCH  13  16
ENDBRANCH  11  13
ENDBRANCH   6  11
ENDBRANCH   3   5
ENDBRANCH   2   3
ENDBRANCH   1   2
BRANCH   1  27
ATOM     27  C   UNL A   1      33.273  30.642  26.920  1.00  0.00     0.275 C 
BRANCH  27  28
ATOM     28  O   UNL A   1      34.452  30.066  27.550  1.00  0.00    -0.458 OA
BRANCH  28  29
ATOM     29  C   UNL A   1      35.422  30.750  28.219  1.00  0.00     0.338 C 
ATOM     30  O   UNL A   1      35.171  31.775  28.844  1.00  0.00    -0.246 OA
BRANCH  29  31
ATOM     31  C   UNL A   1      36.740  30.095  28.335  1.00  0.00     0.060 A 
ATOM     32  C   UNL A   1      37.038  29.365  29.496  1.00  0.00     0.016 A 
ATOM     33  C   UNL A   1      37.607  30.078  27.252  1.00  0.00     0.016 A 
ATOM     34  C   UNL A   1      38.119  28.498  29.513  1.00  0.00     0.010 A 
ATOM     35  C   UNL A   1      38.560  29.097  27.189  1.00  0.00     0.010 A 
ATOM     36  C   UNL A   1      38.835  28.333  28.331  1.00  0.00    -0.014 A 
BRANCH  36  37
ATOM     37  C   UNL A   1      40.115  27.658  28.274  1.00  0.00     0.031 A 
ATOM     38  C   UNL A   1      40.202  26.192  28.252  1.00  0.00     0.074 A 
ATOM     39  C   UNL A   1      41.141  28.536  28.220  1.00  0.00     0.049 A 
ATOM     40  N   UNL A   1      41.100  25.513  28.873  1.00  0.00    -0.248 NA
ATOM     41  C   UNL A   1      39.227  25.336  27.567  1.00  0.00     0.031 C 
ATOM     42  C   UNL A   1      42.557  28.373  27.973  1.00  0.00     0.029 A 
ATOM     43  N   UNL A   1      41.037  29.879  28.569  1.00  0.00    -0.354 N 
ATOM     44  C   UNL A   1      41.082  24.247  28.320  1.00  0.00     0.074 A 
ATOM     45  C   UNL A   1      39.795  24.126  27.681  1.00  0.00     0.031 C 
ATOM     46  C   UNL A   1      43.201  29.457  28.460  1.00  0.00     0.029 A 
ATOM     47  C   UNL A   1      42.220  30.296  29.143  1.00  0.00     0.049 A 
ATOM     48  H   UNL A   1      40.244  30.444  28.428  1.00  0.00     0.167 HD
ATOM     49  C   UNL A   1      42.252  23.555  28.219  1.00  0.00     0.034 A 
ATOM     50  C   UNL A   1      42.190  30.596  30.478  1.00  0.00     0.034 A 
ATOM     51  C   UNL A   1      43.351  24.393  28.682  1.00  0.00     0.049 A 
ATOM     52  C   UNL A   1      42.974  29.561  31.247  1.00  0.00     0.074 A 
ATOM     53  C   UNL A   1      44.226  25.211  27.988  1.00  0.00     0.029 A 
ATOM     54  N   UNL A   1      43.413  24.775  30.011  1.00  0.00    -0.354 N 
ATOM     55  N   UNL A   1      43.083  28.306  30.898  1.00  0.00    -0.248 NA
ATOM     56  C   UNL A   1      43.792  29.910  32.400  1.00  0.00     0.031 C 
ATOM     57  C   UNL A   1      44.778  26.133  28.911  1.00  0.00     0.029 A 
ATOM     58  C   UNL A   1      44.236  25.871  30.158  1.00  0.00     0.049 A 
ATOM     59  H   UNL A   1      42.936  24.328  30.748  1.00  0.00     0.167 HD
ATOM     60  C   UNL A   1      44.044  27.709  31.678  1.00  0.00     0.074 A 
ATOM     61  C   UNL A   1      44.441  28.754  32.610  1.00  0.00     0.031 C 
ATOM     62  C   UNL A   1      44.482  26.428  31.472  1.00  0.00     0.034 A 
BRANCH  49  63
ATOM     63  C   UNL A   1      42.492  22.324  27.380  1.00  0.00     0.023 A 
ATOM     64  C   UNL A   1      43.558  22.336  26.453  1.00  0.00     0.031 A 
ATOM     65  C   UNL A   1      41.762  21.126  27.452  1.00  0.00     0.131 A 
ATOM     66  C   UNL A   1      43.828  21.247  25.611  1.00  0.00     0.055 A 
ATOM     67  C   UNL A   1      42.022  20.036  26.602  1.00  0.00     0.041 A 
ATOM     68  F   UNL A   1      40.794  20.954  28.366  1.00  0.00    -0.206 F 
ATOM     69  C   UNL A   1      43.055  20.094  25.671  1.00  0.00     0.022 A 
BRANCH  66  70
ATOM     70  S   UNL A   1      45.212  21.378  24.445  1.00  0.00     0.124 S 
ATOM     71  O   UNL A   1      45.449  19.981  24.092  1.00  0.00    -0.237 OA
ATOM     72  O   UNL A   1      44.655  22.222  23.393  1.00  0.00    -0.237 OA
ATOM     73  O   UNL A   1      46.268  22.001  25.241  1.00  0.00    -0.744 OA
ENDBRANCH  66  70
ENDBRANCH  49  63
BRANCH  50  74
ATOM     74  C   UNL A   1      40.918  31.267  30.933  1.00  0.00     0.023 A 
ATOM     75  C   UNL A   1      40.069  30.526  31.791  1.00  0.00     0.031 A 
ATOM     76  C   UNL A   1      40.669  32.643  30.834  1.00  0.00     0.131 A 
ATOM     77  C   UNL A   1      39.165  31.168  32.651  1.00  0.00     0.055 A 
ATOM     78  C   UNL A   1      39.683  33.271  31.621  1.00  0.00     0.041 A 
ATOM     79  F   UNL A   1      41.430  33.425  30.056  1.00  0.00    -0.206 F 
ATOM     80  C   UNL A   1      38.956  32.542  32.567  1.00  0.00     0.022 A 
BRANCH  77  81
ATOM     81  S   UNL A   1      38.534  30.218  34.070  1.00  0.00     0.124 S 
ATOM     82  O   UNL A   1      39.757  29.888  34.791  1.00  0.00    -0.237 OA
ATOM     83  O   UNL A   1      37.649  31.185  34.720  1.00  0.00    -0.237 OA
ATOM     84  O   UNL A   1      37.837  29.094  33.455  1.00  0.00    -0.744 OA
ENDBRANCH  77  81
ENDBRANCH  50  74
BRANCH  62  85
ATOM     85  C   UNL A   1      45.297  25.602  32.442  1.00  0.00     0.023 A 
ATOM     86  C   UNL A   1      44.735  24.586  33.212  1.00  0.00     0.031 A 
ATOM     87  C   UNL A   1      46.704  25.754  32.568  1.00  0.00     0.131 A 
ATOM     88  C   UNL A   1      45.499  23.870  34.142  1.00  0.00     0.055 A 
ATOM     89  C   UNL A   1      47.486  24.956  33.406  1.00  0.00     0.041 A 
ATOM     90  F   UNL A   1      47.393  26.670  31.874  1.00  0.00    -0.206 F 
ATOM     91  C   UNL A   1      46.878  24.022  34.226  1.00  0.00     0.022 A 
BRANCH  88  92
ATOM     92  S   UNL A   1      44.607  22.819  35.309  1.00  0.00     0.124 S 
ATOM     93  O   UNL A   1      45.465  22.895  36.489  1.00  0.00    -0.237 OA
ATOM     94  O   UNL A   1      43.320  23.499  35.421  1.00  0.00    -0.237 OA
ATOM     95  O   UNL A   1      44.573  21.520  34.644  1.00  0.00    -0.744 OA
ENDBRANCH  88  92
ENDBRANCH  62  85
ENDBRANCH  36  37
ENDBRANCH  29  31
ENDBRANCH  28  29
ENDBRANCH  27  28
ENDBRANCH   1  27
TORSDOF 19
ENDMDL
MODEL 2
REMARK VINA RESULT:     -11.9      3.994     10.193
REMARK SMILES COc1cc(S(=O)(=O)Nc2cccc(C(=O)OCCOC(=O)c3ccc(-c4c5nc(c(-c6cc(S(=O)(=O)[O-])ccc6F)c6ccc([nH]6)c(-c6cc(S(=O)(=O)[O-])ccc6F)c6nc(c(-c7cc(S(=O)(=O)[O-])ccc7F)c7ccc4[nH]7)C=C6)C=C5)cc3)c2)c(OC)cc1C
REMARK SMILES IDX 18 1 17 2 15 3 16 4 14 5 10 6 11 7 86 8 12 9 13 10 9 11 6 13
REMARK SMILES IDX 7 14 8 15 5 16 3 17 4 18 91 19 90 20 92 21 87 22 2 23 1 24
REMARK SMILES IDX 88 25 89 26 19 27 20 28 21 29 22 30 23 31 24 32 85 33 25 34
REMARK SMILES IDX 84 35 26 36 27 37 28 38 78 39 29 40 83 41 77 42 79 43 30 44
REMARK SMILES IDX 82 45 76 46 75 47 31 49 63 50 43 51 62 52 44 53 47 54 61 55
REMARK SMILES IDX 80 56 45 57 46 58 60 60 81 61 48 62 32 63 33 64 41 65 34 66
REMARK SMILES IDX 40 67 42 68 39 69 35 70 36 71 37 72 38 73 64 74 65 75 73 76
REMARK SMILES IDX 66 77 72 78 74 79 71 80 67 81 68 82 69 83 70 84 49 85 50 86
REMARK SMILES IDX 58 87 51 88 57 89 59 90 56 91 52 92 53 93 54 94 55 95
REMARK H PARENT 9 12 79 48 47 59
REMARK Flexibility Score: inf
ROOT
ATOM      1  C   UNL A   1      43.891  19.238  25.591  1.00  0.00     0.275 C 
ENDROOT
BRANCH   1   2
ATOM      2  O   UNL A   1      42.913  20.266  25.351  1.00  0.00    -0.458 OA
BRANCH   2   3
ATOM      3  C   UNL A   1      41.683  19.935  25.808  1.00  0.00     0.338 C 
ATOM      4  O   UNL A   1      41.155  18.834  25.743  1.00  0.00    -0.246 OA
BRANCH   3   5
ATOM      5  C   UNL A   1      40.924  21.097  26.309  1.00  0.00     0.062 A 
ATOM      6  C   UNL A   1      38.795  22.261  26.408  1.00  0.00     0.050 A 
ATOM      7  C   UNL A   1      39.475  23.475  26.476  1.00  0.00     0.027 A 
ATOM      8  C   UNL A   1      39.531  21.064  26.434  1.00  0.00     0.042 A 
ATOM      9  C   UNL A   1      40.872  23.504  26.423  1.00  0.00     0.003 A 
ATOM     10  C   UNL A   1      41.594  22.320  26.298  1.00  0.00     0.016 A 
BRANCH   6  11
ATOM     11  N   UNL A   1      37.378  22.161  26.236  1.00  0.00    -0.279 N 
ATOM     12  H   UNL A   1      36.810  22.432  26.993  1.00  0.00     0.180 HD
BRANCH  11  13
ATOM     13  S   UNL A   1      36.607  21.619  24.839  1.00  0.00     0.265 S 
ATOM     14  O   UNL A   1      36.370  20.199  25.004  1.00  0.00    -0.201 OA
ATOM     15  O   UNL A   1      37.426  22.086  23.733  1.00  0.00    -0.201 OA
BRANCH  13  16
ATOM     16  C   UNL A   1      35.000  22.366  24.631  1.00  0.00     0.133 A 
ATOM     17  C   UNL A   1      33.539  23.554  23.070  1.00  0.00     0.123 A 
ATOM     18  C   UNL A   1      34.810  23.098  23.438  1.00  0.00     0.073 A 
ATOM     19  C   UNL A   1      32.429  23.165  23.819  1.00  0.00    -0.005 A 
ATOM     20  C   UNL A   1      32.647  22.546  25.058  1.00  0.00     0.055 A 
ATOM     21  C   UNL A   1      31.008  23.376  23.382  1.00  0.00     0.048 C 
ATOM     22  C   UNL A   1      33.928  22.185  25.500  1.00  0.00     0.139 A 
BRANCH  17  23
ATOM     23  O   UNL A   1      33.465  24.303  21.925  1.00  0.00    -0.496 OA
ATOM     24  C   UNL A   1      33.411  25.712  22.178  1.00  0.00     0.278 C 
ENDBRANCH  17  23
BRANCH  22  25
ATOM     25  O   UNL A   1      34.163  21.703  26.752  1.00  0.00    -0.495 OA
ATOM     26  C   UNL A   1      33.460  22.330  27.822  1.00  0.00     0.278 C 
ENDBRANCH  22  25
ENDBRANCH  13  16
ENDBRANCH  11  13
ENDBRANCH   6  11
ENDBRANCH   3   5
ENDBRANCH   2   3
ENDBRANCH   1   2
BRANCH   1  27
ATOM     27  C   UNL A   1      45.265  19.587  25.004  1.00  0.00     0.275 C 
BRANCH  27  28
ATOM     28  O   UNL A   1      45.975  20.715  25.586  1.00  0.00    -0.458 OA
BRANCH  28  29
ATOM     29  C   UNL A   1      46.064  21.969  25.057  1.00  0.00     0.338 C 
ATOM     30  O   UNL A   1      46.454  22.156  23.910  1.00  0.00    -0.246 OA
BRANCH  29  31
ATOM     31  C   UNL A   1      45.476  23.068  25.848  1.00  0.00     0.060 A 
ATOM     32  C   UNL A   1      45.226  22.866  27.214  1.00  0.00     0.016 A 
ATOM     33  C   UNL A   1      45.315  24.325  25.282  1.00  0.00     0.016 A 
ATOM     34  C   UNL A   1      44.968  23.948  28.041  1.00  0.00     0.010 A 
ATOM     35  C   UNL A   1      45.246  25.414  26.110  1.00  0.00     0.010 A 
ATOM     36  C   UNL A   1      45.039  25.221  27.482  1.00  0.00    -0.014 A 
BRANCH  36  37
ATOM     37  C   UNL A   1      44.559  26.407  28.161  1.00  0.00     0.031 A 
ATOM     38  C   UNL A   1      43.204  26.923  27.927  1.00  0.00     0.074 A 
ATOM     39  C   UNL A   1      45.488  26.908  29.006  1.00  0.00     0.049 A 
ATOM     40  N   UNL A   1      42.910  28.172  27.853  1.00  0.00    -0.248 NA
ATOM     41  C   UNL A   1      42.043  26.060  27.684  1.00  0.00     0.031 C 
ATOM     42  C   UNL A   1      45.433  27.938  30.020  1.00  0.00     0.029 A 
ATOM     43  N   UNL A   1      46.842  26.591  28.953  1.00  0.00    -0.354 N 
ATOM     44  C   UNL A   1      41.541  28.259  28.005  1.00  0.00     0.074 A 
ATOM     45  C   UNL A   1      41.036  26.946  27.691  1.00  0.00     0.031 C 
ATOM     46  C   UNL A   1      46.693  28.364  30.261  1.00  0.00     0.029 A 
ATOM     47  C   UNL A   1      47.584  27.697  29.316  1.00  0.00     0.049 A 
ATOM     48  H   UNL A   1      47.212  25.716  28.698  1.00  0.00     0.167 HD
ATOM     49  C   UNL A   1      41.015  29.340  28.649  1.00  0.00     0.034 A 
ATOM     50  C   UNL A   1      48.329  28.292  28.334  1.00  0.00     0.034 A 
ATOM     51  C   UNL A   1      42.098  30.188  29.132  1.00  0.00     0.049 A 
ATOM     52  C   UNL A   1      47.743  29.643  28.004  1.00  0.00     0.074 A 
ATOM     53  C   UNL A   1      42.726  30.247  30.365  1.00  0.00     0.029 A 
ATOM     54  N   UNL A   1      42.929  30.827  28.228  1.00  0.00    -0.354 N 
ATOM     55  N   UNL A   1      46.471  29.936  28.078  1.00  0.00    -0.248 NA
ATOM     56  C   UNL A   1      48.578  30.792  27.687  1.00  0.00     0.031 C 
ATOM     57  C   UNL A   1      43.977  30.885  30.181  1.00  0.00     0.029 A 
ATOM     58  C   UNL A   1      44.103  31.208  28.841  1.00  0.00     0.049 A 
ATOM     59  H   UNL A   1      42.712  30.987  27.281  1.00  0.00     0.167 HD
ATOM     60  C   UNL A   1      46.317  31.294  27.938  1.00  0.00     0.074 A 
ATOM     61  C   UNL A   1      47.665  31.776  27.679  1.00  0.00     0.031 C 
ATOM     62  C   UNL A   1      45.114  31.929  28.096  1.00  0.00     0.034 A 
BRANCH  49  63
ATOM     63  C   UNL A   1      39.610  29.466  29.183  1.00  0.00     0.023 A 
ATOM     64  C   UNL A   1      39.419  29.486  30.582  1.00  0.00     0.031 A 
ATOM     65  C   UNL A   1      38.446  29.599  28.408  1.00  0.00     0.131 A 
ATOM     66  C   UNL A   1      38.144  29.566  31.161  1.00  0.00     0.055 A 
ATOM     67  C   UNL A   1      37.164  29.667  28.985  1.00  0.00     0.041 A 
ATOM     68  F   UNL A   1      38.505  29.699  27.072  1.00  0.00    -0.206 F 
ATOM     69  C   UNL A   1      37.007  29.644  30.368  1.00  0.00     0.022 A 
BRANCH  66  70
ATOM     70  S   UNL A   1      38.016  29.566  32.972  1.00  0.00     0.124 S 
ATOM     71  O   UNL A   1      37.207  30.756  33.221  1.00  0.00    -0.237 OA
ATOM     72  O   UNL A   1      37.374  28.283  33.240  1.00  0.00    -0.237 OA
ATOM     73  O   UNL A   1      39.407  29.664  33.410  1.00  0.00    -0.744 OA
ENDBRANCH  66  70
ENDBRANCH  49  63
BRANCH  50  74
ATOM     74  C   UNL A   1      48.946  27.327  27.353  1.00  0.00     0.023 A 
ATOM     75  C   UNL A   1      48.407  27.306  26.044  1.00  0.00     0.031 A 
ATOM     76  C   UNL A   1      50.182  26.693  27.536  1.00  0.00     0.131 A 
ATOM     77  C   UNL A   1      49.167  26.858  24.952  1.00  0.00     0.055 A 
ATOM     78  C   UNL A   1      50.896  26.145  26.452  1.00  0.00     0.041 A 
ATOM     79  F   UNL A   1      50.773  26.674  28.739  1.00  0.00    -0.206 F 
ATOM     80  C   UNL A   1      50.411  26.265  25.147  1.00  0.00     0.022 A 
BRANCH  77  81
ATOM     81  S   UNL A   1      48.631  27.367  23.288  1.00  0.00     0.124 S 
ATOM     82  O   UNL A   1      48.406  26.087  22.629  1.00  0.00    -0.237 OA
ATOM     83  O   UNL A   1      47.435  28.158  23.578  1.00  0.00    -0.237 OA
ATOM     84  O   UNL A   1      49.755  28.150  22.785  1.00  0.00    -0.744 OA
ENDBRANCH  77  81
ENDBRANCH  50  74
BRANCH  62  85
ATOM     85  C   UNL A   1      44.796  33.346  27.674  1.00  0.00     0.023 A 
ATOM     86  C   UNL A   1      44.750  34.402  28.581  1.00  0.00     0.031 A 
ATOM     87  C   UNL A   1      44.607  33.705  26.312  1.00  0.00     0.131 A 
ATOM     88  C   UNL A   1      44.401  35.696  28.175  1.00  0.00     0.055 A 
ATOM     89  C   UNL A   1      44.381  35.017  25.893  1.00  0.00     0.041 A 
ATOM     90  F   UNL A   1      44.649  32.806  25.319  1.00  0.00    -0.206 F 
ATOM     91  C   UNL A   1      44.246  36.023  26.832  1.00  0.00     0.022 A 
BRANCH  88  92
ATOM     92  S   UNL A   1      44.048  36.902  29.473  1.00  0.00     0.124 S 
ATOM     93  O   UNL A   1      43.224  36.115  30.388  1.00  0.00    -0.237 OA
ATOM     94  O   UNL A   1      45.383  37.238  29.957  1.00  0.00    -0.237 OA
ATOM     95  O   UNL A   1      43.350  37.971  28.767  1.00  0.00    -0.744 OA
ENDBRANCH  88  92
ENDBRANCH  62  85
ENDBRANCH  36  37
ENDBRANCH  29  31
ENDBRANCH  28  29
ENDBRANCH  27  28
ENDBRANCH   1  27
TORSDOF 19
ENDMDL
MODEL 3
REMARK VINA RESULT:     -11.7      2.429      3.482
REMARK SMILES COc1cc(S(=O)(=O)Nc2cccc(C(=O)OCCOC(=O)c3ccc(-c4c5nc(c(-c6cc(S(=O)(=O)[O-])ccc6F)c6ccc([nH]6)c(-c6cc(S(=O)(=O)[O-])ccc6F)c6nc(c(-c7cc(S(=O)(=O)[O-])ccc7F)c7ccc4[nH]7)C=C6)C=C5)cc3)c2)c(OC)cc1C
REMARK SMILES IDX 18 1 17 2 15 3 16 4 14 5 10 6 11 7 86 8 12 9 13 10 9 11 6 13
REMARK SMILES IDX 7 14 8 15 5 16 3 17 4 18 91 19 90 20 92 21 87 22 2 23 1 24
REMARK SMILES IDX 88 25 89 26 19 27 20 28 21 29 22 30 23 31 24 32 85 33 25 34
REMARK SMILES IDX 84 35 26 36 27 37 28 38 78 39 29 40 83 41 77 42 79 43 30 44
REMARK SMILES IDX 82 45 76 46 75 47 31 49 63 50 43 51 62 52 44 53 47 54 61 55
REMARK SMILES IDX 80 56 45 57 46 58 60 60 81 61 48 62 32 63 33 64 41 65 34 66
REMARK SMILES IDX 40 67 42 68 39 69 35 70 36 71 37 72 38 73 64 74 65 75 73 76
REMARK SMILES IDX 66 77 72 78 74 79 71 80 67 81 68 82 69 83 70 84 49 85 50 86
REMARK SMILES IDX 58 87 51 88 57 89 59 90 56 91 52 92 53 93 54 94 55 95
REMARK H PARENT 9 12 79 48 47 59
REMARK Flexibility Score: inf
ROOT
ATOM      1  C   UNL A   1      33.597  31.405  27.957  1.00  0.00     0.275 C 
ENDROOT
BRANCH   1   2
ATOM      2  O   UNL A   1      33.871  30.959  26.617  1.00  0.00    -0.458 OA
BRANCH   2   3
ATOM      3  C   UNL A   1      32.951  30.078  26.160  1.00  0.00     0.338 C 
ATOM      4  O   UNL A   1      31.739  30.158  26.295  1.00  0.00    -0.246 OA
BRANCH   3   5
ATOM      5  C   UNL A   1      33.558  28.875  25.559  1.00  0.00     0.062 A 
ATOM      6  C   UNL A   1      33.592  27.313  23.699  1.00  0.00     0.050 A 
ATOM      7  C   UNL A   1      33.979  26.299  24.572  1.00  0.00     0.027 A 
ATOM      8  C   UNL A   1      33.489  28.628  24.183  1.00  0.00     0.042 A 
ATOM      9  C   UNL A   1      34.118  26.562  25.939  1.00  0.00     0.003 A 
ATOM     10  C   UNL A   1      33.868  27.838  26.437  1.00  0.00     0.016 A 
BRANCH   6  11
ATOM     11  N   UNL A   1      33.219  27.080  22.337  1.00  0.00    -0.279 N 
ATOM     12  H   UNL A   1      33.461  27.767  21.676  1.00  0.00     0.180 HD
BRANCH  11  13
ATOM     13  S   UNL A   1      32.398  25.717  21.778  1.00  0.00     0.265 S 
ATOM     14  O   UNL A   1      33.396  24.790  21.284  1.00  0.00    -0.201 OA
ATOM     15  O   UNL A   1      31.375  26.219  20.876  1.00  0.00    -0.201 OA
BRANCH  13  16
ATOM     16  C   UNL A   1      31.543  24.867  23.093  1.00  0.00     0.133 A 
ATOM     17  C   UNL A   1      31.475  22.823  24.435  1.00  0.00     0.123 A 
ATOM     18  C   UNL A   1      31.924  23.525  23.310  1.00  0.00     0.073 A 
ATOM     19  C   UNL A   1      30.756  23.499  25.420  1.00  0.00    -0.005 A 
ATOM     20  C   UNL A   1      30.284  24.788  25.133  1.00  0.00     0.055 A 
ATOM     21  C   UNL A   1      30.444  22.925  26.772  1.00  0.00     0.048 C 
ATOM     22  C   UNL A   1      30.628  25.466  23.955  1.00  0.00     0.139 A 
BRANCH  17  23
ATOM     23  O   UNL A   1      31.853  21.510  24.529  1.00  0.00    -0.496 OA
ATOM     24  C   UNL A   1      33.220  21.291  24.162  1.00  0.00     0.278 C 
ENDBRANCH  17  23
BRANCH  22  25
ATOM     25  O   UNL A   1      30.075  26.662  23.608  1.00  0.00    -0.495 OA
ATOM     26  C   UNL A   1      28.666  26.789  23.784  1.00  0.00     0.278 C 
ENDBRANCH  22  25
ENDBRANCH  13  16
ENDBRANCH  11  13
ENDBRANCH   6  11
ENDBRANCH   3   5
ENDBRANCH   2   3
ENDBRANCH   1   2
BRANCH   1  27
ATOM     27  C   UNL A   1      33.626  32.933  28.085  1.00  0.00     0.275 C 
BRANCH  27  28
ATOM     28  O   UNL A   1      34.563  33.509  29.038  1.00  0.00    -0.458 OA
BRANCH  28  29
ATOM     29  C   UNL A   1      35.004  32.923  30.187  1.00  0.00     0.338 C 
ATOM     30  O   UNL A   1      34.268  32.773  31.156  1.00  0.00    -0.246 OA
BRANCH  29  31
ATOM     31  C   UNL A   1      36.337  32.289  30.142  1.00  0.00     0.060 A 
ATOM     32  C   UNL A   1      36.756  31.506  31.228  1.00  0.00     0.016 A 
ATOM     33  C   UNL A   1      37.096  32.347  28.982  1.00  0.00     0.016 A 
ATOM     34  C   UNL A   1      37.847  30.661  31.096  1.00  0.00     0.010 A 
ATOM     35  C   UNL A   1      38.054  31.389  28.777  1.00  0.00     0.010 A 
ATOM     36  C   UNL A   1      38.449  30.573  29.845  1.00  0.00    -0.014 A 
BRANCH  36  37
ATOM     37  C   UNL A   1      39.728  29.928  29.630  1.00  0.00     0.031 A 
ATOM     38  C   UNL A   1      39.812  28.517  29.232  1.00  0.00     0.074 A 
ATOM     39  C   UNL A   1      40.756  30.785  29.818  1.00  0.00     0.049 A 
ATOM     40  N   UNL A   1      40.699  27.695  29.667  1.00  0.00    -0.248 NA
ATOM     41  C   UNL A   1      38.843  27.872  28.338  1.00  0.00     0.031 C 
ATOM     42  C   UNL A   1      42.175  30.682  29.554  1.00  0.00     0.029 A 
ATOM     43  N   UNL A   1      40.651  31.992  30.500  1.00  0.00    -0.354 N 
ATOM     44  C   UNL A   1      40.685  26.615  28.806  1.00  0.00     0.074 A 
ATOM     45  C   UNL A   1      39.407  26.671  28.142  1.00  0.00     0.031 C 
ATOM     46  C   UNL A   1      42.816  31.600  30.311  1.00  0.00     0.029 A 
ATOM     47  C   UNL A   1      41.828  32.240  31.176  1.00  0.00     0.049 A 
ATOM     48  H   UNL A   1      39.861  32.579  30.500  1.00  0.00     0.167 HD
ATOM     49  C   UNL A   1      41.855  25.966  28.543  1.00  0.00     0.034 A 
ATOM     50  C   UNL A   1      41.781  32.185  32.543  1.00  0.00     0.034 A 
ATOM     51  C   UNL A   1      42.949  26.649  29.221  1.00  0.00     0.049 A 
ATOM     52  C   UNL A   1      42.553  30.983  33.028  1.00  0.00     0.074 A 
ATOM     53  C   UNL A   1      43.836  27.614  28.772  1.00  0.00     0.029 A 
ATOM     54  N   UNL A   1      42.995  26.675  30.604  1.00  0.00    -0.354 N 
ATOM     55  N   UNL A   1      42.663  29.860  32.369  1.00  0.00    -0.248 NA
ATOM     56  C   UNL A   1      43.356  31.017  34.241  1.00  0.00     0.031 C 
ATOM     57  C   UNL A   1      44.378  28.263  29.908  1.00  0.00     0.029 A 
ATOM     58  C   UNL A   1      43.819  27.692  31.038  1.00  0.00     0.049 A 
ATOM     59  H   UNL A   1      42.508  26.056  31.194  1.00  0.00     0.167 HD
ATOM     60  C   UNL A   1      43.612  29.075  32.979  1.00  0.00     0.074 A 
ATOM     61  C   UNL A   1      44.000  29.842  34.153  1.00  0.00     0.031 C 
ATOM     62  C   UNL A   1      44.049  27.888  32.455  1.00  0.00     0.034 A 
BRANCH  49  63
ATOM     63  C   UNL A   1      42.102  24.992  27.418  1.00  0.00     0.023 A 
ATOM     64  C   UNL A   1      41.487  23.722  27.478  1.00  0.00     0.031 A 
ATOM     65  C   UNL A   1      42.879  25.238  26.274  1.00  0.00     0.131 A 
ATOM     66  C   UNL A   1      41.691  22.745  26.492  1.00  0.00     0.055 A 
ATOM     67  C   UNL A   1      43.096  24.258  25.289  1.00  0.00     0.041 A 
ATOM     68  F   UNL A   1      43.429  26.441  26.051  1.00  0.00    -0.206 F 
ATOM     69  C   UNL A   1      42.507  23.001  25.397  1.00  0.00     0.022 A 
BRANCH  66  70
ATOM     70  S   UNL A   1      40.863  21.141  26.679  1.00  0.00     0.124 S 
ATOM     71  O   UNL A   1      40.777  21.008  28.130  1.00  0.00    -0.237 OA
ATOM     72  O   UNL A   1      39.603  21.356  25.975  1.00  0.00    -0.237 OA
ATOM     73  O   UNL A   1      41.782  20.208  26.029  1.00  0.00    -0.744 OA
ENDBRANCH  66  70
ENDBRANCH  49  63
BRANCH  50  74
ATOM     74  C   UNL A   1      40.505  32.724  33.141  1.00  0.00     0.023 A 
ATOM     75  C   UNL A   1      39.850  31.913  34.099  1.00  0.00     0.031 A 
ATOM     76  C   UNL A   1      40.096  34.062  33.062  1.00  0.00     0.131 A 
ATOM     77  C   UNL A   1      38.987  32.470  35.055  1.00  0.00     0.055 A 
ATOM     78  C   UNL A   1      39.146  34.595  33.955  1.00  0.00     0.041 A 
ATOM     79  F   UNL A   1      40.669  34.905  32.193  1.00  0.00    -0.206 F 
ATOM     80  C   UNL A   1      38.620  33.811  34.986  1.00  0.00     0.022 A 
BRANCH  77  81
ATOM     81  S   UNL A   1      38.636  31.487  36.547  1.00  0.00     0.124 S 
ATOM     82  O   UNL A   1      37.254  31.848  36.838  1.00  0.00    -0.237 OA
ATOM     83  O   UNL A   1      38.855  30.120  36.074  1.00  0.00    -0.237 OA
ATOM     84  O   UNL A   1      39.628  31.950  37.511  1.00  0.00    -0.744 OA
ENDBRANCH  77  81
ENDBRANCH  50  74
BRANCH  62  85
ATOM     85  C   UNL A   1      44.849  26.835  33.188  1.00  0.00     0.023 A 
ATOM     86  C   UNL A   1      44.246  25.806  33.907  1.00  0.00     0.031 A 
ATOM     87  C   UNL A   1      46.267  26.781  33.120  1.00  0.00     0.131 A 
ATOM     88  C   UNL A   1      45.008  24.873  34.622  1.00  0.00     0.055 A 
ATOM     89  C   UNL A   1      47.022  25.778  33.732  1.00  0.00     0.041 A 
ATOM     90  F   UNL A   1      46.991  27.684  32.446  1.00  0.00    -0.206 F 
ATOM     91  C   UNL A   1      46.393  24.828  34.517  1.00  0.00     0.022 A 
BRANCH  88  92
ATOM     92  S   UNL A   1      44.126  23.799  35.776  1.00  0.00     0.124 S 
ATOM     93  O   UNL A   1      42.905  23.505  35.030  1.00  0.00    -0.237 OA
ATOM     94  O   UNL A   1      45.053  22.683  35.934  1.00  0.00    -0.237 OA
ATOM     95  O   UNL A   1      43.949  24.639  36.957  1.00  0.00    -0.744 OA
ENDBRANCH  88  92
ENDBRANCH  62  85
ENDBRANCH  36  37
ENDBRANCH  29  31
ENDBRANCH  28  29
ENDBRANCH  27  28
ENDBRANCH   1  27
TORSDOF 19
ENDMDL
