MODEL 1
REMARK VINA RESULT:     -13.2      0.000      0.000
REMARK SMILES COc1cc2ccccc2cc1C(=O)Nc1cc(C(=O)OCCOC(=O)c2ccc(-c3c4nc(c(-c5cc(S(=O)(=O)[O-])ccc5F)c5ccc([nH]5)c(-c5cc(S(=O)(=O)[O-])ccc5F)c5nc(c(-c6cc(S(=O)(=O)[O-])ccc6F)c6ccc3[nH]6)C=C5)C=C4)cc2)ccc1C
REMARK SMILES IDX 22 1 21 2 19 3 20 4 18 5 16 6 17 7 92 8 91 9 93 10 90 11
REMARK SMILES IDX 15 12 13 13 14 14 12 16 3 17 4 18 5 19 11 20 6 21 10 22 7 23
REMARK SMILES IDX 9 24 8 25 2 26 1 27 23 28 24 29 25 30 26 31 27 32 28 33
REMARK SMILES IDX 89 34 29 35 88 36 30 37 31 38 32 39 82 40 33 41 87 42 81 43
REMARK SMILES IDX 83 44 34 45 86 46 80 47 79 48 35 50 67 51 47 52 66 53 48 54
REMARK SMILES IDX 51 55 65 56 84 57 49 58 50 59 64 61 85 62 52 63 36 64 37 65
REMARK SMILES IDX 45 66 38 67 44 68 46 69 43 70 39 71 40 72 41 73 42 74 68 75
REMARK SMILES IDX 69 76 77 77 70 78 76 79 78 80 75 81 71 82 72 83 73 84 74 85
REMARK SMILES IDX 53 86 54 87 62 88 55 89 61 90 63 91 60 92 56 93 57 94 58 95
REMARK SMILES IDX 59 96
REMARK H PARENT 15 15 83 49 51 60
REMARK Flexibility Score: inf
ROOT
ATOM      1  C   UNL A   1      35.638  20.760  25.806  1.00  0.00     0.275 C 
ENDROOT
BRANCH   1   2
ATOM      2  O   UNL A   1      34.210  20.938  25.797  1.00  0.00    -0.458 OA
BRANCH   2   3
ATOM      3  C   UNL A   1      33.830  21.932  26.629  1.00  0.00     0.338 C 
ATOM      4  O   UNL A   1      34.168  22.040  27.797  1.00  0.00    -0.246 OA
BRANCH   3   5
ATOM      5  C   UNL A   1      32.839  22.865  26.084  1.00  0.00     0.062 A 
ATOM      6  C   UNL A   1      32.581  24.398  24.228  1.00  0.00     0.045 A 
ATOM      7  C   UNL A   1      33.372  23.826  25.222  1.00  0.00     0.042 A 
ATOM      8  C   UNL A   1      31.191  24.162  24.223  1.00  0.00    -0.027 A 
ATOM      9  C   UNL A   1      30.655  23.245  25.155  1.00  0.00     0.006 A 
ATOM     10  C   UNL A   1      30.278  24.644  23.126  1.00  0.00     0.046 C 
ATOM     11  C   UNL A   1      31.477  22.573  26.065  1.00  0.00     0.016 A 
BRANCH   6  12
ATOM     12  N   UNL A   1      33.191  25.101  23.169  1.00  0.00    -0.322 N 
ATOM     13  C   UNL A   1      33.278  26.466  22.925  1.00  0.00     0.259 C 
ATOM     14  O   UNL A   1      33.648  26.828  21.804  1.00  0.00    -0.269 OA
ATOM     15  H   UNL A   1      33.627  24.533  22.494  1.00  0.00     0.170 HD
BRANCH  13  16
ATOM     16  C   UNL A   1      33.017  27.516  23.960  1.00  0.00     0.082 A 
ATOM     17  C   UNL A   1      31.835  28.247  24.060  1.00  0.00     0.132 A 
ATOM     18  C   UNL A   1      31.810  29.390  24.855  1.00  0.00     0.056 A 
ATOM     19  C   UNL A   1      32.838  29.700  25.745  1.00  0.00    -0.015 A 
ATOM     20  C   UNL A   1      34.029  27.768  24.915  1.00  0.00     0.026 A 
ATOM     21  C   UNL A   1      32.759  30.833  26.569  1.00  0.00     0.009 A 
ATOM     22  C   UNL A   1      33.922  28.820  25.858  1.00  0.00    -0.017 A 
ATOM     23  C   UNL A   1      33.644  31.008  27.626  1.00  0.00     0.001 A 
ATOM     24  C   UNL A   1      34.836  29.031  26.910  1.00  0.00     0.009 A 
ATOM     25  C   UNL A   1      34.671  30.092  27.811  1.00  0.00     0.001 A 
BRANCH  17  26
ATOM     26  O   UNL A   1      30.683  28.010  23.360  1.00  0.00    -0.496 OA
ATOM     27  C   UNL A   1      30.371  29.062  22.452  1.00  0.00     0.278 C 
ENDBRANCH  17  26
ENDBRANCH  13  16
ENDBRANCH   6  12
ENDBRANCH   3   5
ENDBRANCH   2   3
ENDBRANCH   1   2
BRANCH   1  28
ATOM     28  C   UNL A   1      36.316  21.344  24.567  1.00  0.00     0.275 C 
BRANCH  28  29
ATOM     29  O   UNL A   1      37.687  21.807  24.638  1.00  0.00    -0.458 OA
BRANCH  29  30
ATOM     30  C   UNL A   1      38.621  21.188  25.403  1.00  0.00     0.338 C 
ATOM     31  O   UNL A   1      38.707  19.969  25.496  1.00  0.00    -0.246 OA
BRANCH  30  32
ATOM     32  C   UNL A   1      39.574  22.124  26.059  1.00  0.00     0.060 A 
ATOM     33  C   UNL A   1      40.933  21.778  26.180  1.00  0.00     0.016 A 
ATOM     34  C   UNL A   1      39.154  23.400  26.424  1.00  0.00     0.016 A 
ATOM     35  C   UNL A   1      41.870  22.715  26.641  1.00  0.00     0.010 A 
ATOM     36  C   UNL A   1      40.090  24.358  26.747  1.00  0.00     0.010 A 
ATOM     37  C   UNL A   1      41.442  24.015  26.919  1.00  0.00    -0.014 A 
BRANCH  37  38
ATOM     38  C   UNL A   1      42.183  25.022  27.690  1.00  0.00     0.031 A 
ATOM     39  C   UNL A   1      41.695  26.383  27.986  1.00  0.00     0.074 A 
ATOM     40  C   UNL A   1      43.290  24.505  28.258  1.00  0.00     0.049 A 
ATOM     41  N   UNL A   1      41.487  26.865  29.172  1.00  0.00    -0.248 NA
ATOM     42  C   UNL A   1      41.368  27.305  26.892  1.00  0.00     0.031 C 
ATOM     43  C   UNL A   1      44.163  25.033  29.279  1.00  0.00     0.029 A 
ATOM     44  N   UNL A   1      43.990  23.423  27.727  1.00  0.00    -0.354 N 
ATOM     45  C   UNL A   1      41.056  28.183  29.020  1.00  0.00     0.074 A 
ATOM     46  C   UNL A   1      40.922  28.366  27.572  1.00  0.00     0.031 C 
ATOM     47  C   UNL A   1      45.388  24.502  29.093  1.00  0.00     0.029 A 
ATOM     48  C   UNL A   1      45.343  23.717  27.858  1.00  0.00     0.049 A 
ATOM     49  H   UNL A   1      43.602  22.608  27.335  1.00  0.00     0.167 HD
ATOM     50  C   UNL A   1      41.676  29.188  29.703  1.00  0.00     0.034 A 
ATOM     51  C   UNL A   1      46.015  24.012  26.702  1.00  0.00     0.034 A 
ATOM     52  C   UNL A   1      43.092  28.967  29.817  1.00  0.00     0.049 A 
ATOM     53  C   UNL A   1      46.409  25.469  26.672  1.00  0.00     0.074 A 
ATOM     54  C   UNL A   1      43.902  28.367  30.759  1.00  0.00     0.029 A 
ATOM     55  N   UNL A   1      43.859  29.172  28.688  1.00  0.00    -0.354 N 
ATOM     56  N   UNL A   1      45.734  26.433  27.242  1.00  0.00    -0.248 NA
ATOM     57  C   UNL A   1      47.654  25.922  26.068  1.00  0.00     0.031 C 
ATOM     58  C   UNL A   1      45.159  28.130  30.143  1.00  0.00     0.029 A 
ATOM     59  C   UNL A   1      45.107  28.619  28.847  1.00  0.00     0.049 A 
ATOM     60  H   UNL A   1      43.555  29.648  27.881  1.00  0.00     0.167 HD
ATOM     61  C   UNL A   1      46.475  27.587  27.183  1.00  0.00     0.074 A 
ATOM     62  C   UNL A   1      47.656  27.217  26.420  1.00  0.00     0.031 C 
ATOM     63  C   UNL A   1      46.091  28.748  27.793  1.00  0.00     0.034 A 
BRANCH  50  64
ATOM     64  C   UNL A   1      40.823  29.996  30.636  1.00  0.00     0.023 A 
ATOM     65  C   UNL A   1      39.561  29.526  31.042  1.00  0.00     0.031 A 
ATOM     66  C   UNL A   1      41.221  31.253  31.135  1.00  0.00     0.131 A 
ATOM     67  C   UNL A   1      38.722  30.313  31.850  1.00  0.00     0.055 A 
ATOM     68  C   UNL A   1      40.385  32.037  31.941  1.00  0.00     0.041 A 
ATOM     69  F   UNL A   1      42.441  31.747  30.869  1.00  0.00    -0.206 F 
ATOM     70  C   UNL A   1      39.123  31.574  32.292  1.00  0.00     0.022 A 
BRANCH  67  71
ATOM     71  S   UNL A   1      37.080  29.676  32.289  1.00  0.00     0.124 S 
ATOM     72  O   UNL A   1      36.552  29.253  30.996  1.00  0.00    -0.237 OA
ATOM     73  O   UNL A   1      37.403  28.610  33.232  1.00  0.00    -0.237 OA
ATOM     74  O   UNL A   1      36.410  30.835  32.877  1.00  0.00    -0.744 OA
ENDBRANCH  67  71
ENDBRANCH  50  64
BRANCH  51  75
ATOM     75  C   UNL A   1      45.584  23.196  25.512  1.00  0.00     0.023 A 
ATOM     76  C   UNL A   1      46.022  21.850  25.455  1.00  0.00     0.031 A 
ATOM     77  C   UNL A   1      44.564  23.569  24.626  1.00  0.00     0.131 A 
ATOM     78  C   UNL A   1      45.351  20.902  24.669  1.00  0.00     0.055 A 
ATOM     79  C   UNL A   1      43.949  22.633  23.776  1.00  0.00     0.041 A 
ATOM     80  F   UNL A   1      44.077  24.818  24.626  1.00  0.00    -0.206 F 
ATOM     81  C   UNL A   1      44.314  21.284  23.821  1.00  0.00     0.022 A 
BRANCH  78  82
ATOM     82  S   UNL A   1      45.674  19.140  24.987  1.00  0.00     0.124 S 
ATOM     83  O   UNL A   1      45.774  18.600  23.634  1.00  0.00    -0.237 OA
ATOM     84  O   UNL A   1      46.919  19.177  25.751  1.00  0.00    -0.237 OA
ATOM     85  O   UNL A   1      44.505  18.714  25.751  1.00  0.00    -0.744 OA
ENDBRANCH  78  82
ENDBRANCH  51  75
BRANCH  63  86
ATOM     86  C   UNL A   1      46.671  30.113  27.508  1.00  0.00     0.023 A 
ATOM     87  C   UNL A   1      45.892  31.162  27.013  1.00  0.00     0.031 A 
ATOM     88  C   UNL A   1      48.011  30.444  27.829  1.00  0.00     0.131 A 
ATOM     89  C   UNL A   1      46.452  32.416  26.736  1.00  0.00     0.055 A 
ATOM     90  C   UNL A   1      48.539  31.727  27.657  1.00  0.00     0.041 A 
ATOM     91  F   UNL A   1      48.862  29.544  28.343  1.00  0.00    -0.206 F 
ATOM     92  C   UNL A   1      47.763  32.720  27.081  1.00  0.00     0.022 A 
BRANCH  89  93
ATOM     93  S   UNL A   1      45.433  33.588  25.810  1.00  0.00     0.124 S 
ATOM     94  O   UNL A   1      44.611  32.692  25.002  1.00  0.00    -0.237 OA
ATOM     95  O   UNL A   1      44.733  34.299  26.875  1.00  0.00    -0.237 OA
ATOM     96  O   UNL A   1      46.409  34.378  25.065  1.00  0.00    -0.744 OA
ENDBRANCH  89  93
ENDBRANCH  63  86
ENDBRANCH  37  38
ENDBRANCH  30  32
ENDBRANCH  29  30
ENDBRANCH  28  29
ENDBRANCH   1  28
TORSDOF 17
ENDMDL
MODEL 2
REMARK VINA RESULT:     -12.7      1.717      2.578
REMARK SMILES COc1cc2ccccc2cc1C(=O)Nc1cc(C(=O)OCCOC(=O)c2ccc(-c3c4nc(c(-c5cc(S(=O)(=O)[O-])ccc5F)c5ccc([nH]5)c(-c5cc(S(=O)(=O)[O-])ccc5F)c5nc(c(-c6cc(S(=O)(=O)[O-])ccc6F)c6ccc3[nH]6)C=C5)C=C4)cc2)ccc1C
REMARK SMILES IDX 22 1 21 2 19 3 20 4 18 5 16 6 17 7 92 8 91 9 93 10 90 11
REMARK SMILES IDX 15 12 13 13 14 14 12 16 3 17 4 18 5 19 11 20 6 21 10 22 7 23
REMARK SMILES IDX 9 24 8 25 2 26 1 27 23 28 24 29 25 30 26 31 27 32 28 33
REMARK SMILES IDX 89 34 29 35 88 36 30 37 31 38 32 39 82 40 33 41 87 42 81 43
REMARK SMILES IDX 83 44 34 45 86 46 80 47 79 48 35 50 67 51 47 52 66 53 48 54
REMARK SMILES IDX 51 55 65 56 84 57 49 58 50 59 64 61 85 62 52 63 36 64 37 65
REMARK SMILES IDX 45 66 38 67 44 68 46 69 43 70 39 71 40 72 41 73 42 74 68 75
REMARK SMILES IDX 69 76 77 77 70 78 76 79 78 80 75 81 71 82 72 83 73 84 74 85
REMARK SMILES IDX 53 86 54 87 62 88 55 89 61 90 63 91 60 92 56 93 57 94 58 95
REMARK SMILES IDX 59 96
REMARK H PARENT 15 15 83 49 51 60
REMARK Flexibility Score: inf
ROOT
ATOM      1  C   UNL A   1      35.447  21.633  25.567  1.00  0.00     0.275 C 
ENDROOT
BRANCH   1   2
ATOM      2  O   UNL A   1      34.163  21.072  25.894  1.00  0.00    -0.458 OA
BRANCH   2   3
ATOM      3  C   UNL A   1      33.411  20.878  24.789  1.00  0.00     0.338 C 
ATOM      4  O   UNL A   1      33.126  19.791  24.313  1.00  0.00    -0.246 OA
BRANCH   3   5
ATOM      5  C   UNL A   1      33.026  22.096  24.068  1.00  0.00     0.062 A 
ATOM      6  C   UNL A   1      33.352  24.491  24.196  1.00  0.00     0.045 A 
ATOM      7  C   UNL A   1      33.134  23.266  24.823  1.00  0.00     0.042 A 
ATOM      8  C   UNL A   1      33.256  24.582  22.792  1.00  0.00    -0.027 A 
ATOM      9  C   UNL A   1      33.067  23.397  22.047  1.00  0.00     0.006 A 
ATOM     10  C   UNL A   1      33.585  25.835  22.023  1.00  0.00     0.046 C 
ATOM     11  C   UNL A   1      32.982  22.151  22.677  1.00  0.00     0.016 A 
BRANCH   6  12
ATOM     12  N   UNL A   1      33.787  25.596  24.956  1.00  0.00    -0.322 N 
ATOM     13  C   UNL A   1      33.197  26.837  25.164  1.00  0.00     0.259 C 
ATOM     14  O   UNL A   1      33.888  27.726  25.668  1.00  0.00    -0.269 OA
ATOM     15  H   UNL A   1      34.649  25.467  25.415  1.00  0.00     0.170 HD
BRANCH  13  16
ATOM     16  C   UNL A   1      31.757  27.132  24.878  1.00  0.00     0.082 A 
ATOM     17  C   UNL A   1      30.685  26.457  25.457  1.00  0.00     0.132 A 
ATOM     18  C   UNL A   1      29.414  26.601  24.904  1.00  0.00     0.056 A 
ATOM     19  C   UNL A   1      29.124  27.578  23.952  1.00  0.00    -0.015 A 
ATOM     20  C   UNL A   1      31.464  28.181  23.975  1.00  0.00     0.026 A 
ATOM     21  C   UNL A   1      27.822  27.730  23.452  1.00  0.00     0.009 A 
ATOM     22  C   UNL A   1      30.140  28.456  23.554  1.00  0.00    -0.017 A 
ATOM     23  C   UNL A   1      27.472  28.850  22.706  1.00  0.00     0.001 A 
ATOM     24  C   UNL A   1      29.780  29.566  22.762  1.00  0.00     0.009 A 
ATOM     25  C   UNL A   1      28.449  29.781  22.380  1.00  0.00     0.001 A 
BRANCH  17  26
ATOM     26  O   UNL A   1      30.763  25.559  26.486  1.00  0.00    -0.496 OA
ATOM     27  C   UNL A   1      30.169  24.306  26.163  1.00  0.00     0.278 C 
ENDBRANCH  17  26
ENDBRANCH  13  16
ENDBRANCH   6  12
ENDBRANCH   3   5
ENDBRANCH   2   3
ENDBRANCH   1   2
BRANCH   1  28
ATOM     28  C   UNL A   1      36.441  20.588  25.063  1.00  0.00     0.275 C 
BRANCH  28  29
ATOM     29  O   UNL A   1      37.786  20.980  24.697  1.00  0.00    -0.458 OA
BRANCH  29  30
ATOM     30  C   UNL A   1      38.882  20.466  25.309  1.00  0.00     0.338 C 
ATOM     31  O   UNL A   1      39.186  19.281  25.248  1.00  0.00    -0.246 OA
BRANCH  30  32
ATOM     32  C   UNL A   1      39.717  21.486  26.001  1.00  0.00     0.060 A 
ATOM     33  C   UNL A   1      41.120  21.374  25.993  1.00  0.00     0.016 A 
ATOM     34  C   UNL A   1      39.122  22.627  26.530  1.00  0.00     0.016 A 
ATOM     35  C   UNL A   1      41.922  22.411  26.492  1.00  0.00     0.010 A 
ATOM     36  C   UNL A   1      39.908  23.699  26.894  1.00  0.00     0.010 A 
ATOM     37  C   UNL A   1      41.307  23.583  26.938  1.00  0.00    -0.014 A 
BRANCH  37  38
ATOM     38  C   UNL A   1      41.932  24.624  27.765  1.00  0.00     0.031 A 
ATOM     39  C   UNL A   1      41.314  25.924  28.088  1.00  0.00     0.074 A 
ATOM     40  C   UNL A   1      43.063  24.188  28.351  1.00  0.00     0.049 A 
ATOM     41  N   UNL A   1      41.028  26.345  29.282  1.00  0.00    -0.248 NA
ATOM     42  C   UNL A   1      40.937  26.852  27.015  1.00  0.00     0.031 C 
ATOM     43  C   UNL A   1      43.855  24.757  29.417  1.00  0.00     0.029 A 
ATOM     44  N   UNL A   1      43.874  23.193  27.809  1.00  0.00    -0.354 N 
ATOM     45  C   UNL A   1      40.485  27.623  29.158  1.00  0.00     0.074 A 
ATOM     46  C   UNL A   1      40.377  27.844  27.713  1.00  0.00     0.031 C 
ATOM     47  C   UNL A   1      45.128  24.343  29.253  1.00  0.00     0.029 A 
ATOM     48  C   UNL A   1      45.190  23.602  27.993  1.00  0.00     0.049 A 
ATOM     49  H   UNL A   1      43.572  22.361  27.379  1.00  0.00     0.167 HD
ATOM     50  C   UNL A   1      40.991  28.655  29.893  1.00  0.00     0.034 A 
ATOM     51  C   UNL A   1      45.866  23.996  26.870  1.00  0.00     0.034 A 
ATOM     52  C   UNL A   1      42.417  28.557  30.046  1.00  0.00     0.049 A 
ATOM     53  C   UNL A   1      46.128  25.482  26.899  1.00  0.00     0.074 A 
ATOM     54  C   UNL A   1      43.250  28.000  30.994  1.00  0.00     0.029 A 
ATOM     55  N   UNL A   1      43.196  28.870  28.950  1.00  0.00    -0.354 N 
ATOM     56  N   UNL A   1      45.352  26.362  27.477  1.00  0.00    -0.248 NA
ATOM     57  C   UNL A   1      47.344  26.066  26.350  1.00  0.00     0.031 C 
ATOM     58  C   UNL A   1      44.541  27.898  30.411  1.00  0.00     0.029 A 
ATOM     59  C   UNL A   1      44.483  28.425  29.131  1.00  0.00     0.049 A 
ATOM     60  H   UNL A   1      42.874  29.345  28.149  1.00  0.00     0.167 HD
ATOM     61  C   UNL A   1      45.987  27.578  27.480  1.00  0.00     0.074 A 
ATOM     62  C   UNL A   1      47.218  27.342  26.744  1.00  0.00     0.031 C 
ATOM     63  C   UNL A   1      45.482  28.679  28.114  1.00  0.00     0.034 A 
BRANCH  50  64
ATOM     64  C   UNL A   1      40.042  29.351  30.823  1.00  0.00     0.023 A 
ATOM     65  C   UNL A   1      39.467  30.586  30.469  1.00  0.00     0.031 A 
ATOM     66  C   UNL A   1      39.692  28.829  32.085  1.00  0.00     0.131 A 
ATOM     67  C   UNL A   1      38.641  31.282  31.368  1.00  0.00     0.055 A 
ATOM     68  C   UNL A   1      38.869  29.524  32.981  1.00  0.00     0.041 A 
ATOM     69  F   UNL A   1      40.126  27.620  32.476  1.00  0.00    -0.206 F 
ATOM     70  C   UNL A   1      38.348  30.764  32.630  1.00  0.00     0.022 A 
BRANCH  67  71
ATOM     71  S   UNL A   1      37.979  32.900  30.875  1.00  0.00     0.124 S 
ATOM     72  O   UNL A   1      36.834  33.055  31.767  1.00  0.00    -0.237 OA
ATOM     73  O   UNL A   1      39.112  33.786  31.121  1.00  0.00    -0.237 OA
ATOM     74  O   UNL A   1      37.639  32.713  29.465  1.00  0.00    -0.744 OA
ENDBRANCH  67  71
ENDBRANCH  50  64
BRANCH  51  75
ATOM     75  C   UNL A   1      45.546  23.186  25.641  1.00  0.00     0.023 A 
ATOM     76  C   UNL A   1      46.001  21.845  25.610  1.00  0.00     0.031 A 
ATOM     77  C   UNL A   1      44.601  23.557  24.675  1.00  0.00     0.131 A 
ATOM     78  C   UNL A   1      45.409  20.898  24.762  1.00  0.00     0.055 A 
ATOM     79  C   UNL A   1      44.070  22.623  23.767  1.00  0.00     0.041 A 
ATOM     80  F   UNL A   1      44.103  24.802  24.644  1.00  0.00    -0.206 F 
ATOM     81  C   UNL A   1      44.444  21.278  23.833  1.00  0.00     0.022 A 
BRANCH  78  82
ATOM     82  S   UNL A   1      45.722  19.136  25.092  1.00  0.00     0.124 S 
ATOM     83  O   UNL A   1      47.067  19.167  25.657  1.00  0.00    -0.237 OA
ATOM     84  O   UNL A   1      44.648  18.790  26.021  1.00  0.00    -0.237 OA
ATOM     85  O   UNL A   1      45.606  18.519  23.773  1.00  0.00    -0.744 OA
ENDBRANCH  78  82
ENDBRANCH  51  75
BRANCH  63  86
ATOM     86  C   UNL A   1      45.944  30.099  27.892  1.00  0.00     0.023 A 
ATOM     87  C   UNL A   1      45.152  31.044  27.235  1.00  0.00     0.031 A 
ATOM     88  C   UNL A   1      47.159  30.589  28.433  1.00  0.00     0.131 A 
ATOM     89  C   UNL A   1      45.606  32.351  27.020  1.00  0.00     0.055 A 
ATOM     90  C   UNL A   1      47.560  31.923  28.316  1.00  0.00     0.041 A 
ATOM     91  F   UNL A   1      48.002  29.801  29.118  1.00  0.00    -0.206 F 
ATOM     92  C   UNL A   1      46.791  32.812  27.580  1.00  0.00     0.022 A 
BRANCH  89  93
ATOM     93  S   UNL A   1      44.642  33.385  25.892  1.00  0.00     0.124 S 
ATOM     94  O   UNL A   1      43.854  32.386  25.176  1.00  0.00    -0.237 OA
ATOM     95  O   UNL A   1      43.896  34.236  26.814  1.00  0.00    -0.237 OA
ATOM     96  O   UNL A   1      45.659  34.065  25.096  1.00  0.00    -0.744 OA
ENDBRANCH  89  93
ENDBRANCH  63  86
ENDBRANCH  37  38
ENDBRANCH  30  32
ENDBRANCH  29  30
ENDBRANCH  28  29
ENDBRANCH   1  28
TORSDOF 17
ENDMDL
MODEL 3
REMARK VINA RESULT:     -12.7      3.338      9.268
REMARK SMILES COc1cc2ccccc2cc1C(=O)Nc1cc(C(=O)OCCOC(=O)c2ccc(-c3c4nc(c(-c5cc(S(=O)(=O)[O-])ccc5F)c5ccc([nH]5)c(-c5cc(S(=O)(=O)[O-])ccc5F)c5nc(c(-c6cc(S(=O)(=O)[O-])ccc6F)c6ccc3[nH]6)C=C5)C=C4)cc2)ccc1C
REMARK SMILES IDX 22 1 21 2 19 3 20 4 18 5 16 6 17 7 92 8 91 9 93 10 90 11
REMARK SMILES IDX 15 12 13 13 14 14 12 16 3 17 4 18 5 19 11 20 6 21 10 22 7 23
REMARK SMILES IDX 9 24 8 25 2 26 1 27 23 28 24 29 25 30 26 31 27 32 28 33
REMARK SMILES IDX 89 34 29 35 88 36 30 37 31 38 32 39 82 40 33 41 87 42 81 43
REMARK SMILES IDX 83 44 34 45 86 46 80 47 79 48 35 50 67 51 47 52 66 53 48 54
REMARK SMILES IDX 51 55 65 56 84 57 49 58 50 59 64 61 85 62 52 63 36 64 37 65
REMARK SMILES IDX 45 66 38 67 44 68 46 69 43 70 39 71 40 72 41 73 42 74 68 75
REMARK SMILES IDX 69 76 77 77 70 78 76 79 78 80 75 81 71 82 72 83 73 84 74 85
REMARK SMILES IDX 53 86 54 87 62 88 55 89 61 90 63 91 60 92 56 93 57 94 58 95
REMARK SMILES IDX 59 96
REMARK H PARENT 15 15 83 49 51 60
REMARK Flexibility Score: inf
ROOT
ATOM      1  C   UNL A   1      34.064  29.268  27.870  1.00  0.00     0.275 C 
ENDROOT
BRANCH   1   2
ATOM      2  O   UNL A   1      34.618  28.676  26.681  1.00  0.00    -0.458 OA
BRANCH   2   3
ATOM      3  C   UNL A   1      33.728  27.861  26.073  1.00  0.00     0.338 C 
ATOM      4  O   UNL A   1      33.605  26.667  26.291  1.00  0.00    -0.246 OA
BRANCH   3   5
ATOM      5  C   UNL A   1      32.952  28.473  24.989  1.00  0.00     0.062 A 
ATOM      6  C   UNL A   1      32.229  27.972  22.734  1.00  0.00     0.045 A 
ATOM      7  C   UNL A   1      33.204  27.929  23.728  1.00  0.00     0.042 A 
ATOM      8  C   UNL A   1      31.066  28.745  22.933  1.00  0.00    -0.027 A 
ATOM      9  C   UNL A   1      30.864  29.355  24.191  1.00  0.00     0.006 A 
ATOM     10  C   UNL A   1      29.912  28.760  21.966  1.00  0.00     0.046 C 
ATOM     11  C   UNL A   1      31.787  29.197  25.230  1.00  0.00     0.016 A 
BRANCH   6  12
ATOM     12  N   UNL A   1      32.353  27.147  21.598  1.00  0.00    -0.322 N 
ATOM     13  C   UNL A   1      32.739  25.816  21.488  1.00  0.00     0.259 C 
ATOM     14  O   UNL A   1      33.008  25.386  20.363  1.00  0.00    -0.269 OA
ATOM     15  H   UNL A   1      32.131  27.583  20.745  1.00  0.00     0.170 HD
BRANCH  13  16
ATOM     16  C   UNL A   1      32.776  24.862  22.642  1.00  0.00     0.082 A 
ATOM     17  C   UNL A   1      31.718  24.650  23.523  1.00  0.00     0.132 A 
ATOM     18  C   UNL A   1      31.956  23.980  24.720  1.00  0.00     0.056 A 
ATOM     19  C   UNL A   1      33.147  23.298  24.967  1.00  0.00    -0.015 A 
ATOM     20  C   UNL A   1      33.956  24.109  22.839  1.00  0.00     0.026 A 
ATOM     21  C   UNL A   1      33.336  22.589  26.163  1.00  0.00     0.009 A 
ATOM     22  C   UNL A   1      34.128  23.271  23.968  1.00  0.00    -0.017 A 
ATOM     23  C   UNL A   1      34.401  21.708  26.308  1.00  0.00     0.001 A 
ATOM     24  C   UNL A   1      35.225  22.402  24.144  1.00  0.00     0.009 A 
ATOM     25  C   UNL A   1      35.335  21.597  25.286  1.00  0.00     0.001 A 
BRANCH  17  26
ATOM     26  O   UNL A   1      30.445  25.132  23.380  1.00  0.00    -0.496 OA
ATOM     27  C   UNL A   1      29.955  25.741  24.570  1.00  0.00     0.278 C 
ENDBRANCH  17  26
ENDBRANCH  13  16
ENDBRANCH   6  12
ENDBRANCH   3   5
ENDBRANCH   2   3
ENDBRANCH   1   2
BRANCH   1  28
ATOM     28  C   UNL A   1      33.832  30.772  27.731  1.00  0.00     0.275 C 
BRANCH  28  29
ATOM     29  O   UNL A   1      34.533  31.700  28.595  1.00  0.00    -0.458 OA
BRANCH  29  30
ATOM     30  C   UNL A   1      35.592  32.429  28.166  1.00  0.00     0.338 C 
ATOM     31  O   UNL A   1      35.478  33.544  27.672  1.00  0.00    -0.246 OA
BRANCH  30  32
ATOM     32  C   UNL A   1      36.908  31.780  28.417  1.00  0.00     0.060 A 
ATOM     33  C   UNL A   1      37.673  32.145  29.541  1.00  0.00     0.016 A 
ATOM     34  C   UNL A   1      37.318  30.712  27.624  1.00  0.00     0.016 A 
ATOM     35  C   UNL A   1      38.829  31.427  29.881  1.00  0.00     0.010 A 
ATOM     36  C   UNL A   1      38.373  29.926  28.033  1.00  0.00     0.010 A 
ATOM     37  C   UNL A   1      39.174  30.306  29.123  1.00  0.00    -0.014 A 
BRANCH  37  38
ATOM     38  C   UNL A   1      40.479  29.631  29.124  1.00  0.00     0.031 A 
ATOM     39  C   UNL A   1      40.683  28.194  28.857  1.00  0.00     0.074 A 
ATOM     40  C   UNL A   1      41.497  30.507  29.217  1.00  0.00     0.049 A 
ATOM     41  N   UNL A   1      41.385  27.703  27.883  1.00  0.00    -0.248 NA
ATOM     42  C   UNL A   1      40.040  27.185  29.707  1.00  0.00     0.031 C 
ATOM     43  C   UNL A   1      42.915  30.334  29.007  1.00  0.00     0.029 A 
ATOM     44  N   UNL A   1      41.387  31.747  29.845  1.00  0.00    -0.354 N 
ATOM     45  C   UNL A   1      41.348  26.314  27.998  1.00  0.00     0.074 A 
ATOM     46  C   UNL A   1      40.422  26.056  29.104  1.00  0.00     0.031 C 
ATOM     47  C   UNL A   1      43.561  31.243  29.766  1.00  0.00     0.029 A 
ATOM     48  C   UNL A   1      42.556  31.931  30.577  1.00  0.00     0.049 A 
ATOM     49  H   UNL A   1      40.630  32.371  29.782  1.00  0.00     0.167 HD
ATOM     50  C   UNL A   1      42.508  25.597  27.998  1.00  0.00     0.034 A 
ATOM     51  C   UNL A   1      42.438  31.849  31.938  1.00  0.00     0.034 A 
ATOM     52  C   UNL A   1      43.566  26.287  28.685  1.00  0.00     0.049 A 
ATOM     53  C   UNL A   1      43.127  30.611  32.459  1.00  0.00     0.074 A 
ATOM     54  C   UNL A   1      44.567  27.151  28.294  1.00  0.00     0.029 A 
ATOM     55  N   UNL A   1      43.510  26.321  30.064  1.00  0.00    -0.354 N 
ATOM     56  N   UNL A   1      43.246  29.491  31.793  1.00  0.00    -0.248 NA
ATOM     57  C   UNL A   1      43.815  30.588  33.742  1.00  0.00     0.031 C 
ATOM     58  C   UNL A   1      45.061  27.781  29.467  1.00  0.00     0.029 A 
ATOM     59  C   UNL A   1      44.376  27.268  30.557  1.00  0.00     0.049 A 
ATOM     60  H   UNL A   1      42.931  25.748  30.617  1.00  0.00     0.167 HD
ATOM     61  C   UNL A   1      44.089  28.654  32.481  1.00  0.00     0.074 A 
ATOM     62  C   UNL A   1      44.398  29.380  33.702  1.00  0.00     0.031 C 
ATOM     63  C   UNL A   1      44.504  27.449  31.988  1.00  0.00     0.034 A 
BRANCH  50  64
ATOM     64  C   UNL A   1      42.670  24.574  26.912  1.00  0.00     0.023 A 
ATOM     65  C   UNL A   1      42.146  23.278  27.064  1.00  0.00     0.031 A 
ATOM     66  C   UNL A   1      43.358  24.841  25.711  1.00  0.00     0.131 A 
ATOM     67  C   UNL A   1      42.363  22.290  26.087  1.00  0.00     0.055 A 
ATOM     68  C   UNL A   1      43.575  23.857  24.737  1.00  0.00     0.041 A 
ATOM     69  F   UNL A   1      43.822  26.072  25.440  1.00  0.00    -0.206 F 
ATOM     70  C   UNL A   1      43.088  22.570  24.928  1.00  0.00     0.022 A 
BRANCH  67  71
ATOM     71  S   UNL A   1      41.712  20.620  26.372  1.00  0.00     0.124 S 
ATOM     72  O   UNL A   1      42.115  20.356  27.749  1.00  0.00    -0.237 OA
ATOM     73  O   UNL A   1      40.283  20.801  26.143  1.00  0.00    -0.237 OA
ATOM     74  O   UNL A   1      42.399  19.810  25.365  1.00  0.00    -0.744 OA
ENDBRANCH  67  71
ENDBRANCH  50  64
BRANCH  51  75
ATOM     75  C   UNL A   1      41.164  32.438  32.485  1.00  0.00     0.023 A 
ATOM     76  C   UNL A   1      40.293  31.567  33.183  1.00  0.00     0.031 A 
ATOM     77  C   UNL A   1      40.919  33.812  32.608  1.00  0.00     0.131 A 
ATOM     78  C   UNL A   1      39.340  32.063  34.085  1.00  0.00     0.055 A 
ATOM     79  C   UNL A   1      39.906  34.307  33.448  1.00  0.00     0.041 A 
ATOM     80  F   UNL A   1      41.707  34.708  31.996  1.00  0.00    -0.206 F 
ATOM     81  C   UNL A   1      39.136  33.434  34.222  1.00  0.00     0.022 A 
BRANCH  78  82
ATOM     82  S   UNL A   1      38.584  30.900  35.261  1.00  0.00     0.124 S 
ATOM     83  O   UNL A   1      37.433  31.658  35.741  1.00  0.00    -0.237 OA
ATOM     84  O   UNL A   1      38.279  29.746  34.418  1.00  0.00    -0.237 OA
ATOM     85  O   UNL A   1      39.643  30.673  36.241  1.00  0.00    -0.744 OA
ENDBRANCH  78  82
ENDBRANCH  51  75
BRANCH  63  86
ATOM     86  C   UNL A   1      45.150  26.353  32.801  1.00  0.00     0.023 A 
ATOM     87  C   UNL A   1      44.399  25.395  33.486  1.00  0.00     0.031 A 
ATOM     88  C   UNL A   1      46.554  26.163  32.827  1.00  0.00     0.131 A 
ATOM     89  C   UNL A   1      45.016  24.397  34.252  1.00  0.00     0.055 A 
ATOM     90  C   UNL A   1      47.166  25.100  33.499  1.00  0.00     0.041 A 
ATOM     91  F   UNL A   1      47.396  26.987  32.184  1.00  0.00    -0.206 F 
ATOM     92  C   UNL A   1      46.395  24.221  34.242  1.00  0.00     0.022 A 
BRANCH  89  93
ATOM     93  S   UNL A   1      43.956  23.418  35.341  1.00  0.00     0.124 S 
ATOM     94  O   UNL A   1      44.460  22.067  35.107  1.00  0.00    -0.237 OA
ATOM     95  O   UNL A   1      44.253  23.985  36.653  1.00  0.00    -0.237 OA
ATOM     96  O   UNL A   1      42.612  23.678  34.836  1.00  0.00    -0.744 OA
ENDBRANCH  89  93
ENDBRANCH  63  86
ENDBRANCH  37  38
ENDBRANCH  30  32
ENDBRANCH  29  30
ENDBRANCH  28  29
ENDBRANCH   1  28
TORSDOF 17
ENDMDL
