MODEL 1
REMARK VINA RESULT:     -12.2      0.000      0.000
REMARK SMILES O=C(OCCOC(=O)c1cc(NC(=O)c2ccccc2Cl)ccc1N1CCC[C@H](C[NH+]2CCCC2)C1)c1ccc(-c2c3nc(c(-c4cc(S(=O)(=O)[O-])ccc4F)c4ccc([nH]4)c(-c4cc(S(=O)(=O)[O-])ccc4F)c4nc(c(-c5cc(S(=O)(=O)[O-])ccc5F)c5ccc2[nH]5)C=C4)C=C3)cc1
REMARK SMILES IDX 4 1 3 2 2 3 1 4 37 5 38 6 99 7 39 8 98 9 40 10 41 11 42 12
REMARK SMILES IDX 92 13 43 14 97 15 91 16 93 17 44 18 96 19 90 20 89 21 45 23
REMARK SMILES IDX 77 24 57 25 76 26 58 27 61 28 75 29 94 30 59 31 60 32 74 34
REMARK SMILES IDX 95 35 62 36 46 37 47 38 55 39 48 40 54 41 56 42 53 43 49 44
REMARK SMILES IDX 50 45 51 46 52 47 78 48 79 49 87 50 80 51 86 52 88 53 85 54
REMARK SMILES IDX 81 55 82 56 83 57 84 58 63 59 64 60 72 61 65 62 71 63 73 64
REMARK SMILES IDX 70 65 66 66 67 67 68 68 69 69 5 70 6 71 7 72 8 73 9 74 10 75
REMARK SMILES IDX 24 76 11 77 23 78 22 79 25 80 26 81 36 82 27 83 29 84 28 85
REMARK SMILES IDX 30 86 31 87 32 88 35 89 33 91 34 92 12 93 13 94 14 96 15 97
REMARK SMILES IDX 16 98 20 99 17 100 19 101 21 102 18 103
REMARK H PARENT 93 22 61 33 31 90 12 95
REMARK Flexibility Score: inf
ROOT
ATOM      1  C   UNL A   1      37.492  21.859  25.440  1.00  0.00     0.275 C 
ENDROOT
BRANCH   1   2
ATOM      2  O   UNL A   1      38.935  21.836  25.418  1.00  0.00    -0.458 OA
BRANCH   2   3
ATOM      3  C   UNL A   1      39.661  21.888  26.554  1.00  0.00     0.338 C 
ATOM      4  O   UNL A   1      39.980  20.870  27.152  1.00  0.00    -0.246 OA
BRANCH   3   5
ATOM      5  C   UNL A   1      40.163  23.234  26.982  1.00  0.00     0.060 A 
ATOM      6  C   UNL A   1      39.664  24.443  26.502  1.00  0.00     0.016 A 
ATOM      7  C   UNL A   1      41.137  23.270  27.991  1.00  0.00     0.016 A 
ATOM      8  C   UNL A   1      40.096  25.650  27.060  1.00  0.00     0.010 A 
ATOM      9  C   UNL A   1      41.574  24.470  28.556  1.00  0.00     0.010 A 
ATOM     10  C   UNL A   1      41.040  25.673  28.101  1.00  0.00    -0.014 A 
BRANCH  10  11
ATOM     11  C   UNL A   1      41.551  26.986  28.565  1.00  0.00     0.031 A 
ATOM     12  C   UNL A   1      42.913  27.367  28.126  1.00  0.00     0.074 A 
ATOM     13  C   UNL A   1      40.806  27.829  29.302  1.00  0.00     0.049 A 
ATOM     14  N   UNL A   1      43.505  28.520  28.216  1.00  0.00    -0.248 NA
ATOM     15  C   UNL A   1      43.729  26.283  27.564  1.00  0.00     0.031 C 
ATOM     16  C   UNL A   1      39.568  27.438  29.931  1.00  0.00     0.029 A 
ATOM     17  N   UNL A   1      40.911  29.156  29.625  1.00  0.00    -0.354 N 
ATOM     18  C   UNL A   1      44.787  28.300  27.744  1.00  0.00     0.074 A 
ATOM     19  C   UNL A   1      44.884  26.901  27.387  1.00  0.00     0.031 C 
ATOM     20  C   UNL A   1      38.914  28.511  30.391  1.00  0.00     0.029 A 
ATOM     21  C   UNL A   1      39.756  29.676  30.190  1.00  0.00     0.049 A 
ATOM     22  H   UNL A   1      41.726  29.688  29.473  1.00  0.00     0.167 HD
ATOM     23  C   UNL A   1      45.790  29.201  27.656  1.00  0.00     0.034 A 
ATOM     24  C   UNL A   1      39.427  30.950  30.492  1.00  0.00     0.034 A 
ATOM     25  C   UNL A   1      45.653  30.555  28.130  1.00  0.00     0.049 A 
ATOM     26  C   UNL A   1      40.530  31.958  30.302  1.00  0.00     0.074 A 
ATOM     27  C   UNL A   1      46.598  31.559  28.174  1.00  0.00     0.029 A 
ATOM     28  N   UNL A   1      44.483  31.082  28.681  1.00  0.00    -0.354 N 
ATOM     29  N   UNL A   1      41.732  31.763  29.803  1.00  0.00    -0.248 NA
ATOM     30  C   UNL A   1      40.274  33.326  30.754  1.00  0.00     0.031 C 
ATOM     31  C   UNL A   1      46.019  32.670  28.800  1.00  0.00     0.029 A 
ATOM     32  C   UNL A   1      44.686  32.393  29.077  1.00  0.00     0.049 A 
ATOM     33  H   UNL A   1      43.635  30.591  28.775  1.00  0.00     0.167 HD
ATOM     34  C   UNL A   1      42.394  32.975  29.917  1.00  0.00     0.074 A 
ATOM     35  C   UNL A   1      41.426  33.914  30.462  1.00  0.00     0.031 C 
ATOM     36  C   UNL A   1      43.688  33.280  29.638  1.00  0.00     0.034 A 
BRANCH  23  37
ATOM     37  C   UNL A   1      47.099  28.666  27.136  1.00  0.00     0.023 A 
ATOM     38  C   UNL A   1      47.339  28.556  25.753  1.00  0.00     0.031 A 
ATOM     39  C   UNL A   1      48.029  28.089  28.016  1.00  0.00     0.131 A 
ATOM     40  C   UNL A   1      48.407  27.775  25.291  1.00  0.00     0.055 A 
ATOM     41  C   UNL A   1      49.150  27.402  27.546  1.00  0.00     0.041 A 
ATOM     42  F   UNL A   1      47.832  28.125  29.342  1.00  0.00    -0.206 F 
ATOM     43  C   UNL A   1      49.331  27.218  26.177  1.00  0.00     0.022 A 
BRANCH  40  44
ATOM     44  S   UNL A   1      48.438  27.313  23.535  1.00  0.00     0.124 S 
ATOM     45  O   UNL A   1      47.282  28.044  23.019  1.00  0.00    -0.237 OA
ATOM     46  O   UNL A   1      49.743  27.799  23.102  1.00  0.00    -0.237 OA
ATOM     47  O   UNL A   1      48.289  25.860  23.559  1.00  0.00    -0.744 OA
ENDBRANCH  40  44
ENDBRANCH  23  37
BRANCH  24  48
ATOM     48  C   UNL A   1      38.069  31.339  31.007  1.00  0.00     0.023 A 
ATOM     49  C   UNL A   1      37.099  31.904  30.156  1.00  0.00     0.031 A 
ATOM     50  C   UNL A   1      37.710  31.182  32.360  1.00  0.00     0.131 A 
ATOM     51  C   UNL A   1      35.846  32.302  30.662  1.00  0.00     0.055 A 
ATOM     52  C   UNL A   1      36.441  31.517  32.846  1.00  0.00     0.041 A 
ATOM     53  F   UNL A   1      38.589  30.683  33.244  1.00  0.00    -0.206 F 
ATOM     54  C   UNL A   1      35.504  32.092  31.997  1.00  0.00     0.022 A 
BRANCH  51  55
ATOM     55  S   UNL A   1      34.692  33.186  29.572  1.00  0.00     0.124 S 
ATOM     56  O   UNL A   1      33.808  33.836  30.533  1.00  0.00    -0.237 OA
ATOM     57  O   UNL A   1      35.592  34.062  28.830  1.00  0.00    -0.237 OA
ATOM     58  O   UNL A   1      34.078  32.119  28.785  1.00  0.00    -0.744 OA
ENDBRANCH  51  55
ENDBRANCH  24  48
BRANCH  36  59
ATOM     59  C   UNL A   1      44.100  34.698  29.922  1.00  0.00     0.023 A 
ATOM     60  C   UNL A   1      43.981  35.703  28.947  1.00  0.00     0.031 A 
ATOM     61  C   UNL A   1      44.632  35.038  31.175  1.00  0.00     0.131 A 
ATOM     62  C   UNL A   1      44.452  36.993  29.223  1.00  0.00     0.055 A 
ATOM     63  C   UNL A   1      45.031  36.340  31.468  1.00  0.00     0.041 A 
ATOM     64  F   UNL A   1      44.771  34.108  32.134  1.00  0.00    -0.206 F 
ATOM     65  C   UNL A   1      44.955  37.323  30.484  1.00  0.00     0.022 A 
BRANCH  62  66
ATOM     66  S   UNL A   1      44.504  38.202  27.874  1.00  0.00     0.124 S 
ATOM     67  O   UNL A   1      44.227  39.450  28.579  1.00  0.00    -0.237 OA
ATOM     68  O   UNL A   1      45.862  38.046  27.363  1.00  0.00    -0.237 OA
ATOM     69  O   UNL A   1      43.446  37.752  26.971  1.00  0.00    -0.744 OA
ENDBRANCH  62  66
ENDBRANCH  36  59
ENDBRANCH  10  11
ENDBRANCH   3   5
ENDBRANCH   2   3
ENDBRANCH   1   2
BRANCH   1  70
ATOM     70  C   UNL A   1      36.723  22.205  24.160  1.00  0.00     0.275 C 
BRANCH  70  71
ATOM     71  O   UNL A   1      35.837  23.310  24.342  1.00  0.00    -0.458 OA
BRANCH  71  72
ATOM     72  C   UNL A   1      34.701  23.296  23.605  1.00  0.00     0.340 C 
ATOM     73  O   UNL A   1      34.624  23.330  22.380  1.00  0.00    -0.246 OA
BRANCH  72  74
ATOM     74  C   UNL A   1      33.518  23.164  24.473  1.00  0.00     0.085 A 
ATOM     75  C   UNL A   1      33.138  24.317  25.212  1.00  0.00     0.044 A 
ATOM     76  C   UNL A   1      32.834  21.948  24.595  1.00  0.00     0.051 A 
ATOM     77  C   UNL A   1      32.073  24.276  26.106  1.00  0.00     0.042 A 
ATOM     78  C   UNL A   1      31.870  21.897  25.607  1.00  0.00     0.029 A 
ATOM     79  C   UNL A   1      31.475  23.034  26.329  1.00  0.00     0.028 A 
BRANCH  76  80
ATOM     80  N   UNL A   1      33.052  20.821  23.831  1.00  0.00    -0.370 N 
ATOM     81  C   UNL A   1      32.356  20.602  22.561  1.00  0.00     0.116 C 
ATOM     82  C   UNL A   1      34.197  19.962  24.057  1.00  0.00     0.126 C 
ATOM     83  C   UNL A   1      31.846  19.166  22.474  1.00  0.00     0.022 C 
ATOM     84  C   UNL A   1      33.693  18.512  24.103  1.00  0.00     0.064 C 
ATOM     85  C   UNL A   1      32.974  18.183  22.776  1.00  0.00     0.013 C 
BRANCH  84  86
ATOM     86  C   UNL A   1      32.820  18.334  25.375  1.00  0.00     0.267 C 
BRANCH  86  87
ATOM     87  N   UNL A   1      32.976  17.132  26.194  1.00  0.00    -0.335 N 
ATOM     88  C   UNL A   1      34.202  16.384  25.945  1.00  0.00     0.262 C 
ATOM     89  C   UNL A   1      31.855  16.188  26.135  1.00  0.00     0.262 C 
ATOM     90  H   UNL A   1      33.011  17.539  27.129  1.00  0.00     0.348 HD
ATOM     91  C   UNL A   1      33.796  15.239  25.038  1.00  0.00     0.067 C 
ATOM     92  C   UNL A   1      32.378  14.918  25.475  1.00  0.00     0.067 C 
ENDBRANCH  86  87
ENDBRANCH  84  86
ENDBRANCH  76  80
BRANCH  77  93
ATOM     93  N   UNL A   1      31.561  25.351  26.860  1.00  0.00    -0.322 N 
ATOM     94  C   UNL A   1      31.183  26.644  26.589  1.00  0.00     0.257 C 
ATOM     95  H   UNL A   1      31.448  25.119  27.811  1.00  0.00     0.170 HD
ATOM     96  O   UNL A   1      30.919  27.412  27.516  1.00  0.00    -0.269 OA
BRANCH  94  97
ATOM     97  C   UNL A   1      31.015  27.153  25.227  1.00  0.00     0.058 A 
ATOM     98  C   UNL A   1      29.907  26.728  24.486  1.00  0.00     0.015 A 
ATOM     99  C   UNL A   1      31.998  27.954  24.634  1.00  0.00     0.053 A 
ATOM    100  C   UNL A   1      29.724  27.201  23.187  1.00  0.00     0.001 A 
ATOM    101  C   UNL A   1      31.806  28.428  23.335  1.00  0.00     0.021 A 
ATOM    102  Cl  UNL A   1      33.448  28.407  25.458  1.00  0.00    -0.083 Cl
ATOM    103  C   UNL A   1      30.664  28.063  22.618  1.00  0.00     0.002 A 
ENDBRANCH  94  97
ENDBRANCH  77  93
ENDBRANCH  72  74
ENDBRANCH  71  72
ENDBRANCH  70  71
ENDBRANCH   1  70
TORSDOF 19
ENDMDL
MODEL 2
REMARK VINA RESULT:     -12.0      1.517      2.635
REMARK SMILES O=C(OCCOC(=O)c1cc(NC(=O)c2ccccc2Cl)ccc1N1CCC[C@H](C[NH+]2CCCC2)C1)c1ccc(-c2c3nc(c(-c4cc(S(=O)(=O)[O-])ccc4F)c4ccc([nH]4)c(-c4cc(S(=O)(=O)[O-])ccc4F)c4nc(c(-c5cc(S(=O)(=O)[O-])ccc5F)c5ccc2[nH]5)C=C4)C=C3)cc1
REMARK SMILES IDX 4 1 3 2 2 3 1 4 37 5 38 6 99 7 39 8 98 9 40 10 41 11 42 12
REMARK SMILES IDX 92 13 43 14 97 15 91 16 93 17 44 18 96 19 90 20 89 21 45 23
REMARK SMILES IDX 77 24 57 25 76 26 58 27 61 28 75 29 94 30 59 31 60 32 74 34
REMARK SMILES IDX 95 35 62 36 46 37 47 38 55 39 48 40 54 41 56 42 53 43 49 44
REMARK SMILES IDX 50 45 51 46 52 47 78 48 79 49 87 50 80 51 86 52 88 53 85 54
REMARK SMILES IDX 81 55 82 56 83 57 84 58 63 59 64 60 72 61 65 62 71 63 73 64
REMARK SMILES IDX 70 65 66 66 67 67 68 68 69 69 5 70 6 71 7 72 8 73 9 74 10 75
REMARK SMILES IDX 24 76 11 77 23 78 22 79 25 80 26 81 36 82 27 83 29 84 28 85
REMARK SMILES IDX 30 86 31 87 32 88 35 89 33 91 34 92 12 93 13 94 14 96 15 97
REMARK SMILES IDX 16 98 20 99 17 100 19 101 21 102 18 103
REMARK H PARENT 93 22 61 33 31 90 12 95
REMARK Flexibility Score: inf
ROOT
ATOM      1  C   UNL A   1      37.961  22.016  25.767  1.00  0.00     0.275 C 
ENDROOT
BRANCH   1   2
ATOM      2  O   UNL A   1      39.372  21.716  25.814  1.00  0.00    -0.458 OA
BRANCH   2   3
ATOM      3  C   UNL A   1      40.086  21.846  26.952  1.00  0.00     0.338 C 
ATOM      4  O   UNL A   1      40.420  20.868  27.608  1.00  0.00    -0.246 OA
BRANCH   3   5
ATOM      5  C   UNL A   1      40.554  23.223  27.311  1.00  0.00     0.060 A 
ATOM      6  C   UNL A   1      40.017  24.394  26.782  1.00  0.00     0.016 A 
ATOM      7  C   UNL A   1      41.538  23.333  28.306  1.00  0.00     0.016 A 
ATOM      8  C   UNL A   1      40.421  25.638  27.278  1.00  0.00     0.010 A 
ATOM      9  C   UNL A   1      41.948  24.570  28.809  1.00  0.00     0.010 A 
ATOM     10  C   UNL A   1      41.375  25.734  28.306  1.00  0.00    -0.014 A 
BRANCH  10  11
ATOM     11  C   UNL A   1      41.855  27.081  28.702  1.00  0.00     0.031 A 
ATOM     12  C   UNL A   1      43.186  27.492  28.202  1.00  0.00     0.074 A 
ATOM     13  C   UNL A   1      41.105  27.926  29.433  1.00  0.00     0.049 A 
ATOM     14  N   UNL A   1      43.739  28.667  28.228  1.00  0.00    -0.248 NA
ATOM     15  C   UNL A   1      44.021  26.415  27.653  1.00  0.00     0.031 C 
ATOM     16  C   UNL A   1      39.903  27.518  30.118  1.00  0.00     0.029 A 
ATOM     17  N   UNL A   1      41.173  29.267  29.702  1.00  0.00    -0.354 N 
ATOM     18  C   UNL A   1      45.012  28.473  27.720  1.00  0.00     0.074 A 
ATOM     19  C   UNL A   1      45.146  27.065  27.413  1.00  0.00     0.031 C 
ATOM     20  C   UNL A   1      39.227  28.584  30.561  1.00  0.00     0.029 A 
ATOM     21  C   UNL A   1      40.020  29.769  30.286  1.00  0.00     0.049 A 
ATOM     22  H   UNL A   1      41.963  29.821  29.502  1.00  0.00     0.167 HD
ATOM     23  C   UNL A   1      45.979  29.404  27.563  1.00  0.00     0.034 A 
ATOM     24  C   UNL A   1      39.656  31.042  30.553  1.00  0.00     0.034 A 
ATOM     25  C   UNL A   1      45.810  30.769  27.991  1.00  0.00     0.049 A 
ATOM     26  C   UNL A   1      40.716  32.079  30.287  1.00  0.00     0.074 A 
ATOM     27  C   UNL A   1      46.719  31.807  27.964  1.00  0.00     0.029 A 
ATOM     28  N   UNL A   1      44.640  31.277  28.562  1.00  0.00    -0.354 N 
ATOM     29  N   UNL A   1      41.906  31.906  29.753  1.00  0.00    -0.248 NA
ATOM     30  C   UNL A   1      40.426  33.454  30.696  1.00  0.00     0.031 C 
ATOM     31  C   UNL A   1      46.122  32.920  28.568  1.00  0.00     0.029 A 
ATOM     32  C   UNL A   1      44.810  32.609  28.902  1.00  0.00     0.049 A 
ATOM     33  H   UNL A   1      43.814  30.761  28.705  1.00  0.00     0.167 HD
ATOM     34  C   UNL A   1      42.528  33.143  29.799  1.00  0.00     0.074 A 
ATOM     35  C   UNL A   1      41.546  34.069  30.342  1.00  0.00     0.031 C 
ATOM     36  C   UNL A   1      43.800  33.482  29.464  1.00  0.00     0.034 A 
BRANCH  23  37
ATOM     37  C   UNL A   1      47.288  28.894  27.019  1.00  0.00     0.023 A 
ATOM     38  C   UNL A   1      47.424  28.559  25.658  1.00  0.00     0.031 A 
ATOM     39  C   UNL A   1      48.338  28.563  27.890  1.00  0.00     0.131 A 
ATOM     40  C   UNL A   1      48.523  27.798  25.235  1.00  0.00     0.055 A 
ATOM     41  C   UNL A   1      49.480  27.898  27.439  1.00  0.00     0.041 A 
ATOM     42  F   UNL A   1      48.246  28.820  29.203  1.00  0.00    -0.206 F 
ATOM     43  C   UNL A   1      49.566  27.488  26.110  1.00  0.00     0.022 A 
BRANCH  40  44
ATOM     44  S   UNL A   1      48.458  27.033  23.590  1.00  0.00     0.124 S 
ATOM     45  O   UNL A   1      49.879  26.913  23.266  1.00  0.00    -0.237 OA
ATOM     46  O   UNL A   1      47.757  25.781  23.848  1.00  0.00    -0.237 OA
ATOM     47  O   UNL A   1      47.723  28.007  22.787  1.00  0.00    -0.744 OA
ENDBRANCH  40  44
ENDBRANCH  23  37
BRANCH  24  48
ATOM     48  C   UNL A   1      38.303  31.404  31.100  1.00  0.00     0.023 A 
ATOM     49  C   UNL A   1      37.292  31.921  30.266  1.00  0.00     0.031 A 
ATOM     50  C   UNL A   1      37.989  31.267  32.466  1.00  0.00     0.131 A 
ATOM     51  C   UNL A   1      36.044  32.295  30.801  1.00  0.00     0.055 A 
ATOM     52  C   UNL A   1      36.726  31.576  32.982  1.00  0.00     0.041 A 
ATOM     53  F   UNL A   1      38.908  30.812  33.334  1.00  0.00    -0.206 F 
ATOM     54  C   UNL A   1      35.748  32.105  32.150  1.00  0.00     0.022 A 
BRANCH  51  55
ATOM     55  S   UNL A   1      34.833  33.121  29.728  1.00  0.00     0.124 S 
ATOM     56  O   UNL A   1      35.677  34.038  28.970  1.00  0.00    -0.237 OA
ATOM     57  O   UNL A   1      34.274  31.996  28.985  1.00  0.00    -0.237 OA
ATOM     58  O   UNL A   1      33.915  33.756  30.671  1.00  0.00    -0.744 OA
ENDBRANCH  51  55
ENDBRANCH  24  48
BRANCH  36  59
ATOM     59  C   UNL A   1      44.171  34.923  29.679  1.00  0.00     0.023 A 
ATOM     60  C   UNL A   1      43.960  35.890  28.682  1.00  0.00     0.031 A 
ATOM     61  C   UNL A   1      44.756  35.325  30.891  1.00  0.00     0.131 A 
ATOM     62  C   UNL A   1      44.394  37.204  28.891  1.00  0.00     0.055 A 
ATOM     63  C   UNL A   1      45.118  36.650  31.120  1.00  0.00     0.041 A 
ATOM     64  F   UNL A   1      44.983  34.433  31.869  1.00  0.00    -0.206 F 
ATOM     65  C   UNL A   1      44.951  37.595  30.111  1.00  0.00     0.022 A 
BRANCH  62  66
ATOM     66  S   UNL A   1      44.325  38.370  27.504  1.00  0.00     0.124 S 
ATOM     67  O   UNL A   1      45.641  38.196  26.899  1.00  0.00    -0.237 OA
ATOM     68  O   UNL A   1      43.195  37.868  26.728  1.00  0.00    -0.237 OA
ATOM     69  O   UNL A   1      44.106  39.661  28.154  1.00  0.00    -0.744 OA
ENDBRANCH  62  66
ENDBRANCH  36  59
ENDBRANCH  10  11
ENDBRANCH   3   5
ENDBRANCH   2   3
ENDBRANCH   1   2
BRANCH   1  70
ATOM     70  C   UNL A   1      37.467  23.185  24.907  1.00  0.00     0.275 C 
BRANCH  70  71
ATOM     71  O   UNL A   1      36.351  23.855  25.495  1.00  0.00    -0.458 OA
BRANCH  71  72
ATOM     72  C   UNL A   1      35.360  24.224  24.649  1.00  0.00     0.340 C 
ATOM     73  O   UNL A   1      35.328  24.040  23.435  1.00  0.00    -0.246 OA
BRANCH  72  74
ATOM     74  C   UNL A   1      34.246  24.841  25.390  1.00  0.00     0.085 A 
ATOM     75  C   UNL A   1      34.272  26.256  25.520  1.00  0.00     0.044 A 
ATOM     76  C   UNL A   1      33.238  24.062  25.974  1.00  0.00     0.051 A 
ATOM     77  C   UNL A   1      33.298  26.926  26.254  1.00  0.00     0.042 A 
ATOM     78  C   UNL A   1      32.365  24.746  26.826  1.00  0.00     0.029 A 
ATOM     79  C   UNL A   1      32.371  26.144  26.946  1.00  0.00     0.028 A 
BRANCH  76  80
ATOM     80  N   UNL A   1      33.064  22.705  25.797  1.00  0.00    -0.370 N 
ATOM     81  C   UNL A   1      33.980  21.726  26.386  1.00  0.00     0.116 C 
ATOM     82  C   UNL A   1      31.814  22.159  25.312  1.00  0.00     0.126 C 
ATOM     83  C   UNL A   1      34.342  20.653  25.362  1.00  0.00     0.022 C 
ATOM     84  C   UNL A   1      32.140  21.167  24.187  1.00  0.00     0.064 C 
ATOM     85  C   UNL A   1      33.078  20.068  24.736  1.00  0.00     0.013 C 
BRANCH  84  86
ATOM     86  C   UNL A   1      32.708  21.961  22.979  1.00  0.00     0.267 C 
BRANCH  86  87
ATOM     87  N   UNL A   1      31.842  22.892  22.257  1.00  0.00    -0.335 N 
ATOM     88  C   UNL A   1      32.550  23.933  21.521  1.00  0.00     0.262 C 
ATOM     89  C   UNL A   1      30.809  23.542  23.070  1.00  0.00     0.262 C 
ATOM     90  H   UNL A   1      31.388  22.261  21.597  1.00  0.00     0.348 HD
ATOM     91  C   UNL A   1      32.481  25.164  22.402  1.00  0.00     0.067 C 
ATOM     92  C   UNL A   1      31.144  25.029  23.107  1.00  0.00     0.067 C 
ENDBRANCH  86  87
ENDBRANCH  84  86
ENDBRANCH  76  80
BRANCH  77  93
ATOM     93  N   UNL A   1      33.176  28.320  26.421  1.00  0.00    -0.322 N 
ATOM     94  C   UNL A   1      32.696  29.358  25.660  1.00  0.00     0.257 C 
ATOM     95  H   UNL A   1      33.518  28.622  27.294  1.00  0.00     0.170 HD
ATOM     96  O   UNL A   1      32.879  30.521  26.026  1.00  0.00    -0.269 OA
BRANCH  94  97
ATOM     97  C   UNL A   1      31.911  29.153  24.442  1.00  0.00     0.058 A 
ATOM     98  C   UNL A   1      30.517  29.098  24.547  1.00  0.00     0.015 A 
ATOM     99  C   UNL A   1      32.538  28.901  23.217  1.00  0.00     0.053 A 
ATOM    100  C   UNL A   1      29.746  28.906  23.400  1.00  0.00     0.001 A 
ATOM    101  C   UNL A   1      31.761  28.714  22.072  1.00  0.00     0.021 A 
ATOM    102  Cl  UNL A   1      34.257  28.831  23.052  1.00  0.00    -0.083 Cl
ATOM    103  C   UNL A   1      30.367  28.731  22.162  1.00  0.00     0.002 A 
ENDBRANCH  94  97
ENDBRANCH  77  93
ENDBRANCH  72  74
ENDBRANCH  71  72
ENDBRANCH  70  71
ENDBRANCH   1  70
TORSDOF 19
ENDMDL
MODEL 3
REMARK VINA RESULT:     -11.3      1.388      2.169
REMARK SMILES O=C(OCCOC(=O)c1cc(NC(=O)c2ccccc2Cl)ccc1N1CCC[C@H](C[NH+]2CCCC2)C1)c1ccc(-c2c3nc(c(-c4cc(S(=O)(=O)[O-])ccc4F)c4ccc([nH]4)c(-c4cc(S(=O)(=O)[O-])ccc4F)c4nc(c(-c5cc(S(=O)(=O)[O-])ccc5F)c5ccc2[nH]5)C=C4)C=C3)cc1
REMARK SMILES IDX 4 1 3 2 2 3 1 4 37 5 38 6 99 7 39 8 98 9 40 10 41 11 42 12
REMARK SMILES IDX 92 13 43 14 97 15 91 16 93 17 44 18 96 19 90 20 89 21 45 23
REMARK SMILES IDX 77 24 57 25 76 26 58 27 61 28 75 29 94 30 59 31 60 32 74 34
REMARK SMILES IDX 95 35 62 36 46 37 47 38 55 39 48 40 54 41 56 42 53 43 49 44
REMARK SMILES IDX 50 45 51 46 52 47 78 48 79 49 87 50 80 51 86 52 88 53 85 54
REMARK SMILES IDX 81 55 82 56 83 57 84 58 63 59 64 60 72 61 65 62 71 63 73 64
REMARK SMILES IDX 70 65 66 66 67 67 68 68 69 69 5 70 6 71 7 72 8 73 9 74 10 75
REMARK SMILES IDX 24 76 11 77 23 78 22 79 25 80 26 81 36 82 27 83 29 84 28 85
REMARK SMILES IDX 30 86 31 87 32 88 35 89 33 91 34 92 12 93 13 94 14 96 15 97
REMARK SMILES IDX 16 98 20 99 17 100 19 101 21 102 18 103
REMARK H PARENT 93 22 61 33 31 90 12 95
REMARK Flexibility Score: inf
ROOT
ATOM      1  C   UNL A   1      37.210  22.670  25.823  1.00  0.00     0.275 C 
ENDROOT
BRANCH   1   2
ATOM      2  O   UNL A   1      38.497  22.068  25.570  1.00  0.00    -0.458 OA
BRANCH   2   3
ATOM      3  C   UNL A   1      39.486  22.099  26.488  1.00  0.00     0.338 C 
ATOM      4  O   UNL A   1      40.025  21.072  26.877  1.00  0.00    -0.246 OA
BRANCH   3   5
ATOM      5  C   UNL A   1      39.978  23.449  26.916  1.00  0.00     0.060 A 
ATOM      6  C   UNL A   1      39.637  24.642  26.284  1.00  0.00     0.016 A 
ATOM      7  C   UNL A   1      40.763  23.512  28.078  1.00  0.00     0.016 A 
ATOM      8  C   UNL A   1      40.030  25.865  26.835  1.00  0.00     0.010 A 
ATOM      9  C   UNL A   1      41.159  24.729  28.637  1.00  0.00     0.010 A 
ATOM     10  C   UNL A   1      40.778  25.919  28.024  1.00  0.00    -0.014 A 
BRANCH  10  11
ATOM     11  C   UNL A   1      41.272  27.238  28.491  1.00  0.00     0.031 A 
ATOM     12  C   UNL A   1      42.639  27.625  28.077  1.00  0.00     0.074 A 
ATOM     13  C   UNL A   1      40.507  28.080  29.208  1.00  0.00     0.049 A 
ATOM     14  N   UNL A   1      43.222  28.782  28.173  1.00  0.00    -0.248 NA
ATOM     15  C   UNL A   1      43.474  26.543  27.538  1.00  0.00     0.031 C 
ATOM     16  C   UNL A   1      39.258  27.684  29.814  1.00  0.00     0.029 A 
ATOM     17  N   UNL A   1      40.597  29.409  29.526  1.00  0.00    -0.354 N 
ATOM     18  C   UNL A   1      44.515  28.569  27.728  1.00  0.00     0.074 A 
ATOM     19  C   UNL A   1      44.628  27.168  27.381  1.00  0.00     0.031 C 
ATOM     20  C   UNL A   1      38.588  28.755  30.255  1.00  0.00     0.029 A 
ATOM     21  C   UNL A   1      39.427  29.925  30.064  1.00  0.00     0.049 A 
ATOM     22  H   UNL A   1      41.411  29.946  29.387  1.00  0.00     0.167 HD
ATOM     23  C   UNL A   1      45.514  29.476  27.655  1.00  0.00     0.034 A 
ATOM     24  C   UNL A   1      39.084  31.198  30.353  1.00  0.00     0.034 A 
ATOM     25  C   UNL A   1      45.359  30.831  28.119  1.00  0.00     0.049 A 
ATOM     26  C   UNL A   1      40.184  32.212  30.180  1.00  0.00     0.074 A 
ATOM     27  C   UNL A   1      46.296  31.842  28.176  1.00  0.00     0.029 A 
ATOM     28  N   UNL A   1      44.174  31.354  28.644  1.00  0.00    -0.354 N 
ATOM     29  N   UNL A   1      41.397  32.022  29.706  1.00  0.00    -0.248 NA
ATOM     30  C   UNL A   1      39.910  33.581  30.619  1.00  0.00     0.031 C 
ATOM     31  C   UNL A   1      45.697  32.952  28.785  1.00  0.00     0.029 A 
ATOM     32  C   UNL A   1      44.361  32.668  29.036  1.00  0.00     0.049 A 
ATOM     33  H   UNL A   1      43.328  30.857  28.723  1.00  0.00     0.167 HD
ATOM     34  C   UNL A   1      42.049  33.239  29.827  1.00  0.00     0.074 A 
ATOM     35  C   UNL A   1      41.064  34.175  30.347  1.00  0.00     0.031 C 
ATOM     36  C   UNL A   1      43.346  33.551  29.572  1.00  0.00     0.034 A 
BRANCH  23  37
ATOM     37  C   UNL A   1      46.836  28.946  27.165  1.00  0.00     0.023 A 
ATOM     38  C   UNL A   1      47.084  28.777  25.789  1.00  0.00     0.031 A 
ATOM     39  C   UNL A   1      47.775  28.432  28.073  1.00  0.00     0.131 A 
ATOM     40  C   UNL A   1      48.171  27.999  25.367  1.00  0.00     0.055 A 
ATOM     41  C   UNL A   1      48.913  27.748  27.640  1.00  0.00     0.041 A 
ATOM     42  F   UNL A   1      47.572  28.525  29.396  1.00  0.00    -0.206 F 
ATOM     43  C   UNL A   1      49.104  27.506  26.281  1.00  0.00     0.022 A 
BRANCH  40  44
ATOM     44  S   UNL A   1      48.220  27.457  23.635  1.00  0.00     0.124 S 
ATOM     45  O   UNL A   1      49.569  27.859  23.240  1.00  0.00    -0.237 OA
ATOM     46  O   UNL A   1      47.991  26.021  23.744  1.00  0.00    -0.237 OA
ATOM     47  O   UNL A   1      47.141  28.217  23.007  1.00  0.00    -0.744 OA
ENDBRANCH  40  44
ENDBRANCH  23  37
BRANCH  24  48
ATOM     48  C   UNL A   1      37.713  31.581  30.839  1.00  0.00     0.023 A 
ATOM     49  C   UNL A   1      36.789  32.221  29.989  1.00  0.00     0.031 A 
ATOM     50  C   UNL A   1      37.297  31.343  32.163  1.00  0.00     0.131 A 
ATOM     51  C   UNL A   1      35.524  32.612  30.470  1.00  0.00     0.055 A 
ATOM     52  C   UNL A   1      36.015  31.672  32.619  1.00  0.00     0.041 A 
ATOM     53  F   UNL A   1      38.129  30.769  33.046  1.00  0.00    -0.206 F 
ATOM     54  C   UNL A   1      35.124  32.321  31.774  1.00  0.00     0.022 A 
BRANCH  51  55
ATOM     55  S   UNL A   1      34.432  33.589  29.397  1.00  0.00     0.124 S 
ATOM     56  O   UNL A   1      35.372  34.512  28.771  1.00  0.00    -0.237 OA
ATOM     57  O   UNL A   1      33.864  32.560  28.531  1.00  0.00    -0.237 OA
ATOM     58  O   UNL A   1      33.489  34.200  30.332  1.00  0.00    -0.744 OA
ENDBRANCH  51  55
ENDBRANCH  24  48
BRANCH  36  59
ATOM     59  C   UNL A   1      43.743  34.973  29.857  1.00  0.00     0.023 A 
ATOM     60  C   UNL A   1      43.653  35.970  28.869  1.00  0.00     0.031 A 
ATOM     61  C   UNL A   1      44.233  35.327  31.124  1.00  0.00     0.131 A 
ATOM     62  C   UNL A   1      44.109  37.263  29.149  1.00  0.00     0.055 A 
ATOM     63  C   UNL A   1      44.617  36.633  31.418  1.00  0.00     0.041 A 
ATOM     64  F   UNL A   1      44.344  34.405  32.095  1.00  0.00    -0.206 F 
ATOM     65  C   UNL A   1      44.570  37.606  30.423  1.00  0.00     0.022 A 
BRANCH  62  66
ATOM     66  S   UNL A   1      44.200  38.461  27.792  1.00  0.00     0.124 S 
ATOM     67  O   UNL A   1      45.362  37.985  27.048  1.00  0.00    -0.237 OA
ATOM     68  O   UNL A   1      42.909  38.290  27.135  1.00  0.00    -0.237 OA
ATOM     69  O   UNL A   1      44.383  39.739  28.477  1.00  0.00    -0.744 OA
ENDBRANCH  62  66
ENDBRANCH  36  59
ENDBRANCH  10  11
ENDBRANCH   3   5
ENDBRANCH   2   3
ENDBRANCH   1   2
BRANCH   1  70
ATOM     70  C   UNL A   1      36.678  23.743  24.867  1.00  0.00     0.275 C 
BRANCH  70  71
ATOM     71  O   UNL A   1      35.270  23.939  25.001  1.00  0.00    -0.458 OA
BRANCH  71  72
ATOM     72  C   UNL A   1      34.515  23.631  23.920  1.00  0.00     0.340 C 
ATOM     73  O   UNL A   1      34.837  22.899  22.988  1.00  0.00    -0.246 OA
BRANCH  72  74
ATOM     74  C   UNL A   1      33.182  24.249  24.022  1.00  0.00     0.085 A 
ATOM     75  C   UNL A   1      32.913  25.336  23.146  1.00  0.00     0.044 A 
ATOM     76  C   UNL A   1      32.246  23.813  24.970  1.00  0.00     0.051 A 
ATOM     77  C   UNL A   1      31.706  26.025  23.208  1.00  0.00     0.042 A 
ATOM     78  C   UNL A   1      31.111  24.617  25.109  1.00  0.00     0.029 A 
ATOM     79  C   UNL A   1      30.828  25.680  24.237  1.00  0.00     0.028 A 
BRANCH  76  80
ATOM     80  N   UNL A   1      32.370  22.697  25.769  1.00  0.00    -0.370 N 
ATOM     81  C   UNL A   1      33.130  22.724  27.021  1.00  0.00     0.116 C 
ATOM     82  C   UNL A   1      31.507  21.546  25.603  1.00  0.00     0.126 C 
ATOM     83  C   UNL A   1      34.023  21.491  27.129  1.00  0.00     0.022 C 
ATOM     84  C   UNL A   1      32.394  20.293  25.578  1.00  0.00     0.064 C 
ATOM     85  C   UNL A   1      33.208  20.223  26.889  1.00  0.00     0.013 C 
BRANCH  84  86
ATOM     86  C   UNL A   1      33.252  20.323  24.283  1.00  0.00     0.267 C 
BRANCH  86  87
ATOM     87  N   UNL A   1      33.623  19.065  23.636  1.00  0.00    -0.335 N 
ATOM     88  C   UNL A   1      32.527  18.115  23.483  1.00  0.00     0.262 C 
ATOM     89  C   UNL A   1      34.749  18.355  24.250  1.00  0.00     0.262 C 
ATOM     90  H   UNL A   1      33.911  19.400  22.716  1.00  0.00     0.348 HD
ATOM     91  C   UNL A   1      32.694  17.126  24.619  1.00  0.00     0.067 C 
ATOM     92  C   UNL A   1      34.197  17.052  24.816  1.00  0.00     0.067 C 
ENDBRANCH  86  87
ENDBRANCH  84  86
ENDBRANCH  76  80
BRANCH  77  93
ATOM     93  N   UNL A   1      31.293  27.081  22.371  1.00  0.00    -0.322 N 
ATOM     94  C   UNL A   1      31.061  28.425  22.534  1.00  0.00     0.257 C 
ATOM     95  H   UNL A   1      31.130  26.782  21.447  1.00  0.00     0.170 HD
ATOM     96  O   UNL A   1      30.538  29.071  21.624  1.00  0.00    -0.269 OA
BRANCH  94  97
ATOM     97  C   UNL A   1      31.466  29.161  23.733  1.00  0.00     0.058 A 
ATOM     98  C   UNL A   1      32.681  28.831  24.341  1.00  0.00     0.015 A 
ATOM     99  C   UNL A   1      30.607  30.093  24.327  1.00  0.00     0.053 A 
ATOM    100  C   UNL A   1      33.090  29.520  25.484  1.00  0.00     0.001 A 
ATOM    101  C   UNL A   1      31.024  30.782  25.468  1.00  0.00     0.021 A 
ATOM    102  Cl  UNL A   1      29.040  30.448  23.691  1.00  0.00    -0.083 Cl
ATOM    103  C   UNL A   1      32.270  30.505  26.036  1.00  0.00     0.002 A 
ENDBRANCH  94  97
ENDBRANCH  77  93
ENDBRANCH  72  74
ENDBRANCH  71  72
ENDBRANCH  70  71
ENDBRANCH   1  70
TORSDOF 19
ENDMDL
