MODEL 1
REMARK VINA RESULT:     -12.0      0.000      0.000
REMARK SMILES Cc1c(CC(=O)N[C@H](CO)C(=O)OCCOC(=O)c2ccc(-c3c4nc(c(-c5cc(S(=O)(=O)[O-])ccc5F)c5ccc([nH]5)c(-c5cc(S(=O)(=O)[O-])ccc5F)c5nc(c(-c6cc(S(=O)(=O)[O-])ccc6F)c6ccc3[nH]6)C=C5)C=C4)cc2)cc(-c2ccc(S(C)(=O)=O)cc2)n1-c1cccc(F)c1
REMARK SMILES IDX 14 1 13 2 11 3 12 4 8 5 7 6 5 7 6 8 4 10 3 11 1 12 2 13
REMARK SMILES IDX 94 14 82 15 83 16 95 17 96 18 101 19 97 20 99 21 98 22
REMARK SMILES IDX 100 23 84 24 85 25 93 26 86 27 92 28 87 29 88 30 89 31 90 32
REMARK SMILES IDX 91 33 9 34 10 35 15 37 16 38 17 39 18 40 19 41 20 42 81 43
REMARK SMILES IDX 21 44 80 45 22 46 23 47 24 48 74 49 25 50 79 51 73 52 75 53
REMARK SMILES IDX 26 54 78 55 72 56 71 57 27 59 59 60 39 61 58 62 40 63 43 64
REMARK SMILES IDX 57 65 76 66 41 67 42 68 56 70 77 71 44 72 28 73 29 74 37 75
REMARK SMILES IDX 30 76 36 77 38 78 35 79 31 80 32 81 33 82 34 83 60 84 61 85
REMARK SMILES IDX 69 86 62 87 68 88 70 89 67 90 63 91 64 92 65 93 66 94 45 95
REMARK SMILES IDX 46 96 54 97 47 98 53 99 55 100 52 101 48 102 49 103 50 104
REMARK SMILES IDX 51 105
REMARK H PARENT 7 9 10 36 75 58 43 69
REMARK Flexibility Score: inf
ROOT
ATOM      1  C   UNL A   1      31.634  30.242  25.631  1.00  0.00     0.274 C 
ENDROOT
BRANCH   1   2
ATOM      2  O   UNL A   1      31.041  28.935  25.861  1.00  0.00    -0.460 OA
BRANCH   2   3
ATOM      3  C   UNL A   1      31.690  27.883  25.263  1.00  0.00     0.331 C 
ATOM      4  O   UNL A   1      32.383  27.074  25.876  1.00  0.00    -0.250 OA
BRANCH   3   5
ATOM      5  C   UNL A   1      31.462  27.827  23.729  1.00  0.00     0.218 C 
BRANCH   5   6
ATOM      6  N   UNL A   1      32.698  28.219  22.994  1.00  0.00    -0.341 N 
ATOM      7  C   UNL A   1      33.472  27.484  22.146  1.00  0.00     0.225 C 
ATOM      8  O   UNL A   1      34.477  28.025  21.672  1.00  0.00    -0.275 OA
ATOM      9  H   UNL A   1      32.998  29.144  23.143  1.00  0.00     0.164 HD
BRANCH   7  10
ATOM     10  C   UNL A   1      33.084  26.058  21.775  1.00  0.00     0.137 C 
BRANCH  10  11
ATOM     11  C   UNL A   1      33.535  25.066  22.807  1.00  0.00    -0.017 A 
ATOM     12  C   UNL A   1      31.327  23.745  23.185  1.00  0.00     0.065 C 
ATOM     13  C   UNL A   1      32.782  24.040  23.365  1.00  0.00     0.024 A 
ATOM     14  N   UNL A   1      33.623  23.261  24.148  1.00  0.00    -0.313 N 
ATOM     15  C   UNL A   1      34.836  24.980  23.381  1.00  0.00     0.033 A 
ATOM     16  C   UNL A   1      34.899  23.838  24.164  1.00  0.00     0.053 A 
BRANCH  14  17
ATOM     17  C   UNL A   1      33.287  22.012  24.744  1.00  0.00     0.049 A 
ATOM     18  C   UNL A   1      33.402  21.845  26.132  1.00  0.00     0.027 A 
ATOM     19  C   UNL A   1      33.025  20.914  23.918  1.00  0.00     0.065 A 
ATOM     20  C   UNL A   1      33.286  20.573  26.692  1.00  0.00     0.005 A 
ATOM     21  C   UNL A   1      32.917  19.654  24.493  1.00  0.00     0.125 A 
ATOM     22  C   UNL A   1      33.053  19.473  25.867  1.00  0.00     0.039 A 
ATOM     23  F   UNL A   1      32.724  18.586  23.707  1.00  0.00    -0.207 F 
ENDBRANCH  14  17
BRANCH  16  24
ATOM     24  C   UNL A   1      36.082  23.184  24.755  1.00  0.00    -0.001 A 
ATOM     25  C   UNL A   1      36.806  23.848  25.760  1.00  0.00     0.011 A 
ATOM     26  C   UNL A   1      36.562  21.955  24.296  1.00  0.00     0.011 A 
ATOM     27  C   UNL A   1      38.027  23.368  26.227  1.00  0.00     0.021 A 
ATOM     28  C   UNL A   1      37.792  21.459  24.761  1.00  0.00     0.021 A 
ATOM     29  C   UNL A   1      38.543  22.194  25.693  1.00  0.00     0.067 A 
BRANCH  29  30
ATOM     30  S   UNL A   1      40.079  21.562  26.338  1.00  0.00     0.175 S 
ATOM     31  C   UNL A   1      40.052  19.830  26.074  1.00  0.00     0.163 C 
ATOM     32  O   UNL A   1      41.143  22.058  25.480  1.00  0.00    -0.224 OA
ATOM     33  O   UNL A   1      40.067  21.757  27.772  1.00  0.00    -0.224 OA
ENDBRANCH  29  30
ENDBRANCH  16  24
ENDBRANCH  10  11
ENDBRANCH   7  10
ENDBRANCH   5   6
BRANCH   5  34
ATOM     34  C   UNL A   1      30.347  28.792  23.299  1.00  0.00     0.193 C 
BRANCH  34  35
ATOM     35  O   UNL A   1      29.835  28.452  22.003  1.00  0.00    -0.394 OA
ATOM     36  H   UNL A   1      30.571  28.381  21.374  1.00  0.00     0.210 HD
ENDBRANCH  34  35
ENDBRANCH   5  34
ENDBRANCH   3   5
ENDBRANCH   2   3
ENDBRANCH   1   2
BRANCH   1  37
ATOM     37  C   UNL A   1      33.069  30.391  26.212  1.00  0.00     0.275 C 
BRANCH  37  38
ATOM     38  O   UNL A   1      33.257  30.506  27.670  1.00  0.00    -0.458 OA
BRANCH  38  39
ATOM     39  C   UNL A   1      34.113  31.482  28.119  1.00  0.00     0.338 C 
ATOM     40  O   UNL A   1      33.700  32.537  28.580  1.00  0.00    -0.246 OA
BRANCH  39  41
ATOM     41  C   UNL A   1      35.610  31.119  28.119  1.00  0.00     0.060 A 
ATOM     42  C   UNL A   1      35.959  29.879  27.615  1.00  0.00     0.016 A 
ATOM     43  C   UNL A   1      36.688  31.830  28.696  1.00  0.00     0.016 A 
ATOM     44  C   UNL A   1      37.327  29.444  27.578  1.00  0.00     0.010 A 
ATOM     45  C   UNL A   1      38.091  31.322  28.740  1.00  0.00     0.010 A 
ATOM     46  C   UNL A   1      38.485  30.107  28.147  1.00  0.00    -0.014 A 
BRANCH  46  47
ATOM     47  C   UNL A   1      39.853  29.175  28.348  1.00  0.00     0.031 A 
ATOM     48  C   UNL A   1      39.825  28.928  29.817  1.00  0.00     0.074 A 
ATOM     49  C   UNL A   1      40.993  28.595  27.750  1.00  0.00     0.049 A 
ATOM     50  N   UNL A   1      39.661  29.936  30.624  1.00  0.00    -0.248 NA
ATOM     51  C   UNL A   1      39.550  27.623  30.418  1.00  0.00     0.031 C 
ATOM     52  C   UNL A   1      41.421  28.632  26.340  1.00  0.00     0.029 A 
ATOM     53  N   UNL A   1      42.086  27.801  28.289  1.00  0.00    -0.354 N 
ATOM     54  C   UNL A   1      39.574  29.425  31.887  1.00  0.00     0.074 A 
ATOM     55  C   UNL A   1      39.303  28.005  31.678  1.00  0.00     0.031 C 
ATOM     56  C   UNL A   1      42.525  27.850  26.108  1.00  0.00     0.029 A 
ATOM     57  C   UNL A   1      43.044  27.249  27.342  1.00  0.00     0.049 A 
ATOM     58  H   UNL A   1      42.175  27.643  29.256  1.00  0.00     0.167 HD
ATOM     59  C   UNL A   1      40.396  30.031  32.789  1.00  0.00     0.034 A 
ATOM     60  C   UNL A   1      44.196  26.457  27.510  1.00  0.00     0.034 A 
ATOM     61  C   UNL A   1      41.580  29.248  33.002  1.00  0.00     0.049 A 
ATOM     62  C   UNL A   1      44.691  26.684  28.869  1.00  0.00     0.074 A 
ATOM     63  C   UNL A   1      41.768  27.910  33.277  1.00  0.00     0.029 A 
ATOM     64  N   UNL A   1      42.750  29.716  32.438  1.00  0.00    -0.354 N 
ATOM     65  N   UNL A   1      45.347  27.757  29.175  1.00  0.00    -0.248 NA
ATOM     66  C   UNL A   1      44.605  25.683  29.926  1.00  0.00     0.031 C 
ATOM     67  C   UNL A   1      42.827  27.524  32.427  1.00  0.00     0.029 A 
ATOM     68  C   UNL A   1      43.484  28.659  31.953  1.00  0.00     0.049 A 
ATOM     69  H   UNL A   1      43.017  30.663  32.389  1.00  0.00     0.167 HD
ATOM     70  C   UNL A   1      45.195  27.811  30.522  1.00  0.00     0.074 A 
ATOM     71  C   UNL A   1      45.063  26.426  30.937  1.00  0.00     0.031 C 
ATOM     72  C   UNL A   1      44.549  28.907  30.997  1.00  0.00     0.034 A 
BRANCH  59  73
ATOM     73  C   UNL A   1      40.379  31.538  32.690  1.00  0.00     0.023 A 
ATOM     74  C   UNL A   1      39.605  32.269  33.597  1.00  0.00     0.031 A 
ATOM     75  C   UNL A   1      40.993  32.246  31.629  1.00  0.00     0.131 A 
ATOM     76  C   UNL A   1      39.419  33.647  33.398  1.00  0.00     0.055 A 
ATOM     77  C   UNL A   1      40.749  33.598  31.398  1.00  0.00     0.041 A 
ATOM     78  F   UNL A   1      41.841  31.629  30.790  1.00  0.00    -0.206 F 
ATOM     79  C   UNL A   1      39.950  34.306  32.285  1.00  0.00     0.022 A 
BRANCH  76  80
ATOM     80  S   UNL A   1      38.504  34.583  34.650  1.00  0.00     0.124 S 
ATOM     81  O   UNL A   1      38.341  33.605  35.721  1.00  0.00    -0.237 OA
ATOM     82  O   UNL A   1      39.417  35.686  34.939  1.00  0.00    -0.237 OA
ATOM     83  O   UNL A   1      37.272  34.969  33.965  1.00  0.00    -0.744 OA
ENDBRANCH  76  80
ENDBRANCH  59  73
BRANCH  60  84
ATOM     84  C   UNL A   1      45.268  25.563  26.786  1.00  0.00     0.023 A 
ATOM     85  C   UNL A   1      45.014  24.171  26.423  1.00  0.00     0.031 A 
ATOM     86  C   UNL A   1      46.313  26.153  26.065  1.00  0.00     0.131 A 
ATOM     87  C   UNL A   1      45.731  23.488  25.391  1.00  0.00     0.055 A 
ATOM     88  C   UNL A   1      47.032  25.465  25.052  1.00  0.00     0.041 A 
ATOM     89  F   UNL A   1      46.593  27.454  26.228  1.00  0.00    -0.206 F 
ATOM     90  C   UNL A   1      46.738  24.147  24.700  1.00  0.00     0.022 A 
BRANCH  87  91
ATOM     91  S   UNL A   1      45.258  21.802  24.783  1.00  0.00     0.124 S 
ATOM     92  O   UNL A   1      46.541  21.125  24.654  1.00  0.00    -0.237 OA
ATOM     93  O   UNL A   1      44.363  21.316  25.829  1.00  0.00    -0.237 OA
ATOM     94  O   UNL A   1      44.587  22.072  23.508  1.00  0.00    -0.744 OA
ENDBRANCH  87  91
ENDBRANCH  60  84
BRANCH  72  95
ATOM     95  C   UNL A   1      44.880  30.249  30.319  1.00  0.00     0.023 A 
ATOM     96  C   UNL A   1      44.520  30.639  28.994  1.00  0.00     0.031 A 
ATOM     97  C   UNL A   1      45.707  31.146  31.011  1.00  0.00     0.131 A 
ATOM     98  C   UNL A   1      45.023  31.819  28.405  1.00  0.00     0.055 A 
ATOM     99  C   UNL A   1      46.168  32.340  30.446  1.00  0.00     0.041 A 
ATOM    100  F   UNL A   1      46.104  30.869  32.263  1.00  0.00    -0.206 F 
ATOM    101  C   UNL A   1      45.846  32.671  29.134  1.00  0.00     0.022 A 
BRANCH  98 102
ATOM    102  S   UNL A   1      44.692  32.205  26.648  1.00  0.00     0.124 S 
ATOM    103  O   UNL A   1      44.106  33.540  26.691  1.00  0.00    -0.237 OA
ATOM    104  O   UNL A   1      46.018  32.113  26.044  1.00  0.00    -0.237 OA
ATOM    105  O   UNL A   1      43.762  31.150  26.238  1.00  0.00    -0.744 OA
ENDBRANCH  98 102
ENDBRANCH  72  95
ENDBRANCH  46  47
ENDBRANCH  39  41
ENDBRANCH  38  39
ENDBRANCH  37  38
ENDBRANCH   1  37
TORSDOF 22
ENDMDL
MODEL 2
REMARK VINA RESULT:     -11.9      2.328      3.306
REMARK SMILES Cc1c(CC(=O)N[C@H](CO)C(=O)OCCOC(=O)c2ccc(-c3c4nc(c(-c5cc(S(=O)(=O)[O-])ccc5F)c5ccc([nH]5)c(-c5cc(S(=O)(=O)[O-])ccc5F)c5nc(c(-c6cc(S(=O)(=O)[O-])ccc6F)c6ccc3[nH]6)C=C5)C=C4)cc2)cc(-c2ccc(S(C)(=O)=O)cc2)n1-c1cccc(F)c1
REMARK SMILES IDX 14 1 13 2 11 3 12 4 8 5 7 6 5 7 6 8 4 10 3 11 1 12 2 13
REMARK SMILES IDX 94 14 82 15 83 16 95 17 96 18 101 19 97 20 99 21 98 22
REMARK SMILES IDX 100 23 84 24 85 25 93 26 86 27 92 28 87 29 88 30 89 31 90 32
REMARK SMILES IDX 91 33 9 34 10 35 15 37 16 38 17 39 18 40 19 41 20 42 81 43
REMARK SMILES IDX 21 44 80 45 22 46 23 47 24 48 74 49 25 50 79 51 73 52 75 53
REMARK SMILES IDX 26 54 78 55 72 56 71 57 27 59 59 60 39 61 58 62 40 63 43 64
REMARK SMILES IDX 57 65 76 66 41 67 42 68 56 70 77 71 44 72 28 73 29 74 37 75
REMARK SMILES IDX 30 76 36 77 38 78 35 79 31 80 32 81 33 82 34 83 60 84 61 85
REMARK SMILES IDX 69 86 62 87 68 88 70 89 67 90 63 91 64 92 65 93 66 94 45 95
REMARK SMILES IDX 46 96 54 97 47 98 53 99 55 100 52 101 48 102 49 103 50 104
REMARK SMILES IDX 51 105
REMARK H PARENT 7 9 10 36 75 58 43 69
REMARK Flexibility Score: inf
ROOT
ATOM      1  C   UNL A   1      31.419  30.723  26.506  1.00  0.00     0.274 C 
ENDROOT
BRANCH   1   2
ATOM      2  O   UNL A   1      31.403  29.396  25.914  1.00  0.00    -0.460 OA
BRANCH   2   3
ATOM      3  C   UNL A   1      31.535  29.360  24.548  1.00  0.00     0.331 C 
ATOM      4  O   UNL A   1      32.586  29.600  23.960  1.00  0.00    -0.250 OA
BRANCH   3   5
ATOM      5  C   UNL A   1      30.213  28.992  23.823  1.00  0.00     0.218 C 
BRANCH   5   6
ATOM      6  N   UNL A   1      30.488  28.233  22.571  1.00  0.00    -0.341 N 
ATOM      7  C   UNL A   1      30.664  26.893  22.391  1.00  0.00     0.225 C 
ATOM      8  O   UNL A   1      30.912  26.495  21.247  1.00  0.00    -0.275 OA
ATOM      9  H   UNL A   1      30.550  28.779  21.755  1.00  0.00     0.164 HD
BRANCH   7  10
ATOM     10  C   UNL A   1      30.526  25.924  23.559  1.00  0.00     0.137 C 
BRANCH  10  11
ATOM     11  C   UNL A   1      31.592  24.867  23.542  1.00  0.00    -0.017 A 
ATOM     12  C   UNL A   1      33.725  26.350  23.654  1.00  0.00     0.065 C 
ATOM     13  C   UNL A   1      32.964  25.063  23.639  1.00  0.00     0.024 A 
ATOM     14  N   UNL A   1      33.573  23.820  23.750  1.00  0.00    -0.313 N 
ATOM     15  C   UNL A   1      31.383  23.461  23.454  1.00  0.00     0.033 A 
ATOM     16  C   UNL A   1      32.599  22.821  23.635  1.00  0.00     0.053 A 
BRANCH  14  17
ATOM     17  C   UNL A   1      34.946  23.588  24.052  1.00  0.00     0.049 A 
ATOM     18  C   UNL A   1      35.741  22.846  23.167  1.00  0.00     0.027 A 
ATOM     19  C   UNL A   1      35.433  23.945  25.313  1.00  0.00     0.065 A 
ATOM     20  C   UNL A   1      37.015  22.432  23.557  1.00  0.00     0.005 A 
ATOM     21  C   UNL A   1      36.702  23.521  25.686  1.00  0.00     0.125 A 
ATOM     22  C   UNL A   1      37.492  22.763  24.825  1.00  0.00     0.039 A 
ATOM     23  F   UNL A   1      37.158  23.805  26.913  1.00  0.00    -0.207 F 
ENDBRANCH  14  17
BRANCH  16  24
ATOM     24  C   UNL A   1      32.866  21.390  23.877  1.00  0.00    -0.001 A 
ATOM     25  C   UNL A   1      32.519  20.449  22.894  1.00  0.00     0.011 A 
ATOM     26  C   UNL A   1      33.382  20.923  25.089  1.00  0.00     0.011 A 
ATOM     27  C   UNL A   1      32.577  19.078  23.134  1.00  0.00     0.021 A 
ATOM     28  C   UNL A   1      33.447  19.542  25.342  1.00  0.00     0.021 A 
ATOM     29  C   UNL A   1      33.000  18.625  24.378  1.00  0.00     0.067 A 
BRANCH  29  30
ATOM     30  S   UNL A   1      33.122  16.869  24.652  1.00  0.00     0.175 S 
ATOM     31  C   UNL A   1      34.758  16.567  25.204  1.00  0.00     0.163 C 
ATOM     32  O   UNL A   1      32.276  16.551  25.791  1.00  0.00    -0.224 OA
ATOM     33  O   UNL A   1      32.996  16.213  23.368  1.00  0.00    -0.224 OA
ENDBRANCH  29  30
ENDBRANCH  16  24
ENDBRANCH  10  11
ENDBRANCH   7  10
ENDBRANCH   5   6
BRANCH   5  34
ATOM     34  C   UNL A   1      29.427  30.252  23.433  1.00  0.00     0.193 C 
BRANCH  34  35
ATOM     35  O   UNL A   1      29.966  31.421  24.066  1.00  0.00    -0.394 OA
ATOM     36  H   UNL A   1      30.273  32.043  23.388  1.00  0.00     0.210 HD
ENDBRANCH  34  35
ENDBRANCH   5  34
ENDBRANCH   3   5
ENDBRANCH   2   3
ENDBRANCH   1   2
BRANCH   1  37
ATOM     37  C   UNL A   1      32.851  31.283  26.751  1.00  0.00     0.275 C 
BRANCH  37  38
ATOM     38  O   UNL A   1      33.538  30.993  28.023  1.00  0.00    -0.458 OA
BRANCH  38  39
ATOM     39  C   UNL A   1      34.473  31.903  28.454  1.00  0.00     0.338 C 
ATOM     40  O   UNL A   1      34.148  32.984  28.926  1.00  0.00    -0.246 OA
BRANCH  39  41
ATOM     41  C   UNL A   1      35.939  31.432  28.419  1.00  0.00     0.060 A 
ATOM     42  C   UNL A   1      36.190  30.189  27.865  1.00  0.00     0.016 A 
ATOM     43  C   UNL A   1      37.073  32.040  29.007  1.00  0.00     0.016 A 
ATOM     44  C   UNL A   1      37.522  29.658  27.793  1.00  0.00     0.010 A 
ATOM     45  C   UNL A   1      38.434  31.429  29.011  1.00  0.00     0.010 A 
ATOM     46  C   UNL A   1      38.731  30.212  28.369  1.00  0.00    -0.014 A 
BRANCH  46  47
ATOM     47  C   UNL A   1      40.029  29.175  28.516  1.00  0.00     0.031 A 
ATOM     48  C   UNL A   1      40.086  28.987  29.993  1.00  0.00     0.074 A 
ATOM     49  C   UNL A   1      41.072  28.479  27.867  1.00  0.00     0.049 A 
ATOM     50  N   UNL A   1      40.064  30.034  30.765  1.00  0.00    -0.248 NA
ATOM     51  C   UNL A   1      39.750  27.732  30.667  1.00  0.00     0.031 C 
ATOM     52  C   UNL A   1      41.400  28.428  26.431  1.00  0.00     0.029 A 
ATOM     53  N   UNL A   1      42.132  27.616  28.364  1.00  0.00    -0.354 N 
ATOM     54  C   UNL A   1      40.026  29.580  32.051  1.00  0.00     0.074 A 
ATOM     55  C   UNL A   1      39.625  28.181  31.923  1.00  0.00     0.031 C 
ATOM     56  C   UNL A   1      42.416  27.547  26.158  1.00  0.00     0.029 A 
ATOM     57  C   UNL A   1      42.972  26.951  27.378  1.00  0.00     0.049 A 
ATOM     58  H   UNL A   1      42.277  27.487  29.329  1.00  0.00     0.167 HD
ATOM     59  C   UNL A   1      40.957  30.147  32.869  1.00  0.00     0.034 A 
ATOM     60  C   UNL A   1      44.064  26.070  27.502  1.00  0.00     0.034 A 
ATOM     61  C   UNL A   1      42.086  29.275  33.034  1.00  0.00     0.049 A 
ATOM     62  C   UNL A   1      44.672  26.305  28.812  1.00  0.00     0.074 A 
ATOM     63  C   UNL A   1      42.183  27.937  33.353  1.00  0.00     0.029 A 
ATOM     64  N   UNL A   1      43.246  29.621  32.372  1.00  0.00    -0.354 N 
ATOM     65  N   UNL A   1      45.434  27.329  29.026  1.00  0.00    -0.248 NA
ATOM     66  C   UNL A   1      44.580  25.354  29.915  1.00  0.00     0.031 C 
ATOM     67  C   UNL A   1      43.143  27.431  32.450  1.00  0.00     0.029 A 
ATOM     68  C   UNL A   1      43.855  28.488  31.884  1.00  0.00     0.049 A 
ATOM     69  H   UNL A   1      43.586  30.539  32.264  1.00  0.00     0.167 HD
ATOM     70  C   UNL A   1      45.384  27.445  30.377  1.00  0.00     0.074 A 
ATOM     71  C   UNL A   1      45.169  26.093  30.860  1.00  0.00     0.031 C 
ATOM     72  C   UNL A   1      44.866  28.610  30.847  1.00  0.00     0.034 A 
BRANCH  59  73
ATOM     73  C   UNL A   1      41.057  31.646  32.706  1.00  0.00     0.023 A 
ATOM     74  C   UNL A   1      42.263  32.201  32.267  1.00  0.00     0.031 A 
ATOM     75  C   UNL A   1      40.036  32.534  33.119  1.00  0.00     0.131 A 
ATOM     76  C   UNL A   1      42.439  33.594  32.300  1.00  0.00     0.055 A 
ATOM     77  C   UNL A   1      40.240  33.908  33.216  1.00  0.00     0.041 A 
ATOM     78  F   UNL A   1      38.815  32.076  33.444  1.00  0.00    -0.206 F 
ATOM     79  C   UNL A   1      41.454  34.446  32.810  1.00  0.00     0.022 A 
BRANCH  76  80
ATOM     80  S   UNL A   1      43.968  34.287  31.620  1.00  0.00     0.124 S 
ATOM     81  O   UNL A   1      43.912  35.676  32.065  1.00  0.00    -0.237 OA
ATOM     82  O   UNL A   1      44.991  33.463  32.260  1.00  0.00    -0.237 OA
ATOM     83  O   UNL A   1      43.831  34.087  30.179  1.00  0.00    -0.744 OA
ENDBRANCH  76  80
ENDBRANCH  59  73
BRANCH  60  84
ATOM     84  C   UNL A   1      45.005  25.063  26.745  1.00  0.00     0.023 A 
ATOM     85  C   UNL A   1      44.594  23.699  26.418  1.00  0.00     0.031 A 
ATOM     86  C   UNL A   1      46.070  25.533  25.967  1.00  0.00     0.131 A 
ATOM     87  C   UNL A   1      45.189  22.934  25.366  1.00  0.00     0.055 A 
ATOM     88  C   UNL A   1      46.667  24.763  24.935  1.00  0.00     0.041 A 
ATOM     89  F   UNL A   1      46.488  26.801  26.095  1.00  0.00    -0.206 F 
ATOM     90  C   UNL A   1      46.224  23.478  24.619  1.00  0.00     0.022 A 
BRANCH  87  91
ATOM     91  S   UNL A   1      44.519  21.298  24.810  1.00  0.00     0.124 S 
ATOM     92  O   UNL A   1      43.205  21.247  25.438  1.00  0.00    -0.237 OA
ATOM     93  O   UNL A   1      44.545  21.411  23.354  1.00  0.00    -0.237 OA
ATOM     94  O   UNL A   1      45.482  20.331  25.347  1.00  0.00    -0.744 OA
ENDBRANCH  87  91
ENDBRANCH  60  84
BRANCH  72  95
ATOM     95  C   UNL A   1      45.255  29.893  30.091  1.00  0.00     0.023 A 
ATOM     96  C   UNL A   1      44.664  30.377  28.886  1.00  0.00     0.031 A 
ATOM     97  C   UNL A   1      46.368  30.612  30.552  1.00  0.00     0.131 A 
ATOM     98  C   UNL A   1      45.212  31.468  28.177  1.00  0.00     0.055 A 
ATOM     99  C   UNL A   1      46.884  31.723  29.877  1.00  0.00     0.041 A 
ATOM    100  F   UNL A   1      46.997  30.234  31.676  1.00  0.00    -0.206 F 
ATOM    101  C   UNL A   1      46.322  32.143  28.676  1.00  0.00     0.022 A 
BRANCH  98 102
ATOM    102  S   UNL A   1      44.544  31.956  26.546  1.00  0.00     0.124 S 
ATOM    103  O   UNL A   1      45.699  31.866  25.659  1.00  0.00    -0.237 OA
ATOM    104  O   UNL A   1      43.493  30.967  26.320  1.00  0.00    -0.237 OA
ATOM    105  O   UNL A   1      44.060  33.319  26.771  1.00  0.00    -0.744 OA
ENDBRANCH  98 102
ENDBRANCH  72  95
ENDBRANCH  46  47
ENDBRANCH  39  41
ENDBRANCH  38  39
ENDBRANCH  37  38
ENDBRANCH   1  37
TORSDOF 22
ENDMDL
MODEL 3
REMARK VINA RESULT:     -11.0      1.857      2.253
REMARK SMILES Cc1c(CC(=O)N[C@H](CO)C(=O)OCCOC(=O)c2ccc(-c3c4nc(c(-c5cc(S(=O)(=O)[O-])ccc5F)c5ccc([nH]5)c(-c5cc(S(=O)(=O)[O-])ccc5F)c5nc(c(-c6cc(S(=O)(=O)[O-])ccc6F)c6ccc3[nH]6)C=C5)C=C4)cc2)cc(-c2ccc(S(C)(=O)=O)cc2)n1-c1cccc(F)c1
REMARK SMILES IDX 14 1 13 2 11 3 12 4 8 5 7 6 5 7 6 8 4 10 3 11 1 12 2 13
REMARK SMILES IDX 94 14 82 15 83 16 95 17 96 18 101 19 97 20 99 21 98 22
REMARK SMILES IDX 100 23 84 24 85 25 93 26 86 27 92 28 87 29 88 30 89 31 90 32
REMARK SMILES IDX 91 33 9 34 10 35 15 37 16 38 17 39 18 40 19 41 20 42 81 43
REMARK SMILES IDX 21 44 80 45 22 46 23 47 24 48 74 49 25 50 79 51 73 52 75 53
REMARK SMILES IDX 26 54 78 55 72 56 71 57 27 59 59 60 39 61 58 62 40 63 43 64
REMARK SMILES IDX 57 65 76 66 41 67 42 68 56 70 77 71 44 72 28 73 29 74 37 75
REMARK SMILES IDX 30 76 36 77 38 78 35 79 31 80 32 81 33 82 34 83 60 84 61 85
REMARK SMILES IDX 69 86 62 87 68 88 70 89 67 90 63 91 64 92 65 93 66 94 45 95
REMARK SMILES IDX 46 96 54 97 47 98 53 99 55 100 52 101 48 102 49 103 50 104
REMARK SMILES IDX 51 105
REMARK H PARENT 7 9 10 36 75 58 43 69
REMARK Flexibility Score: inf
ROOT
ATOM      1  C   UNL A   1      33.133  29.599  26.230  1.00  0.00     0.274 C 
ENDROOT
BRANCH   1   2
ATOM      2  O   UNL A   1      31.942  28.859  25.848  1.00  0.00    -0.460 OA
BRANCH   2   3
ATOM      3  C   UNL A   1      31.294  29.328  24.732  1.00  0.00     0.331 C 
ATOM      4  O   UNL A   1      30.676  30.389  24.700  1.00  0.00    -0.250 OA
BRANCH   3   5
ATOM      5  C   UNL A   1      31.417  28.372  23.516  1.00  0.00     0.218 C 
BRANCH   5   6
ATOM      6  N   UNL A   1      32.744  28.522  22.855  1.00  0.00    -0.341 N 
ATOM      7  C   UNL A   1      33.460  27.614  22.133  1.00  0.00     0.225 C 
ATOM      8  O   UNL A   1      34.563  27.966  21.701  1.00  0.00    -0.275 OA
ATOM      9  H   UNL A   1      33.163  29.407  22.953  1.00  0.00     0.164 HD
BRANCH   7  10
ATOM     10  C   UNL A   1      32.897  26.228  21.846  1.00  0.00     0.137 C 
BRANCH  10  11
ATOM     11  C   UNL A   1      33.363  25.213  22.850  1.00  0.00    -0.017 A 
ATOM     12  C   UNL A   1      31.187  23.824  23.158  1.00  0.00     0.065 C 
ATOM     13  C   UNL A   1      32.632  24.150  23.364  1.00  0.00     0.024 A 
ATOM     14  N   UNL A   1      33.485  23.367  24.130  1.00  0.00    -0.313 N 
ATOM     15  C   UNL A   1      34.661  25.141  23.435  1.00  0.00     0.033 A 
ATOM     16  C   UNL A   1      34.745  23.975  24.179  1.00  0.00     0.053 A 
BRANCH  14  17
ATOM     17  C   UNL A   1      33.176  22.089  24.680  1.00  0.00     0.049 A 
ATOM     18  C   UNL A   1      33.263  21.884  26.064  1.00  0.00     0.027 A 
ATOM     19  C   UNL A   1      32.969  21.010  23.815  1.00  0.00     0.065 A 
ATOM     20  C   UNL A   1      33.175  20.592  26.583  1.00  0.00     0.005 A 
ATOM     21  C   UNL A   1      32.888  19.730  24.349  1.00  0.00     0.125 A 
ATOM     22  C   UNL A   1      32.997  19.511  25.720  1.00  0.00     0.039 A 
ATOM     23  F   UNL A   1      32.749  18.681  23.527  1.00  0.00    -0.207 F 
ENDBRANCH  14  17
BRANCH  16  24
ATOM     24  C   UNL A   1      35.939  23.332  24.761  1.00  0.00    -0.001 A 
ATOM     25  C   UNL A   1      36.635  23.979  25.796  1.00  0.00     0.011 A 
ATOM     26  C   UNL A   1      36.455  22.132  24.266  1.00  0.00     0.011 A 
ATOM     27  C   UNL A   1      37.863  23.516  26.260  1.00  0.00     0.021 A 
ATOM     28  C   UNL A   1      37.693  21.653  24.728  1.00  0.00     0.021 A 
ATOM     29  C   UNL A   1      38.415  22.374  25.692  1.00  0.00     0.067 A 
BRANCH  29  30
ATOM     30  S   UNL A   1      39.960  21.761  26.333  1.00  0.00     0.175 S 
ATOM     31  C   UNL A   1      40.348  22.755  27.723  1.00  0.00     0.163 C 
ATOM     32  O   UNL A   1      39.706  20.436  26.876  1.00  0.00    -0.224 OA
ATOM     33  O   UNL A   1      40.983  22.024  25.343  1.00  0.00    -0.224 OA
ENDBRANCH  29  30
ENDBRANCH  16  24
ENDBRANCH  10  11
ENDBRANCH   7  10
ENDBRANCH   5   6
BRANCH   5  34
ATOM     34  C   UNL A   1      30.342  28.675  22.462  1.00  0.00     0.193 C 
BRANCH  34  35
ATOM     35  O   UNL A   1      30.702  29.810  21.662  1.00  0.00    -0.394 OA
ATOM     36  H   UNL A   1      30.107  29.869  20.898  1.00  0.00     0.210 HD
ENDBRANCH  34  35
ENDBRANCH   5  34
ENDBRANCH   3   5
ENDBRANCH   2   3
ENDBRANCH   1   2
BRANCH   1  37
ATOM     37  C   UNL A   1      32.834  30.893  27.042  1.00  0.00     0.275 C 
BRANCH  37  38
ATOM     38  O   UNL A   1      33.611  31.184  28.261  1.00  0.00    -0.458 OA
BRANCH  38  39
ATOM     39  C   UNL A   1      34.584  32.150  28.170  1.00  0.00     0.338 C 
ATOM     40  O   UNL A   1      34.304  33.335  28.057  1.00  0.00    -0.246 OA
BRANCH  39  41
ATOM     41  C   UNL A   1      36.035  31.664  28.342  1.00  0.00     0.060 A 
ATOM     42  C   UNL A   1      36.383  30.479  27.719  1.00  0.00     0.016 A 
ATOM     43  C   UNL A   1      37.049  32.195  29.174  1.00  0.00     0.016 A 
ATOM     44  C   UNL A   1      37.708  29.938  27.825  1.00  0.00     0.010 A 
ATOM     45  C   UNL A   1      38.391  31.567  29.353  1.00  0.00     0.010 A 
ATOM     46  C   UNL A   1      38.799  30.416  28.653  1.00  0.00    -0.014 A 
BRANCH  46  47
ATOM     47  C   UNL A   1      40.055  29.351  28.917  1.00  0.00     0.031 A 
ATOM     48  C   UNL A   1      39.847  29.005  30.352  1.00  0.00     0.074 A 
ATOM     49  C   UNL A   1      41.201  28.714  28.395  1.00  0.00     0.049 A 
ATOM     50  N   UNL A   1      39.681  29.965  31.216  1.00  0.00    -0.248 NA
ATOM     51  C   UNL A   1      39.402  27.691  30.817  1.00  0.00     0.031 C 
ATOM     52  C   UNL A   1      41.781  28.811  27.043  1.00  0.00     0.029 A 
ATOM     53  N   UNL A   1      42.159  27.788  28.978  1.00  0.00    -0.354 N 
ATOM     54  C   UNL A   1      39.415  29.377  32.418  1.00  0.00     0.074 A 
ATOM     55  C   UNL A   1      39.052  28.005  32.071  1.00  0.00     0.031 C 
ATOM     56  C   UNL A   1      42.834  27.950  26.863  1.00  0.00     0.029 A 
ATOM     57  C   UNL A   1      43.166  27.219  28.092  1.00  0.00     0.049 A 
ATOM     58  H   UNL A   1      42.129  27.555  29.933  1.00  0.00     0.167 HD
ATOM     59  C   UNL A   1      40.182  29.840  33.445  1.00  0.00     0.034 A 
ATOM     60  C   UNL A   1      44.223  26.316  28.314  1.00  0.00     0.034 A 
ATOM     61  C   UNL A   1      41.268  28.940  33.715  1.00  0.00     0.049 A 
ATOM     62  C   UNL A   1      44.585  26.401  29.729  1.00  0.00     0.074 A 
ATOM     63  C   UNL A   1      41.313  27.575  33.900  1.00  0.00     0.029 A 
ATOM     64  N   UNL A   1      42.526  29.339  33.311  1.00  0.00    -0.354 N 
ATOM     65  N   UNL A   1      45.290  27.386  30.185  1.00  0.00    -0.248 NA
ATOM     66  C   UNL A   1      44.302  25.340  30.689  1.00  0.00     0.031 C 
ATOM     67  C   UNL A   1      42.423  27.155  33.134  1.00  0.00     0.029 A 
ATOM     68  C   UNL A   1      43.219  28.255  32.821  1.00  0.00     0.049 A 
ATOM     69  H   UNL A   1      42.875  30.258  33.365  1.00  0.00     0.167 HD
ATOM     70  C   UNL A   1      44.998  27.358  31.509  1.00  0.00     0.074 A 
ATOM     71  C   UNL A   1      44.708  25.966  31.798  1.00  0.00     0.031 C 
ATOM     72  C   UNL A   1      44.398  28.473  32.001  1.00  0.00     0.034 A 
BRANCH  59  73
ATOM     73  C   UNL A   1      40.302  31.346  33.465  1.00  0.00     0.023 A 
ATOM     74  C   UNL A   1      40.598  32.018  32.274  1.00  0.00     0.031 A 
ATOM     75  C   UNL A   1      40.276  32.105  34.659  1.00  0.00     0.131 A 
ATOM     76  C   UNL A   1      40.908  33.388  32.309  1.00  0.00     0.055 A 
ATOM     77  C   UNL A   1      40.652  33.445  34.698  1.00  0.00     0.041 A 
ATOM     78  F   UNL A   1      39.888  31.549  35.819  1.00  0.00    -0.206 F 
ATOM     79  C   UNL A   1      40.978  34.094  33.515  1.00  0.00     0.022 A 
BRANCH  76  80
ATOM     80  S   UNL A   1      41.178  34.251  30.740  1.00  0.00     0.124 S 
ATOM     81  O   UNL A   1      41.518  33.160  29.833  1.00  0.00    -0.237 OA
ATOM     82  O   UNL A   1      39.881  34.881  30.508  1.00  0.00    -0.237 OA
ATOM     83  O   UNL A   1      42.267  35.179  31.035  1.00  0.00    -0.744 OA
ENDBRANCH  76  80
ENDBRANCH  59  73
BRANCH  60  84
ATOM     84  C   UNL A   1      45.289  25.381  27.634  1.00  0.00     0.023 A 
ATOM     85  C   UNL A   1      44.944  24.082  27.062  1.00  0.00     0.031 A 
ATOM     86  C   UNL A   1      46.489  25.912  27.145  1.00  0.00     0.131 A 
ATOM     87  C   UNL A   1      45.731  23.435  26.058  1.00  0.00     0.055 A 
ATOM     88  C   UNL A   1      47.275  25.257  26.160  1.00  0.00     0.041 A 
ATOM     89  F   UNL A   1      46.880  27.141  27.512  1.00  0.00    -0.206 F 
ATOM     90  C   UNL A   1      46.896  24.035  25.603  1.00  0.00     0.022 A 
BRANCH  87  91
ATOM     91  S   UNL A   1      45.176  21.901  25.178  1.00  0.00     0.124 S 
ATOM     92  O   UNL A   1      44.061  21.437  25.994  1.00  0.00    -0.237 OA
ATOM     93  O   UNL A   1      44.851  22.389  23.841  1.00  0.00    -0.237 OA
ATOM     94  O   UNL A   1      46.357  21.033  25.221  1.00  0.00    -0.744 OA
ENDBRANCH  87  91
ENDBRANCH  60  84
BRANCH  72  95
ATOM     95  C   UNL A   1      44.910  29.824  31.469  1.00  0.00     0.023 A 
ATOM     96  C   UNL A   1      46.193  30.399  31.717  1.00  0.00     0.031 A 
ATOM     97  C   UNL A   1      44.008  30.634  30.764  1.00  0.00     0.131 A 
ATOM     98  C   UNL A   1      46.500  31.721  31.331  1.00  0.00     0.055 A 
ATOM     99  C   UNL A   1      44.327  31.928  30.338  1.00  0.00     0.041 A 
ATOM    100  F   UNL A   1      42.775  30.185  30.484  1.00  0.00    -0.206 F 
ATOM    101  C   UNL A   1      45.565  32.485  30.638  1.00  0.00     0.022 A 
BRANCH  98 102
ATOM    102  S   UNL A   1      48.084  32.496  31.816  1.00  0.00     0.124 S 
ATOM    103  O   UNL A   1      47.912  33.896  31.446  1.00  0.00    -0.237 OA
ATOM    104  O   UNL A   1      48.149  32.222  33.250  1.00  0.00    -0.237 OA
ATOM    105  O   UNL A   1      49.074  31.775  31.013  1.00  0.00    -0.744 OA
ENDBRANCH  98 102
ENDBRANCH  72  95
ENDBRANCH  46  47
ENDBRANCH  39  41
ENDBRANCH  38  39
ENDBRANCH  37  38
ENDBRANCH   1  37
TORSDOF 22
ENDMDL
