MODEL 1
REMARK VINA RESULT:     -13.2      0.000      0.000
REMARK SMILES O=C(OCCOC(=O)c1ccc(-n2cc(CSc3nc4ccccc4c(=O)n3-c3ccc(Cl)cc3)nn2)cc1)c1ccc(-c2c3nc(c(-c4cc(S(=O)(=O)[O-])ccc4F)c4ccc([nH]4)c(-c4cc(S(=O)(=O)[O-])ccc4F)c4nc(c(-c5cc(S(=O)(=O)[O-])ccc5F)c5ccc2[nH]5)C=C4)C=C3)cc1
REMARK SMILES IDX 5 1 4 2 3 3 2 4 1 5 40 6 41 7 102 8 42 9 101 10 43 11 44 12
REMARK SMILES IDX 45 13 95 14 46 15 100 16 94 17 96 18 47 19 99 20 93 21 92 22
REMARK SMILES IDX 48 24 80 25 60 26 79 27 61 28 64 29 78 30 97 31 62 32 63 33
REMARK SMILES IDX 77 35 98 36 65 37 49 38 50 39 58 40 51 41 57 42 59 43 56 44
REMARK SMILES IDX 52 45 53 46 54 47 55 48 81 49 82 50 90 51 83 52 89 53 91 54
REMARK SMILES IDX 88 55 84 56 85 57 86 58 87 59 66 60 67 61 75 62 68 63 74 64
REMARK SMILES IDX 76 65 73 66 69 67 70 68 71 69 72 70 6 71 7 72 8 73 9 74
REMARK SMILES IDX 10 75 39 76 11 77 38 78 12 79 13 80 14 81 37 82 15 83 36 84
REMARK SMILES IDX 16 85 17 86 18 87 19 88 28 89 20 90 26 91 21 92 25 93 27 94
REMARK SMILES IDX 22 95 24 96 23 97 29 98 30 99 35 100 31 101 34 102 32 103
REMARK SMILES IDX 33 104
REMARK H PARENT 96 23 64 34
REMARK Flexibility Score: inf
ROOT
ATOM      1  C   UNL A   1      34.210  32.506  27.886  1.00  0.00     0.275 C 
ENDROOT
BRANCH   1   2
ATOM      2  C   UNL A   1      35.637  31.958  27.931  1.00  0.00     0.275 C 
BRANCH   2   3
ATOM      3  O   UNL A   1      35.870  30.802  28.761  1.00  0.00    -0.458 OA
BRANCH   3   4
ATOM      4  C   UNL A   1      36.172  29.613  28.196  1.00  0.00     0.338 C 
ATOM      5  O   UNL A   1      35.390  28.987  27.493  1.00  0.00    -0.246 OA
BRANCH   4   6
ATOM      6  C   UNL A   1      37.613  29.267  28.266  1.00  0.00     0.060 A 
ATOM      7  C   UNL A   1      38.546  29.636  27.293  1.00  0.00     0.016 A 
ATOM      8  C   UNL A   1      38.037  28.558  29.397  1.00  0.00     0.016 A 
ATOM      9  C   UNL A   1      39.866  29.209  27.399  1.00  0.00     0.010 A 
ATOM     10  C   UNL A   1      39.362  28.166  29.522  1.00  0.00     0.010 A 
ATOM     11  C   UNL A   1      40.265  28.433  28.493  1.00  0.00    -0.014 A 
BRANCH  11  12
ATOM     12  C   UNL A   1      41.664  28.001  28.585  1.00  0.00     0.031 A 
ATOM     13  C   UNL A   1      41.991  26.736  27.853  1.00  0.00     0.074 A 
ATOM     14  C   UNL A   1      42.635  28.758  29.142  1.00  0.00     0.049 A 
ATOM     15  N   UNL A   1      42.475  25.625  28.306  1.00  0.00    -0.248 NA
ATOM     16  C   UNL A   1      41.616  26.674  26.434  1.00  0.00     0.031 C 
ATOM     17  C   UNL A   1      42.549  30.115  29.690  1.00  0.00     0.029 A 
ATOM     18  N   UNL A   1      43.964  28.486  29.253  1.00  0.00    -0.354 N 
ATOM     19  C   UNL A   1      42.640  24.789  27.198  1.00  0.00     0.074 A 
ATOM     20  C   UNL A   1      41.958  25.425  26.119  1.00  0.00     0.031 C 
ATOM     21  C   UNL A   1      43.794  30.622  29.852  1.00  0.00     0.029 A 
ATOM     22  C   UNL A   1      44.767  29.578  29.572  1.00  0.00     0.049 A 
ATOM     23  H   UNL A   1      44.331  27.582  29.116  1.00  0.00     0.167 HD
ATOM     24  C   UNL A   1      43.469  23.707  27.185  1.00  0.00     0.034 A 
ATOM     25  C   UNL A   1      46.129  29.628  29.581  1.00  0.00     0.034 A 
ATOM     26  C   UNL A   1      43.740  23.255  28.521  1.00  0.00     0.049 A 
ATOM     27  C   UNL A   1      46.595  28.222  29.690  1.00  0.00     0.074 A 
ATOM     28  C   UNL A   1      42.931  22.799  29.543  1.00  0.00     0.029 A 
ATOM     29  N   UNL A   1      44.900  23.678  29.127  1.00  0.00    -0.354 N 
ATOM     30  N   UNL A   1      46.364  27.480  30.739  1.00  0.00    -0.248 NA
ATOM     31  C   UNL A   1      46.841  27.490  28.454  1.00  0.00     0.031 C 
ATOM     32  C   UNL A   1      43.388  23.516  30.687  1.00  0.00     0.029 A 
ATOM     33  C   UNL A   1      44.519  24.249  30.319  1.00  0.00     0.049 A 
ATOM     34  H   UNL A   1      45.816  23.589  28.780  1.00  0.00     0.167 HD
ATOM     35  C   UNL A   1      46.005  26.241  30.233  1.00  0.00     0.074 A 
ATOM     36  C   UNL A   1      46.390  26.285  28.819  1.00  0.00     0.031 C 
ATOM     37  C   UNL A   1      45.181  25.394  30.917  1.00  0.00     0.034 A 
BRANCH  24  38
ATOM     38  C   UNL A   1      44.260  23.233  25.984  1.00  0.00     0.023 A 
ATOM     39  C   UNL A   1      44.103  21.896  25.566  1.00  0.00     0.031 A 
ATOM     40  C   UNL A   1      45.356  23.926  25.420  1.00  0.00     0.131 A 
ATOM     41  C   UNL A   1      45.039  21.293  24.704  1.00  0.00     0.055 A 
ATOM     42  C   UNL A   1      46.241  23.344  24.507  1.00  0.00     0.041 A 
ATOM     43  F   UNL A   1      45.699  25.161  25.806  1.00  0.00    -0.206 F 
ATOM     44  C   UNL A   1      46.105  22.011  24.167  1.00  0.00     0.022 A 
BRANCH  41  45
ATOM     45  S   UNL A   1      44.950  19.499  24.442  1.00  0.00     0.124 S 
ATOM     46  O   UNL A   1      43.864  19.118  25.339  1.00  0.00    -0.237 OA
ATOM     47  O   UNL A   1      44.662  19.417  23.014  1.00  0.00    -0.237 OA
ATOM     48  O   UNL A   1      46.276  19.030  24.836  1.00  0.00    -0.744 OA
ENDBRANCH  41  45
ENDBRANCH  24  38
BRANCH  25  49
ATOM     49  C   UNL A   1      47.006  30.754  29.134  1.00  0.00     0.023 A 
ATOM     50  C   UNL A   1      46.758  31.540  27.983  1.00  0.00     0.031 A 
ATOM     51  C   UNL A   1      47.999  31.232  30.018  1.00  0.00     0.131 A 
ATOM     52  C   UNL A   1      47.493  32.733  27.758  1.00  0.00     0.055 A 
ATOM     53  C   UNL A   1      48.713  32.411  29.796  1.00  0.00     0.041 A 
ATOM     54  F   UNL A   1      48.254  30.604  31.178  1.00  0.00    -0.206 F 
ATOM     55  C   UNL A   1      48.457  33.173  28.668  1.00  0.00     0.022 A 
BRANCH  52  56
ATOM     56  S   UNL A   1      47.164  33.787  26.301  1.00  0.00     0.124 S 
ATOM     57  O   UNL A   1      48.383  33.627  25.517  1.00  0.00    -0.237 OA
ATOM     58  O   UNL A   1      45.953  33.192  25.747  1.00  0.00    -0.237 OA
ATOM     59  O   UNL A   1      46.979  35.121  26.876  1.00  0.00    -0.744 OA
ENDBRANCH  52  56
ENDBRANCH  25  49
BRANCH  37  60
ATOM     60  C   UNL A   1      44.763  25.759  32.333  1.00  0.00     0.023 A 
ATOM     61  C   UNL A   1      43.664  26.586  32.674  1.00  0.00     0.031 A 
ATOM     62  C   UNL A   1      45.432  25.108  33.385  1.00  0.00     0.131 A 
ATOM     63  C   UNL A   1      43.284  26.736  34.024  1.00  0.00     0.055 A 
ATOM     64  C   UNL A   1      45.034  25.235  34.714  1.00  0.00     0.041 A 
ATOM     65  F   UNL A   1      46.467  24.289  33.130  1.00  0.00    -0.206 F 
ATOM     66  C   UNL A   1      43.962  26.055  35.040  1.00  0.00     0.022 A 
BRANCH  63  67
ATOM     67  S   UNL A   1      41.912  27.842  34.502  1.00  0.00     0.124 S 
ATOM     68  O   UNL A   1      41.283  27.147  35.618  1.00  0.00    -0.237 OA
ATOM     69  O   UNL A   1      42.605  29.086  34.828  1.00  0.00    -0.237 OA
ATOM     70  O   UNL A   1      41.093  27.908  33.289  1.00  0.00    -0.744 OA
ENDBRANCH  63  67
ENDBRANCH  37  60
ENDBRANCH  11  12
ENDBRANCH   4   6
ENDBRANCH   3   4
ENDBRANCH   2   3
ENDBRANCH   1   2
BRANCH   1  71
ATOM     71  O   UNL A   1      33.256  31.439  28.007  1.00  0.00    -0.458 OA
BRANCH  71  72
ATOM     72  C   UNL A   1      32.253  31.417  27.096  1.00  0.00     0.338 C 
ATOM     73  O   UNL A   1      31.630  32.360  26.636  1.00  0.00    -0.246 OA
BRANCH  72  74
ATOM     74  C   UNL A   1      32.053  30.014  26.701  1.00  0.00     0.060 A 
ATOM     75  C   UNL A   1      31.828  29.043  27.683  1.00  0.00     0.018 A 
ATOM     76  C   UNL A   1      32.078  29.673  25.344  1.00  0.00     0.018 A 
ATOM     77  C   UNL A   1      31.561  27.726  27.308  1.00  0.00     0.029 A 
ATOM     78  C   UNL A   1      31.851  28.351  24.966  1.00  0.00     0.029 A 
ATOM     79  C   UNL A   1      31.566  27.393  25.951  1.00  0.00     0.066 A 
BRANCH  79  80
ATOM     80  N   UNL A   1      31.473  26.040  25.593  1.00  0.00    -0.220 N 
ATOM     81  C   UNL A   1      31.694  25.550  24.341  1.00  0.00     0.141 A 
ATOM     82  N   UNL A   1      30.828  25.119  26.309  1.00  0.00    -0.062 NA
ATOM     83  C   UNL A   1      31.262  24.247  24.347  1.00  0.00     0.093 A 
ATOM     84  N   UNL A   1      30.727  24.009  25.587  1.00  0.00    -0.134 NA
BRANCH  83  85
ATOM     85  C   UNL A   1      30.998  23.308  23.232  1.00  0.00     0.138 C 
BRANCH  85  86
ATOM     86  S   UNL A   1      32.239  22.305  22.414  1.00  0.00    -0.081 SA
BRANCH  86  87
ATOM     87  C   UNL A   1      32.863  21.029  23.420  1.00  0.00     0.176 A 
ATOM     88  N   UNL A   1      32.479  19.853  23.015  1.00  0.00    -0.223 NA
ATOM     89  N   UNL A   1      33.693  21.180  24.520  1.00  0.00    -0.255 N 
ATOM     90  C   UNL A   1      32.782  18.744  23.808  1.00  0.00     0.079 A 
ATOM     91  C   UNL A   1      33.403  20.289  25.565  1.00  0.00     0.266 A 
ATOM     92  C   UNL A   1      32.695  17.449  23.302  1.00  0.00     0.029 A 
ATOM     93  C   UNL A   1      33.061  18.919  25.156  1.00  0.00     0.066 A 
ATOM     94  O   UNL A   1      33.407  20.553  26.766  1.00  0.00    -0.268 OA
ATOM     95  C   UNL A   1      32.813  16.349  24.161  1.00  0.00     0.002 A 
ATOM     96  C   UNL A   1      33.112  17.837  26.039  1.00  0.00     0.016 A 
ATOM     97  C   UNL A   1      32.978  16.545  25.535  1.00  0.00     0.001 A 
BRANCH  89  98
ATOM     98  C   UNL A   1      34.722  22.187  24.721  1.00  0.00     0.051 A 
ATOM     99  C   UNL A   1      36.009  22.004  24.166  1.00  0.00     0.028 A 
ATOM    100  C   UNL A   1      34.562  23.332  25.515  1.00  0.00     0.028 A 
ATOM    101  C   UNL A   1      37.121  22.727  24.617  1.00  0.00     0.022 A 
ATOM    102  C   UNL A   1      35.676  24.022  26.021  1.00  0.00     0.022 A 
ATOM    103  C   UNL A   1      36.957  23.681  25.607  1.00  0.00     0.041 A 
ATOM    104  Cl  UNL A   1      38.328  24.400  26.348  1.00  0.00    -0.084 Cl
ENDBRANCH  89  98
ENDBRANCH  86  87
ENDBRANCH  85  86
ENDBRANCH  83  85
ENDBRANCH  79  80
ENDBRANCH  72  74
ENDBRANCH  71  72
ENDBRANCH   1  71
TORSDOF 19
ENDMDL
MODEL 2
REMARK VINA RESULT:     -13.1      1.669      2.413
REMARK SMILES O=C(OCCOC(=O)c1ccc(-n2cc(CSc3nc4ccccc4c(=O)n3-c3ccc(Cl)cc3)nn2)cc1)c1ccc(-c2c3nc(c(-c4cc(S(=O)(=O)[O-])ccc4F)c4ccc([nH]4)c(-c4cc(S(=O)(=O)[O-])ccc4F)c4nc(c(-c5cc(S(=O)(=O)[O-])ccc5F)c5ccc2[nH]5)C=C4)C=C3)cc1
REMARK SMILES IDX 5 1 4 2 3 3 2 4 1 5 40 6 41 7 102 8 42 9 101 10 43 11 44 12
REMARK SMILES IDX 45 13 95 14 46 15 100 16 94 17 96 18 47 19 99 20 93 21 92 22
REMARK SMILES IDX 48 24 80 25 60 26 79 27 61 28 64 29 78 30 97 31 62 32 63 33
REMARK SMILES IDX 77 35 98 36 65 37 49 38 50 39 58 40 51 41 57 42 59 43 56 44
REMARK SMILES IDX 52 45 53 46 54 47 55 48 81 49 82 50 90 51 83 52 89 53 91 54
REMARK SMILES IDX 88 55 84 56 85 57 86 58 87 59 66 60 67 61 75 62 68 63 74 64
REMARK SMILES IDX 76 65 73 66 69 67 70 68 71 69 72 70 6 71 7 72 8 73 9 74
REMARK SMILES IDX 10 75 39 76 11 77 38 78 12 79 13 80 14 81 37 82 15 83 36 84
REMARK SMILES IDX 16 85 17 86 18 87 19 88 28 89 20 90 26 91 21 92 25 93 27 94
REMARK SMILES IDX 22 95 24 96 23 97 29 98 30 99 35 100 31 101 34 102 32 103
REMARK SMILES IDX 33 104
REMARK H PARENT 96 23 64 34
REMARK Flexibility Score: inf
ROOT
ATOM      1  C   UNL A   1      33.929  31.905  27.915  1.00  0.00     0.275 C 
ENDROOT
BRANCH   1   2
ATOM      2  C   UNL A   1      35.455  31.953  27.825  1.00  0.00     0.275 C 
BRANCH   2   3
ATOM      3  O   UNL A   1      36.191  31.010  28.631  1.00  0.00    -0.458 OA
BRANCH   3   4
ATOM      4  C   UNL A   1      36.295  29.722  28.238  1.00  0.00     0.338 C 
ATOM      5  O   UNL A   1      35.398  29.122  27.663  1.00  0.00    -0.246 OA
BRANCH   4   6
ATOM      6  C   UNL A   1      37.677  29.186  28.311  1.00  0.00     0.060 A 
ATOM      7  C   UNL A   1      38.156  28.420  29.377  1.00  0.00     0.016 A 
ATOM      8  C   UNL A   1      38.515  29.454  27.220  1.00  0.00     0.016 A 
ATOM      9  C   UNL A   1      39.487  28.018  29.400  1.00  0.00     0.010 A 
ATOM     10  C   UNL A   1      39.832  29.019  27.226  1.00  0.00     0.010 A 
ATOM     11  C   UNL A   1      40.340  28.356  28.344  1.00  0.00    -0.014 A 
BRANCH  11  12
ATOM     12  C   UNL A   1      41.737  27.913  28.389  1.00  0.00     0.031 A 
ATOM     13  C   UNL A   1      42.012  26.602  27.718  1.00  0.00     0.074 A 
ATOM     14  C   UNL A   1      42.744  28.690  28.847  1.00  0.00     0.049 A 
ATOM     15  N   UNL A   1      42.510  25.514  28.213  1.00  0.00    -0.248 NA
ATOM     16  C   UNL A   1      41.563  26.459  26.328  1.00  0.00     0.031 C 
ATOM     17  C   UNL A   1      42.700  30.078  29.315  1.00  0.00     0.029 A 
ATOM     18  N   UNL A   1      44.074  28.407  28.904  1.00  0.00    -0.354 N 
ATOM     19  C   UNL A   1      42.608  24.611  27.150  1.00  0.00     0.074 A 
ATOM     20  C   UNL A   1      41.875  25.189  26.072  1.00  0.00     0.031 C 
ATOM     21  C   UNL A   1      43.957  30.578  29.380  1.00  0.00     0.029 A 
ATOM     22  C   UNL A   1      44.903  29.507  29.114  1.00  0.00     0.049 A 
ATOM     23  H   UNL A   1      44.424  27.492  28.803  1.00  0.00     0.167 HD
ATOM     24  C   UNL A   1      43.424  23.519  27.161  1.00  0.00     0.034 A 
ATOM     25  C   UNL A   1      46.265  29.539  29.048  1.00  0.00     0.034 A 
ATOM     26  C   UNL A   1      43.761  23.145  28.505  1.00  0.00     0.049 A 
ATOM     27  C   UNL A   1      46.722  28.137  29.218  1.00  0.00     0.074 A 
ATOM     28  C   UNL A   1      43.003  22.762  29.594  1.00  0.00     0.029 A 
ATOM     29  N   UNL A   1      44.955  23.589  29.023  1.00  0.00    -0.354 N 
ATOM     30  N   UNL A   1      46.539  27.463  30.321  1.00  0.00    -0.248 NA
ATOM     31  C   UNL A   1      46.895  27.328  28.018  1.00  0.00     0.031 C 
ATOM     32  C   UNL A   1      43.526  23.541  30.667  1.00  0.00     0.029 A 
ATOM     33  C   UNL A   1      44.643  24.236  30.196  1.00  0.00     0.049 A 
ATOM     34  H   UNL A   1      45.851  23.467  28.634  1.00  0.00     0.167 HD
ATOM     35  C   UNL A   1      46.142  26.200  29.911  1.00  0.00     0.074 A 
ATOM     36  C   UNL A   1      46.452  26.153  28.479  1.00  0.00     0.031 C 
ATOM     37  C   UNL A   1      45.347  25.406  30.688  1.00  0.00     0.034 A 
BRANCH  24  38
ATOM     38  C   UNL A   1      44.145  22.963  25.951  1.00  0.00     0.023 A 
ATOM     39  C   UNL A   1      43.948  21.607  25.620  1.00  0.00     0.031 A 
ATOM     40  C   UNL A   1      45.221  23.605  25.293  1.00  0.00     0.131 A 
ATOM     41  C   UNL A   1      44.830  20.940  24.749  1.00  0.00     0.055 A 
ATOM     42  C   UNL A   1      46.049  22.956  24.372  1.00  0.00     0.041 A 
ATOM     43  F   UNL A   1      45.599  24.854  25.587  1.00  0.00    -0.206 F 
ATOM     44  C   UNL A   1      45.877  21.607  24.117  1.00  0.00     0.022 A 
BRANCH  41  45
ATOM     45  S   UNL A   1      44.703  19.136  24.597  1.00  0.00     0.124 S 
ATOM     46  O   UNL A   1      44.868  18.943  23.161  1.00  0.00    -0.237 OA
ATOM     47  O   UNL A   1      45.807  18.683  25.437  1.00  0.00    -0.237 OA
ATOM     48  O   UNL A   1      43.369  18.843  25.115  1.00  0.00    -0.744 OA
ENDBRANCH  41  45
ENDBRANCH  24  38
BRANCH  25  49
ATOM     49  C   UNL A   1      47.127  30.625  28.488  1.00  0.00     0.023 A 
ATOM     50  C   UNL A   1      46.657  31.639  27.620  1.00  0.00     0.031 A 
ATOM     51  C   UNL A   1      48.420  30.810  29.028  1.00  0.00     0.131 A 
ATOM     52  C   UNL A   1      47.471  32.764  27.325  1.00  0.00     0.055 A 
ATOM     53  C   UNL A   1      49.213  31.923  28.740  1.00  0.00     0.041 A 
ATOM     54  F   UNL A   1      48.926  29.948  29.924  1.00  0.00    -0.206 F 
ATOM     55  C   UNL A   1      48.739  32.911  27.893  1.00  0.00     0.022 A 
BRANCH  52  56
ATOM     56  S   UNL A   1      46.871  34.108  26.240  1.00  0.00     0.124 S 
ATOM     57  O   UNL A   1      45.693  33.509  25.624  1.00  0.00    -0.237 OA
ATOM     58  O   UNL A   1      46.630  35.193  27.184  1.00  0.00    -0.237 OA
ATOM     59  O   UNL A   1      47.990  34.336  25.323  1.00  0.00    -0.744 OA
ENDBRANCH  52  56
ENDBRANCH  25  49
BRANCH  37  60
ATOM     60  C   UNL A   1      45.009  25.861  32.099  1.00  0.00     0.023 A 
ATOM     61  C   UNL A   1      43.874  26.629  32.460  1.00  0.00     0.031 A 
ATOM     62  C   UNL A   1      45.806  25.358  33.142  1.00  0.00     0.131 A 
ATOM     63  C   UNL A   1      43.586  26.868  33.821  1.00  0.00     0.055 A 
ATOM     64  C   UNL A   1      45.500  25.571  34.485  1.00  0.00     0.041 A 
ATOM     65  F   UNL A   1      46.883  24.600  32.870  1.00  0.00    -0.206 F 
ATOM     66  C   UNL A   1      44.392  26.333  34.829  1.00  0.00     0.022 A 
BRANCH  63  67
ATOM     67  S   UNL A   1      42.167  27.905  34.317  1.00  0.00     0.124 S 
ATOM     68  O   UNL A   1      41.266  26.964  34.969  1.00  0.00    -0.237 OA
ATOM     69  O   UNL A   1      42.790  28.903  35.183  1.00  0.00    -0.237 OA
ATOM     70  O   UNL A   1      41.674  28.435  33.043  1.00  0.00    -0.744 OA
ENDBRANCH  63  67
ENDBRANCH  37  60
ENDBRANCH  11  12
ENDBRANCH   4   6
ENDBRANCH   3   4
ENDBRANCH   2   3
ENDBRANCH   1   2
BRANCH   1  71
ATOM     71  O   UNL A   1      33.369  31.383  26.700  1.00  0.00    -0.458 OA
BRANCH  71  72
ATOM     72  C   UNL A   1      32.027  31.193  26.683  1.00  0.00     0.338 C 
ATOM     73  O   UNL A   1      31.146  32.032  26.782  1.00  0.00    -0.246 OA
BRANCH  72  74
ATOM     74  C   UNL A   1      31.791  29.756  26.479  1.00  0.00     0.060 A 
ATOM     75  C   UNL A   1      31.454  29.284  25.206  1.00  0.00     0.018 A 
ATOM     76  C   UNL A   1      31.919  28.879  27.561  1.00  0.00     0.018 A 
ATOM     77  C   UNL A   1      31.304  27.913  24.992  1.00  0.00     0.029 A 
ATOM     78  C   UNL A   1      31.733  27.512  27.361  1.00  0.00     0.029 A 
ATOM     79  C   UNL A   1      31.454  27.038  26.071  1.00  0.00     0.066 A 
BRANCH  79  80
ATOM     80  N   UNL A   1      31.130  25.685  25.886  1.00  0.00    -0.220 N 
ATOM     81  C   UNL A   1      31.641  24.656  26.618  1.00  0.00     0.141 A 
ATOM     82  N   UNL A   1      30.577  25.194  24.777  1.00  0.00    -0.062 NA
ATOM     83  C   UNL A   1      31.280  23.499  25.974  1.00  0.00     0.093 A 
ATOM     84  N   UNL A   1      30.619  23.867  24.831  1.00  0.00    -0.134 NA
BRANCH  83  85
ATOM     85  C   UNL A   1      31.764  22.108  26.137  1.00  0.00     0.138 C 
BRANCH  85  86
ATOM     86  S   UNL A   1      32.589  21.148  24.867  1.00  0.00    -0.081 SA
BRANCH  86  87
ATOM     87  C   UNL A   1      34.292  21.490  24.746  1.00  0.00     0.176 A 
ATOM     88  N   UNL A   1      35.020  20.436  24.977  1.00  0.00    -0.223 NA
ATOM     89  N   UNL A   1      34.865  22.710  24.422  1.00  0.00    -0.255 N 
ATOM     90  C   UNL A   1      36.406  20.590  25.058  1.00  0.00     0.079 A 
ATOM     91  C   UNL A   1      36.041  22.982  25.140  1.00  0.00     0.266 A 
ATOM     92  C   UNL A   1      37.260  19.492  24.981  1.00  0.00     0.029 A 
ATOM     93  C   UNL A   1      36.944  21.838  25.337  1.00  0.00     0.066 A 
ATOM     94  O   UNL A   1      36.369  24.070  25.609  1.00  0.00    -0.268 OA
ATOM     95  C   UNL A   1      38.625  19.642  25.258  1.00  0.00     0.002 A 
ATOM     96  C   UNL A   1      38.288  21.994  25.685  1.00  0.00     0.016 A 
ATOM     97  C   UNL A   1      39.129  20.884  25.652  1.00  0.00     0.001 A 
BRANCH  89  98
ATOM     98  C   UNL A   1      34.340  23.725  23.525  1.00  0.00     0.051 A 
ATOM     99  C   UNL A   1      34.330  25.082  23.920  1.00  0.00     0.028 A 
ATOM    100  C   UNL A   1      33.748  23.452  22.284  1.00  0.00     0.028 A 
ATOM    101  C   UNL A   1      33.525  26.034  23.283  1.00  0.00     0.022 A 
ATOM    102  C   UNL A   1      32.889  24.380  21.672  1.00  0.00     0.022 A 
ATOM    103  C   UNL A   1      32.742  25.653  22.205  1.00  0.00     0.041 A 
ATOM    104  Cl  UNL A   1      31.569  26.731  21.567  1.00  0.00    -0.084 Cl
ENDBRANCH  89  98
ENDBRANCH  86  87
ENDBRANCH  85  86
ENDBRANCH  83  85
ENDBRANCH  79  80
ENDBRANCH  72  74
ENDBRANCH  71  72
ENDBRANCH   1  71
TORSDOF 19
ENDMDL
MODEL 3
REMARK VINA RESULT:     -12.8      2.458      7.301
REMARK SMILES O=C(OCCOC(=O)c1ccc(-n2cc(CSc3nc4ccccc4c(=O)n3-c3ccc(Cl)cc3)nn2)cc1)c1ccc(-c2c3nc(c(-c4cc(S(=O)(=O)[O-])ccc4F)c4ccc([nH]4)c(-c4cc(S(=O)(=O)[O-])ccc4F)c4nc(c(-c5cc(S(=O)(=O)[O-])ccc5F)c5ccc2[nH]5)C=C4)C=C3)cc1
REMARK SMILES IDX 5 1 4 2 3 3 2 4 1 5 40 6 41 7 102 8 42 9 101 10 43 11 44 12
REMARK SMILES IDX 45 13 95 14 46 15 100 16 94 17 96 18 47 19 99 20 93 21 92 22
REMARK SMILES IDX 48 24 80 25 60 26 79 27 61 28 64 29 78 30 97 31 62 32 63 33
REMARK SMILES IDX 77 35 98 36 65 37 49 38 50 39 58 40 51 41 57 42 59 43 56 44
REMARK SMILES IDX 52 45 53 46 54 47 55 48 81 49 82 50 90 51 83 52 89 53 91 54
REMARK SMILES IDX 88 55 84 56 85 57 86 58 87 59 66 60 67 61 75 62 68 63 74 64
REMARK SMILES IDX 76 65 73 66 69 67 70 68 71 69 72 70 6 71 7 72 8 73 9 74
REMARK SMILES IDX 10 75 39 76 11 77 38 78 12 79 13 80 14 81 37 82 15 83 36 84
REMARK SMILES IDX 16 85 17 86 18 87 19 88 28 89 20 90 26 91 21 92 25 93 27 94
REMARK SMILES IDX 22 95 24 96 23 97 29 98 30 99 35 100 31 101 34 102 32 103
REMARK SMILES IDX 33 104
REMARK H PARENT 96 23 64 34
REMARK Flexibility Score: inf
ROOT
ATOM      1  C   UNL A   1      34.027  32.637  27.745  1.00  0.00     0.275 C 
ENDROOT
BRANCH   1   2
ATOM      2  C   UNL A   1      35.493  32.200  27.753  1.00  0.00     0.275 C 
BRANCH   2   3
ATOM      3  O   UNL A   1      36.318  32.688  28.830  1.00  0.00    -0.458 OA
BRANCH   3   4
ATOM      4  C   UNL A   1      36.405  31.992  29.984  1.00  0.00     0.338 C 
ATOM      5  O   UNL A   1      35.512  31.965  30.819  1.00  0.00    -0.246 OA
BRANCH   4   6
ATOM      6  C   UNL A   1      37.547  31.046  30.025  1.00  0.00     0.060 A 
ATOM      7  C   UNL A   1      37.416  29.665  29.854  1.00  0.00     0.016 A 
ATOM      8  C   UNL A   1      38.819  31.601  30.216  1.00  0.00     0.016 A 
ATOM      9  C   UNL A   1      38.529  28.841  29.980  1.00  0.00     0.010 A 
ATOM     10  C   UNL A   1      39.935  30.782  30.302  1.00  0.00     0.010 A 
ATOM     11  C   UNL A   1      39.785  29.396  30.250  1.00  0.00    -0.014 A 
BRANCH  11  12
ATOM     12  C   UNL A   1      40.945  28.506  30.370  1.00  0.00     0.031 A 
ATOM     13  C   UNL A   1      41.434  28.281  31.768  1.00  0.00     0.074 A 
ATOM     14  C   UNL A   1      41.444  27.800  29.332  1.00  0.00     0.049 A 
ATOM     15  N   UNL A   1      42.599  28.520  32.280  1.00  0.00    -0.248 NA
ATOM     16  C   UNL A   1      40.445  27.830  32.755  1.00  0.00     0.031 C 
ATOM     17  C   UNL A   1      40.951  27.708  27.955  1.00  0.00     0.029 A 
ATOM     18  N   UNL A   1      42.483  26.920  29.326  1.00  0.00    -0.354 N 
ATOM     19  C   UNL A   1      42.543  28.076  33.604  1.00  0.00     0.074 A 
ATOM     20  C   UNL A   1      41.167  27.813  33.874  1.00  0.00     0.031 C 
ATOM     21  C   UNL A   1      41.539  26.661  27.328  1.00  0.00     0.029 A 
ATOM     22  C   UNL A   1      42.561  26.105  28.199  1.00  0.00     0.049 A 
ATOM     23  H   UNL A   1      43.132  26.864  30.066  1.00  0.00     0.167 HD
ATOM     24  C   UNL A   1      43.646  27.789  34.351  1.00  0.00     0.034 A 
ATOM     25  C   UNL A   1      43.387  25.037  28.008  1.00  0.00     0.034 A 
ATOM     26  C   UNL A   1      44.808  28.446  33.822  1.00  0.00     0.049 A 
ATOM     27  C   UNL A   1      44.510  25.204  28.966  1.00  0.00     0.074 A 
ATOM     28  C   UNL A   1      45.124  29.774  33.612  1.00  0.00     0.029 A 
ATOM     29  N   UNL A   1      45.636  27.733  32.988  1.00  0.00    -0.354 N 
ATOM     30  N   UNL A   1      45.358  26.195  28.894  1.00  0.00    -0.248 NA
ATOM     31  C   UNL A   1      44.376  24.595  30.282  1.00  0.00     0.031 C 
ATOM     32  C   UNL A   1      45.652  29.796  32.288  1.00  0.00     0.029 A 
ATOM     33  C   UNL A   1      45.749  28.477  31.837  1.00  0.00     0.049 A 
ATOM     34  H   UNL A   1      46.061  26.866  33.177  1.00  0.00     0.167 HD
ATOM     35  C   UNL A   1      45.533  26.614  30.204  1.00  0.00     0.074 A 
ATOM     36  C   UNL A   1      44.961  25.542  31.024  1.00  0.00     0.031 C 
ATOM     37  C   UNL A   1      45.866  27.903  30.509  1.00  0.00     0.034 A 
BRANCH  24  38
ATOM     38  C   UNL A   1      43.729  26.690  35.389  1.00  0.00     0.023 A 
ATOM     39  C   UNL A   1      44.104  27.037  36.703  1.00  0.00     0.031 A 
ATOM     40  C   UNL A   1      43.745  25.306  35.094  1.00  0.00     0.131 A 
ATOM     41  C   UNL A   1      44.538  26.056  37.615  1.00  0.00     0.055 A 
ATOM     42  C   UNL A   1      44.106  24.329  36.027  1.00  0.00     0.041 A 
ATOM     43  F   UNL A   1      43.524  24.833  33.862  1.00  0.00    -0.206 F 
ATOM     44  C   UNL A   1      44.536  24.702  37.287  1.00  0.00     0.022 A 
BRANCH  41  45
ATOM     45  S   UNL A   1      45.285  26.594  39.179  1.00  0.00     0.124 S 
ATOM     46  O   UNL A   1      46.234  25.517  39.444  1.00  0.00    -0.237 OA
ATOM     47  O   UNL A   1      45.862  27.882  38.811  1.00  0.00    -0.237 OA
ATOM     48  O   UNL A   1      44.149  26.661  40.095  1.00  0.00    -0.744 OA
ENDBRANCH  41  45
ENDBRANCH  24  38
BRANCH  25  49
ATOM     49  C   UNL A   1      43.066  23.743  27.332  1.00  0.00     0.023 A 
ATOM     50  C   UNL A   1      43.895  23.131  26.361  1.00  0.00     0.031 A 
ATOM     51  C   UNL A   1      42.012  22.954  27.844  1.00  0.00     0.131 A 
ATOM     52  C   UNL A   1      43.646  21.797  25.945  1.00  0.00     0.055 A 
ATOM     53  C   UNL A   1      41.777  21.639  27.437  1.00  0.00     0.041 A 
ATOM     54  F   UNL A   1      41.219  23.411  28.827  1.00  0.00    -0.206 F 
ATOM     55  C   UNL A   1      42.599  21.050  26.490  1.00  0.00     0.022 A 
BRANCH  52  56
ATOM     56  S   UNL A   1      44.727  20.970  24.724  1.00  0.00     0.124 S 
ATOM     57  O   UNL A   1      44.652  21.871  23.580  1.00  0.00    -0.237 OA
ATOM     58  O   UNL A   1      46.006  20.911  25.422  1.00  0.00    -0.237 OA
ATOM     59  O   UNL A   1      44.084  19.670  24.520  1.00  0.00    -0.744 OA
ENDBRANCH  52  56
ENDBRANCH  25  49
BRANCH  37  60
ATOM     60  C   UNL A   1      46.195  28.865  29.378  1.00  0.00     0.023 A 
ATOM     61  C   UNL A   1      45.253  29.665  28.685  1.00  0.00     0.031 A 
ATOM     62  C   UNL A   1      47.555  29.083  29.100  1.00  0.00     0.131 A 
ATOM     63  C   UNL A   1      45.693  30.628  27.753  1.00  0.00     0.055 A 
ATOM     64  C   UNL A   1      47.987  30.057  28.201  1.00  0.00     0.041 A 
ATOM     65  F   UNL A   1      48.503  28.377  29.741  1.00  0.00    -0.206 F 
ATOM     66  C   UNL A   1      47.056  30.829  27.519  1.00  0.00     0.022 A 
BRANCH  63  67
ATOM     67  S   UNL A   1      44.502  31.631  26.798  1.00  0.00     0.124 S 
ATOM     68  O   UNL A   1      43.448  30.683  26.460  1.00  0.00    -0.237 OA
ATOM     69  O   UNL A   1      44.140  32.682  27.745  1.00  0.00    -0.237 OA
ATOM     70  O   UNL A   1      45.291  32.094  25.654  1.00  0.00    -0.744 OA
ENDBRANCH  63  67
ENDBRANCH  37  60
ENDBRANCH  11  12
ENDBRANCH   4   6
ENDBRANCH   3   4
ENDBRANCH   2   3
ENDBRANCH   1   2
BRANCH   1  71
ATOM     71  O   UNL A   1      33.160  31.496  27.858  1.00  0.00    -0.458 OA
BRANCH  71  72
ATOM     72  C   UNL A   1      32.249  31.327  26.870  1.00  0.00     0.338 C 
ATOM     73  O   UNL A   1      31.348  32.081  26.538  1.00  0.00    -0.246 OA
BRANCH  72  74
ATOM     74  C   UNL A   1      32.556  30.052  26.205  1.00  0.00     0.060 A 
ATOM     75  C   UNL A   1      33.548  29.218  26.732  1.00  0.00     0.018 A 
ATOM     76  C   UNL A   1      31.841  29.685  25.060  1.00  0.00     0.018 A 
ATOM     77  C   UNL A   1      33.790  27.973  26.150  1.00  0.00     0.029 A 
ATOM     78  C   UNL A   1      32.106  28.460  24.450  1.00  0.00     0.029 A 
ATOM     79  C   UNL A   1      33.059  27.601  25.018  1.00  0.00     0.066 A 
BRANCH  79  80
ATOM     80  N   UNL A   1      33.429  26.431  24.337  1.00  0.00    -0.220 N 
ATOM     81  C   UNL A   1      34.167  25.420  24.874  1.00  0.00     0.141 A 
ATOM     82  N   UNL A   1      33.425  26.305  23.011  1.00  0.00    -0.062 NA
ATOM     83  C   UNL A   1      34.523  24.598  23.834  1.00  0.00     0.093 A 
ATOM     84  N   UNL A   1      34.046  25.176  22.687  1.00  0.00    -0.134 NA
BRANCH  83  85
ATOM     85  C   UNL A   1      35.529  23.513  23.757  1.00  0.00     0.138 C 
BRANCH  85  86
ATOM     86  S   UNL A   1      35.773  22.244  24.998  1.00  0.00    -0.081 SA
BRANCH  86  87
ATOM     87  C   UNL A   1      34.718  20.874  24.797  1.00  0.00     0.176 A 
ATOM     88  N   UNL A   1      35.361  19.745  24.882  1.00  0.00    -0.223 NA
ATOM     89  N   UNL A   1      33.348  20.914  24.594  1.00  0.00    -0.255 N 
ATOM     90  C   UNL A   1      34.670  18.564  24.596  1.00  0.00     0.079 A 
ATOM     91  C   UNL A   1      32.887  19.935  23.700  1.00  0.00     0.266 A 
ATOM     92  C   UNL A   1      35.181  17.322  24.966  1.00  0.00     0.029 A 
ATOM     93  C   UNL A   1      33.516  18.611  23.828  1.00  0.00     0.066 A 
ATOM     94  O   UNL A   1      32.025  20.087  22.837  1.00  0.00    -0.268 OA
ATOM     95  C   UNL A   1      34.576  16.147  24.503  1.00  0.00     0.002 A 
ATOM     96  C   UNL A   1      32.942  17.453  23.299  1.00  0.00     0.016 A 
ATOM     97  C   UNL A   1      33.484  16.214  23.635  1.00  0.00     0.001 A 
BRANCH  89  98
ATOM     98  C   UNL A   1      32.403  21.885  25.118  1.00  0.00     0.051 A 
ATOM     99  C   UNL A   1      31.536  22.574  24.240  1.00  0.00     0.028 A 
ATOM    100  C   UNL A   1      32.329  22.268  26.465  1.00  0.00     0.028 A 
ATOM    101  C   UNL A   1      30.882  23.754  24.617  1.00  0.00     0.022 A 
ATOM    102  C   UNL A   1      31.730  23.481  26.841  1.00  0.00     0.022 A 
ATOM    103  C   UNL A   1      31.051  24.246  25.901  1.00  0.00     0.041 A 
ATOM    104  Cl  UNL A   1      30.467  25.807  26.311  1.00  0.00    -0.084 Cl
ENDBRANCH  89  98
ENDBRANCH  86  87
ENDBRANCH  85  86
ENDBRANCH  83  85
ENDBRANCH  79  80
ENDBRANCH  72  74
ENDBRANCH  71  72
ENDBRANCH   1  71
TORSDOF 19
ENDMDL
