MODEL 1
REMARK VINA RESULT:     -10.9      0.000      0.000
REMARK SMILES Cc1csc2nc(C(=O)OCCOC(=O)c3ccc(-c4c5nc(c(-c6cc(S(=O)(=O)[O-])ccc6F)c6ccc([nH]6)c(-c6cc(S(=O)(=O)[O-])ccc6F)c6nc(c(-c7cc(S(=O)(=O)[O-])ccc7F)c7ccc4[nH]7)C=C6)C=C5)cc3)cn12
REMARK SMILES IDX 13 1 12 2 11 3 10 4 8 5 9 6 7 7 1 8 2 9 3 10 80 11 4 12 5 13
REMARK SMILES IDX 79 14 6 15 14 16 15 17 16 18 17 19 78 20 18 21 77 22 19 23
REMARK SMILES IDX 20 24 21 25 71 26 22 27 76 28 70 29 72 30 23 31 75 32 69 33
REMARK SMILES IDX 68 34 24 36 56 37 36 38 55 39 37 40 40 41 54 42 73 43 38 44
REMARK SMILES IDX 39 45 53 47 74 48 41 49 25 50 26 51 34 52 27 53 33 54 35 55
REMARK SMILES IDX 32 56 28 57 29 58 30 59 31 60 57 61 58 62 66 63 59 64 65 65
REMARK SMILES IDX 67 66 64 67 60 68 61 69 62 70 63 71 42 72 43 73 51 74 44 75
REMARK SMILES IDX 50 76 52 77 49 78 45 79 46 80 47 81 48 82
REMARK H PARENT 72 35 40 46
REMARK Flexibility Score: inf
ROOT
ATOM      1  O   UNL A   1      35.810  33.100  28.330  1.00  0.00    -0.458 OA
ENDROOT
BRANCH   1   2
ATOM      2  C   UNL A   1      34.702  33.903  27.924  1.00  0.00     0.275 C 
BRANCH   2   3
ATOM      3  C   UNL A   1      34.365  34.961  28.965  1.00  0.00     0.275 C 
BRANCH   3   4
ATOM      4  O   UNL A   1      33.296  34.533  29.820  1.00  0.00    -0.457 OA
BRANCH   4   5
ATOM      5  C   UNL A   1      33.513  34.646  31.162  1.00  0.00     0.358 C 
ATOM      6  O   UNL A   1      32.814  35.309  31.928  1.00  0.00    -0.244 OA
BRANCH   5   7
ATOM      7  C   UNL A   1      34.650  33.845  31.616  1.00  0.00     0.168 A 
ATOM      8  C   UNL A   1      38.842  34.080  33.204  1.00  0.00     0.066 C 
ATOM      9  C   UNL A   1      37.866  33.000  32.902  1.00  0.00     0.032 A 
ATOM     10  C   UNL A   1      38.074  31.671  33.007  1.00  0.00     0.090 A 
ATOM     11  N   UNL A   1      36.594  33.263  32.425  1.00  0.00    -0.294 N 
ATOM     12  S   UNL A   1      36.675  30.700  32.517  1.00  0.00    -0.105 S 
ATOM     13  C   UNL A   1      35.825  32.170  32.160  1.00  0.00     0.194 A 
ATOM     14  C   UNL A   1      35.858  34.358  32.092  1.00  0.00     0.130 A 
ATOM     15  N   UNL A   1      34.660  32.448  31.650  1.00  0.00    -0.212 NA
ENDBRANCH   5   7
ENDBRANCH   4   5
ENDBRANCH   3   4
ENDBRANCH   2   3
ENDBRANCH   1   2
BRANCH   1  16
ATOM     16  C   UNL A   1      35.676  31.777  28.082  1.00  0.00     0.338 C 
ATOM     17  O   UNL A   1      34.734  31.219  27.548  1.00  0.00    -0.246 OA
BRANCH  16  18
ATOM     18  C   UNL A   1      36.757  31.054  28.756  1.00  0.00     0.060 A 
ATOM     19  C   UNL A   1      37.880  31.784  29.157  1.00  0.00     0.016 A 
ATOM     20  C   UNL A   1      36.751  29.652  28.744  1.00  0.00     0.016 A 
ATOM     21  C   UNL A   1      39.049  31.101  29.428  1.00  0.00     0.010 A 
ATOM     22  C   UNL A   1      37.919  28.976  28.994  1.00  0.00     0.010 A 
ATOM     23  C   UNL A   1      39.069  29.710  29.278  1.00  0.00    -0.014 A 
BRANCH  23  24
ATOM     24  C   UNL A   1      40.298  28.999  29.553  1.00  0.00     0.031 A 
ATOM     25  C   UNL A   1      40.587  28.873  30.999  1.00  0.00     0.074 A 
ATOM     26  C   UNL A   1      41.003  28.365  28.597  1.00  0.00     0.049 A 
ATOM     27  N   UNL A   1      41.554  29.410  31.661  1.00  0.00    -0.248 NA
ATOM     28  C   UNL A   1      39.575  28.218  31.846  1.00  0.00     0.031 C 
ATOM     29  C   UNL A   1      40.646  28.169  27.191  1.00  0.00     0.029 A 
ATOM     30  N   UNL A   1      42.145  27.643  28.727  1.00  0.00    -0.354 N 
ATOM     31  C   UNL A   1      41.408  28.960  32.968  1.00  0.00     0.074 A 
ATOM     32  C   UNL A   1      40.075  28.433  33.061  1.00  0.00     0.031 C 
ATOM     33  C   UNL A   1      41.421  27.190  26.672  1.00  0.00     0.029 A 
ATOM     34  C   UNL A   1      42.399  26.778  27.668  1.00  0.00     0.049 A 
ATOM     35  H   UNL A   1      42.742  27.723  29.505  1.00  0.00     0.167 HD
ATOM     36  C   UNL A   1      42.485  28.826  33.789  1.00  0.00     0.034 A 
ATOM     37  C   UNL A   1      43.285  25.746  27.658  1.00  0.00     0.034 A 
ATOM     38  C   UNL A   1      43.618  29.569  33.284  1.00  0.00     0.049 A 
ATOM     39  C   UNL A   1      44.273  26.017  28.738  1.00  0.00     0.074 A 
ATOM     40  C   UNL A   1      43.824  30.896  32.952  1.00  0.00     0.029 A 
ATOM     41  N   UNL A   1      44.634  28.874  32.663  1.00  0.00    -0.354 N 
ATOM     42  N   UNL A   1      45.101  27.026  28.714  1.00  0.00    -0.248 NA
ATOM     43  C   UNL A   1      44.000  25.482  30.067  1.00  0.00     0.031 C 
ATOM     44  C   UNL A   1      44.599  30.855  31.755  1.00  0.00     0.029 A 
ATOM     45  C   UNL A   1      44.899  29.520  31.478  1.00  0.00     0.049 A 
ATOM     46  H   UNL A   1      45.084  28.067  33.004  1.00  0.00     0.167 HD
ATOM     47  C   UNL A   1      45.102  27.527  30.008  1.00  0.00     0.074 A 
ATOM     48  C   UNL A   1      44.484  26.478  30.818  1.00  0.00     0.031 C 
ATOM     49  C   UNL A   1      45.330  28.851  30.263  1.00  0.00     0.034 A 
BRANCH  36  50
ATOM     50  C   UNL A   1      42.627  27.743  34.835  1.00  0.00     0.023 A 
ATOM     51  C   UNL A   1      43.416  26.630  34.498  1.00  0.00     0.031 A 
ATOM     52  C   UNL A   1      41.826  27.599  35.993  1.00  0.00     0.131 A 
ATOM     53  C   UNL A   1      43.310  25.427  35.213  1.00  0.00     0.055 A 
ATOM     54  C   UNL A   1      41.782  26.424  36.747  1.00  0.00     0.041 A 
ATOM     55  F   UNL A   1      40.969  28.538  36.409  1.00  0.00    -0.206 F 
ATOM     56  C   UNL A   1      42.499  25.315  36.338  1.00  0.00     0.022 A 
BRANCH  53  57
ATOM     57  S   UNL A   1      44.106  23.953  34.526  1.00  0.00     0.124 S 
ATOM     58  O   UNL A   1      42.994  23.322  33.824  1.00  0.00    -0.237 OA
ATOM     59  O   UNL A   1      45.148  24.540  33.690  1.00  0.00    -0.237 OA
ATOM     60  O   UNL A   1      44.581  23.242  35.711  1.00  0.00    -0.744 OA
ENDBRANCH  53  57
ENDBRANCH  36  50
BRANCH  37  61
ATOM     61  C   UNL A   1      43.107  24.416  27.005  1.00  0.00     0.023 A 
ATOM     62  C   UNL A   1      44.015  23.898  26.055  1.00  0.00     0.031 A 
ATOM     63  C   UNL A   1      42.125  23.520  27.487  1.00  0.00     0.131 A 
ATOM     64  C   UNL A   1      43.910  22.550  25.627  1.00  0.00     0.055 A 
ATOM     65  C   UNL A   1      42.019  22.197  27.053  1.00  0.00     0.041 A 
ATOM     66  F   UNL A   1      41.278  23.873  28.468  1.00  0.00    -0.206 F 
ATOM     67  C   UNL A   1      42.918  21.703  26.125  1.00  0.00     0.022 A 
BRANCH  64  68
ATOM     68  S   UNL A   1      45.132  21.844  24.473  1.00  0.00     0.124 S 
ATOM     69  O   UNL A   1      45.299  22.917  23.501  1.00  0.00    -0.237 OA
ATOM     70  O   UNL A   1      46.269  21.574  25.346  1.00  0.00    -0.237 OA
ATOM     71  O   UNL A   1      44.463  20.648  23.957  1.00  0.00    -0.744 OA
ENDBRANCH  64  68
ENDBRANCH  37  61
BRANCH  49  72
ATOM     72  C   UNL A   1      45.849  29.736  29.145  1.00  0.00     0.023 A 
ATOM     73  C   UNL A   1      45.057  30.629  28.385  1.00  0.00     0.031 A 
ATOM     74  C   UNL A   1      47.240  29.770  28.942  1.00  0.00     0.131 A 
ATOM     75  C   UNL A   1      45.667  31.502  27.461  1.00  0.00     0.055 A 
ATOM     76  C   UNL A   1      47.841  30.651  28.044  1.00  0.00     0.041 A 
ATOM     77  F   UNL A   1      48.052  28.968  29.651  1.00  0.00    -0.206 F 
ATOM     78  C   UNL A   1      47.056  31.518  27.295  1.00  0.00     0.022 A 
BRANCH  75  79
ATOM     79  S   UNL A   1      44.662  32.630  26.441  1.00  0.00     0.124 S 
ATOM     80  O   UNL A   1      44.036  33.510  27.418  1.00  0.00    -0.237 OA
ATOM     81  O   UNL A   1      45.662  33.244  25.571  1.00  0.00    -0.237 OA
ATOM     82  O   UNL A   1      43.734  31.728  25.752  1.00  0.00    -0.744 OA
ENDBRANCH  75  79
ENDBRANCH  49  72
ENDBRANCH  23  24
ENDBRANCH  16  18
ENDBRANCH   1  16
TORSDOF 14
ENDMDL
MODEL 2
REMARK VINA RESULT:     -10.8      1.428      1.778
REMARK SMILES Cc1csc2nc(C(=O)OCCOC(=O)c3ccc(-c4c5nc(c(-c6cc(S(=O)(=O)[O-])ccc6F)c6ccc([nH]6)c(-c6cc(S(=O)(=O)[O-])ccc6F)c6nc(c(-c7cc(S(=O)(=O)[O-])ccc7F)c7ccc4[nH]7)C=C6)C=C5)cc3)cn12
REMARK SMILES IDX 13 1 12 2 11 3 10 4 8 5 9 6 7 7 1 8 2 9 3 10 80 11 4 12 5 13
REMARK SMILES IDX 79 14 6 15 14 16 15 17 16 18 17 19 78 20 18 21 77 22 19 23
REMARK SMILES IDX 20 24 21 25 71 26 22 27 76 28 70 29 72 30 23 31 75 32 69 33
REMARK SMILES IDX 68 34 24 36 56 37 36 38 55 39 37 40 40 41 54 42 73 43 38 44
REMARK SMILES IDX 39 45 53 47 74 48 41 49 25 50 26 51 34 52 27 53 33 54 35 55
REMARK SMILES IDX 32 56 28 57 29 58 30 59 31 60 57 61 58 62 66 63 59 64 65 65
REMARK SMILES IDX 67 66 64 67 60 68 61 69 62 70 63 71 42 72 43 73 51 74 44 75
REMARK SMILES IDX 50 76 52 77 49 78 45 79 46 80 47 81 48 82
REMARK H PARENT 72 35 40 46
REMARK Flexibility Score: inf
ROOT
ATOM      1  O   UNL A   1      35.271  33.023  28.377  1.00  0.00    -0.458 OA
ENDROOT
BRANCH   1   2
ATOM      2  C   UNL A   1      34.052  33.734  28.169  1.00  0.00     0.275 C 
BRANCH   2   3
ATOM      3  C   UNL A   1      33.964  34.967  29.056  1.00  0.00     0.275 C 
BRANCH   3   4
ATOM      4  O   UNL A   1      33.223  34.698  30.255  1.00  0.00    -0.457 OA
BRANCH   4   5
ATOM      5  C   UNL A   1      33.630  35.358  31.378  1.00  0.00     0.358 C 
ATOM      6  O   UNL A   1      33.211  36.460  31.729  1.00  0.00    -0.244 OA
BRANCH   5   7
ATOM      7  C   UNL A   1      34.594  34.587  32.163  1.00  0.00     0.168 A 
ATOM      8  C   UNL A   1      36.625  30.599  32.503  1.00  0.00     0.066 C 
ATOM      9  C   UNL A   1      36.676  31.895  33.226  1.00  0.00     0.032 A 
ATOM     10  C   UNL A   1      37.409  32.181  34.323  1.00  0.00     0.090 A 
ATOM     11  N   UNL A   1      35.912  32.986  32.848  1.00  0.00    -0.294 N 
ATOM     12  S   UNL A   1      37.172  33.832  34.918  1.00  0.00    -0.105 S 
ATOM     13  C   UNL A   1      36.040  34.095  33.629  1.00  0.00     0.194 A 
ATOM     14  C   UNL A   1      34.993  33.278  31.889  1.00  0.00     0.130 A 
ATOM     15  N   UNL A   1      35.260  35.080  33.289  1.00  0.00    -0.212 NA
ENDBRANCH   5   7
ENDBRANCH   4   5
ENDBRANCH   3   4
ENDBRANCH   2   3
ENDBRANCH   1   2
BRANCH   1  16
ATOM     16  C   UNL A   1      35.259  31.736  27.959  1.00  0.00     0.338 C 
ATOM     17  O   UNL A   1      34.399  31.186  27.294  1.00  0.00    -0.246 OA
BRANCH  16  18
ATOM     18  C   UNL A   1      36.351  31.011  28.613  1.00  0.00     0.060 A 
ATOM     19  C   UNL A   1      37.410  31.759  29.136  1.00  0.00     0.016 A 
ATOM     20  C   UNL A   1      36.429  29.619  28.466  1.00  0.00     0.016 A 
ATOM     21  C   UNL A   1      38.604  31.119  29.399  1.00  0.00     0.010 A 
ATOM     22  C   UNL A   1      37.624  28.987  28.708  1.00  0.00     0.010 A 
ATOM     23  C   UNL A   1      38.713  29.752  29.118  1.00  0.00    -0.014 A 
BRANCH  23  24
ATOM     24  C   UNL A   1      39.970  29.087  29.384  1.00  0.00     0.031 A 
ATOM     25  C   UNL A   1      40.275  28.974  30.828  1.00  0.00     0.074 A 
ATOM     26  C   UNL A   1      40.689  28.477  28.424  1.00  0.00     0.049 A 
ATOM     27  N   UNL A   1      41.227  29.548  31.481  1.00  0.00    -0.248 NA
ATOM     28  C   UNL A   1      39.294  28.285  31.684  1.00  0.00     0.031 C 
ATOM     29  C   UNL A   1      40.328  28.264  27.021  1.00  0.00     0.029 A 
ATOM     30  N   UNL A   1      41.858  27.796  28.546  1.00  0.00    -0.354 N 
ATOM     31  C   UNL A   1      41.108  29.095  32.790  1.00  0.00     0.074 A 
ATOM     32  C   UNL A   1      39.796  28.521  32.895  1.00  0.00     0.031 C 
ATOM     33  C   UNL A   1      41.134  27.313  26.498  1.00  0.00     0.029 A 
ATOM     34  C   UNL A   1      42.134  26.939  27.487  1.00  0.00     0.049 A 
ATOM     35  H   UNL A   1      42.458  27.900  29.318  1.00  0.00     0.167 HD
ATOM     36  C   UNL A   1      42.196  29.002  33.602  1.00  0.00     0.034 A 
ATOM     37  C   UNL A   1      43.057  25.939  27.472  1.00  0.00     0.034 A 
ATOM     38  C   UNL A   1      43.298  29.785  33.087  1.00  0.00     0.049 A 
ATOM     39  C   UNL A   1      44.043  26.248  28.543  1.00  0.00     0.074 A 
ATOM     40  C   UNL A   1      43.452  31.117  32.750  1.00  0.00     0.029 A 
ATOM     41  N   UNL A   1      44.332  29.125  32.459  1.00  0.00    -0.354 N 
ATOM     42  N   UNL A   1      44.834  27.287  28.509  1.00  0.00    -0.248 NA
ATOM     43  C   UNL A   1      43.800  25.707  29.875  1.00  0.00     0.031 C 
ATOM     44  C   UNL A   1      44.218  31.102  31.547  1.00  0.00     0.029 A 
ATOM     45  C   UNL A   1      44.565  29.778  31.271  1.00  0.00     0.049 A 
ATOM     46  H   UNL A   1      44.814  28.336  32.797  1.00  0.00     0.167 HD
ATOM     47  C   UNL A   1      44.827  27.790  29.803  1.00  0.00     0.074 A 
ATOM     48  C   UNL A   1      44.255  26.721  30.620  1.00  0.00     0.031 C 
ATOM     49  C   UNL A   1      45.009  29.122  30.053  1.00  0.00     0.034 A 
BRANCH  36  50
ATOM     50  C   UNL A   1      42.385  27.928  34.650  1.00  0.00     0.023 A 
ATOM     51  C   UNL A   1      43.185  26.827  34.296  1.00  0.00     0.031 A 
ATOM     52  C   UNL A   1      41.619  27.776  35.829  1.00  0.00     0.131 A 
ATOM     53  C   UNL A   1      43.120  25.626  35.020  1.00  0.00     0.055 A 
ATOM     54  C   UNL A   1      41.616  26.604  36.590  1.00  0.00     0.041 A 
ATOM     55  F   UNL A   1      40.757  28.702  36.265  1.00  0.00    -0.206 F 
ATOM     56  C   UNL A   1      42.342  25.506  36.168  1.00  0.00     0.022 A 
BRANCH  53  57
ATOM     57  S   UNL A   1      43.922  24.163  34.319  1.00  0.00     0.124 S 
ATOM     58  O   UNL A   1      43.933  24.489  32.897  1.00  0.00    -0.237 OA
ATOM     59  O   UNL A   1      45.215  24.179  34.995  1.00  0.00    -0.237 OA
ATOM     60  O   UNL A   1      43.030  23.071  34.702  1.00  0.00    -0.744 OA
ENDBRANCH  53  57
ENDBRANCH  36  50
BRANCH  37  61
ATOM     61  C   UNL A   1      42.921  24.602  26.822  1.00  0.00     0.023 A 
ATOM     62  C   UNL A   1      43.911  24.053  25.978  1.00  0.00     0.031 A 
ATOM     63  C   UNL A   1      41.879  23.731  27.215  1.00  0.00     0.131 A 
ATOM     64  C   UNL A   1      43.826  22.701  25.560  1.00  0.00     0.055 A 
ATOM     65  C   UNL A   1      41.793  22.403  26.791  1.00  0.00     0.041 A 
ATOM     66  F   UNL A   1      40.944  24.114  28.098  1.00  0.00    -0.206 F 
ATOM     67  C   UNL A   1      42.773  21.879  25.967  1.00  0.00     0.022 A 
BRANCH  64  68
ATOM     68  S   UNL A   1      45.146  21.955  24.547  1.00  0.00     0.124 S 
ATOM     69  O   UNL A   1      46.234  21.815  25.508  1.00  0.00    -0.237 OA
ATOM     70  O   UNL A   1      44.526  20.721  24.082  1.00  0.00    -0.237 OA
ATOM     71  O   UNL A   1      45.377  22.953  23.501  1.00  0.00    -0.744 OA
ENDBRANCH  64  68
ENDBRANCH  37  61
BRANCH  49  72
ATOM     72  C   UNL A   1      45.487  30.023  28.929  1.00  0.00     0.023 A 
ATOM     73  C   UNL A   1      46.841  30.324  28.653  1.00  0.00     0.031 A 
ATOM     74  C   UNL A   1      44.521  30.482  28.016  1.00  0.00     0.131 A 
ATOM     75  C   UNL A   1      47.179  31.066  27.502  1.00  0.00     0.055 A 
ATOM     76  C   UNL A   1      44.862  31.195  26.867  1.00  0.00     0.041 A 
ATOM     77  F   UNL A   1      43.220  30.207  28.205  1.00  0.00    -0.206 F 
ATOM     78  C   UNL A   1      46.193  31.495  26.608  1.00  0.00     0.022 A 
BRANCH  75  79
ATOM     79  S   UNL A   1      48.913  31.502  27.150  1.00  0.00     0.124 S 
ATOM     80  O   UNL A   1      48.804  32.660  26.273  1.00  0.00    -0.237 OA
ATOM     81  O   UNL A   1      49.453  31.754  28.483  1.00  0.00    -0.237 OA
ATOM     82  O   UNL A   1      49.440  30.297  26.502  1.00  0.00    -0.744 OA
ENDBRANCH  75  79
ENDBRANCH  49  72
ENDBRANCH  23  24
ENDBRANCH  16  18
ENDBRANCH   1  16
TORSDOF 14
ENDMDL
MODEL 3
REMARK VINA RESULT:     -10.7      2.828     11.099
REMARK SMILES Cc1csc2nc(C(=O)OCCOC(=O)c3ccc(-c4c5nc(c(-c6cc(S(=O)(=O)[O-])ccc6F)c6ccc([nH]6)c(-c6cc(S(=O)(=O)[O-])ccc6F)c6nc(c(-c7cc(S(=O)(=O)[O-])ccc7F)c7ccc4[nH]7)C=C6)C=C5)cc3)cn12
REMARK SMILES IDX 13 1 12 2 11 3 10 4 8 5 9 6 7 7 1 8 2 9 3 10 80 11 4 12 5 13
REMARK SMILES IDX 79 14 6 15 14 16 15 17 16 18 17 19 78 20 18 21 77 22 19 23
REMARK SMILES IDX 20 24 21 25 71 26 22 27 76 28 70 29 72 30 23 31 75 32 69 33
REMARK SMILES IDX 68 34 24 36 56 37 36 38 55 39 37 40 40 41 54 42 73 43 38 44
REMARK SMILES IDX 39 45 53 47 74 48 41 49 25 50 26 51 34 52 27 53 33 54 35 55
REMARK SMILES IDX 32 56 28 57 29 58 30 59 31 60 57 61 58 62 66 63 59 64 65 65
REMARK SMILES IDX 67 66 64 67 60 68 61 69 62 70 63 71 42 72 43 73 51 74 44 75
REMARK SMILES IDX 50 76 52 77 49 78 45 79 46 80 47 81 48 82
REMARK H PARENT 72 35 40 46
REMARK Flexibility Score: inf
ROOT
ATOM      1  O   UNL A   1      41.363  21.705  27.712  1.00  0.00    -0.458 OA
ENDROOT
BRANCH   1   2
ATOM      2  C   UNL A   1      41.130  20.306  27.554  1.00  0.00     0.275 C 
BRANCH   2   3
ATOM      3  C   UNL A   1      42.352  19.593  26.994  1.00  0.00     0.275 C 
BRANCH   3   4
ATOM      4  O   UNL A   1      42.549  19.904  25.608  1.00  0.00    -0.457 OA
BRANCH   4   5
ATOM      5  C   UNL A   1      43.842  20.075  25.205  1.00  0.00     0.358 C 
ATOM      6  O   UNL A   1      44.534  19.196  24.691  1.00  0.00    -0.244 OA
BRANCH   5   7
ATOM      7  C   UNL A   1      44.315  21.445  25.401  1.00  0.00     0.168 A 
ATOM      8  C   UNL A   1      43.139  25.764  25.079  1.00  0.00     0.066 C 
ATOM      9  C   UNL A   1      44.337  25.008  25.525  1.00  0.00     0.032 A 
ATOM     10  C   UNL A   1      45.511  25.526  25.942  1.00  0.00     0.090 A 
ATOM     11  N   UNL A   1      44.383  23.624  25.525  1.00  0.00    -0.294 N 
ATOM     12  S   UNL A   1      46.716  24.295  26.357  1.00  0.00    -0.105 S 
ATOM     13  C   UNL A   1      45.562  23.073  25.928  1.00  0.00     0.194 A 
ATOM     14  C   UNL A   1      43.557  22.597  25.188  1.00  0.00     0.130 A 
ATOM     15  N   UNL A   1      45.596  21.774  25.853  1.00  0.00    -0.212 NA
ENDBRANCH   5   7
ENDBRANCH   4   5
ENDBRANCH   3   4
ENDBRANCH   2   3
ENDBRANCH   1   2
BRANCH   1  16
ATOM     16  C   UNL A   1      40.402  22.505  27.194  1.00  0.00     0.338 C 
ATOM     17  O   UNL A   1      39.466  22.170  26.490  1.00  0.00    -0.246 OA
BRANCH  16  18
ATOM     18  C   UNL A   1      40.770  23.904  27.425  1.00  0.00     0.060 A 
ATOM     19  C   UNL A   1      41.883  24.162  28.231  1.00  0.00     0.016 A 
ATOM     20  C   UNL A   1      39.870  24.914  27.060  1.00  0.00     0.016 A 
ATOM     21  C   UNL A   1      42.025  25.421  28.778  1.00  0.00     0.010 A 
ATOM     22  C   UNL A   1      40.001  26.161  27.621  1.00  0.00     0.010 A 
ATOM     23  C   UNL A   1      41.043  26.384  28.517  1.00  0.00    -0.014 A 
BRANCH  23  24
ATOM     24  C   UNL A   1      41.189  27.700  29.101  1.00  0.00     0.031 A 
ATOM     25  C   UNL A   1      42.294  28.482  28.504  1.00  0.00     0.074 A 
ATOM     26  C   UNL A   1      40.296  28.216  29.966  1.00  0.00     0.049 A 
ATOM     27  N   UNL A   1      43.388  28.862  29.070  1.00  0.00    -0.248 NA
ATOM     28  C   UNL A   1      42.260  28.717  27.050  1.00  0.00     0.031 C 
ATOM     29  C   UNL A   1      39.013  27.650  30.386  1.00  0.00     0.029 A 
ATOM     30  N   UNL A   1      40.300  29.439  30.557  1.00  0.00    -0.354 N 
ATOM     31  C   UNL A   1      44.073  29.594  28.106  1.00  0.00     0.074 A 
ATOM     32  C   UNL A   1      43.452  29.278  26.851  1.00  0.00     0.031 C 
ATOM     33  C   UNL A   1      38.270  28.623  30.961  1.00  0.00     0.029 A 
ATOM     34  C   UNL A   1      39.065  29.838  31.053  1.00  0.00     0.049 A 
ATOM     35  H   UNL A   1      41.108  29.995  30.627  1.00  0.00     0.167 HD
ATOM     36  C   UNL A   1      44.926  30.593  28.459  1.00  0.00     0.034 A 
ATOM     37  C   UNL A   1      38.708  31.099  31.422  1.00  0.00     0.034 A 
ATOM     38  C   UNL A   1      45.305  30.486  29.850  1.00  0.00     0.049 A 
ATOM     39  C   UNL A   1      39.969  31.841  31.693  1.00  0.00     0.074 A 
ATOM     40  C   UNL A   1      45.890  29.489  30.611  1.00  0.00     0.029 A 
ATOM     41  N   UNL A   1      44.720  31.343  30.757  1.00  0.00    -0.354 N 
ATOM     42  N   UNL A   1      40.780  31.540  32.672  1.00  0.00    -0.248 NA
ATOM     43  C   UNL A   1      40.584  32.572  30.592  1.00  0.00     0.031 C 
ATOM     44  C   UNL A   1      45.183  29.514  31.849  1.00  0.00     0.029 A 
ATOM     45  C   UNL A   1      44.277  30.577  31.810  1.00  0.00     0.049 A 
ATOM     46  H   UNL A   1      44.635  32.320  30.668  1.00  0.00     0.167 HD
ATOM     47  C   UNL A   1      42.054  31.640  32.131  1.00  0.00     0.074 A 
ATOM     48  C   UNL A   1      41.876  32.374  30.879  1.00  0.00     0.031 C 
ATOM     49  C   UNL A   1      43.088  30.872  32.590  1.00  0.00     0.034 A 
BRANCH  36  50
ATOM     50  C   UNL A   1      45.126  31.862  27.660  1.00  0.00     0.023 A 
ATOM     51  C   UNL A   1      46.412  32.092  27.141  1.00  0.00     0.031 A 
ATOM     52  C   UNL A   1      44.243  32.966  27.624  1.00  0.00     0.131 A 
ATOM     53  C   UNL A   1      46.804  33.376  26.727  1.00  0.00     0.055 A 
ATOM     54  C   UNL A   1      44.615  34.223  27.139  1.00  0.00     0.041 A 
ATOM     55  F   UNL A   1      43.009  32.932  28.139  1.00  0.00    -0.206 F 
ATOM     56  C   UNL A   1      45.913  34.444  26.720  1.00  0.00     0.022 A 
BRANCH  53  57
ATOM     57  S   UNL A   1      48.557  33.662  26.383  1.00  0.00     0.124 S 
ATOM     58  O   UNL A   1      48.963  34.433  27.552  1.00  0.00    -0.237 OA
ATOM     59  O   UNL A   1      49.072  32.299  26.298  1.00  0.00    -0.237 OA
ATOM     60  O   UNL A   1      48.538  34.402  25.123  1.00  0.00    -0.744 OA
ENDBRANCH  53  57
ENDBRANCH  36  50
BRANCH  37  61
ATOM     61  C   UNL A   1      37.382  31.752  31.215  1.00  0.00     0.023 A 
ATOM     62  C   UNL A   1      36.590  32.238  32.279  1.00  0.00     0.031 A 
ATOM     63  C   UNL A   1      36.970  32.114  29.911  1.00  0.00     0.131 A 
ATOM     64  C   UNL A   1      35.446  33.034  32.013  1.00  0.00     0.055 A 
ATOM     65  C   UNL A   1      35.837  32.888  29.655  1.00  0.00     0.041 A 
ATOM     66  F   UNL A   1      37.706  31.797  28.834  1.00  0.00    -0.206 F 
ATOM     67  C   UNL A   1      35.073  33.359  30.708  1.00  0.00     0.022 A 
BRANCH  64  68
ATOM     68  S   UNL A   1      34.470  33.743  33.380  1.00  0.00     0.124 S 
ATOM     69  O   UNL A   1      34.499  35.168  33.076  1.00  0.00    -0.237 OA
ATOM     70  O   UNL A   1      33.184  33.071  33.229  1.00  0.00    -0.237 OA
ATOM     71  O   UNL A   1      35.223  33.355  34.574  1.00  0.00    -0.744 OA
ENDBRANCH  64  68
ENDBRANCH  37  61
BRANCH  49  72
ATOM     72  C   UNL A   1      42.909  30.092  33.880  1.00  0.00     0.023 A 
ATOM     73  C   UNL A   1      42.524  28.733  33.958  1.00  0.00     0.031 A 
ATOM     74  C   UNL A   1      43.285  30.729  35.076  1.00  0.00     0.131 A 
ATOM     75  C   UNL A   1      42.518  28.071  35.203  1.00  0.00     0.055 A 
ATOM     76  C   UNL A   1      43.300  30.064  36.302  1.00  0.00     0.041 A 
ATOM     77  F   UNL A   1      43.688  32.011  35.068  1.00  0.00    -0.206 F 
ATOM     78  C   UNL A   1      42.911  28.733  36.371  1.00  0.00     0.022 A 
BRANCH  75  79
ATOM     79  S   UNL A   1      41.984  26.333  35.333  1.00  0.00     0.124 S 
ATOM     80  O   UNL A   1      40.660  26.335  34.724  1.00  0.00    -0.237 OA
ATOM     81  O   UNL A   1      43.029  25.627  34.596  1.00  0.00    -0.237 OA
ATOM     82  O   UNL A   1      41.989  26.084  36.777  1.00  0.00    -0.744 OA
ENDBRANCH  75  79
ENDBRANCH  49  72
ENDBRANCH  23  24
ENDBRANCH  16  18
ENDBRANCH   1  16
TORSDOF 14
ENDMDL
