MODEL 1
REMARK VINA RESULT:     -12.4      0.000      0.000
REMARK SMILES COc1ccc(C(=O)N(C)C)cc1NC(=O)[C@H]1[C@@H](C(=O)OCCOC(=O)c2ccc(-c3c4nc(c(-c5cc(S(=O)(=O)[O-])ccc5F)c5ccc([nH]5)c(-c5cc(S(=O)(=O)[O-])ccc5F)c5nc(c(-c6cc(S(=O)(=O)[O-])ccc6F)c6ccc3[nH]6)C=C5)C=C4)cc2)[C@H]2C=C[C@@H]1C2
REMARK SMILES IDX 22 1 21 2 19 3 20 4 18 5 17 6 93 7 90 8 92 9 94 10 91 11
REMARK SMILES IDX 15 12 14 13 16 15 13 16 3 17 4 18 5 19 12 20 6 21 2 22 1 23
REMARK SMILES IDX 7 24 8 25 9 26 10 27 11 28 23 29 24 30 25 31 26 32 27 33
REMARK SMILES IDX 28 34 89 35 29 36 88 37 30 38 31 39 32 40 82 41 33 42 87 43
REMARK SMILES IDX 81 44 83 45 34 46 86 47 80 48 79 49 35 51 67 52 47 53 66 54
REMARK SMILES IDX 48 55 51 56 65 57 84 58 49 59 50 60 64 62 85 63 52 64 36 65
REMARK SMILES IDX 37 66 45 67 38 68 44 69 46 70 43 71 39 72 40 73 41 74 42 75
REMARK SMILES IDX 68 76 69 77 77 78 70 79 76 80 78 81 75 82 71 83 72 84 73 85
REMARK SMILES IDX 74 86 53 87 54 88 62 89 55 90 61 91 63 92 60 93 56 94 57 95
REMARK SMILES IDX 58 96 59 97
REMARK H PARENT 14 14 83 50 51 61
REMARK Flexibility Score: inf
ROOT
ATOM      1  C   UNL A   1      32.255  28.960  24.553  1.00  0.00     0.274 C 
ENDROOT
BRANCH   1   2
ATOM      2  O   UNL A   1      31.498  27.734  24.583  1.00  0.00    -0.462 OA
BRANCH   2   3
ATOM      3  C   UNL A   1      32.129  26.675  25.176  1.00  0.00     0.310 C 
ATOM      4  O   UNL A   1      32.990  26.797  26.036  1.00  0.00    -0.252 OA
BRANCH   3   5
ATOM      5  C   UNL A   1      31.637  25.368  24.592  1.00  0.00     0.119 C 
ATOM      6  C   UNL A   1      32.083  23.937  25.150  1.00  0.00     0.100 C 
ATOM      7  C   UNL A   1      32.910  23.397  23.922  1.00  0.00     0.025 C 
ATOM      8  C   UNL A   1      32.123  25.342  23.098  1.00  0.00     0.027 C 
ATOM      9  C   UNL A   1      34.072  24.255  23.462  1.00  0.00    -0.027 C 
ATOM     10  C   UNL A   1      32.007  23.855  22.745  1.00  0.00     0.017 C 
ATOM     11  C   UNL A   1      33.616  25.423  23.012  1.00  0.00    -0.027 C 
BRANCH   6  12
ATOM     12  C   UNL A   1      31.855  23.291  26.670  1.00  0.00     0.229 C 
ATOM     13  N   UNL A   1      32.628  22.440  27.484  1.00  0.00    -0.323 N 
ATOM     14  H   UNL A   1      32.283  22.336  28.400  1.00  0.00     0.170 HD
ATOM     15  O   UNL A   1      30.794  23.639  27.236  1.00  0.00    -0.274 OA
BRANCH  13  16
ATOM     16  C   UNL A   1      33.921  21.636  27.200  1.00  0.00     0.084 A 
ATOM     17  C   UNL A   1      35.684  22.056  26.251  1.00  0.00     0.142 A 
ATOM     18  C   UNL A   1      36.067  21.015  24.801  1.00  0.00     0.049 A 
ATOM     19  C   UNL A   1      34.961  19.667  24.419  1.00  0.00     0.018 A 
ATOM     20  C   UNL A   1      33.012  20.180  26.709  1.00  0.00     0.044 A 
ATOM     21  C   UNL A   1      33.513  19.236  25.389  1.00  0.00     0.042 A 
BRANCH  17  22
ATOM     22  O   UNL A   1      36.497  23.218  26.028  1.00  0.00    -0.495 OA
ATOM     23  C   UNL A   1      35.859  24.503  26.071  1.00  0.00     0.278 C 
ENDBRANCH  17  22
BRANCH  21  24
ATOM     24  C   UNL A   1      32.939  17.853  25.191  1.00  0.00     0.253 C 
ATOM     25  O   UNL A   1      31.724  17.874  24.964  1.00  0.00    -0.269 OA
ATOM     26  N   UNL A   1      33.620  16.616  25.298  1.00  0.00    -0.345 N 
ATOM     27  C   UNL A   1      35.032  16.248  25.389  1.00  0.00     0.146 C 
ATOM     28  C   UNL A   1      32.780  15.424  25.283  1.00  0.00     0.146 C 
ENDBRANCH  21  24
ENDBRANCH  13  16
ENDBRANCH   6  12
ENDBRANCH   3   5
ENDBRANCH   2   3
ENDBRANCH   1   2
BRANCH   1  29
ATOM     29  C   UNL A   1      31.472  30.123  25.172  1.00  0.00     0.275 C 
BRANCH  29  30
ATOM     30  O   UNL A   1      31.736  30.228  26.585  1.00  0.00    -0.458 OA
BRANCH  30  31
ATOM     31  C   UNL A   1      32.173  31.458  26.936  1.00  0.00     0.338 C 
ATOM     32  O   UNL A   1      31.595  32.509  26.702  1.00  0.00    -0.246 OA
BRANCH  31  33
ATOM     33  C   UNL A   1      33.503  31.448  27.533  1.00  0.00     0.060 A 
ATOM     34  C   UNL A   1      34.676  32.797  27.986  1.00  0.00     0.016 A 
ATOM     35  C   UNL A   1      34.128  29.770  27.619  1.00  0.00     0.016 A 
ATOM     36  C   UNL A   1      36.458  32.183  28.722  1.00  0.00     0.010 A 
ATOM     37  C   UNL A   1      35.736  29.352  28.241  1.00  0.00     0.010 A 
ATOM     38  C   UNL A   1      36.875  30.495  28.858  1.00  0.00    -0.014 A 
BRANCH  38  39
ATOM     39  C   UNL A   1      38.201  30.312  29.541  1.00  0.00     0.031 A 
ATOM     40  C   UNL A   1      38.298  30.600  30.988  1.00  0.00     0.074 A 
ATOM     41  C   UNL A   1      39.194  29.602  28.932  1.00  0.00     0.049 A 
ATOM     42  N   UNL A   1      39.324  30.431  31.769  1.00  0.00    -0.248 NA
ATOM     43  C   UNL A   1      37.121  31.190  31.633  1.00  0.00     0.031 C 
ATOM     44  C   UNL A   1      39.211  29.267  27.513  1.00  0.00     0.029 A 
ATOM     45  N   UNL A   1      40.288  28.901  29.398  1.00  0.00    -0.354 N 
ATOM     46  C   UNL A   1      38.962  31.000  32.974  1.00  0.00     0.074 A 
ATOM     47  C   UNL A   1      37.600  31.470  32.835  1.00  0.00     0.031 C 
ATOM     48  C   UNL A   1      39.999  28.208  27.293  1.00  0.00     0.029 A 
ATOM     49  C   UNL A   1      40.838  28.024  28.463  1.00  0.00     0.049 A 
ATOM     50  H   UNL A   1      40.647  29.010  30.307  1.00  0.00     0.167 HD
ATOM     51  C   UNL A   1      39.750  31.158  34.060  1.00  0.00     0.034 A 
ATOM     52  C   UNL A   1      41.952  27.250  28.492  1.00  0.00     0.034 A 
ATOM     53  C   UNL A   1      41.090  30.634  34.132  1.00  0.00     0.049 A 
ATOM     54  C   UNL A   1      42.804  27.442  29.719  1.00  0.00     0.074 A 
ATOM     55  C   UNL A   1      42.017  30.779  35.145  1.00  0.00     0.029 A 
ATOM     56  N   UNL A   1      41.693  29.857  33.145  1.00  0.00    -0.354 N 
ATOM     57  N   UNL A   1      42.517  28.124  30.807  1.00  0.00    -0.248 NA
ATOM     58  C   UNL A   1      44.151  26.863  29.705  1.00  0.00     0.031 C 
ATOM     59  C   UNL A   1      43.202  30.162  34.736  1.00  0.00     0.029 A 
ATOM     60  C   UNL A   1      42.985  29.534  33.518  1.00  0.00     0.049 A 
ATOM     61  H   UNL A   1      41.260  29.577  32.305  1.00  0.00     0.167 HD
ATOM     62  C   UNL A   1      43.655  28.081  31.594  1.00  0.00     0.074 A 
ATOM     63  C   UNL A   1      44.614  27.252  30.883  1.00  0.00     0.031 C 
ATOM     64  C   UNL A   1      43.900  28.694  32.778  1.00  0.00     0.034 A 
BRANCH  51  65
ATOM     65  C   UNL A   1      39.229  32.067  35.135  1.00  0.00     0.023 A 
ATOM     66  C   UNL A   1      39.614  33.411  35.245  1.00  0.00     0.031 A 
ATOM     67  C   UNL A   1      38.410  31.525  36.143  1.00  0.00     0.131 A 
ATOM     68  C   UNL A   1      39.245  34.145  36.382  1.00  0.00     0.055 A 
ATOM     69  C   UNL A   1      37.967  32.288  37.221  1.00  0.00     0.041 A 
ATOM     70  F   UNL A   1      38.060  30.228  36.117  1.00  0.00    -0.206 F 
ATOM     71  C   UNL A   1      38.397  33.604  37.353  1.00  0.00     0.022 A 
BRANCH  68  72
ATOM     72  S   UNL A   1      40.027  35.756  36.662  1.00  0.00     0.124 S 
ATOM     73  O   UNL A   1      39.448  36.139  37.949  1.00  0.00    -0.237 OA
ATOM     74  O   UNL A   1      41.446  35.423  36.675  1.00  0.00    -0.237 OA
ATOM     75  O   UNL A   1      39.582  36.556  35.523  1.00  0.00    -0.744 OA
ENDBRANCH  68  72
ENDBRANCH  51  65
BRANCH  52  76
ATOM     76  C   UNL A   1      42.456  26.450  27.306  1.00  0.00     0.023 A 
ATOM     77  C   UNL A   1      42.141  25.086  27.109  1.00  0.00     0.031 A 
ATOM     78  C   UNL A   1      43.379  27.009  26.393  1.00  0.00     0.131 A 
ATOM     79  C   UNL A   1      42.756  24.349  26.069  1.00  0.00     0.055 A 
ATOM     80  C   UNL A   1      43.901  26.305  25.305  1.00  0.00     0.041 A 
ATOM     81  F   UNL A   1      43.824  28.266  26.551  1.00  0.00    -0.206 F 
ATOM     82  C   UNL A   1      43.605  24.961  25.147  1.00  0.00     0.022 A 
BRANCH  79  83
ATOM     83  S   UNL A   1      42.587  22.535  26.024  1.00  0.00     0.124 S 
ATOM     84  O   UNL A   1      41.138  22.372  26.012  1.00  0.00    -0.237 OA
ATOM     85  O   UNL A   1      43.284  22.190  24.790  1.00  0.00    -0.237 OA
ATOM     86  O   UNL A   1      43.249  22.099  27.252  1.00  0.00    -0.744 OA
ENDBRANCH  79  83
ENDBRANCH  52  76
BRANCH  64  87
ATOM     87  C   UNL A   1      45.234  28.406  33.402  1.00  0.00     0.023 A 
ATOM     88  C   UNL A   1      46.365  29.188  33.126  1.00  0.00     0.031 A 
ATOM     89  C   UNL A   1      45.369  27.304  34.263  1.00  0.00     0.131 A 
ATOM     90  C   UNL A   1      47.607  28.805  33.646  1.00  0.00     0.055 A 
ATOM     91  C   UNL A   1      46.590  26.983  34.850  1.00  0.00     0.041 A 
ATOM     92  F   UNL A   1      44.314  26.522  34.544  1.00  0.00    -0.206 F 
ATOM     93  C   UNL A   1      47.722  27.726  34.527  1.00  0.00     0.022 A 
BRANCH  90  94
ATOM     94  S   UNL A   1      49.090  29.648  33.036  1.00  0.00     0.124 S 
ATOM     95  O   UNL A   1      50.153  28.880  33.677  1.00  0.00    -0.237 OA
ATOM     96  O   UNL A   1      48.972  29.487  31.590  1.00  0.00    -0.237 OA
ATOM     97  O   UNL A   1      48.929  31.016  33.523  1.00  0.00    -0.744 OA
ENDBRANCH  90  94
ENDBRANCH  64  87
ENDBRANCH  38  39
ENDBRANCH  31  33
ENDBRANCH  30  31
ENDBRANCH  29  30
ENDBRANCH   1  29
TORSDOF 18
ENDMDL
MODEL 2
REMARK VINA RESULT:     -12.0      3.712      9.491
REMARK SMILES COc1ccc(C(=O)N(C)C)cc1NC(=O)[C@H]1[C@@H](C(=O)OCCOC(=O)c2ccc(-c3c4nc(c(-c5cc(S(=O)(=O)[O-])ccc5F)c5ccc([nH]5)c(-c5cc(S(=O)(=O)[O-])ccc5F)c5nc(c(-c6cc(S(=O)(=O)[O-])ccc6F)c6ccc3[nH]6)C=C5)C=C4)cc2)[C@H]2C=C[C@@H]1C2
REMARK SMILES IDX 22 1 21 2 19 3 20 4 18 5 17 6 93 7 90 8 92 9 94 10 91 11
REMARK SMILES IDX 15 12 14 13 16 15 13 16 3 17 4 18 5 19 12 20 6 21 2 22 1 23
REMARK SMILES IDX 7 24 8 25 9 26 10 27 11 28 23 29 24 30 25 31 26 32 27 33
REMARK SMILES IDX 28 34 89 35 29 36 88 37 30 38 31 39 32 40 82 41 33 42 87 43
REMARK SMILES IDX 81 44 83 45 34 46 86 47 80 48 79 49 35 51 67 52 47 53 66 54
REMARK SMILES IDX 48 55 51 56 65 57 84 58 49 59 50 60 64 62 85 63 52 64 36 65
REMARK SMILES IDX 37 66 45 67 38 68 44 69 46 70 43 71 39 72 40 73 41 74 42 75
REMARK SMILES IDX 68 76 69 77 77 78 70 79 76 80 78 81 75 82 71 83 72 84 73 85
REMARK SMILES IDX 74 86 53 87 54 88 62 89 55 90 61 91 63 92 60 93 56 94 57 95
REMARK SMILES IDX 58 96 59 97
REMARK H PARENT 14 14 83 50 51 61
REMARK Flexibility Score: inf
ROOT
ATOM      1  C   UNL A   1      37.282  22.938  25.829  1.00  0.00     0.274 C 
ENDROOT
BRANCH   1   2
ATOM      2  O   UNL A   1      36.094  22.973  25.013  1.00  0.00    -0.462 OA
BRANCH   2   3
ATOM      3  C   UNL A   1      34.913  22.961  25.704  1.00  0.00     0.310 C 
ATOM      4  O   UNL A   1      34.829  23.199  26.901  1.00  0.00    -0.252 OA
BRANCH   3   5
ATOM      5  C   UNL A   1      33.767  22.584  24.790  1.00  0.00     0.119 C 
ATOM      6  C   UNL A   1      32.238  22.573  25.262  1.00  0.00     0.100 C 
ATOM      7  C   UNL A   1      31.926  21.031  25.181  1.00  0.00     0.025 C 
ATOM      8  C   UNL A   1      34.022  21.095  24.355  1.00  0.00     0.027 C 
ATOM      9  C   UNL A   1      32.817  20.117  26.000  1.00  0.00    -0.027 C 
ATOM     10  C   UNL A   1      32.640  20.663  23.852  1.00  0.00     0.017 C 
ATOM     11  C   UNL A   1      34.067  20.183  25.543  1.00  0.00    -0.027 C 
BRANCH   6  12
ATOM     12  C   UNL A   1      31.311  23.838  25.827  1.00  0.00     0.229 C 
ATOM     13  N   UNL A   1      30.789  24.997  25.223  1.00  0.00    -0.323 N 
ATOM     14  H   UNL A   1      30.159  25.499  25.790  1.00  0.00     0.170 HD
ATOM     15  O   UNL A   1      30.978  23.750  27.031  1.00  0.00    -0.274 OA
BRANCH  13  16
ATOM     16  C   UNL A   1      31.024  25.629  23.828  1.00  0.00     0.084 A 
ATOM     17  C   UNL A   1      32.568  25.593  22.486  1.00  0.00     0.142 A 
ATOM     18  C   UNL A   1      33.311  27.215  22.096  1.00  0.00     0.049 A 
ATOM     19  C   UNL A   1      32.561  28.674  22.800  1.00  0.00     0.018 A 
ATOM     20  C   UNL A   1      30.370  27.210  24.337  1.00  0.00     0.044 A 
ATOM     21  C   UNL A   1      31.097  28.662  23.839  1.00  0.00     0.042 A 
BRANCH  17  22
ATOM     22  O   UNL A   1      33.607  24.675  22.117  1.00  0.00    -0.495 OA
ATOM     23  C   UNL A   1      33.225  23.448  21.479  1.00  0.00     0.278 C 
ENDBRANCH  17  22
BRANCH  21  24
ATOM     24  C   UNL A   1      30.358  29.969  24.001  1.00  0.00     0.253 C 
ATOM     25  O   UNL A   1      30.734  30.605  24.992  1.00  0.00    -0.269 OA
ATOM     26  N   UNL A   1      29.297  30.461  23.201  1.00  0.00    -0.345 N 
ATOM     27  C   UNL A   1      28.738  30.059  21.911  1.00  0.00     0.146 C 
ATOM     28  C   UNL A   1      28.611  31.642  23.712  1.00  0.00     0.146 C 
ENDBRANCH  21  24
ENDBRANCH  13  16
ENDBRANCH   6  12
ENDBRANCH   3   5
ENDBRANCH   2   3
ENDBRANCH   1   2
BRANCH   1  29
ATOM     29  C   UNL A   1      38.225  21.807  25.406  1.00  0.00     0.275 C 
BRANCH  29  30
ATOM     30  O   UNL A   1      39.139  21.473  26.468  1.00  0.00    -0.458 OA
BRANCH  30  31
ATOM     31  C   UNL A   1      40.404  21.866  26.200  1.00  0.00     0.338 C 
ATOM     32  O   UNL A   1      41.280  21.159  25.723  1.00  0.00    -0.246 OA
BRANCH  31  33
ATOM     33  C   UNL A   1      40.697  23.219  26.658  1.00  0.00     0.060 A 
ATOM     34  C   UNL A   1      40.428  24.877  25.899  1.00  0.00     0.016 A 
ATOM     35  C   UNL A   1      41.691  23.164  28.150  1.00  0.00     0.016 A 
ATOM     36  C   UNL A   1      41.123  26.444  26.975  1.00  0.00     0.010 A 
ATOM     37  C   UNL A   1      42.290  24.610  28.984  1.00  0.00     0.010 A 
ATOM     38  C   UNL A   1      41.972  26.232  28.483  1.00  0.00    -0.014 A 
BRANCH  38  39
ATOM     39  C   UNL A   1      42.273  27.554  29.131  1.00  0.00     0.031 A 
ATOM     40  C   UNL A   1      43.622  28.135  28.962  1.00  0.00     0.074 A 
ATOM     41  C   UNL A   1      41.257  28.343  29.584  1.00  0.00     0.049 A 
ATOM     42  N   UNL A   1      44.051  29.292  29.374  1.00  0.00    -0.248 NA
ATOM     43  C   UNL A   1      44.628  27.307  28.290  1.00  0.00     0.031 C 
ATOM     44  C   UNL A   1      39.891  27.879  29.799  1.00  0.00     0.029 A 
ATOM     45  N   UNL A   1      41.128  29.699  29.804  1.00  0.00    -0.354 N 
ATOM     46  C   UNL A   1      45.408  29.288  29.118  1.00  0.00     0.074 A 
ATOM     47  C   UNL A   1      45.719  28.035  28.464  1.00  0.00     0.031 C 
ATOM     48  C   UNL A   1      39.038  28.910  29.772  1.00  0.00     0.029 A 
ATOM     49  C   UNL A   1      39.807  30.130  29.926  1.00  0.00     0.049 A 
ATOM     50  H   UNL A   1      41.899  30.307  29.869  1.00  0.00     0.167 HD
ATOM     51  C   UNL A   1      46.297  30.242  29.473  1.00  0.00     0.034 A 
ATOM     52  C   UNL A   1      39.273  31.337  30.242  1.00  0.00     0.034 A 
ATOM     53  C   UNL A   1      45.904  31.479  30.097  1.00  0.00     0.049 A 
ATOM     54  C   UNL A   1      40.290  32.380  30.624  1.00  0.00     0.074 A 
ATOM     55  C   UNL A   1      46.707  32.500  30.566  1.00  0.00     0.029 A 
ATOM     56  N   UNL A   1      44.586  31.866  30.334  1.00  0.00    -0.354 N 
ATOM     57  N   UNL A   1      41.600  32.310  30.527  1.00  0.00    -0.248 NA
ATOM     58  C   UNL A   1      39.795  33.614  31.243  1.00  0.00     0.031 C 
ATOM     59  C   UNL A   1      45.883  33.460  31.158  1.00  0.00     0.029 A 
ATOM     60  C   UNL A   1      44.558  33.098  30.961  1.00  0.00     0.049 A 
ATOM     61  H   UNL A   1      43.791  31.338  30.089  1.00  0.00     0.167 HD
ATOM     62  C   UNL A   1      42.088  33.474  31.097  1.00  0.00     0.074 A 
ATOM     63  C   UNL A   1      40.927  34.258  31.481  1.00  0.00     0.031 C 
ATOM     64  C   UNL A   1      43.373  33.846  31.314  1.00  0.00     0.034 A 
BRANCH  51  65
ATOM     65  C   UNL A   1      47.748  29.878  29.352  1.00  0.00     0.023 A 
ATOM     66  C   UNL A   1      48.490  30.095  28.181  1.00  0.00     0.031 A 
ATOM     67  C   UNL A   1      48.366  29.188  30.412  1.00  0.00     0.131 A 
ATOM     68  C   UNL A   1      49.780  29.555  28.069  1.00  0.00     0.055 A 
ATOM     69  C   UNL A   1      49.682  28.739  30.330  1.00  0.00     0.041 A 
ATOM     70  F   UNL A   1      47.682  28.903  31.532  1.00  0.00    -0.206 F 
ATOM     71  C   UNL A   1      50.393  28.909  29.147  1.00  0.00     0.022 A 
BRANCH  68  72
ATOM     72  S   UNL A   1      50.580  29.558  26.443  1.00  0.00     0.124 S 
ATOM     73  O   UNL A   1      50.578  30.984  26.121  1.00  0.00    -0.237 OA
ATOM     74  O   UNL A   1      51.884  28.972  26.730  1.00  0.00    -0.237 OA
ATOM     75  O   UNL A   1      49.693  28.737  25.623  1.00  0.00    -0.744 OA
ENDBRANCH  68  72
ENDBRANCH  51  65
BRANCH  52  76
ATOM     76  C   UNL A   1      37.790  31.576  30.452  1.00  0.00     0.023 A 
ATOM     77  C   UNL A   1      36.917  31.952  29.406  1.00  0.00     0.031 A 
ATOM     78  C   UNL A   1      37.228  31.551  31.748  1.00  0.00     0.131 A 
ATOM     79  C   UNL A   1      35.575  32.306  29.682  1.00  0.00     0.055 A 
ATOM     80  C   UNL A   1      35.875  31.798  31.999  1.00  0.00     0.041 A 
ATOM     81  F   UNL A   1      37.993  31.307  32.823  1.00  0.00    -0.206 F 
ATOM     82  C   UNL A   1      35.043  32.196  30.966  1.00  0.00     0.022 A 
BRANCH  79  83
ATOM     83  S   UNL A   1      34.561  33.088  28.385  1.00  0.00     0.124 S 
ATOM     84  O   UNL A   1      33.748  34.017  29.163  1.00  0.00    -0.237 OA
ATOM     85  O   UNL A   1      35.571  33.686  27.520  1.00  0.00    -0.237 OA
ATOM     86  O   UNL A   1      33.829  31.965  27.800  1.00  0.00    -0.744 OA
ENDBRANCH  79  83
ENDBRANCH  52  76
BRANCH  64  87
ATOM     87  C   UNL A   1      43.567  35.206  31.921  1.00  0.00     0.023 A 
ATOM     88  C   UNL A   1      43.520  35.411  33.308  1.00  0.00     0.031 A 
ATOM     89  C   UNL A   1      43.769  36.313  31.081  1.00  0.00     0.131 A 
ATOM     90  C   UNL A   1      43.595  36.715  33.810  1.00  0.00     0.055 A 
ATOM     91  C   UNL A   1      43.935  37.596  31.594  1.00  0.00     0.041 A 
ATOM     92  F   UNL A   1      43.808  36.162  29.747  1.00  0.00    -0.206 F 
ATOM     93  C   UNL A   1      43.828  37.805  32.966  1.00  0.00     0.022 A 
BRANCH  90  94
ATOM     94  S   UNL A   1      43.233  36.982  35.565  1.00  0.00     0.124 S 
ATOM     95  O   UNL A   1      43.959  35.881  36.190  1.00  0.00    -0.237 OA
ATOM     96  O   UNL A   1      43.775  38.316  35.799  1.00  0.00    -0.237 OA
ATOM     97  O   UNL A   1      41.776  36.884  35.631  1.00  0.00    -0.744 OA
ENDBRANCH  90  94
ENDBRANCH  64  87
ENDBRANCH  38  39
ENDBRANCH  31  33
ENDBRANCH  30  31
ENDBRANCH  29  30
ENDBRANCH   1  29
TORSDOF 18
ENDMDL
MODEL 3
REMARK VINA RESULT:     -11.9      4.161      8.205
REMARK SMILES COc1ccc(C(=O)N(C)C)cc1NC(=O)[C@H]1[C@@H](C(=O)OCCOC(=O)c2ccc(-c3c4nc(c(-c5cc(S(=O)(=O)[O-])ccc5F)c5ccc([nH]5)c(-c5cc(S(=O)(=O)[O-])ccc5F)c5nc(c(-c6cc(S(=O)(=O)[O-])ccc6F)c6ccc3[nH]6)C=C5)C=C4)cc2)[C@H]2C=C[C@@H]1C2
REMARK SMILES IDX 22 1 21 2 19 3 20 4 18 5 17 6 93 7 90 8 92 9 94 10 91 11
REMARK SMILES IDX 15 12 14 13 16 15 13 16 3 17 4 18 5 19 12 20 6 21 2 22 1 23
REMARK SMILES IDX 7 24 8 25 9 26 10 27 11 28 23 29 24 30 25 31 26 32 27 33
REMARK SMILES IDX 28 34 89 35 29 36 88 37 30 38 31 39 32 40 82 41 33 42 87 43
REMARK SMILES IDX 81 44 83 45 34 46 86 47 80 48 79 49 35 51 67 52 47 53 66 54
REMARK SMILES IDX 48 55 51 56 65 57 84 58 49 59 50 60 64 62 85 63 52 64 36 65
REMARK SMILES IDX 37 66 45 67 38 68 44 69 46 70 43 71 39 72 40 73 41 74 42 75
REMARK SMILES IDX 68 76 69 77 77 78 70 79 76 80 78 81 75 82 71 83 72 84 73 85
REMARK SMILES IDX 74 86 53 87 54 88 62 89 55 90 61 91 63 92 60 93 56 94 57 95
REMARK SMILES IDX 58 96 59 97
REMARK H PARENT 14 14 83 50 51 61
REMARK Flexibility Score: inf
ROOT
ATOM      1  C   UNL A   1      37.598  22.421  25.873  1.00  0.00     0.274 C 
ENDROOT
BRANCH   1   2
ATOM      2  O   UNL A   1      36.367  21.982  25.266  1.00  0.00    -0.462 OA
BRANCH   2   3
ATOM      3  C   UNL A   1      35.227  22.485  25.832  1.00  0.00     0.310 C 
ATOM      4  O   UNL A   1      35.189  22.971  26.954  1.00  0.00    -0.252 OA
BRANCH   3   5
ATOM      5  C   UNL A   1      34.050  22.317  24.896  1.00  0.00     0.119 C 
ATOM      6  C   UNL A   1      32.528  22.462  25.368  1.00  0.00     0.100 C 
ATOM      7  C   UNL A   1      32.028  20.981  25.180  1.00  0.00     0.025 C 
ATOM      8  C   UNL A   1      34.122  20.841  24.358  1.00  0.00     0.027 C 
ATOM      9  C   UNL A   1      32.793  19.909  25.932  1.00  0.00    -0.027 C 
ATOM     10  C   UNL A   1      32.701  20.620  23.828  1.00  0.00     0.017 C 
ATOM     11  C   UNL A   1      34.045  19.851  25.479  1.00  0.00    -0.027 C 
BRANCH   6  12
ATOM     12  C   UNL A   1      31.761  23.791  26.021  1.00  0.00     0.229 C 
ATOM     13  N   UNL A   1      31.243  24.976  25.465  1.00  0.00    -0.323 N 
ATOM     14  H   UNL A   1      30.722  25.523  26.097  1.00  0.00     0.170 HD
ATOM     15  O   UNL A   1      31.574  23.735  27.258  1.00  0.00    -0.274 OA
BRANCH  13  16
ATOM     16  C   UNL A   1      31.344  25.578  24.041  1.00  0.00     0.084 A 
ATOM     17  C   UNL A   1      32.767  25.539  22.572  1.00  0.00     0.142 A 
ATOM     18  C   UNL A   1      33.440  27.164  22.082  1.00  0.00     0.049 A 
ATOM     19  C   UNL A   1      32.725  28.625  22.816  1.00  0.00     0.018 A 
ATOM     20  C   UNL A   1      30.704  27.159  24.570  1.00  0.00     0.044 A 
ATOM     21  C   UNL A   1      31.357  28.612  23.979  1.00  0.00     0.042 A 
BRANCH  17  22
ATOM     22  O   UNL A   1      33.788  24.631  22.134  1.00  0.00    -0.495 OA
ATOM     23  C   UNL A   1      33.376  23.388  21.546  1.00  0.00     0.278 C 
ENDBRANCH  17  22
BRANCH  21  24
ATOM     24  C   UNL A   1      30.608  29.909  24.176  1.00  0.00     0.253 C 
ATOM     25  O   UNL A   1      30.965  30.511  25.195  1.00  0.00    -0.269 OA
ATOM     26  N   UNL A   1      29.559  30.425  23.376  1.00  0.00    -0.345 N 
ATOM     27  C   UNL A   1      29.023  30.067  22.064  1.00  0.00     0.146 C 
ATOM     28  C   UNL A   1      28.858  31.583  23.918  1.00  0.00     0.146 C 
ENDBRANCH  21  24
ENDBRANCH  13  16
ENDBRANCH   6  12
ENDBRANCH   3   5
ENDBRANCH   2   3
ENDBRANCH   1   2
BRANCH   1  29
ATOM     29  C   UNL A   1      38.734  21.420  25.636  1.00  0.00     0.275 C 
BRANCH  29  30
ATOM     30  O   UNL A   1      39.693  21.464  26.710  1.00  0.00    -0.458 OA
BRANCH  30  31
ATOM     31  C   UNL A   1      40.880  21.977  26.319  1.00  0.00     0.338 C 
ATOM     32  O   UNL A   1      41.715  21.395  25.643  1.00  0.00    -0.246 OA
BRANCH  31  33
ATOM     33  C   UNL A   1      41.159  23.289  26.892  1.00  0.00     0.060 A 
ATOM     34  C   UNL A   1      41.902  23.817  28.494  1.00  0.00     0.016 A 
ATOM     35  C   UNL A   1      40.424  24.573  25.879  1.00  0.00     0.016 A 
ATOM     36  C   UNL A   1      41.971  25.816  28.799  1.00  0.00     0.010 A 
ATOM     37  C   UNL A   1      40.505  26.300  26.272  1.00  0.00     0.010 A 
ATOM     38  C   UNL A   1      41.315  26.954  27.652  1.00  0.00    -0.014 A 
BRANCH  38  39
ATOM     39  C   UNL A   1      41.600  28.371  28.062  1.00  0.00     0.031 A 
ATOM     40  C   UNL A   1      40.579  29.102  28.842  1.00  0.00     0.074 A 
ATOM     41  C   UNL A   1      42.873  28.859  28.003  1.00  0.00     0.049 A 
ATOM     42  N   UNL A   1      40.667  30.295  29.353  1.00  0.00    -0.248 NA
ATOM     43  C   UNL A   1      39.286  28.440  29.038  1.00  0.00     0.031 C 
ATOM     44  C   UNL A   1      43.958  28.230  27.258  1.00  0.00     0.029 A 
ATOM     45  N   UNL A   1      43.537  29.872  28.664  1.00  0.00    -0.354 N 
ATOM     46  C   UNL A   1      39.403  30.579  29.832  1.00  0.00     0.074 A 
ATOM     47  C   UNL A   1      38.583  29.410  29.599  1.00  0.00     0.031 C 
ATOM     48  C   UNL A   1      45.143  28.619  27.745  1.00  0.00     0.029 A 
ATOM     49  C   UNL A   1      44.926  29.799  28.561  1.00  0.00     0.049 A 
ATOM     50  H   UNL A   1      43.073  30.582  29.161  1.00  0.00     0.167 HD
ATOM     51  C   UNL A   1      38.985  31.752  30.356  1.00  0.00     0.034 A 
ATOM     52  C   UNL A   1      45.911  30.638  28.970  1.00  0.00     0.034 A 
ATOM     53  C   UNL A   1      39.874  32.863  30.584  1.00  0.00     0.049 A 
ATOM     54  C   UNL A   1      45.412  31.933  29.557  1.00  0.00     0.074 A 
ATOM     55  C   UNL A   1      39.568  34.128  31.046  1.00  0.00     0.029 A 
ATOM     56  N   UNL A   1      41.250  32.837  30.368  1.00  0.00    -0.354 N 
ATOM     57  N   UNL A   1      44.177  32.261  29.865  1.00  0.00    -0.248 NA
ATOM     58  C   UNL A   1      46.392  33.004  29.764  1.00  0.00     0.031 C 
ATOM     59  C   UNL A   1      40.741  34.888  31.031  1.00  0.00     0.029 A 
ATOM     60  C   UNL A   1      41.801  34.070  30.668  1.00  0.00     0.049 A 
ATOM     61  H   UNL A   1      41.756  32.054  30.049  1.00  0.00     0.167 HD
ATOM     62  C   UNL A   1      44.224  33.583  30.275  1.00  0.00     0.074 A 
ATOM     63  C   UNL A   1      45.623  33.973  30.233  1.00  0.00     0.031 C 
ATOM     64  C   UNL A   1      43.206  34.408  30.621  1.00  0.00     0.034 A 
BRANCH  51  65
ATOM     65  C   UNL A   1      37.503  31.915  30.528  1.00  0.00     0.023 A 
ATOM     66  C   UNL A   1      36.645  32.227  29.463  1.00  0.00     0.031 A 
ATOM     67  C   UNL A   1      36.962  31.866  31.826  1.00  0.00     0.131 A 
ATOM     68  C   UNL A   1      35.308  32.557  29.727  1.00  0.00     0.055 A 
ATOM     69  C   UNL A   1      35.610  32.100  32.069  1.00  0.00     0.041 A 
ATOM     70  F   UNL A   1      37.750  31.630  32.888  1.00  0.00    -0.206 F 
ATOM     71  C   UNL A   1      34.776  32.463  31.017  1.00  0.00     0.022 A 
BRANCH  68  72
ATOM     72  S   UNL A   1      34.315  33.276  28.392  1.00  0.00     0.124 S 
ATOM     73  O   UNL A   1      33.663  32.087  27.843  1.00  0.00    -0.237 OA
ATOM     74  O   UNL A   1      33.447  34.205  29.106  1.00  0.00    -0.237 OA
ATOM     75  O   UNL A   1      35.310  33.894  27.519  1.00  0.00    -0.744 OA
ENDBRANCH  68  72
ENDBRANCH  51  65
BRANCH  52  76
ATOM     76  C   UNL A   1      47.379  30.440  28.646  1.00  0.00     0.023 A 
ATOM     77  C   UNL A   1      48.274  29.774  29.515  1.00  0.00     0.031 A 
ATOM     78  C   UNL A   1      47.955  31.027  27.497  1.00  0.00     0.131 A 
ATOM     79  C   UNL A   1      49.661  29.745  29.234  1.00  0.00     0.055 A 
ATOM     80  C   UNL A   1      49.309  30.904  27.172  1.00  0.00     0.041 A 
ATOM     81  F   UNL A   1      47.212  31.769  26.661  1.00  0.00    -0.206 F 
ATOM     82  C   UNL A   1      50.175  30.275  28.051  1.00  0.00     0.022 A 
BRANCH  79  83
ATOM     83  S   UNL A   1      50.830  29.168  30.508  1.00  0.00     0.124 S 
ATOM     84  O   UNL A   1      51.983  30.026  30.263  1.00  0.00    -0.237 OA
ATOM     85  O   UNL A   1      50.092  29.418  31.741  1.00  0.00    -0.237 OA
ATOM     86  O   UNL A   1      51.026  27.757  30.178  1.00  0.00    -0.744 OA
ENDBRANCH  79  83
ENDBRANCH  52  76
BRANCH  64  87
ATOM     87  C   UNL A   1      43.601  35.787  31.064  1.00  0.00     0.023 A 
ATOM     88  C   UNL A   1      43.730  36.847  30.155  1.00  0.00     0.031 A 
ATOM     89  C   UNL A   1      43.885  36.021  32.420  1.00  0.00     0.131 A 
ATOM     90  C   UNL A   1      44.211  38.082  30.606  1.00  0.00     0.055 A 
ATOM     91  C   UNL A   1      44.275  37.276  32.876  1.00  0.00     0.041 A 
ATOM     92  F   UNL A   1      43.787  35.030  33.320  1.00  0.00    -0.206 F 
ATOM     93  C   UNL A   1      44.458  38.311  31.963  1.00  0.00     0.022 A 
BRANCH  90  94
ATOM     94  S   UNL A   1      44.651  39.335  29.374  1.00  0.00     0.124 S 
ATOM     95  O   UNL A   1      45.536  40.207  30.139  1.00  0.00    -0.237 OA
ATOM     96  O   UNL A   1      45.288  38.539  28.329  1.00  0.00    -0.237 OA
ATOM     97  O   UNL A   1      43.362  39.920  29.009  1.00  0.00    -0.744 OA
ENDBRANCH  90  94
ENDBRANCH  64  87
ENDBRANCH  38  39
ENDBRANCH  31  33
ENDBRANCH  30  31
ENDBRANCH  29  30
ENDBRANCH   1  29
TORSDOF 18
ENDMDL
