MODEL 1
REMARK VINA RESULT:     -11.1      0.000      0.000
REMARK SMILES O=C(COc1ccc(S(=O)(=O)NC[C@@H]2CCCO2)cc1)OCCOC(=O)c1ccc(-c2c3nc(c(-c4cc(S(=O)(=O)[O-])ccc4F)c4ccc([nH]4)c(-c4cc(S(=O)(=O)[O-])ccc4F)c4nc(c(-c5cc(S(=O)(=O)[O-])ccc5F)c5ccc2[nH]5)C=C4)C=C3)cc1
REMARK SMILES IDX 21 1 2 2 1 3 3 4 4 5 5 6 6 7 20 8 7 9 19 10 8 11 9 12 10 13
REMARK SMILES IDX 11 14 12 15 13 17 14 18 15 19 18 20 16 21 17 22 22 23 23 24
REMARK SMILES IDX 24 25 25 26 26 27 27 28 28 29 89 30 29 31 88 32 30 33 31 34
REMARK SMILES IDX 32 35 82 36 33 37 87 38 81 39 83 40 34 41 86 42 80 43 79 44
REMARK SMILES IDX 35 46 67 47 47 48 66 49 48 50 51 51 65 52 84 53 49 54 50 55
REMARK SMILES IDX 64 57 85 58 52 59 36 60 37 61 45 62 38 63 44 64 46 65 43 66
REMARK SMILES IDX 39 67 40 68 41 69 42 70 68 71 69 72 77 73 70 74 76 75 78 76
REMARK SMILES IDX 75 77 71 78 72 79 73 80 74 81 53 82 54 83 62 84 55 85 61 86
REMARK SMILES IDX 63 87 60 88 56 89 57 90 58 91 59 92
REMARK H PARENT 12 16 83 45 51 56
REMARK Flexibility Score: inf
ROOT
ATOM      1  O   UNL A   1      34.889  19.228  24.629  1.00  0.00    -0.460 OA
ENDROOT
BRANCH   1   2
ATOM      2  C   UNL A   1      33.540  19.317  24.739  1.00  0.00     0.344 C 
ATOM      3  O   UNL A   1      32.859  18.297  24.817  1.00  0.00    -0.248 OA
BRANCH   2   4
ATOM      4  C   UNL A   1      32.920  20.705  24.873  1.00  0.00     0.351 C 
BRANCH   4   5
ATOM      5  O   UNL A   1      32.474  21.269  23.641  1.00  0.00    -0.482 OA
BRANCH   5   6
ATOM      6  C   UNL A   1      32.368  22.631  23.740  1.00  0.00     0.120 A 
ATOM      7  C   UNL A   1      33.477  23.398  23.394  1.00  0.00     0.048 A 
ATOM      8  C   UNL A   1      31.198  23.240  24.196  1.00  0.00     0.048 A 
ATOM      9  C   UNL A   1      33.409  24.788  23.497  1.00  0.00     0.025 A 
ATOM     10  C   UNL A   1      31.104  24.623  24.237  1.00  0.00     0.025 A 
ATOM     11  C   UNL A   1      32.221  25.393  23.926  1.00  0.00     0.082 A 
BRANCH  11  12
ATOM     12  S   UNL A   1      32.234  27.138  24.222  1.00  0.00     0.240 S 
ATOM     13  O   UNL A   1      31.310  27.384  25.306  1.00  0.00    -0.207 OA
ATOM     14  O   UNL A   1      33.619  27.544  24.296  1.00  0.00    -0.207 OA
BRANCH  12  15
ATOM     15  N   UNL A   1      31.629  27.830  22.817  1.00  0.00    -0.209 NA
ATOM     16  H   UNL A   1      32.056  27.316  22.046  1.00  0.00     0.141 HD
BRANCH  15  17
ATOM     17  C   UNL A   1      30.193  27.905  22.503  1.00  0.00     0.130 C 
BRANCH  17  18
ATOM     18  C   UNL A   1      29.609  29.308  22.574  1.00  0.00     0.133 C 
ATOM     19  C   UNL A   1      28.166  29.329  23.045  1.00  0.00     0.036 C 
ATOM     20  O   UNL A   1      29.538  29.919  21.279  1.00  0.00    -0.377 OA
ATOM     21  C   UNL A   1      27.737  30.713  22.612  1.00  0.00     0.031 C 
ATOM     22  C   UNL A   1      28.601  30.998  21.392  1.00  0.00     0.160 C 
ENDBRANCH  17  18
ENDBRANCH  15  17
ENDBRANCH  12  15
ENDBRANCH  11  12
ENDBRANCH   5   6
ENDBRANCH   4   5
ENDBRANCH   2   4
ENDBRANCH   1   2
BRANCH   1  23
ATOM     23  C   UNL A   1      35.761  20.323  24.971  1.00  0.00     0.274 C 
BRANCH  23  24
ATOM     24  C   UNL A   1      37.223  19.867  24.981  1.00  0.00     0.275 C 
BRANCH  24  25
ATOM     25  O   UNL A   1      38.083  21.001  25.199  1.00  0.00    -0.458 OA
BRANCH  25  26
ATOM     26  C   UNL A   1      39.194  20.766  25.946  1.00  0.00     0.338 C 
ATOM     27  O   UNL A   1      39.797  19.710  26.023  1.00  0.00    -0.246 OA
BRANCH  26  28
ATOM     28  C   UNL A   1      39.687  22.051  26.499  1.00  0.00     0.060 A 
ATOM     29  C   UNL A   1      39.056  23.233  26.090  1.00  0.00     0.016 A 
ATOM     30  C   UNL A   1      40.747  22.105  27.412  1.00  0.00     0.016 A 
ATOM     31  C   UNL A   1      39.525  24.470  26.536  1.00  0.00     0.010 A 
ATOM     32  C   UNL A   1      41.218  23.345  27.858  1.00  0.00     0.010 A 
ATOM     33  C   UNL A   1      40.641  24.534  27.382  1.00  0.00    -0.014 A 
BRANCH  33  34
ATOM     34  C   UNL A   1      41.347  25.829  27.554  1.00  0.00     0.031 A 
ATOM     35  C   UNL A   1      40.646  26.913  28.331  1.00  0.00     0.074 A 
ATOM     36  C   UNL A   1      42.582  26.038  27.064  1.00  0.00     0.049 A 
ATOM     37  N   UNL A   1      41.070  28.101  28.673  1.00  0.00    -0.248 NA
ATOM     38  C   UNL A   1      39.276  26.610  28.774  1.00  0.00     0.031 C 
ATOM     39  C   UNL A   1      43.370  25.071  26.302  1.00  0.00     0.029 A 
ATOM     40  N   UNL A   1      43.392  27.145  27.142  1.00  0.00    -0.354 N 
ATOM     41  C   UNL A   1      40.026  28.680  29.390  1.00  0.00     0.074 A 
ATOM     42  C   UNL A   1      38.931  27.735  29.378  1.00  0.00     0.031 C 
ATOM     43  C   UNL A   1      44.549  25.631  25.978  1.00  0.00     0.029 A 
ATOM     44  C   UNL A   1      44.599  26.996  26.502  1.00  0.00     0.049 A 
ATOM     45  H   UNL A   1      43.131  27.969  27.613  1.00  0.00     0.167 HD
ATOM     46  C   UNL A   1      39.988  29.879  30.020  1.00  0.00     0.034 A 
ATOM     47  C   UNL A   1      45.623  27.862  26.362  1.00  0.00     0.034 A 
ATOM     48  C   UNL A   1      41.070  30.830  30.004  1.00  0.00     0.049 A 
ATOM     49  C   UNL A   1      45.536  29.221  27.018  1.00  0.00     0.074 A 
ATOM     50  C   UNL A   1      41.139  32.073  30.609  1.00  0.00     0.029 A 
ATOM     51  N   UNL A   1      42.270  30.650  29.328  1.00  0.00    -0.354 N 
ATOM     52  N   UNL A   1      44.565  29.735  27.736  1.00  0.00    -0.248 NA
ATOM     53  C   UNL A   1      46.698  30.108  26.859  1.00  0.00     0.031 C 
ATOM     54  C   UNL A   1      42.357  32.667  30.253  1.00  0.00     0.029 A 
ATOM     55  C   UNL A   1      43.075  31.767  29.479  1.00  0.00     0.049 A 
ATOM     56  H   UNL A   1      42.514  29.845  28.816  1.00  0.00     0.167 HD
ATOM     57  C   UNL A   1      45.021  30.985  28.153  1.00  0.00     0.074 A 
ATOM     58  C   UNL A   1      46.350  31.146  27.605  1.00  0.00     0.031 C 
ATOM     59  C   UNL A   1      44.401  31.912  28.929  1.00  0.00     0.034 A 
BRANCH  46  60
ATOM     60  C   UNL A   1      38.708  30.229  30.737  1.00  0.00     0.023 A 
ATOM     61  C   UNL A   1      37.679  30.939  30.092  1.00  0.00     0.031 A 
ATOM     62  C   UNL A   1      38.542  29.910  32.094  1.00  0.00     0.131 A 
ATOM     63  C   UNL A   1      36.567  31.378  30.827  1.00  0.00     0.055 A 
ATOM     64  C   UNL A   1      37.397  30.282  32.801  1.00  0.00     0.041 A 
ATOM     65  F   UNL A   1      39.503  29.257  32.765  1.00  0.00    -0.206 F 
ATOM     66  C   UNL A   1      36.408  31.035  32.171  1.00  0.00     0.022 A 
BRANCH  63  67
ATOM     67  S   UNL A   1      35.409  32.532  30.040  1.00  0.00     0.124 S 
ATOM     68  O   UNL A   1      36.270  33.686  29.787  1.00  0.00    -0.237 OA
ATOM     69  O   UNL A   1      34.971  31.789  28.866  1.00  0.00    -0.237 OA
ATOM     70  O   UNL A   1      34.387  32.742  31.064  1.00  0.00    -0.744 OA
ENDBRANCH  63  67
ENDBRANCH  46  60
BRANCH  47  71
ATOM     71  C   UNL A   1      46.826  27.493  25.565  1.00  0.00     0.023 A 
ATOM     72  C   UNL A   1      46.965  27.898  24.228  1.00  0.00     0.031 A 
ATOM     73  C   UNL A   1      47.819  26.658  26.110  1.00  0.00     0.131 A 
ATOM     74  C   UNL A   1      48.042  27.424  23.462  1.00  0.00     0.055 A 
ATOM     75  C   UNL A   1      48.914  26.228  25.358  1.00  0.00     0.041 A 
ATOM     76  F   UNL A   1      47.732  26.243  27.383  1.00  0.00    -0.206 F 
ATOM     77  C   UNL A   1      49.022  26.600  24.021  1.00  0.00     0.022 A 
BRANCH  74  78
ATOM     78  S   UNL A   1      48.094  27.825  21.693  1.00  0.00     0.124 S 
ATOM     79  O   UNL A   1      49.237  28.727  21.627  1.00  0.00    -0.237 OA
ATOM     80  O   UNL A   1      48.278  26.510  21.088  1.00  0.00    -0.237 OA
ATOM     81  O   UNL A   1      46.794  28.446  21.446  1.00  0.00    -0.744 OA
ENDBRANCH  74  78
ENDBRANCH  47  71
BRANCH  59  82
ATOM     82  C   UNL A   1      45.187  33.150  29.282  1.00  0.00     0.023 A 
ATOM     83  C   UNL A   1      45.145  34.310  28.489  1.00  0.00     0.031 A 
ATOM     84  C   UNL A   1      46.002  33.160  30.428  1.00  0.00     0.131 A 
ATOM     85  C   UNL A   1      45.943  35.415  28.825  1.00  0.00     0.055 A 
ATOM     86  C   UNL A   1      46.754  34.279  30.786  1.00  0.00     0.041 A 
ATOM     87  F   UNL A   1      46.077  32.079  31.222  1.00  0.00    -0.206 F 
ATOM     88  C   UNL A   1      46.739  35.410  29.975  1.00  0.00     0.022 A 
BRANCH  85  89
ATOM     89  S   UNL A   1      45.999  36.829  27.691  1.00  0.00     0.124 S 
ATOM     90  O   UNL A   1      45.237  36.337  26.548  1.00  0.00    -0.237 OA
ATOM     91  O   UNL A   1      45.361  37.882  28.477  1.00  0.00    -0.237 OA
ATOM     92  O   UNL A   1      47.428  37.019  27.448  1.00  0.00    -0.744 OA
ENDBRANCH  85  89
ENDBRANCH  59  82
ENDBRANCH  33  34
ENDBRANCH  26  28
ENDBRANCH  25  26
ENDBRANCH  24  25
ENDBRANCH  23  24
ENDBRANCH   1  23
TORSDOF 20
ENDMDL
MODEL 2
REMARK VINA RESULT:     -11.1      2.040      7.748
REMARK SMILES O=C(COc1ccc(S(=O)(=O)NC[C@@H]2CCCO2)cc1)OCCOC(=O)c1ccc(-c2c3nc(c(-c4cc(S(=O)(=O)[O-])ccc4F)c4ccc([nH]4)c(-c4cc(S(=O)(=O)[O-])ccc4F)c4nc(c(-c5cc(S(=O)(=O)[O-])ccc5F)c5ccc2[nH]5)C=C4)C=C3)cc1
REMARK SMILES IDX 21 1 2 2 1 3 3 4 4 5 5 6 6 7 20 8 7 9 19 10 8 11 9 12 10 13
REMARK SMILES IDX 11 14 12 15 13 17 14 18 15 19 18 20 16 21 17 22 22 23 23 24
REMARK SMILES IDX 24 25 25 26 26 27 27 28 28 29 89 30 29 31 88 32 30 33 31 34
REMARK SMILES IDX 32 35 82 36 33 37 87 38 81 39 83 40 34 41 86 42 80 43 79 44
REMARK SMILES IDX 35 46 67 47 47 48 66 49 48 50 51 51 65 52 84 53 49 54 50 55
REMARK SMILES IDX 64 57 85 58 52 59 36 60 37 61 45 62 38 63 44 64 46 65 43 66
REMARK SMILES IDX 39 67 40 68 41 69 42 70 68 71 69 72 77 73 70 74 76 75 78 76
REMARK SMILES IDX 75 77 71 78 72 79 73 80 74 81 53 82 54 83 62 84 55 85 61 86
REMARK SMILES IDX 63 87 60 88 56 89 57 90 58 91 59 92
REMARK H PARENT 12 16 83 45 51 56
REMARK Flexibility Score: inf
ROOT
ATOM      1  O   UNL A   1      35.358  20.011  24.979  1.00  0.00    -0.460 OA
ENDROOT
BRANCH   1   2
ATOM      2  C   UNL A   1      34.234  20.666  25.361  1.00  0.00     0.344 C 
ATOM      3  O   UNL A   1      33.226  20.034  25.673  1.00  0.00    -0.248 OA
BRANCH   2   4
ATOM      4  C   UNL A   1      34.298  22.185  25.497  1.00  0.00     0.351 C 
BRANCH   4   5
ATOM      5  O   UNL A   1      33.024  22.820  25.593  1.00  0.00    -0.482 OA
BRANCH   5   6
ATOM      6  C   UNL A   1      33.008  23.989  24.881  1.00  0.00     0.120 A 
ATOM      7  C   UNL A   1      33.455  25.145  25.516  1.00  0.00     0.048 A 
ATOM      8  C   UNL A   1      32.539  24.037  23.568  1.00  0.00     0.048 A 
ATOM      9  C   UNL A   1      33.439  26.357  24.824  1.00  0.00     0.025 A 
ATOM     10  C   UNL A   1      32.582  25.226  22.856  1.00  0.00     0.025 A 
ATOM     11  C   UNL A   1      32.994  26.391  23.496  1.00  0.00     0.082 A 
BRANCH  11  12
ATOM     12  S   UNL A   1      32.813  27.970  22.718  1.00  0.00     0.240 S 
ATOM     13  O   UNL A   1      32.754  28.952  23.776  1.00  0.00    -0.207 OA
ATOM     14  O   UNL A   1      33.805  28.040  21.669  1.00  0.00    -0.207 OA
BRANCH  12  15
ATOM     15  N   UNL A   1      31.327  27.911  21.939  1.00  0.00    -0.209 NA
ATOM     16  H   UNL A   1      31.208  26.945  21.635  1.00  0.00     0.141 HD
BRANCH  15  17
ATOM     17  C   UNL A   1      30.058  28.288  22.583  1.00  0.00     0.130 C 
BRANCH  17  18
ATOM     18  C   UNL A   1      29.693  29.757  22.435  1.00  0.00     0.133 C 
ATOM     19  C   UNL A   1      28.509  30.167  23.292  1.00  0.00     0.036 C 
ATOM     20  O   UNL A   1      29.253  30.062  21.104  1.00  0.00    -0.377 OA
ATOM     21  C   UNL A   1      28.115  31.474  22.642  1.00  0.00     0.031 C 
ATOM     22  C   UNL A   1      28.537  31.301  21.190  1.00  0.00     0.160 C 
ENDBRANCH  17  18
ENDBRANCH  15  17
ENDBRANCH  12  15
ENDBRANCH  11  12
ENDBRANCH   5   6
ENDBRANCH   4   5
ENDBRANCH   2   4
ENDBRANCH   1   2
BRANCH   1  23
ATOM     23  C   UNL A   1      36.589  20.702  24.690  1.00  0.00     0.274 C 
BRANCH  23  24
ATOM     24  C   UNL A   1      37.793  19.876  25.152  1.00  0.00     0.275 C 
BRANCH  24  25
ATOM     25  O   UNL A   1      38.977  20.695  25.138  1.00  0.00    -0.458 OA
BRANCH  25  26
ATOM     26  C   UNL A   1      39.853  20.488  26.157  1.00  0.00     0.338 C 
ATOM     27  O   UNL A   1      40.426  19.443  26.410  1.00  0.00    -0.246 OA
BRANCH  26  28
ATOM     28  C   UNL A   1      40.166  21.789  26.798  1.00  0.00     0.060 A 
ATOM     29  C   UNL A   1      39.450  22.920  26.386  1.00  0.00     0.016 A 
ATOM     30  C   UNL A   1      41.141  21.905  27.796  1.00  0.00     0.016 A 
ATOM     31  C   UNL A   1      39.754  24.176  26.916  1.00  0.00     0.010 A 
ATOM     32  C   UNL A   1      41.446  23.163  28.328  1.00  0.00     0.010 A 
ATOM     33  C   UNL A   1      40.787  24.310  27.853  1.00  0.00    -0.014 A 
BRANCH  33  34
ATOM     34  C   UNL A   1      41.341  25.659  28.133  1.00  0.00     0.031 A 
ATOM     35  C   UNL A   1      42.734  25.961  27.642  1.00  0.00     0.074 A 
ATOM     36  C   UNL A   1      40.631  26.603  28.776  1.00  0.00     0.049 A 
ATOM     37  N   UNL A   1      43.417  27.074  27.701  1.00  0.00    -0.248 NA
ATOM     38  C   UNL A   1      43.451  24.846  27.003  1.00  0.00     0.031 C 
ATOM     39  C   UNL A   1      39.275  26.440  29.294  1.00  0.00     0.029 A 
ATOM     40  N   UNL A   1      40.963  27.896  29.099  1.00  0.00    -0.354 N 
ATOM     41  C   UNL A   1      44.636  26.800  27.089  1.00  0.00     0.074 A 
ATOM     42  C   UNL A   1      44.619  25.400  26.723  1.00  0.00     0.031 C 
ATOM     43  C   UNL A   1      38.892  27.591  29.877  1.00  0.00     0.029 A 
ATOM     44  C   UNL A   1      39.976  28.568  29.779  1.00  0.00     0.049 A 
ATOM     45  H   UNL A   1      41.829  28.303  28.866  1.00  0.00     0.167 HD
ATOM     46  C   UNL A   1      45.669  27.640  26.833  1.00  0.00     0.034 A 
ATOM     47  C   UNL A   1      39.954  29.828  30.261  1.00  0.00     0.034 A 
ATOM     48  C   UNL A   1      45.694  29.025  27.228  1.00  0.00     0.049 A 
ATOM     49  C   UNL A   1      41.142  30.731  30.023  1.00  0.00     0.074 A 
ATOM     50  C   UNL A   1      46.687  29.966  27.019  1.00  0.00     0.029 A 
ATOM     51  N   UNL A   1      44.682  29.664  27.931  1.00  0.00    -0.354 N 
ATOM     52  N   UNL A   1      42.267  30.474  29.396  1.00  0.00    -0.248 NA
ATOM     53  C   UNL A   1      41.044  32.103  30.541  1.00  0.00     0.031 C 
ATOM     54  C   UNL A   1      46.300  31.158  27.645  1.00  0.00     0.029 A 
ATOM     55  C   UNL A   1      45.037  30.979  28.187  1.00  0.00     0.049 A 
ATOM     56  H   UNL A   1      43.835  29.245  28.208  1.00  0.00     0.167 HD
ATOM     57  C   UNL A   1      42.987  31.668  29.406  1.00  0.00     0.074 A 
ATOM     58  C   UNL A   1      42.171  32.640  30.100  1.00  0.00     0.031 C 
ATOM     59  C   UNL A   1      44.210  31.939  28.878  1.00  0.00     0.034 A 
BRANCH  46  60
ATOM     60  C   UNL A   1      46.867  27.048  26.132  1.00  0.00     0.023 A 
ATOM     61  C   UNL A   1      47.876  26.379  26.847  1.00  0.00     0.031 A 
ATOM     62  C   UNL A   1      47.036  27.215  24.749  1.00  0.00     0.131 A 
ATOM     63  C   UNL A   1      49.046  25.973  26.188  1.00  0.00     0.055 A 
ATOM     64  C   UNL A   1      48.168  26.740  24.084  1.00  0.00     0.041 A 
ATOM     65  F   UNL A   1      46.116  27.869  24.022  1.00  0.00    -0.206 F 
ATOM     66  C   UNL A   1      49.189  26.129  24.808  1.00  0.00     0.022 A 
BRANCH  63  67
ATOM     67  S   UNL A   1      50.441  25.380  27.185  1.00  0.00     0.124 S 
ATOM     68  O   UNL A   1      50.743  26.555  27.998  1.00  0.00    -0.237 OA
ATOM     69  O   UNL A   1      49.864  24.243  27.891  1.00  0.00    -0.237 OA
ATOM     70  O   UNL A   1      51.457  25.046  26.187  1.00  0.00    -0.744 OA
ENDBRANCH  63  67
ENDBRANCH  46  60
BRANCH  47  71
ATOM     71  C   UNL A   1      38.776  30.327  31.025  1.00  0.00     0.023 A 
ATOM     72  C   UNL A   1      37.699  30.950  30.376  1.00  0.00     0.031 A 
ATOM     73  C   UNL A   1      38.751  30.259  32.430  1.00  0.00     0.131 A 
ATOM     74  C   UNL A   1      36.668  31.531  31.131  1.00  0.00     0.055 A 
ATOM     75  C   UNL A   1      37.699  30.795  33.175  1.00  0.00     0.041 A 
ATOM     76  F   UNL A   1      39.757  29.674  33.098  1.00  0.00    -0.206 F 
ATOM     77  C   UNL A   1      36.656  31.448  32.526  1.00  0.00     0.022 A 
BRANCH  74  78
ATOM     78  S   UNL A   1      35.385  32.479  30.267  1.00  0.00     0.124 S 
ATOM     79  O   UNL A   1      36.086  33.722  29.967  1.00  0.00    -0.237 OA
ATOM     80  O   UNL A   1      35.088  31.619  29.125  1.00  0.00    -0.237 OA
ATOM     81  O   UNL A   1      34.316  32.588  31.257  1.00  0.00    -0.744 OA
ENDBRANCH  74  78
ENDBRANCH  47  71
BRANCH  59  82
ATOM     82  C   UNL A   1      44.701  33.362  28.976  1.00  0.00     0.023 A 
ATOM     83  C   UNL A   1      45.463  33.813  30.067  1.00  0.00     0.031 A 
ATOM     84  C   UNL A   1      44.388  34.283  27.960  1.00  0.00     0.131 A 
ATOM     85  C   UNL A   1      45.843  35.162  30.143  1.00  0.00     0.055 A 
ATOM     86  C   UNL A   1      44.812  35.611  28.016  1.00  0.00     0.041 A 
ATOM     87  F   UNL A   1      43.664  33.904  26.894  1.00  0.00    -0.206 F 
ATOM     88  C   UNL A   1      45.532  36.061  29.118  1.00  0.00     0.022 A 
BRANCH  85  89
ATOM     89  S   UNL A   1      46.675  35.753  31.643  1.00  0.00     0.124 S 
ATOM     90  O   UNL A   1      45.993  37.018  31.895  1.00  0.00    -0.237 OA
ATOM     91  O   UNL A   1      46.399  34.680  32.594  1.00  0.00    -0.237 OA
ATOM     92  O   UNL A   1      48.074  35.873  31.236  1.00  0.00    -0.744 OA
ENDBRANCH  85  89
ENDBRANCH  59  82
ENDBRANCH  33  34
ENDBRANCH  26  28
ENDBRANCH  25  26
ENDBRANCH  24  25
ENDBRANCH  23  24
ENDBRANCH   1  23
TORSDOF 20
ENDMDL
MODEL 3
REMARK VINA RESULT:     -11.1      1.264      7.580
REMARK SMILES O=C(COc1ccc(S(=O)(=O)NC[C@@H]2CCCO2)cc1)OCCOC(=O)c1ccc(-c2c3nc(c(-c4cc(S(=O)(=O)[O-])ccc4F)c4ccc([nH]4)c(-c4cc(S(=O)(=O)[O-])ccc4F)c4nc(c(-c5cc(S(=O)(=O)[O-])ccc5F)c5ccc2[nH]5)C=C4)C=C3)cc1
REMARK SMILES IDX 21 1 2 2 1 3 3 4 4 5 5 6 6 7 20 8 7 9 19 10 8 11 9 12 10 13
REMARK SMILES IDX 11 14 12 15 13 17 14 18 15 19 18 20 16 21 17 22 22 23 23 24
REMARK SMILES IDX 24 25 25 26 26 27 27 28 28 29 89 30 29 31 88 32 30 33 31 34
REMARK SMILES IDX 32 35 82 36 33 37 87 38 81 39 83 40 34 41 86 42 80 43 79 44
REMARK SMILES IDX 35 46 67 47 47 48 66 49 48 50 51 51 65 52 84 53 49 54 50 55
REMARK SMILES IDX 64 57 85 58 52 59 36 60 37 61 45 62 38 63 44 64 46 65 43 66
REMARK SMILES IDX 39 67 40 68 41 69 42 70 68 71 69 72 77 73 70 74 76 75 78 76
REMARK SMILES IDX 75 77 71 78 72 79 73 80 74 81 53 82 54 83 62 84 55 85 61 86
REMARK SMILES IDX 63 87 60 88 56 89 57 90 58 91 59 92
REMARK H PARENT 12 16 83 45 51 56
REMARK Flexibility Score: inf
ROOT
ATOM      1  O   UNL A   1      35.123  20.654  25.642  1.00  0.00    -0.460 OA
ENDROOT
BRANCH   1   2
ATOM      2  C   UNL A   1      33.859  20.483  25.183  1.00  0.00     0.344 C 
ATOM      3  O   UNL A   1      33.278  19.414  25.359  1.00  0.00    -0.248 OA
BRANCH   2   4
ATOM      4  C   UNL A   1      33.155  21.681  24.550  1.00  0.00     0.351 C 
BRANCH   4   5
ATOM      5  O   UNL A   1      32.756  22.684  25.483  1.00  0.00    -0.482 OA
BRANCH   5   6
ATOM      6  C   UNL A   1      32.904  23.934  24.944  1.00  0.00     0.120 A 
ATOM      7  C   UNL A   1      33.514  24.038  23.697  1.00  0.00     0.048 A 
ATOM      8  C   UNL A   1      32.483  25.076  25.625  1.00  0.00     0.048 A 
ATOM      9  C   UNL A   1      33.694  25.299  23.124  1.00  0.00     0.025 A 
ATOM     10  C   UNL A   1      32.601  26.325  25.032  1.00  0.00     0.025 A 
ATOM     11  C   UNL A   1      33.241  26.438  23.802  1.00  0.00     0.082 A 
BRANCH  11  12
ATOM     12  S   UNL A   1      33.654  28.024  23.134  1.00  0.00     0.240 S 
ATOM     13  O   UNL A   1      34.620  28.616  24.032  1.00  0.00    -0.207 OA
ATOM     14  O   UNL A   1      33.940  27.830  21.730  1.00  0.00    -0.207 OA
BRANCH  12  15
ATOM     15  N   UNL A   1      32.231  28.914  23.193  1.00  0.00    -0.209 NA
ATOM     16  H   UNL A   1      32.483  29.863  22.916  1.00  0.00     0.141 HD
BRANCH  15  17
ATOM     17  C   UNL A   1      31.030  28.573  22.413  1.00  0.00     0.130 C 
BRANCH  17  18
ATOM     18  C   UNL A   1      29.900  29.584  22.533  1.00  0.00     0.133 C 
ATOM     19  C   UNL A   1      28.639  28.998  23.143  1.00  0.00     0.036 C 
ATOM     20  O   UNL A   1      29.457  30.040  21.247  1.00  0.00    -0.377 OA
ATOM     21  C   UNL A   1      27.612  30.035  22.747  1.00  0.00     0.031 C 
ATOM     22  C   UNL A   1      28.156  30.608  21.446  1.00  0.00     0.160 C 
ENDBRANCH  17  18
ENDBRANCH  15  17
ENDBRANCH  12  15
ENDBRANCH  11  12
ENDBRANCH   5   6
ENDBRANCH   4   5
ENDBRANCH   2   4
ENDBRANCH   1   2
BRANCH   1  23
ATOM     23  C   UNL A   1      36.135  21.332  24.872  1.00  0.00     0.274 C 
BRANCH  23  24
ATOM     24  C   UNL A   1      37.512  20.710  25.123  1.00  0.00     0.275 C 
BRANCH  24  25
ATOM     25  O   UNL A   1      38.498  21.751  25.254  1.00  0.00    -0.458 OA
BRANCH  25  26
ATOM     26  C   UNL A   1      39.507  21.504  26.131  1.00  0.00     0.338 C 
ATOM     27  O   UNL A   1      40.151  20.473  26.212  1.00  0.00    -0.246 OA
BRANCH  26  28
ATOM     28  C   UNL A   1      39.845  22.759  26.846  1.00  0.00     0.060 A 
ATOM     29  C   UNL A   1      39.070  23.898  26.588  1.00  0.00     0.016 A 
ATOM     30  C   UNL A   1      40.900  22.825  27.764  1.00  0.00     0.016 A 
ATOM     31  C   UNL A   1      39.390  25.116  27.191  1.00  0.00     0.010 A 
ATOM     32  C   UNL A   1      41.221  24.046  28.367  1.00  0.00     0.010 A 
ATOM     33  C   UNL A   1      40.498  25.207  28.044  1.00  0.00    -0.014 A 
BRANCH  33  34
ATOM     34  C   UNL A   1      41.043  26.545  28.383  1.00  0.00     0.031 A 
ATOM     35  C   UNL A   1      42.473  26.837  28.005  1.00  0.00     0.074 A 
ATOM     36  C   UNL A   1      40.296  27.490  28.983  1.00  0.00     0.049 A 
ATOM     37  N   UNL A   1      43.161  27.941  28.131  1.00  0.00    -0.248 NA
ATOM     38  C   UNL A   1      43.225  25.722  27.408  1.00  0.00     0.031 C 
ATOM     39  C   UNL A   1      38.902  27.337  29.394  1.00  0.00     0.029 A 
ATOM     40  N   UNL A   1      40.616  28.774  29.348  1.00  0.00    -0.354 N 
ATOM     41  C   UNL A   1      44.421  27.661  27.610  1.00  0.00     0.074 A 
ATOM     42  C   UNL A   1      44.416  26.266  27.225  1.00  0.00     0.031 C 
ATOM     43  C   UNL A   1      38.488  28.484  29.960  1.00  0.00     0.029 A 
ATOM     44  C   UNL A   1      39.587  29.450  29.959  1.00  0.00     0.049 A 
ATOM     45  H   UNL A   1      41.501  29.174  29.187  1.00  0.00     0.167 HD
ATOM     46  C   UNL A   1      45.479  28.491  27.446  1.00  0.00     0.034 A 
ATOM     47  C   UNL A   1      39.541  30.704  30.454  1.00  0.00     0.034 A 
ATOM     48  C   UNL A   1      45.488  29.871  27.859  1.00  0.00     0.049 A 
ATOM     49  C   UNL A   1      40.754  31.596  30.320  1.00  0.00     0.074 A 
ATOM     50  C   UNL A   1      46.504  30.803  27.740  1.00  0.00     0.029 A 
ATOM     51  N   UNL A   1      44.432  30.514  28.492  1.00  0.00    -0.354 N 
ATOM     52  N   UNL A   1      41.921  31.334  29.778  1.00  0.00    -0.248 NA
ATOM     53  C   UNL A   1      40.631  32.962  30.847  1.00  0.00     0.031 C 
ATOM     54  C   UNL A   1      46.083  31.992  28.350  1.00  0.00     0.029 A 
ATOM     55  C   UNL A   1      44.780  31.821  28.792  1.00  0.00     0.049 A 
ATOM     56  H   UNL A   1      43.562  30.101  28.697  1.00  0.00     0.167 HD
ATOM     57  C   UNL A   1      42.651  32.519  29.859  1.00  0.00     0.074 A 
ATOM     58  C   UNL A   1      41.795  33.492  30.501  1.00  0.00     0.031 C 
ATOM     59  C   UNL A   1      43.913  32.782  29.430  1.00  0.00     0.034 A 
BRANCH  46  60
ATOM     60  C   UNL A   1      46.720  27.895  26.831  1.00  0.00     0.023 A 
ATOM     61  C   UNL A   1      47.030  28.089  25.473  1.00  0.00     0.031 A 
ATOM     62  C   UNL A   1      47.565  27.069  27.590  1.00  0.00     0.131 A 
ATOM     63  C   UNL A   1      48.108  27.400  24.897  1.00  0.00     0.055 A 
ATOM     64  C   UNL A   1      48.682  26.448  27.030  1.00  0.00     0.041 A 
ATOM     65  F   UNL A   1      47.302  26.829  28.884  1.00  0.00    -0.206 F 
ATOM     66  C   UNL A   1      48.950  26.599  25.671  1.00  0.00     0.022 A 
BRANCH  63  67
ATOM     67  S   UNL A   1      48.302  27.444  23.094  1.00  0.00     0.124 S 
ATOM     68  O   UNL A   1      49.583  28.132  22.952  1.00  0.00    -0.237 OA
ATOM     69  O   UNL A   1      48.292  26.030  22.740  1.00  0.00    -0.237 OA
ATOM     70  O   UNL A   1      47.141  28.209  22.643  1.00  0.00    -0.744 OA
ENDBRANCH  63  67
ENDBRANCH  46  60
BRANCH  47  71
ATOM     71  C   UNL A   1      38.314  31.207  31.133  1.00  0.00     0.023 A 
ATOM     72  C   UNL A   1      37.327  31.909  30.423  1.00  0.00     0.031 A 
ATOM     73  C   UNL A   1      38.151  31.061  32.522  1.00  0.00     0.131 A 
ATOM     74  C   UNL A   1      36.249  32.489  31.112  1.00  0.00     0.055 A 
ATOM     75  C   UNL A   1      37.052  31.598  33.196  1.00  0.00     0.041 A 
ATOM     76  F   UNL A   1      39.067  30.399  33.246  1.00  0.00    -0.206 F 
ATOM     77  C   UNL A   1      36.100  32.328  32.491  1.00  0.00     0.022 A 
BRANCH  74  78
ATOM     78  S   UNL A   1      35.090  33.536  30.188  1.00  0.00     0.124 S 
ATOM     79  O   UNL A   1      34.037  32.586  29.851  1.00  0.00    -0.237 OA
ATOM     80  O   UNL A   1      34.745  34.552  31.177  1.00  0.00    -0.237 OA
ATOM     81  O   UNL A   1      35.887  34.012  29.059  1.00  0.00    -0.744 OA
ENDBRANCH  74  78
ENDBRANCH  47  71
BRANCH  59  82
ATOM     82  C   UNL A   1      44.411  34.197  29.584  1.00  0.00     0.023 A 
ATOM     83  C   UNL A   1      44.197  35.174  28.596  1.00  0.00     0.031 A 
ATOM     84  C   UNL A   1      45.124  34.568  30.739  1.00  0.00     0.131 A 
ATOM     85  C   UNL A   1      44.735  36.461  28.758  1.00  0.00     0.055 A 
ATOM     86  C   UNL A   1      45.612  35.862  30.918  1.00  0.00     0.041 A 
ATOM     87  F   UNL A   1      45.355  33.674  31.715  1.00  0.00    -0.206 F 
ATOM     88  C   UNL A   1      45.431  36.813  29.919  1.00  0.00     0.022 A 
BRANCH  85  89
ATOM     89  S   UNL A   1      44.591  37.646  27.393  1.00  0.00     0.124 S 
ATOM     90  O   UNL A   1      44.788  38.922  28.073  1.00  0.00    -0.237 OA
ATOM     91  O   UNL A   1      45.669  37.226  26.502  1.00  0.00    -0.237 OA
ATOM     92  O   UNL A   1      43.241  37.419  26.881  1.00  0.00    -0.744 OA
ENDBRANCH  85  89
ENDBRANCH  59  82
ENDBRANCH  33  34
ENDBRANCH  26  28
ENDBRANCH  25  26
ENDBRANCH  24  25
ENDBRANCH  23  24
ENDBRANCH   1  23
TORSDOF 20
ENDMDL
