MODEL 1
REMARK VINA RESULT:     -10.9      0.000      0.000
REMARK SMILES NS(=O)(=O)c1ccc(C#Cc2cc(Cl)cc3c2O[C@H](C(F)(F)F)C(C(=O)OCCOC(=O)c2ccc(-c4c5nc(c(-c6cc(S(=O)(=O)[O-])ccc6F)c6ccc([nH]6)c(-c6cc(S(=O)(=O)[O-])ccc6F)c6nc(c(-c7cc(S(=O)(=O)[O-])ccc7F)c7ccc4[nH]7)C=C6)C=C5)cc2)=C3)cc1
REMARK SMILES IDX 28 1 27 2 25 3 26 4 24 5 11 6 12 7 17 8 13 9 16 10 18 11
REMARK SMILES IDX 14 12 15 13 96 14 19 15 10 16 9 17 8 18 5 19 6 20 98 21 7 22
REMARK SMILES IDX 97 23 2 24 3 25 4 26 1 27 20 30 21 31 22 32 23 33 29 34
REMARK SMILES IDX 30 35 31 36 32 37 33 38 34 39 95 40 35 41 94 42 36 43 37 44
REMARK SMILES IDX 38 45 88 46 39 47 93 48 87 49 89 50 40 51 92 52 86 53 85 54
REMARK SMILES IDX 41 56 73 57 53 58 72 59 54 60 57 61 71 62 90 63 55 64 56 65
REMARK SMILES IDX 70 67 91 68 58 69 42 70 43 71 51 72 44 73 50 74 52 75 49 76
REMARK SMILES IDX 45 77 46 78 47 79 48 80 74 81 75 82 83 83 76 84 82 85 84 86
REMARK SMILES IDX 81 87 77 88 78 89 79 90 80 91 59 92 60 93 68 94 61 95 67 96
REMARK SMILES IDX 69 97 66 98 62 99 63 100 64 101 65 102
REMARK H PARENT 1 28 1 29 89 55 57 66
REMARK Flexibility Score: inf
ROOT
ATOM      1  C   UNL A   1      34.158  34.898  28.798  1.00  0.00     0.275 C 
ENDROOT
BRANCH   1   2
ATOM      2  O   UNL A   1      34.058  34.894  30.241  1.00  0.00    -0.459 OA
BRANCH   2   3
ATOM      3  C   UNL A   1      34.598  33.822  30.866  1.00  0.00     0.338 C 
ATOM      4  O   UNL A   1      34.115  32.702  30.928  1.00  0.00    -0.246 OA
BRANCH   3   5
ATOM      5  C   UNL A   1      35.900  34.169  31.478  1.00  0.00     0.087 C 
ATOM      6  C   UNL A   1      39.616  34.814  33.298  1.00  0.00     0.069 A 
ATOM      7  C   UNL A   1      40.792  34.547  32.587  1.00  0.00     0.041 A 
ATOM      8  C   UNL A   1      38.361  34.642  32.702  1.00  0.00     0.143 A 
ATOM      9  C   UNL A   1      40.716  34.141  31.260  1.00  0.00     0.043 A 
ATOM     10  C   UNL A   1      38.303  34.222  31.378  1.00  0.00     0.020 A 
ATOM     11  O   UNL A   1      37.240  34.914  33.444  1.00  0.00    -0.474 OA
ATOM     12  Cl  UNL A   1      42.155  33.809  30.381  1.00  0.00    -0.084 Cl
ATOM     13  C   UNL A   1      39.478  33.989  30.647  1.00  0.00     0.032 A 
ATOM     14  C   UNL A   1      37.017  33.996  30.762  1.00  0.00     0.027 C 
ATOM     15  C   UNL A   1      35.929  34.548  32.927  1.00  0.00     0.316 C 
BRANCH   6  16
ATOM     16  C   UNL A   1      39.715  35.258  34.646  1.00  0.00    -0.058 C 
ATOM     17  C   UNL A   1      39.861  35.630  35.778  1.00  0.00    -0.062 C 
BRANCH  17  18
ATOM     18  C   UNL A   1      40.099  36.098  37.097  1.00  0.00     0.025 A 
ATOM     19  C   UNL A   1      40.528  37.166  39.618  1.00  0.00     0.082 A 
ATOM     20  C   UNL A   1      41.578  37.137  38.696  1.00  0.00     0.023 A 
ATOM     21  C   UNL A   1      39.277  36.626  39.302  1.00  0.00     0.023 A 
ATOM     22  C   UNL A   1      41.359  36.603  37.429  1.00  0.00     0.018 A 
ATOM     23  C   UNL A   1      39.064  36.091  38.033  1.00  0.00     0.018 A 
BRANCH  19  24
ATOM     24  S   UNL A   1      40.812  37.963  41.167  1.00  0.00     0.238 S 
ATOM     25  O   UNL A   1      41.861  37.249  41.857  1.00  0.00    -0.207 OA
ATOM     26  O   UNL A   1      39.538  38.261  41.775  1.00  0.00    -0.207 OA
BRANCH  24  27
ATOM     27  N   UNL A   1      41.475  39.453  40.763  1.00  0.00    -0.225 NA
ATOM     28  H   UNL A   1      41.008  39.819  39.933  1.00  0.00     0.137 HD
ATOM     29  H   UNL A   1      42.470  39.342  40.572  1.00  0.00     0.137 HD
ENDBRANCH  24  27
ENDBRANCH  19  24
ENDBRANCH  17  18
ENDBRANCH   6  16
BRANCH  15  30
ATOM     30  C   UNL A   1      35.342  33.416  33.788  1.00  0.00     0.430 C 
ATOM     31  F   UNL A   1      33.999  33.323  33.637  1.00  0.00    -0.167 F 
ATOM     32  F   UNL A   1      35.850  32.209  33.439  1.00  0.00    -0.167 F 
ATOM     33  F   UNL A   1      35.593  33.592  35.105  1.00  0.00    -0.167 F 
ENDBRANCH  15  30
ENDBRANCH   3   5
ENDBRANCH   2   3
ENDBRANCH   1   2
BRANCH   1  34
ATOM     34  C   UNL A   1      33.421  33.708  28.174  1.00  0.00     0.275 C 
BRANCH  34  35
ATOM     35  O   UNL A   1      34.320  32.864  27.435  1.00  0.00    -0.458 OA
BRANCH  35  36
ATOM     36  C   UNL A   1      34.222  31.548  27.728  1.00  0.00     0.338 C 
ATOM     37  O   UNL A   1      33.248  30.828  27.581  1.00  0.00    -0.246 OA
BRANCH  36  38
ATOM     38  C   UNL A   1      35.541  31.030  28.105  1.00  0.00     0.060 A 
ATOM     39  C   UNL A   1      36.691  31.799  28.051  1.00  0.00     0.016 A 
ATOM     40  C   UNL A   1      35.578  29.769  28.681  1.00  0.00     0.016 A 
ATOM     41  C   UNL A   1      37.877  31.263  28.568  1.00  0.00     0.010 A 
ATOM     42  C   UNL A   1      36.692  29.333  29.378  1.00  0.00     0.010 A 
ATOM     43  C   UNL A   1      37.885  30.038  29.275  1.00  0.00    -0.014 A 
BRANCH  43  44
ATOM     44  C   UNL A   1      39.130  29.480  29.875  1.00  0.00     0.031 A 
ATOM     45  C   UNL A   1      39.570  29.870  31.271  1.00  0.00     0.074 A 
ATOM     46  C   UNL A   1      39.881  28.625  29.150  1.00  0.00     0.049 A 
ATOM     47  N   UNL A   1      40.579  29.412  31.968  1.00  0.00    -0.248 NA
ATOM     48  C   UNL A   1      38.820  30.934  31.965  1.00  0.00     0.031 C 
ATOM     49  C   UNL A   1      39.627  28.269  27.753  1.00  0.00     0.029 A 
ATOM     50  N   UNL A   1      40.983  27.880  29.485  1.00  0.00    -0.354 N 
ATOM     51  C   UNL A   1      40.578  30.130  33.161  1.00  0.00     0.074 A 
ATOM     52  C   UNL A   1      39.543  31.125  33.057  1.00  0.00     0.031 C 
ATOM     53  C   UNL A   1      40.482  27.306  27.382  1.00  0.00     0.029 A 
ATOM     54  C   UNL A   1      41.390  27.020  28.488  1.00  0.00     0.049 A 
ATOM     55  H   UNL A   1      41.441  27.953  30.353  1.00  0.00     0.167 HD
ATOM     56  C   UNL A   1      41.333  29.940  34.267  1.00  0.00     0.034 A 
ATOM     57  C   UNL A   1      42.371  26.095  28.469  1.00  0.00     0.034 A 
ATOM     58  C   UNL A   1      42.328  28.907  34.374  1.00  0.00     0.049 A 
ATOM     59  C   UNL A   1      43.173  25.870  29.724  1.00  0.00     0.074 A 
ATOM     60  C   UNL A   1      43.092  28.571  35.475  1.00  0.00     0.029 A 
ATOM     61  N   UNL A   1      42.693  28.043  33.352  1.00  0.00    -0.354 N 
ATOM     62  N   UNL A   1      43.067  26.470  30.887  1.00  0.00    -0.248 NA
ATOM     63  C   UNL A   1      44.214  24.835  29.679  1.00  0.00     0.031 C 
ATOM     64  C   UNL A   1      43.978  27.565  35.097  1.00  0.00     0.029 A 
ATOM     65  C   UNL A   1      43.696  27.196  33.791  1.00  0.00     0.049 A 
ATOM     66  H   UNL A   1      42.297  28.033  32.450  1.00  0.00     0.167 HD
ATOM     67  C   UNL A   1      44.005  25.866  31.719  1.00  0.00     0.074 A 
ATOM     68  C   UNL A   1      44.646  24.832  30.935  1.00  0.00     0.031 C 
ATOM     69  C   UNL A   1      44.311  26.148  33.010  1.00  0.00     0.034 A 
BRANCH  56  70
ATOM     70  C   UNL A   1      41.096  30.809  35.483  1.00  0.00     0.023 A 
ATOM     71  C   UNL A   1      39.856  30.758  36.150  1.00  0.00     0.031 A 
ATOM     72  C   UNL A   1      42.017  31.796  35.877  1.00  0.00     0.131 A 
ATOM     73  C   UNL A   1      39.551  31.713  37.128  1.00  0.00     0.055 A 
ATOM     74  C   UNL A   1      41.732  32.706  36.896  1.00  0.00     0.041 A 
ATOM     75  F   UNL A   1      43.212  31.896  35.272  1.00  0.00    -0.206 F 
ATOM     76  C   UNL A   1      40.486  32.679  37.513  1.00  0.00     0.022 A 
BRANCH  73  77
ATOM     77  S   UNL A   1      37.895  31.801  37.863  1.00  0.00     0.124 S 
ATOM     78  O   UNL A   1      37.404  30.440  37.661  1.00  0.00    -0.237 OA
ATOM     79  O   UNL A   1      38.197  32.156  39.247  1.00  0.00    -0.237 OA
ATOM     80  O   UNL A   1      37.218  32.828  37.080  1.00  0.00    -0.744 OA
ENDBRANCH  73  77
ENDBRANCH  56  70
BRANCH  57  81
ATOM     81  C   UNL A   1      42.568  25.270  27.238  1.00  0.00     0.023 A 
ATOM     82  C   UNL A   1      42.064  23.959  27.164  1.00  0.00     0.031 A 
ATOM     83  C   UNL A   1      43.363  25.730  26.173  1.00  0.00     0.131 A 
ATOM     84  C   UNL A   1      42.429  23.129  26.096  1.00  0.00     0.055 A 
ATOM     85  C   UNL A   1      43.650  24.927  25.067  1.00  0.00     0.041 A 
ATOM     86  F   UNL A   1      43.885  26.966  26.202  1.00  0.00    -0.206 F 
ATOM     87  C   UNL A   1      43.201  23.611  25.036  1.00  0.00     0.022 A 
BRANCH  84  88
ATOM     88  S   UNL A   1      42.050  21.354  26.132  1.00  0.00     0.124 S 
ATOM     89  O   UNL A   1      40.660  21.330  25.689  1.00  0.00    -0.237 OA
ATOM     90  O   UNL A   1      43.026  20.824  25.182  1.00  0.00    -0.237 OA
ATOM     91  O   UNL A   1      42.276  20.983  27.525  1.00  0.00    -0.744 OA
ENDBRANCH  84  88
ENDBRANCH  57  81
BRANCH  69  92
ATOM     92  C   UNL A   1      45.372  25.328  33.705  1.00  0.00     0.023 A 
ATOM     93  C   UNL A   1      46.726  25.705  33.592  1.00  0.00     0.031 A 
ATOM     94  C   UNL A   1      45.074  24.097  34.314  1.00  0.00     0.131 A 
ATOM     95  C   UNL A   1      47.730  24.832  34.025  1.00  0.00     0.055 A 
ATOM     96  C   UNL A   1      46.078  23.263  34.807  1.00  0.00     0.041 A 
ATOM     97  F   UNL A   1      43.802  23.683  34.429  1.00  0.00    -0.206 F 
ATOM     98  C   UNL A   1      47.413  23.620  34.646  1.00  0.00     0.022 A 
BRANCH  95  99
ATOM     99  S   UNL A   1      49.479  25.182  33.688  1.00  0.00     0.124 S 
ATOM    100  O   UNL A   1      49.948  25.649  34.989  1.00  0.00    -0.237 OA
ATOM    101  O   UNL A   1      49.978  23.873  33.277  1.00  0.00    -0.237 OA
ATOM    102  O   UNL A   1      49.439  26.196  32.640  1.00  0.00    -0.744 OA
ENDBRANCH  95  99
ENDBRANCH  69  92
ENDBRANCH  43  44
ENDBRANCH  36  38
ENDBRANCH  35  36
ENDBRANCH  34  35
ENDBRANCH   1  34
TORSDOF 19
ENDMDL
MODEL 2
REMARK VINA RESULT:     -10.9      4.940     13.264
REMARK SMILES NS(=O)(=O)c1ccc(C#Cc2cc(Cl)cc3c2O[C@H](C(F)(F)F)C(C(=O)OCCOC(=O)c2ccc(-c4c5nc(c(-c6cc(S(=O)(=O)[O-])ccc6F)c6ccc([nH]6)c(-c6cc(S(=O)(=O)[O-])ccc6F)c6nc(c(-c7cc(S(=O)(=O)[O-])ccc7F)c7ccc4[nH]7)C=C6)C=C5)cc2)=C3)cc1
REMARK SMILES IDX 28 1 27 2 25 3 26 4 24 5 11 6 12 7 17 8 13 9 16 10 18 11
REMARK SMILES IDX 14 12 15 13 96 14 19 15 10 16 9 17 8 18 5 19 6 20 98 21 7 22
REMARK SMILES IDX 97 23 2 24 3 25 4 26 1 27 20 30 21 31 22 32 23 33 29 34
REMARK SMILES IDX 30 35 31 36 32 37 33 38 34 39 95 40 35 41 94 42 36 43 37 44
REMARK SMILES IDX 38 45 88 46 39 47 93 48 87 49 89 50 40 51 92 52 86 53 85 54
REMARK SMILES IDX 41 56 73 57 53 58 72 59 54 60 57 61 71 62 90 63 55 64 56 65
REMARK SMILES IDX 70 67 91 68 58 69 42 70 43 71 51 72 44 73 50 74 52 75 49 76
REMARK SMILES IDX 45 77 46 78 47 79 48 80 74 81 75 82 83 83 76 84 82 85 84 86
REMARK SMILES IDX 81 87 77 88 78 89 79 90 80 91 59 92 60 93 68 94 61 95 67 96
REMARK SMILES IDX 69 97 66 98 62 99 63 100 64 101 65 102
REMARK H PARENT 1 28 1 29 89 55 57 66
REMARK Flexibility Score: inf
ROOT
ATOM      1  C   UNL A   1      41.321  19.063  26.097  1.00  0.00     0.275 C 
ENDROOT
BRANCH   1   2
ATOM      2  O   UNL A   1      42.284  19.691  25.220  1.00  0.00    -0.459 OA
BRANCH   2   3
ATOM      3  C   UNL A   1      43.568  19.678  25.649  1.00  0.00     0.338 C 
ATOM      4  O   UNL A   1      44.217  18.690  25.955  1.00  0.00    -0.246 OA
BRANCH   3   5
ATOM      5  C   UNL A   1      44.123  21.049  25.693  1.00  0.00     0.087 C 
ATOM      6  C   UNL A   1      45.709  24.919  25.467  1.00  0.00     0.069 A 
ATOM      7  C   UNL A   1      44.861  26.001  25.204  1.00  0.00     0.041 A 
ATOM      8  C   UNL A   1      45.201  23.619  25.583  1.00  0.00     0.143 A 
ATOM      9  C   UNL A   1      43.492  25.791  25.095  1.00  0.00     0.043 A 
ATOM     10  C   UNL A   1      43.829  23.426  25.458  1.00  0.00     0.020 A 
ATOM     11  O   UNL A   1      46.075  22.593  25.836  1.00  0.00    -0.474 OA
ATOM     12  Cl  UNL A   1      42.444  27.115  24.773  1.00  0.00    -0.084 Cl
ATOM     13  C   UNL A   1      42.969  24.511  25.234  1.00  0.00     0.032 A 
ATOM     14  C   UNL A   1      43.294  22.086  25.530  1.00  0.00     0.027 C 
ATOM     15  C   UNL A   1      45.610  21.216  25.756  1.00  0.00     0.316 C 
BRANCH   6  16
ATOM     16  C   UNL A   1      47.105  25.158  25.605  1.00  0.00    -0.058 C 
ATOM     17  C   UNL A   1      48.270  25.397  25.769  1.00  0.00    -0.062 C 
BRANCH  17  18
ATOM     18  C   UNL A   1      49.632  25.691  26.037  1.00  0.00     0.025 A 
ATOM     19  C   UNL A   1      52.243  26.408  26.631  1.00  0.00     0.082 A 
ATOM     20  C   UNL A   1      51.662  26.853  25.440  1.00  0.00     0.023 A 
ATOM     21  C   UNL A   1      51.541  25.573  27.506  1.00  0.00     0.023 A 
ATOM     22  C   UNL A   1      50.349  26.494  25.145  1.00  0.00     0.018 A 
ATOM     23  C   UNL A   1      50.228  25.216  27.205  1.00  0.00     0.018 A 
BRANCH  19  24
ATOM     24  S   UNL A   1      53.862  26.987  27.024  1.00  0.00     0.238 S 
ATOM     25  O   UNL A   1      54.489  27.442  25.805  1.00  0.00    -0.207 OA
ATOM     26  O   UNL A   1      54.488  26.041  27.918  1.00  0.00    -0.207 OA
BRANCH  24  27
ATOM     27  N   UNL A   1      53.609  28.371  27.942  1.00  0.00    -0.225 NA
ATOM     28  H   UNL A   1      54.510  28.765  28.217  1.00  0.00     0.137 HD
ATOM     29  H   UNL A   1      53.073  28.132  28.776  1.00  0.00     0.137 HD
ENDBRANCH  24  27
ENDBRANCH  19  24
ENDBRANCH  17  18
ENDBRANCH   6  16
BRANCH  15  30
ATOM     30  C   UNL A   1      46.278  20.525  24.555  1.00  0.00     0.430 C 
ATOM     31  F   UNL A   1      46.910  19.386  24.926  1.00  0.00    -0.167 F 
ATOM     32  F   UNL A   1      45.368  20.168  23.615  1.00  0.00    -0.167 F 
ATOM     33  F   UNL A   1      47.190  21.319  23.950  1.00  0.00    -0.167 F 
ENDBRANCH  15  30
ENDBRANCH   3   5
ENDBRANCH   2   3
ENDBRANCH   1   2
BRANCH   1  34
ATOM     34  C   UNL A   1      40.047  19.902  26.236  1.00  0.00     0.275 C 
BRANCH  34  35
ATOM     35  O   UNL A   1      40.310  21.152  26.895  1.00  0.00    -0.458 OA
BRANCH  35  36
ATOM     36  C   UNL A   1      39.597  22.198  26.421  1.00  0.00     0.338 C 
ATOM     37  O   UNL A   1      38.678  22.164  25.619  1.00  0.00    -0.246 OA
BRANCH  36  38
ATOM     38  C   UNL A   1      39.972  23.416  27.146  1.00  0.00     0.060 A 
ATOM     39  C   UNL A   1      40.976  23.443  28.099  1.00  0.00     0.016 A 
ATOM     40  C   UNL A   1      39.385  24.600  26.727  1.00  0.00     0.016 A 
ATOM     41  C   UNL A   1      41.358  24.680  28.631  1.00  0.00     0.010 A 
ATOM     42  C   UNL A   1      39.908  25.828  27.094  1.00  0.00     0.010 A 
ATOM     43  C   UNL A   1      40.858  25.894  28.107  1.00  0.00    -0.014 A 
BRANCH  43  44
ATOM     44  C   UNL A   1      41.294  27.220  28.630  1.00  0.00     0.031 A 
ATOM     45  C   UNL A   1      42.754  27.623  28.623  1.00  0.00     0.074 A 
ATOM     46  C   UNL A   1      40.368  28.064  29.130  1.00  0.00     0.049 A 
ATOM     47  N   UNL A   1      43.287  28.770  28.962  1.00  0.00    -0.248 NA
ATOM     48  C   UNL A   1      43.753  26.611  28.228  1.00  0.00     0.031 C 
ATOM     49  C   UNL A   1      38.951  27.741  29.303  1.00  0.00     0.029 A 
ATOM     50  N   UNL A   1      40.464  29.365  29.556  1.00  0.00    -0.354 N 
ATOM     51  C   UNL A   1      44.664  28.607  28.825  1.00  0.00     0.074 A 
ATOM     52  C   UNL A   1      44.896  27.230  28.477  1.00  0.00     0.031 C 
ATOM     53  C   UNL A   1      38.295  28.839  29.703  1.00  0.00     0.029 A 
ATOM     54  C   UNL A   1      39.250  29.929  29.882  1.00  0.00     0.049 A 
ATOM     55  H   UNL A   1      41.318  29.849  29.623  1.00  0.00     0.167 HD
ATOM     56  C   UNL A   1      45.642  29.536  28.923  1.00  0.00     0.034 A 
ATOM     57  C   UNL A   1      38.935  31.183  30.265  1.00  0.00     0.034 A 
ATOM     58  C   UNL A   1      45.387  30.921  29.220  1.00  0.00     0.049 A 
ATOM     59  C   UNL A   1      40.033  32.212  30.328  1.00  0.00     0.074 A 
ATOM     60  C   UNL A   1      46.292  31.964  29.262  1.00  0.00     0.029 A 
ATOM     61  N   UNL A   1      44.143  31.456  29.520  1.00  0.00    -0.354 N 
ATOM     62  N   UNL A   1      41.311  32.070  30.064  1.00  0.00    -0.248 NA
ATOM     63  C   UNL A   1      39.652  33.576  30.719  1.00  0.00     0.031 C 
ATOM     64  C   UNL A   1      45.614  33.109  29.670  1.00  0.00     0.029 A 
ATOM     65  C   UNL A   1      44.265  32.809  29.779  1.00  0.00     0.049 A 
ATOM     66  H   UNL A   1      43.298  30.949  29.543  1.00  0.00     0.167 HD
ATOM     67  C   UNL A   1      41.881  33.329  30.229  1.00  0.00     0.074 A 
ATOM     68  C   UNL A   1      40.802  34.226  30.584  1.00  0.00     0.031 C 
ATOM     69  C   UNL A   1      43.179  33.704  30.106  1.00  0.00     0.034 A 
BRANCH  56  70
ATOM     70  C   UNL A   1      47.074  29.133  28.654  1.00  0.00     0.023 A 
ATOM     71  C   UNL A   1      47.897  28.718  29.718  1.00  0.00     0.031 A 
ATOM     72  C   UNL A   1      47.669  29.316  27.392  1.00  0.00     0.131 A 
ATOM     73  C   UNL A   1      49.275  28.562  29.515  1.00  0.00     0.055 A 
ATOM     74  C   UNL A   1      49.032  29.097  27.181  1.00  0.00     0.041 A 
ATOM     75  F   UNL A   1      46.935  29.716  26.341  1.00  0.00    -0.206 F 
ATOM     76  C   UNL A   1      49.844  28.738  28.251  1.00  0.00     0.022 A 
BRANCH  73  77
ATOM     77  S   UNL A   1      50.392  28.225  30.904  1.00  0.00     0.124 S 
ATOM     78  O   UNL A   1      50.210  26.788  31.095  1.00  0.00    -0.237 OA
ATOM     79  O   UNL A   1      51.685  28.623  30.355  1.00  0.00    -0.237 OA
ATOM     80  O   UNL A   1      49.877  29.064  31.980  1.00  0.00    -0.744 OA
ENDBRANCH  73  77
ENDBRANCH  56  70
BRANCH  57  81
ATOM     81  C   UNL A   1      37.504  31.525  30.527  1.00  0.00     0.023 A 
ATOM     82  C   UNL A   1      36.645  31.877  29.470  1.00  0.00     0.031 A 
ATOM     83  C   UNL A   1      37.008  31.625  31.839  1.00  0.00     0.131 A 
ATOM     84  C   UNL A   1      35.372  32.393  29.746  1.00  0.00     0.055 A 
ATOM     85  C   UNL A   1      35.706  32.055  32.104  1.00  0.00     0.041 A 
ATOM     86  F   UNL A   1      37.792  31.321  32.885  1.00  0.00    -0.206 F 
ATOM     87  C   UNL A   1      34.888  32.462  31.055  1.00  0.00     0.022 A 
BRANCH  84  88
ATOM     88  S   UNL A   1      34.369  33.137  28.429  1.00  0.00     0.124 S 
ATOM     89  O   UNL A   1      35.387  33.727  27.567  1.00  0.00    -0.237 OA
ATOM     90  O   UNL A   1      33.679  31.968  27.886  1.00  0.00    -0.237 OA
ATOM     91  O   UNL A   1      33.516  34.084  29.141  1.00  0.00    -0.744 OA
ENDBRANCH  84  88
ENDBRANCH  57  81
BRANCH  69  92
ATOM     92  C   UNL A   1      43.545  35.152  30.326  1.00  0.00     0.023 A 
ATOM     93  C   UNL A   1      43.641  35.652  31.640  1.00  0.00     0.031 A 
ATOM     94  C   UNL A   1      43.618  36.066  29.261  1.00  0.00     0.131 A 
ATOM     95  C   UNL A   1      43.744  37.031  31.856  1.00  0.00     0.055 A 
ATOM     96  C   UNL A   1      43.790  37.433  29.481  1.00  0.00     0.041 A 
ATOM     97  F   UNL A   1      43.512  35.644  27.991  1.00  0.00    -0.206 F 
ATOM     98  C   UNL A   1      43.834  37.923  30.783  1.00  0.00     0.022 A 
BRANCH  95  99
ATOM     99  S   UNL A   1      43.639  37.724  33.530  1.00  0.00     0.124 S 
ATOM    100  O   UNL A   1      43.082  39.049  33.272  1.00  0.00    -0.237 OA
ATOM    101  O   UNL A   1      42.738  36.786  34.193  1.00  0.00    -0.237 OA
ATOM    102  O   UNL A   1      45.019  37.711  34.003  1.00  0.00    -0.744 OA
ENDBRANCH  95  99
ENDBRANCH  69  92
ENDBRANCH  43  44
ENDBRANCH  36  38
ENDBRANCH  35  36
ENDBRANCH  34  35
ENDBRANCH   1  34
TORSDOF 19
ENDMDL
MODEL 3
REMARK VINA RESULT:     -10.8      2.019      2.439
REMARK SMILES NS(=O)(=O)c1ccc(C#Cc2cc(Cl)cc3c2O[C@H](C(F)(F)F)C(C(=O)OCCOC(=O)c2ccc(-c4c5nc(c(-c6cc(S(=O)(=O)[O-])ccc6F)c6ccc([nH]6)c(-c6cc(S(=O)(=O)[O-])ccc6F)c6nc(c(-c7cc(S(=O)(=O)[O-])ccc7F)c7ccc4[nH]7)C=C6)C=C5)cc2)=C3)cc1
REMARK SMILES IDX 28 1 27 2 25 3 26 4 24 5 11 6 12 7 17 8 13 9 16 10 18 11
REMARK SMILES IDX 14 12 15 13 96 14 19 15 10 16 9 17 8 18 5 19 6 20 98 21 7 22
REMARK SMILES IDX 97 23 2 24 3 25 4 26 1 27 20 30 21 31 22 32 23 33 29 34
REMARK SMILES IDX 30 35 31 36 32 37 33 38 34 39 95 40 35 41 94 42 36 43 37 44
REMARK SMILES IDX 38 45 88 46 39 47 93 48 87 49 89 50 40 51 92 52 86 53 85 54
REMARK SMILES IDX 41 56 73 57 53 58 72 59 54 60 57 61 71 62 90 63 55 64 56 65
REMARK SMILES IDX 70 67 91 68 58 69 42 70 43 71 51 72 44 73 50 74 52 75 49 76
REMARK SMILES IDX 45 77 46 78 47 79 48 80 74 81 75 82 83 83 76 84 82 85 84 86
REMARK SMILES IDX 81 87 77 88 78 89 79 90 80 91 59 92 60 93 68 94 61 95 67 96
REMARK SMILES IDX 69 97 66 98 62 99 63 100 64 101 65 102
REMARK H PARENT 1 28 1 29 89 55 57 66
REMARK Flexibility Score: inf
ROOT
ATOM      1  C   UNL A   1      34.453  34.790  28.839  1.00  0.00     0.275 C 
ENDROOT
BRANCH   1   2
ATOM      2  O   UNL A   1      34.266  34.781  30.272  1.00  0.00    -0.459 OA
BRANCH   2   3
ATOM      3  C   UNL A   1      34.805  33.728  30.930  1.00  0.00     0.338 C 
ATOM      4  O   UNL A   1      34.315  32.614  31.034  1.00  0.00    -0.246 OA
BRANCH   3   5
ATOM      5  C   UNL A   1      36.112  34.088  31.520  1.00  0.00     0.087 C 
ATOM      6  C   UNL A   1      39.872  34.767  33.238  1.00  0.00     0.069 A 
ATOM      7  C   UNL A   1      41.023  34.654  32.452  1.00  0.00     0.041 A 
ATOM      8  C   UNL A   1      38.600  34.581  32.683  1.00  0.00     0.143 A 
ATOM      9  C   UNL A   1      40.905  34.392  31.092  1.00  0.00     0.043 A 
ATOM     10  C   UNL A   1      38.501  34.305  31.323  1.00  0.00     0.020 A 
ATOM     11  O   UNL A   1      37.503  34.697  33.498  1.00  0.00    -0.474 OA
ATOM     12  Cl  UNL A   1      42.316  34.252  30.120  1.00  0.00    -0.084 Cl
ATOM     13  C   UNL A   1      39.649  34.230  30.521  1.00  0.00     0.032 A 
ATOM     14  C   UNL A   1      37.200  34.066  30.742  1.00  0.00     0.027 C 
ATOM     15  C   UNL A   1      36.192  34.308  33.000  1.00  0.00     0.316 C 
BRANCH   6  16
ATOM     16  C   UNL A   1      40.012  35.065  34.623  1.00  0.00    -0.058 C 
ATOM     17  C   UNL A   1      40.093  35.367  35.782  1.00  0.00    -0.062 C 
BRANCH  17  18
ATOM     18  C   UNL A   1      40.123  35.756  37.147  1.00  0.00     0.025 A 
ATOM     19  C   UNL A   1      40.272  36.379  39.843  1.00  0.00     0.082 A 
ATOM     20  C   UNL A   1      39.248  35.543  39.386  1.00  0.00     0.023 A 
ATOM     21  C   UNL A   1      41.195  36.939  38.954  1.00  0.00     0.023 A 
ATOM     22  C   UNL A   1      39.178  35.229  38.031  1.00  0.00     0.018 A 
ATOM     23  C   UNL A   1      41.119  36.622  37.599  1.00  0.00     0.018 A 
BRANCH  19  24
ATOM     24  S   UNL A   1      40.398  36.652  41.582  1.00  0.00     0.238 S 
ATOM     25  O   UNL A   1      41.797  36.770  41.921  1.00  0.00    -0.207 OA
ATOM     26  O   UNL A   1      39.504  35.742  42.259  1.00  0.00    -0.207 OA
BRANCH  24  27
ATOM     27  N   UNL A   1      39.747  38.181  41.822  1.00  0.00    -0.225 NA
ATOM     28  H   UNL A   1      38.749  38.163  41.608  1.00  0.00     0.137 HD
ATOM     29  H   UNL A   1      40.213  38.850  41.210  1.00  0.00     0.137 HD
ENDBRANCH  24  27
ENDBRANCH  19  24
ENDBRANCH  17  18
ENDBRANCH   6  16
BRANCH  15  30
ATOM     30  C   UNL A   1      35.717  33.053  33.753  1.00  0.00     0.430 C 
ATOM     31  F   UNL A   1      36.059  31.920  33.093  1.00  0.00    -0.167 F 
ATOM     32  F   UNL A   1      36.281  32.964  34.982  1.00  0.00    -0.167 F 
ATOM     33  F   UNL A   1      34.376  33.036  33.924  1.00  0.00    -0.167 F 
ENDBRANCH  15  30
ENDBRANCH   3   5
ENDBRANCH   2   3
ENDBRANCH   1   2
BRANCH   1  34
ATOM     34  C   UNL A   1      33.778  33.589  28.169  1.00  0.00     0.275 C 
BRANCH  34  35
ATOM     35  O   UNL A   1      34.744  32.715  27.561  1.00  0.00    -0.458 OA
BRANCH  35  36
ATOM     36  C   UNL A   1      34.565  31.404  27.833  1.00  0.00     0.338 C 
ATOM     37  O   UNL A   1      33.645  30.691  27.466  1.00  0.00    -0.246 OA
BRANCH  36  38
ATOM     38  C   UNL A   1      35.750  30.878  28.517  1.00  0.00     0.060 A 
ATOM     39  C   UNL A   1      35.745  29.682  29.214  1.00  0.00     0.016 A 
ATOM     40  C   UNL A   1      36.945  31.550  28.307  1.00  0.00     0.016 A 
ATOM     41  C   UNL A   1      36.959  29.192  29.710  1.00  0.00     0.010 A 
ATOM     42  C   UNL A   1      38.161  30.961  28.608  1.00  0.00     0.010 A 
ATOM     43  C   UNL A   1      38.190  29.804  29.379  1.00  0.00    -0.014 A 
BRANCH  43  44
ATOM     44  C   UNL A   1      39.495  29.265  29.857  1.00  0.00     0.031 A 
ATOM     45  C   UNL A   1      40.150  29.799  31.114  1.00  0.00     0.074 A 
ATOM     46  C   UNL A   1      40.104  28.295  29.144  1.00  0.00     0.049 A 
ATOM     47  N   UNL A   1      41.239  29.381  31.709  1.00  0.00    -0.248 NA
ATOM     48  C   UNL A   1      39.542  30.972  31.770  1.00  0.00     0.031 C 
ATOM     49  C   UNL A   1      39.634  27.786  27.855  1.00  0.00     0.029 A 
ATOM     50  N   UNL A   1      41.223  27.546  29.406  1.00  0.00    -0.354 N 
ATOM     51  C   UNL A   1      41.437  30.238  32.790  1.00  0.00     0.074 A 
ATOM     52  C   UNL A   1      40.426  31.259  32.713  1.00  0.00     0.031 C 
ATOM     53  C   UNL A   1      40.396  26.747  27.487  1.00  0.00     0.029 A 
ATOM     54  C   UNL A   1      41.452  26.554  28.477  1.00  0.00     0.049 A 
ATOM     55  H   UNL A   1      41.807  27.701  30.182  1.00  0.00     0.167 HD
ATOM     56  C   UNL A   1      42.343  30.147  33.789  1.00  0.00     0.034 A 
ATOM     57  C   UNL A   1      42.393  25.589  28.431  1.00  0.00     0.034 A 
ATOM     58  C   UNL A   1      43.314  29.089  33.879  1.00  0.00     0.049 A 
ATOM     59  C   UNL A   1      43.367  25.480  29.574  1.00  0.00     0.074 A 
ATOM     60  C   UNL A   1      44.226  28.853  34.891  1.00  0.00     0.029 A 
ATOM     61  N   UNL A   1      43.498  28.092  32.932  1.00  0.00    -0.354 N 
ATOM     62  N   UNL A   1      43.453  26.220  30.656  1.00  0.00    -0.248 NA
ATOM     63  C   UNL A   1      44.360  24.400  29.509  1.00  0.00     0.031 C 
ATOM     64  C   UNL A   1      45.016  27.769  34.517  1.00  0.00     0.029 A 
ATOM     65  C   UNL A   1      44.531  27.259  33.323  1.00  0.00     0.049 A 
ATOM     66  H   UNL A   1      42.971  27.992  32.106  1.00  0.00     0.167 HD
ATOM     67  C   UNL A   1      44.489  25.677  31.411  1.00  0.00     0.074 A 
ATOM     68  C   UNL A   1      44.976  24.528  30.678  1.00  0.00     0.031 C 
ATOM     69  C   UNL A   1      44.993  26.098  32.599  1.00  0.00     0.034 A 
BRANCH  56  70
ATOM     70  C   UNL A   1      42.316  31.165  34.908  1.00  0.00     0.023 A 
ATOM     71  C   UNL A   1      43.041  32.365  34.781  1.00  0.00     0.031 A 
ATOM     72  C   UNL A   1      41.719  30.882  36.150  1.00  0.00     0.131 A 
ATOM     73  C   UNL A   1      43.203  33.203  35.892  1.00  0.00     0.055 A 
ATOM     74  C   UNL A   1      41.831  31.752  37.236  1.00  0.00     0.041 A 
ATOM     75  F   UNL A   1      41.020  29.750  36.331  1.00  0.00    -0.206 F 
ATOM     76  C   UNL A   1      42.593  32.910  37.114  1.00  0.00     0.022 A 
BRANCH  73  77
ATOM     77  S   UNL A   1      44.295  34.650  35.820  1.00  0.00     0.124 S 
ATOM     78  O   UNL A   1      44.468  34.966  37.236  1.00  0.00    -0.237 OA
ATOM     79  O   UNL A   1      45.475  34.105  35.153  1.00  0.00    -0.237 OA
ATOM     80  O   UNL A   1      43.531  35.629  35.055  1.00  0.00    -0.744 OA
ENDBRANCH  73  77
ENDBRANCH  56  70
BRANCH  57  81
ATOM     81  C   UNL A   1      42.379  24.614  27.298  1.00  0.00     0.023 A 
ATOM     82  C   UNL A   1      41.549  23.480  27.336  1.00  0.00     0.031 A 
ATOM     83  C   UNL A   1      43.279  24.735  26.224  1.00  0.00     0.131 A 
ATOM     84  C   UNL A   1      41.695  22.473  26.373  1.00  0.00     0.055 A 
ATOM     85  C   UNL A   1      43.357  23.770  25.216  1.00  0.00     0.041 A 
ATOM     86  F   UNL A   1      44.108  25.787  26.149  1.00  0.00    -0.206 F 
ATOM     87  C   UNL A   1      42.578  22.621  25.300  1.00  0.00     0.022 A 
BRANCH  84  88
ATOM     88  S   UNL A   1      40.862  20.873  26.573  1.00  0.00     0.124 S 
ATOM     89  O   UNL A   1      39.580  21.113  25.920  1.00  0.00    -0.237 OA
ATOM     90  O   UNL A   1      41.773  19.975  25.866  1.00  0.00    -0.237 OA
ATOM     91  O   UNL A   1      40.811  20.690  28.020  1.00  0.00    -0.744 OA
ENDBRANCH  84  88
ENDBRANCH  57  81
BRANCH  69  92
ATOM     92  C   UNL A   1      46.123  25.319  33.229  1.00  0.00     0.023 A 
ATOM     93  C   UNL A   1      45.832  24.305  34.162  1.00  0.00     0.031 A 
ATOM     94  C   UNL A   1      47.466  25.692  33.050  1.00  0.00     0.131 A 
ATOM     95  C   UNL A   1      46.861  23.742  34.925  1.00  0.00     0.055 A 
ATOM     96  C   UNL A   1      48.496  25.078  33.763  1.00  0.00     0.041 A 
ATOM     97  F   UNL A   1      47.796  26.666  32.187  1.00  0.00    -0.206 F 
ATOM     98  C   UNL A   1      48.194  24.112  34.720  1.00  0.00     0.022 A 
BRANCH  95  99
ATOM     99  S   UNL A   1      46.497  22.605  36.291  1.00  0.00     0.124 S 
ATOM    100  O   UNL A   1      47.141  23.273  37.418  1.00  0.00    -0.237 OA
ATOM    101  O   UNL A   1      45.038  22.610  36.312  1.00  0.00    -0.237 OA
ATOM    102  O   UNL A   1      47.115  21.349  35.878  1.00  0.00    -0.744 OA
ENDBRANCH  95  99
ENDBRANCH  69  92
ENDBRANCH  43  44
ENDBRANCH  36  38
ENDBRANCH  35  36
ENDBRANCH  34  35
ENDBRANCH   1  34
TORSDOF 19
ENDMDL
