MODEL 1
REMARK VINA RESULT:     -11.0      0.000      0.000
REMARK SMILES O=C(OCCOC(=O)c1csc(S(=O)(=O)Nc2ccc(F)cc2)c1)c1ccc(-c2c3nc(c(-c4cc(S(=O)(=O)[O-])ccc4F)c4ccc([nH]4)c(-c4cc(S(=O)(=O)[O-])ccc4F)c4nc(c(-c5cc(S(=O)(=O)[O-])ccc5F)c5ccc2[nH]5)C=C4)C=C3)cc1
REMARK SMILES IDX 4 1 3 2 2 3 1 4 25 5 26 6 87 7 27 8 86 9 28 10 29 11 30 12
REMARK SMILES IDX 80 13 31 14 85 15 79 16 81 17 32 18 84 19 78 20 77 21 33 23
REMARK SMILES IDX 65 24 45 25 64 26 46 27 49 28 63 29 82 30 47 31 48 32 62 34
REMARK SMILES IDX 83 35 50 36 34 37 35 38 43 39 36 40 42 41 44 42 41 43 37 44
REMARK SMILES IDX 38 45 39 46 40 47 66 48 67 49 75 50 68 51 74 52 76 53 73 54
REMARK SMILES IDX 69 55 70 56 71 57 72 58 51 59 52 60 60 61 53 62 59 63 61 64
REMARK SMILES IDX 58 65 54 66 55 67 56 68 57 69 5 70 6 71 7 72 8 73 9 74 10 75
REMARK SMILES IDX 24 76 11 77 12 78 13 79 14 80 15 81 16 82 17 84 18 85 23 86
REMARK SMILES IDX 19 87 22 88 20 89 21 90
REMARK H PARENT 81 22 49 33 16 83
REMARK Flexibility Score: inf
ROOT
ATOM      1  C   UNL A   1      33.198  32.784  27.536  1.00  0.00     0.275 C 
ENDROOT
BRANCH   1   2
ATOM      2  O   UNL A   1      33.805  31.653  28.190  1.00  0.00    -0.458 OA
BRANCH   2   3
ATOM      3  C   UNL A   1      34.483  30.614  27.652  1.00  0.00     0.338 C 
ATOM      4  O   UNL A   1      33.939  29.942  26.779  1.00  0.00    -0.246 OA
BRANCH   3   5
ATOM      5  C   UNL A   1      35.856  30.220  28.088  1.00  0.00     0.060 A 
ATOM      6  C   UNL A   1      37.016  30.329  27.322  1.00  0.00     0.016 A 
ATOM      7  C   UNL A   1      35.958  29.618  29.355  1.00  0.00     0.016 A 
ATOM      8  C   UNL A   1      38.255  29.937  27.844  1.00  0.00     0.010 A 
ATOM      9  C   UNL A   1      37.185  29.211  29.873  1.00  0.00     0.010 A 
ATOM     10  C   UNL A   1      38.346  29.372  29.120  1.00  0.00    -0.014 A 
BRANCH  10  11
ATOM     11  C   UNL A   1      39.632  28.831  29.607  1.00  0.00     0.031 A 
ATOM     12  C   UNL A   1      40.284  29.477  30.794  1.00  0.00     0.074 A 
ATOM     13  C   UNL A   1      40.188  27.764  29.005  1.00  0.00     0.049 A 
ATOM     14  N   UNL A   1      41.314  29.076  31.489  1.00  0.00    -0.248 NA
ATOM     15  C   UNL A   1      39.688  30.737  31.271  1.00  0.00     0.031 C 
ATOM     16  C   UNL A   1      39.651  27.091  27.821  1.00  0.00     0.029 A 
ATOM     17  N   UNL A   1      41.322  27.055  29.304  1.00  0.00    -0.354 N 
ATOM     18  C   UNL A   1      41.458  30.002  32.513  1.00  0.00     0.074 A 
ATOM     19  C   UNL A   1      40.464  31.032  32.303  1.00  0.00     0.031 C 
ATOM     20  C   UNL A   1      40.459  26.070  27.490  1.00  0.00     0.029 A 
ATOM     21  C   UNL A   1      41.558  26.005  28.448  1.00  0.00     0.049 A 
ATOM     22  H   UNL A   1      41.912  27.277  30.059  1.00  0.00     0.167 HD
ATOM     23  C   UNL A   1      42.314  29.970  33.560  1.00  0.00     0.034 A 
ATOM     24  C   UNL A   1      42.542  25.082  28.457  1.00  0.00     0.034 A 
ATOM     25  C   UNL A   1      43.319  28.955  33.726  1.00  0.00     0.049 A 
ATOM     26  C   UNL A   1      43.535  25.106  29.588  1.00  0.00     0.074 A 
ATOM     27  C   UNL A   1      44.229  28.798  34.754  1.00  0.00     0.029 A 
ATOM     28  N   UNL A   1      43.557  27.933  32.817  1.00  0.00    -0.354 N 
ATOM     29  N   UNL A   1      43.601  25.935  30.605  1.00  0.00    -0.248 NA
ATOM     30  C   UNL A   1      44.568  24.062  29.591  1.00  0.00     0.031 C 
ATOM     31  C   UNL A   1      45.049  27.707  34.441  1.00  0.00     0.029 A 
ATOM     32  C   UNL A   1      44.618  27.156  33.243  1.00  0.00     0.049 A 
ATOM     33  H   UNL A   1      43.045  27.783  31.989  1.00  0.00     0.167 HD
ATOM     34  C   UNL A   1      44.667  25.499  31.382  1.00  0.00     0.074 A 
ATOM     35  C   UNL A   1      45.216  24.333  30.717  1.00  0.00     0.031 C 
ATOM     36  C   UNL A   1      45.145  26.008  32.546  1.00  0.00     0.034 A 
BRANCH  23  37
ATOM     37  C   UNL A   1      42.180  31.059  34.589  1.00  0.00     0.023 A 
ATOM     38  C   UNL A   1      42.922  32.248  34.479  1.00  0.00     0.031 A 
ATOM     39  C   UNL A   1      41.335  30.905  35.699  1.00  0.00     0.131 A 
ATOM     40  C   UNL A   1      42.850  33.215  35.491  1.00  0.00     0.055 A 
ATOM     41  C   UNL A   1      41.222  31.898  36.675  1.00  0.00     0.041 A 
ATOM     42  F   UNL A   1      40.620  29.780  35.864  1.00  0.00    -0.206 F 
ATOM     43  C   UNL A   1      41.989  33.058  36.578  1.00  0.00     0.022 A 
BRANCH  40  44
ATOM     44  S   UNL A   1      43.958  34.648  35.408  1.00  0.00     0.124 S 
ATOM     45  O   UNL A   1      44.440  34.568  34.033  1.00  0.00    -0.237 OA
ATOM     46  O   UNL A   1      43.065  35.763  35.706  1.00  0.00    -0.237 OA
ATOM     47  O   UNL A   1      44.961  34.363  36.433  1.00  0.00    -0.744 OA
ENDBRANCH  40  44
ENDBRANCH  23  37
BRANCH  24  48
ATOM     48  C   UNL A   1      42.611  24.056  27.380  1.00  0.00     0.023 A 
ATOM     49  C   UNL A   1      41.822  22.896  27.425  1.00  0.00     0.031 A 
ATOM     50  C   UNL A   1      43.459  24.238  26.273  1.00  0.00     0.131 A 
ATOM     51  C   UNL A   1      41.908  21.952  26.389  1.00  0.00     0.055 A 
ATOM     52  C   UNL A   1      43.524  23.307  25.233  1.00  0.00     0.041 A 
ATOM     53  F   UNL A   1      44.223  25.336  26.178  1.00  0.00    -0.206 F 
ATOM     54  C   UNL A   1      42.748  22.153  25.290  1.00  0.00     0.022 A 
BRANCH  51  55
ATOM     55  S   UNL A   1      40.909  20.440  26.499  1.00  0.00     0.124 S 
ATOM     56  O   UNL A   1      39.602  20.913  26.056  1.00  0.00    -0.237 OA
ATOM     57  O   UNL A   1      41.612  19.546  25.585  1.00  0.00    -0.237 OA
ATOM     58  O   UNL A   1      40.996  20.076  27.912  1.00  0.00    -0.744 OA
ENDBRANCH  51  55
ENDBRANCH  24  48
BRANCH  36  59
ATOM     59  C   UNL A   1      46.309  25.301  33.178  1.00  0.00     0.023 A 
ATOM     60  C   UNL A   1      46.111  24.237  34.070  1.00  0.00     0.031 A 
ATOM     61  C   UNL A   1      47.623  25.649  32.823  1.00  0.00     0.131 A 
ATOM     62  C   UNL A   1      47.220  23.561  34.597  1.00  0.00     0.055 A 
ATOM     63  C   UNL A   1      48.721  24.948  33.319  1.00  0.00     0.041 A 
ATOM     64  F   UNL A   1      47.856  26.656  31.966  1.00  0.00    -0.206 F 
ATOM     65  C   UNL A   1      48.522  23.898  34.213  1.00  0.00     0.022 A 
BRANCH  62  66
ATOM     66  S   UNL A   1      46.941  22.231  35.795  1.00  0.00     0.124 S 
ATOM     67  O   UNL A   1      47.790  21.168  35.268  1.00  0.00    -0.237 OA
ATOM     68  O   UNL A   1      47.381  22.834  37.050  1.00  0.00    -0.237 OA
ATOM     69  O   UNL A   1      45.504  21.983  35.701  1.00  0.00    -0.744 OA
ENDBRANCH  62  66
ENDBRANCH  36  59
ENDBRANCH  10  11
ENDBRANCH   3   5
ENDBRANCH   2   3
ENDBRANCH   1   2
BRANCH   1  70
ATOM     70  C   UNL A   1      33.651  34.142  28.068  1.00  0.00     0.275 C 
BRANCH  70  71
ATOM     71  O   UNL A   1      32.593  34.858  28.721  1.00  0.00    -0.458 OA
BRANCH  71  72
ATOM     72  C   UNL A   1      32.927  36.066  29.266  1.00  0.00     0.339 C 
ATOM     73  O   UNL A   1      32.782  37.148  28.711  1.00  0.00    -0.246 OA
BRANCH  72  74
ATOM     74  C   UNL A   1      33.388  35.945  30.645  1.00  0.00     0.072 A 
ATOM     75  C   UNL A   1      33.324  36.954  31.585  1.00  0.00     0.082 A 
ATOM     76  C   UNL A   1      34.022  34.776  31.198  1.00  0.00     0.050 A 
ATOM     77  S   UNL A   1      34.050  36.514  33.068  1.00  0.00    -0.130 S 
ATOM     78  C   UNL A   1      34.552  34.989  32.457  1.00  0.00     0.141 A 
BRANCH  78  79
ATOM     79  S   UNL A   1      35.664  34.098  33.526  1.00  0.00     0.271 S 
ATOM     80  O   UNL A   1      36.567  35.093  34.061  1.00  0.00    -0.200 OA
ATOM     81  O   UNL A   1      34.823  33.300  34.392  1.00  0.00    -0.200 OA
BRANCH  79  82
ATOM     82  N   UNL A   1      36.628  32.985  32.683  1.00  0.00    -0.279 N 
ATOM     83  H   UNL A   1      36.694  32.053  32.992  1.00  0.00     0.180 HD
BRANCH  82  84
ATOM     84  C   UNL A   1      37.342  33.409  31.525  1.00  0.00     0.049 A 
ATOM     85  C   UNL A   1      36.960  33.085  30.223  1.00  0.00     0.030 A 
ATOM     86  C   UNL A   1      38.430  34.256  31.750  1.00  0.00     0.030 A 
ATOM     87  C   UNL A   1      37.714  33.567  29.146  1.00  0.00     0.041 A 
ATOM     88  C   UNL A   1      39.182  34.731  30.678  1.00  0.00     0.041 A 
ATOM     89  C   UNL A   1      38.819  34.380  29.384  1.00  0.00     0.123 A 
ATOM     90  F   UNL A   1      39.536  34.847  28.353  1.00  0.00    -0.207 F 
ENDBRANCH  82  84
ENDBRANCH  79  82
ENDBRANCH  78  79
ENDBRANCH  72  74
ENDBRANCH  71  72
ENDBRANCH  70  71
ENDBRANCH   1  70
TORSDOF 17
ENDMDL
MODEL 2
REMARK VINA RESULT:     -10.5      4.203      6.672
REMARK SMILES O=C(OCCOC(=O)c1csc(S(=O)(=O)Nc2ccc(F)cc2)c1)c1ccc(-c2c3nc(c(-c4cc(S(=O)(=O)[O-])ccc4F)c4ccc([nH]4)c(-c4cc(S(=O)(=O)[O-])ccc4F)c4nc(c(-c5cc(S(=O)(=O)[O-])ccc5F)c5ccc2[nH]5)C=C4)C=C3)cc1
REMARK SMILES IDX 4 1 3 2 2 3 1 4 25 5 26 6 87 7 27 8 86 9 28 10 29 11 30 12
REMARK SMILES IDX 80 13 31 14 85 15 79 16 81 17 32 18 84 19 78 20 77 21 33 23
REMARK SMILES IDX 65 24 45 25 64 26 46 27 49 28 63 29 82 30 47 31 48 32 62 34
REMARK SMILES IDX 83 35 50 36 34 37 35 38 43 39 36 40 42 41 44 42 41 43 37 44
REMARK SMILES IDX 38 45 39 46 40 47 66 48 67 49 75 50 68 51 74 52 76 53 73 54
REMARK SMILES IDX 69 55 70 56 71 57 72 58 51 59 52 60 60 61 53 62 59 63 61 64
REMARK SMILES IDX 58 65 54 66 55 67 56 68 57 69 5 70 6 71 7 72 8 73 9 74 10 75
REMARK SMILES IDX 24 76 11 77 12 78 13 79 14 80 15 81 16 82 17 84 18 85 23 86
REMARK SMILES IDX 19 87 22 88 20 89 21 90
REMARK H PARENT 81 22 49 33 16 83
REMARK Flexibility Score: inf
ROOT
ATOM      1  C   UNL A   1      31.519  32.519  27.039  1.00  0.00     0.275 C 
ENDROOT
BRANCH   1   2
ATOM      2  O   UNL A   1      32.699  33.331  27.195  1.00  0.00    -0.458 OA
BRANCH   2   3
ATOM      3  C   UNL A   1      33.232  33.860  28.321  1.00  0.00     0.338 C 
ATOM      4  O   UNL A   1      32.640  34.780  28.880  1.00  0.00    -0.246 OA
BRANCH   3   5
ATOM      5  C   UNL A   1      34.528  33.400  28.905  1.00  0.00     0.060 A 
ATOM      6  C   UNL A   1      35.788  33.906  28.590  1.00  0.00     0.016 A 
ATOM      7  C   UNL A   1      34.458  32.312  29.792  1.00  0.00     0.016 A 
ATOM      8  C   UNL A   1      36.936  33.402  29.214  1.00  0.00     0.010 A 
ATOM      9  C   UNL A   1      35.598  31.794  30.405  1.00  0.00     0.010 A 
ATOM     10  C   UNL A   1      36.848  32.341  30.121  1.00  0.00    -0.014 A 
BRANCH  10  11
ATOM     11  C   UNL A   1      38.074  31.722  30.667  1.00  0.00     0.031 A 
ATOM     12  C   UNL A   1      38.546  32.134  32.030  1.00  0.00     0.074 A 
ATOM     13  C   UNL A   1      38.733  30.789  29.956  1.00  0.00     0.049 A 
ATOM     14  N   UNL A   1      39.487  31.612  32.769  1.00  0.00    -0.248 NA
ATOM     15  C   UNL A   1      37.857  33.280  32.649  1.00  0.00     0.031 C 
ATOM     16  C   UNL A   1      38.376  30.350  28.606  1.00  0.00     0.029 A 
ATOM     17  N   UNL A   1      39.838  30.040  30.266  1.00  0.00    -0.354 N 
ATOM     18  C   UNL A   1      39.469  32.329  33.958  1.00  0.00     0.074 A 
ATOM     19  C   UNL A   1      38.483  33.376  33.813  1.00  0.00     0.031 C 
ATOM     20  C   UNL A   1      39.249  29.412  28.202  1.00  0.00     0.029 A 
ATOM     21  C   UNL A   1      40.214  29.171  29.270  1.00  0.00     0.049 A 
ATOM     22  H   UNL A   1      40.318  30.117  31.123  1.00  0.00     0.167 HD
ATOM     23  C   UNL A   1      40.181  32.102  35.086  1.00  0.00     0.034 A 
ATOM     24  C   UNL A   1      41.214  28.266  29.237  1.00  0.00     0.034 A 
ATOM     25  C   UNL A   1      41.184  31.078  35.193  1.00  0.00     0.049 A 
ATOM     26  C   UNL A   1      42.049  28.079  30.476  1.00  0.00     0.074 A 
ATOM     27  C   UNL A   1      41.955  30.732  36.286  1.00  0.00     0.029 A 
ATOM     28  N   UNL A   1      41.567  30.246  34.149  1.00  0.00    -0.354 N 
ATOM     29  N   UNL A   1      41.957  28.701  31.630  1.00  0.00    -0.248 NA
ATOM     30  C   UNL A   1      43.101  27.056  30.423  1.00  0.00     0.031 C 
ATOM     31  C   UNL A   1      42.840  29.722  35.888  1.00  0.00     0.029 A 
ATOM     32  C   UNL A   1      42.585  29.406  34.562  1.00  0.00     0.049 A 
ATOM     33  H   UNL A   1      41.173  30.253  33.247  1.00  0.00     0.167 HD
ATOM     34  C   UNL A   1      42.925  28.130  32.448  1.00  0.00     0.074 A 
ATOM     35  C   UNL A   1      43.588  27.112  31.656  1.00  0.00     0.031 C 
ATOM     36  C   UNL A   1      43.231  28.411  33.739  1.00  0.00     0.034 A 
BRANCH  23  37
ATOM     37  C   UNL A   1      39.882  32.977  36.273  1.00  0.00     0.023 A 
ATOM     38  C   UNL A   1      39.043  32.524  37.307  1.00  0.00     0.031 A 
ATOM     39  C   UNL A   1      40.409  34.275  36.366  1.00  0.00     0.131 A 
ATOM     40  C   UNL A   1      38.706  33.384  38.362  1.00  0.00     0.055 A 
ATOM     41  C   UNL A   1      40.117  35.106  37.449  1.00  0.00     0.041 A 
ATOM     42  F   UNL A   1      41.198  34.763  35.396  1.00  0.00    -0.206 F 
ATOM     43  C   UNL A   1      39.254  34.665  38.451  1.00  0.00     0.022 A 
BRANCH  40  44
ATOM     44  S   UNL A   1      37.477  32.833  39.576  1.00  0.00     0.124 S 
ATOM     45  O   UNL A   1      38.055  31.571  40.028  1.00  0.00    -0.237 OA
ATOM     46  O   UNL A   1      37.479  33.920  40.550  1.00  0.00    -0.237 OA
ATOM     47  O   UNL A   1      36.252  32.707  38.789  1.00  0.00    -0.744 OA
ENDBRANCH  40  44
ENDBRANCH  23  37
BRANCH  24  48
ATOM     48  C   UNL A   1      41.452  27.462  28.007  1.00  0.00     0.023 A 
ATOM     49  C   UNL A   1      41.155  26.091  27.962  1.00  0.00     0.031 A 
ATOM     50  C   UNL A   1      41.964  28.067  26.846  1.00  0.00     0.131 A 
ATOM     51  C   UNL A   1      41.388  25.364  26.783  1.00  0.00     0.055 A 
ATOM     52  C   UNL A   1      42.172  27.346  25.668  1.00  0.00     0.041 A 
ATOM     53  F   UNL A   1      42.251  29.378  26.835  1.00  0.00    -0.206 F 
ATOM     54  C   UNL A   1      41.887  25.984  25.634  1.00  0.00     0.022 A 
BRANCH  51  55
ATOM     55  S   UNL A   1      41.037  23.583  26.770  1.00  0.00     0.124 S 
ATOM     56  O   UNL A   1      39.604  23.563  26.496  1.00  0.00    -0.237 OA
ATOM     57  O   UNL A   1      41.904  23.111  25.696  1.00  0.00    -0.237 OA
ATOM     58  O   UNL A   1      41.423  23.151  28.112  1.00  0.00    -0.744 OA
ENDBRANCH  51  55
ENDBRANCH  24  48
BRANCH  36  59
ATOM     59  C   UNL A   1      44.322  27.602  34.378  1.00  0.00     0.023 A 
ATOM     60  C   UNL A   1      44.049  26.357  34.965  1.00  0.00     0.031 A 
ATOM     61  C   UNL A   1      45.653  28.048  34.330  1.00  0.00     0.131 A 
ATOM     62  C   UNL A   1      45.100  25.600  35.501  1.00  0.00     0.055 A 
ATOM     63  C   UNL A   1      46.700  27.274  34.830  1.00  0.00     0.041 A 
ATOM     64  F   UNL A   1      45.958  29.230  33.771  1.00  0.00    -0.206 F 
ATOM     65  C   UNL A   1      46.424  26.042  35.421  1.00  0.00     0.022 A 
BRANCH  62  66
ATOM     66  S   UNL A   1      44.715  24.025  36.309  1.00  0.00     0.124 S 
ATOM     67  O   UNL A   1      44.449  24.448  37.680  1.00  0.00    -0.237 OA
ATOM     68  O   UNL A   1      43.560  23.551  35.552  1.00  0.00    -0.237 OA
ATOM     69  O   UNL A   1      45.935  23.241  36.126  1.00  0.00    -0.744 OA
ENDBRANCH  62  66
ENDBRANCH  36  59
ENDBRANCH  10  11
ENDBRANCH   3   5
ENDBRANCH   2   3
ENDBRANCH   1   2
BRANCH   1  70
ATOM     70  C   UNL A   1      31.792  31.088  26.579  1.00  0.00     0.275 C 
BRANCH  70  71
ATOM     71  O   UNL A   1      32.692  30.391  27.453  1.00  0.00    -0.458 OA
BRANCH  71  72
ATOM     72  C   UNL A   1      33.863  29.961  26.897  1.00  0.00     0.339 C 
ATOM     73  O   UNL A   1      34.969  30.421  27.154  1.00  0.00    -0.246 OA
BRANCH  72  74
ATOM     74  C   UNL A   1      33.675  28.808  26.024  1.00  0.00     0.072 A 
ATOM     75  C   UNL A   1      33.734  27.492  26.438  1.00  0.00     0.082 A 
ATOM     76  C   UNL A   1      33.455  28.883  24.603  1.00  0.00     0.050 A 
ATOM     77  S   UNL A   1      33.577  26.390  25.142  1.00  0.00    -0.130 S 
ATOM     78  C   UNL A   1      33.518  27.651  23.977  1.00  0.00     0.141 A 
BRANCH  78  79
ATOM     79  S   UNL A   1      33.622  27.098  22.287  1.00  0.00     0.271 S 
ATOM     80  O   UNL A   1      34.355  28.129  21.587  1.00  0.00    -0.200 OA
ATOM     81  O   UNL A   1      34.109  25.736  22.348  1.00  0.00    -0.200 OA
BRANCH  79  82
ATOM     82  N   UNL A   1      32.104  27.000  21.537  1.00  0.00    -0.279 N 
ATOM     83  H   UNL A   1      32.036  26.992  20.555  1.00  0.00     0.180 HD
BRANCH  82  84
ATOM     84  C   UNL A   1      30.927  26.930  22.337  1.00  0.00     0.049 A 
ATOM     85  C   UNL A   1      30.030  27.989  22.482  1.00  0.00     0.030 A 
ATOM     86  C   UNL A   1      30.657  25.692  22.926  1.00  0.00     0.030 A 
ATOM     87  C   UNL A   1      28.888  27.817  23.274  1.00  0.00     0.041 A 
ATOM     88  C   UNL A   1      29.522  25.524  23.716  1.00  0.00     0.041 A 
ATOM     89  C   UNL A   1      28.648  26.590  23.886  1.00  0.00     0.123 A 
ATOM     90  F   UNL A   1      27.551  26.423  24.636  1.00  0.00    -0.207 F 
ENDBRANCH  82  84
ENDBRANCH  79  82
ENDBRANCH  78  79
ENDBRANCH  72  74
ENDBRANCH  71  72
ENDBRANCH  70  71
ENDBRANCH   1  70
TORSDOF 17
ENDMDL
MODEL 3
REMARK VINA RESULT:     -10.4      5.294     11.203
REMARK SMILES O=C(OCCOC(=O)c1csc(S(=O)(=O)Nc2ccc(F)cc2)c1)c1ccc(-c2c3nc(c(-c4cc(S(=O)(=O)[O-])ccc4F)c4ccc([nH]4)c(-c4cc(S(=O)(=O)[O-])ccc4F)c4nc(c(-c5cc(S(=O)(=O)[O-])ccc5F)c5ccc2[nH]5)C=C4)C=C3)cc1
REMARK SMILES IDX 4 1 3 2 2 3 1 4 25 5 26 6 87 7 27 8 86 9 28 10 29 11 30 12
REMARK SMILES IDX 80 13 31 14 85 15 79 16 81 17 32 18 84 19 78 20 77 21 33 23
REMARK SMILES IDX 65 24 45 25 64 26 46 27 49 28 63 29 82 30 47 31 48 32 62 34
REMARK SMILES IDX 83 35 50 36 34 37 35 38 43 39 36 40 42 41 44 42 41 43 37 44
REMARK SMILES IDX 38 45 39 46 40 47 66 48 67 49 75 50 68 51 74 52 76 53 73 54
REMARK SMILES IDX 69 55 70 56 71 57 72 58 51 59 52 60 60 61 53 62 59 63 61 64
REMARK SMILES IDX 58 65 54 66 55 67 56 68 57 69 5 70 6 71 7 72 8 73 9 74 10 75
REMARK SMILES IDX 24 76 11 77 12 78 13 79 14 80 15 81 16 82 17 84 18 85 23 86
REMARK SMILES IDX 19 87 22 88 20 89 21 90
REMARK H PARENT 81 22 49 33 16 83
REMARK Flexibility Score: inf
ROOT
ATOM      1  C   UNL A   1      36.923  23.456  24.624  1.00  0.00     0.275 C 
ENDROOT
BRANCH   1   2
ATOM      2  O   UNL A   1      37.460  22.740  25.753  1.00  0.00    -0.458 OA
BRANCH   2   3
ATOM      3  C   UNL A   1      38.674  22.851  26.339  1.00  0.00     0.338 C 
ATOM      4  O   UNL A   1      39.399  21.861  26.388  1.00  0.00    -0.246 OA
BRANCH   3   5
ATOM      5  C   UNL A   1      39.169  24.116  26.960  1.00  0.00     0.060 A 
ATOM      6  C   UNL A   1      38.901  24.544  28.261  1.00  0.00     0.016 A 
ATOM      7  C   UNL A   1      39.903  24.974  26.124  1.00  0.00     0.016 A 
ATOM      8  C   UNL A   1      39.432  25.748  28.739  1.00  0.00     0.010 A 
ATOM      9  C   UNL A   1      40.421  26.182  26.589  1.00  0.00     0.010 A 
ATOM     10  C   UNL A   1      40.191  26.575  27.906  1.00  0.00    -0.014 A 
BRANCH  10  11
ATOM     11  C   UNL A   1      40.626  27.908  28.372  1.00  0.00     0.031 A 
ATOM     12  C   UNL A   1      42.092  28.228  28.373  1.00  0.00     0.074 A 
ATOM     13  C   UNL A   1      39.716  28.818  28.764  1.00  0.00     0.049 A 
ATOM     14  N   UNL A   1      42.685  29.373  28.579  1.00  0.00    -0.248 NA
ATOM     15  C   UNL A   1      43.013  27.113  28.092  1.00  0.00     0.031 C 
ATOM     16  C   UNL A   1      38.273  28.587  28.837  1.00  0.00     0.029 A 
ATOM     17  N   UNL A   1      39.866  30.117  29.173  1.00  0.00    -0.354 N 
ATOM     18  C   UNL A   1      44.041  29.129  28.401  1.00  0.00     0.074 A 
ATOM     19  C   UNL A   1      44.193  27.713  28.153  1.00  0.00     0.031 C 
ATOM     20  C   UNL A   1      37.669  29.707  29.270  1.00  0.00     0.029 A 
ATOM     21  C   UNL A   1      38.679  30.738  29.487  1.00  0.00     0.049 A 
ATOM     22  H   UNL A   1      40.740  30.565  29.237  1.00  0.00     0.167 HD
ATOM     23  C   UNL A   1      45.061  30.018  28.399  1.00  0.00     0.034 A 
ATOM     24  C   UNL A   1      38.439  32.004  29.883  1.00  0.00     0.034 A 
ATOM     25  C   UNL A   1      44.889  31.416  28.687  1.00  0.00     0.049 A 
ATOM     26  C   UNL A   1      39.598  32.963  29.952  1.00  0.00     0.074 A 
ATOM     27  C   UNL A   1      45.836  32.422  28.693  1.00  0.00     0.029 A 
ATOM     28  N   UNL A   1      43.680  31.999  29.042  1.00  0.00    -0.354 N 
ATOM     29  N   UNL A   1      40.865  32.740  29.687  1.00  0.00    -0.248 NA
ATOM     30  C   UNL A   1      39.297  34.346  30.344  1.00  0.00     0.031 C 
ATOM     31  C   UNL A   1      45.208  33.604  29.100  1.00  0.00     0.029 A 
ATOM     32  C   UNL A   1      43.860  33.345  29.299  1.00  0.00     0.049 A 
ATOM     33  H   UNL A   1      42.820  31.524  29.103  1.00  0.00     0.167 HD
ATOM     34  C   UNL A   1      41.510  33.959  29.859  1.00  0.00     0.074 A 
ATOM     35  C   UNL A   1      40.492  34.915  30.249  1.00  0.00     0.031 C 
ATOM     36  C   UNL A   1      42.822  34.265  29.698  1.00  0.00     0.034 A 
BRANCH  23  37
ATOM     37  C   UNL A   1      46.430  29.489  28.071  1.00  0.00     0.023 A 
ATOM     38  C   UNL A   1      46.736  29.039  26.774  1.00  0.00     0.031 A 
ATOM     39  C   UNL A   1      47.428  29.404  29.055  1.00  0.00     0.131 A 
ATOM     40  C   UNL A   1      47.989  28.470  26.508  1.00  0.00     0.055 A 
ATOM     41  C   UNL A   1      48.695  28.890  28.769  1.00  0.00     0.041 A 
ATOM     42  F   UNL A   1      47.182  29.801  30.313  1.00  0.00    -0.206 F 
ATOM     43  C   UNL A   1      48.978  28.411  27.491  1.00  0.00     0.022 A 
BRANCH  40  44
ATOM     44  S   UNL A   1      48.282  27.732  24.878  1.00  0.00     0.124 S 
ATOM     45  O   UNL A   1      48.180  26.306  25.177  1.00  0.00    -0.237 OA
ATOM     46  O   UNL A   1      47.202  28.292  24.072  1.00  0.00    -0.237 OA
ATOM     47  O   UNL A   1      49.623  28.196  24.528  1.00  0.00    -0.744 OA
ENDBRANCH  40  44
ENDBRANCH  23  37
BRANCH  24  48
ATOM     48  C   UNL A   1      37.052  32.432  30.213  1.00  0.00     0.023 A 
ATOM     49  C   UNL A   1      36.278  33.166  29.301  1.00  0.00     0.031 A 
ATOM     50  C   UNL A   1      36.473  32.089  31.448  1.00  0.00     0.131 A 
ATOM     51  C   UNL A   1      34.971  33.548  29.643  1.00  0.00     0.055 A 
ATOM     52  C   UNL A   1      35.164  32.451  31.774  1.00  0.00     0.041 A 
ATOM     53  F   UNL A   1      37.168  31.377  32.347  1.00  0.00    -0.206 F 
ATOM     54  C   UNL A   1      34.406  33.189  30.871  1.00  0.00     0.022 A 
BRANCH  51  55
ATOM     55  S   UNL A   1      34.011  34.536  28.461  1.00  0.00     0.124 S 
ATOM     56  O   UNL A   1      34.817  34.420  27.251  1.00  0.00    -0.237 OA
ATOM     57  O   UNL A   1      32.731  33.836  28.450  1.00  0.00    -0.237 OA
ATOM     58  O   UNL A   1      33.985  35.865  29.070  1.00  0.00    -0.744 OA
ENDBRANCH  51  55
ENDBRANCH  24  48
BRANCH  36  59
ATOM     59  C   UNL A   1      43.228  35.692  29.934  1.00  0.00     0.023 A 
ATOM     60  C   UNL A   1      43.090  36.658  28.926  1.00  0.00     0.031 A 
ATOM     61  C   UNL A   1      43.684  36.096  31.200  1.00  0.00     0.131 A 
ATOM     62  C   UNL A   1      43.423  37.992  29.199  1.00  0.00     0.055 A 
ATOM     63  C   UNL A   1      43.977  37.431  31.476  1.00  0.00     0.041 A 
ATOM     64  F   UNL A   1      43.823  35.204  32.193  1.00  0.00    -0.206 F 
ATOM     65  C   UNL A   1      43.848  38.387  30.471  1.00  0.00     0.022 A 
BRANCH  62  66
ATOM     66  S   UNL A   1      43.296  39.210  27.864  1.00  0.00     0.124 S 
ATOM     67  O   UNL A   1      43.947  38.515  26.759  1.00  0.00    -0.237 OA
ATOM     68  O   UNL A   1      41.853  39.397  27.737  1.00  0.00    -0.237 OA
ATOM     69  O   UNL A   1      44.023  40.366  28.386  1.00  0.00    -0.744 OA
ENDBRANCH  62  66
ENDBRANCH  36  59
ENDBRANCH  10  11
ENDBRANCH   3   5
ENDBRANCH   2   3
ENDBRANCH   1   2
BRANCH   1  70
ATOM     70  C   UNL A   1      36.321  22.566  23.538  1.00  0.00     0.275 C 
BRANCH  70  71
ATOM     71  O   UNL A   1      34.892  22.678  23.463  1.00  0.00    -0.458 OA
BRANCH  71  72
ATOM     72  C   UNL A   1      34.180  21.949  24.374  1.00  0.00     0.339 C 
ATOM     73  O   UNL A   1      34.442  20.800  24.707  1.00  0.00    -0.246 OA
BRANCH  72  74
ATOM     74  C   UNL A   1      33.115  22.725  24.998  1.00  0.00     0.072 A 
ATOM     75  C   UNL A   1      32.007  22.182  25.616  1.00  0.00     0.082 A 
ATOM     76  C   UNL A   1      33.047  24.164  25.009  1.00  0.00     0.050 A 
ATOM     77  S   UNL A   1      30.902  23.373  26.146  1.00  0.00    -0.130 S 
ATOM     78  C   UNL A   1      31.840  24.648  25.478  1.00  0.00     0.141 A 
BRANCH  78  79
ATOM     79  S   UNL A   1      31.031  26.234  25.477  1.00  0.00     0.271 S 
ATOM     80  O   UNL A   1      31.700  27.010  24.456  1.00  0.00    -0.200 OA
ATOM     81  O   UNL A   1      29.612  25.954  25.402  1.00  0.00    -0.200 OA
BRANCH  79  82
ATOM     82  N   UNL A   1      31.246  27.078  26.933  1.00  0.00    -0.279 N 
ATOM     83  H   UNL A   1      30.688  26.866  27.716  1.00  0.00     0.180 HD
BRANCH  82  84
ATOM     84  C   UNL A   1      32.240  28.096  27.016  1.00  0.00     0.049 A 
ATOM     85  C   UNL A   1      33.606  27.853  26.876  1.00  0.00     0.030 A 
ATOM     86  C   UNL A   1      31.768  29.403  27.167  1.00  0.00     0.030 A 
ATOM     87  C   UNL A   1      34.505  28.923  26.952  1.00  0.00     0.041 A 
ATOM     88  C   UNL A   1      32.665  30.467  27.245  1.00  0.00     0.041 A 
ATOM     89  C   UNL A   1      34.027  30.217  27.140  1.00  0.00     0.123 A 
ATOM     90  F   UNL A   1      34.887  31.242  27.204  1.00  0.00    -0.207 F 
ENDBRANCH  82  84
ENDBRANCH  79  82
ENDBRANCH  78  79
ENDBRANCH  72  74
ENDBRANCH  71  72
ENDBRANCH  70  71
ENDBRANCH   1  70
TORSDOF 17
ENDMDL
