MODEL 1
REMARK VINA RESULT:     -12.4      0.000      0.000
REMARK SMILES Cc1ccc(NC(=O)CN2C(=O)S/C(=C\c3cc(Cl)c(OCC(=O)OCCOC(=O)c4ccc(-c5c6nc(c(-c7cc(S(=O)(=O)[O-])ccc7F)c7ccc([nH]7)c(-c7cc(S(=O)(=O)[O-])ccc7F)c7nc(c(-c8cc(S(=O)(=O)[O-])ccc8F)c8ccc5[nH]8)C=C7)C=C6)cc4)c(Cl)c3)C2=O)cc1
REMARK SMILES IDX 25 1 23 2 24 3 22 4 21 5 20 6 16 7 17 8 96 9 18 10 94 11
REMARK SMILES IDX 19 12 95 13 15 14 10 15 11 16 97 17 12 18 13 19 14 20 98 21
REMARK SMILES IDX 9 22 7 23 6 24 8 26 5 27 1 28 2 29 3 30 100 31 4 32 99 33
REMARK SMILES IDX 26 34 27 35 28 36 29 37 30 38 31 39 32 40 93 41 33 42 92 43
REMARK SMILES IDX 34 44 35 45 36 46 86 47 37 48 91 49 85 50 87 51 38 52 90 53
REMARK SMILES IDX 84 54 83 55 39 57 71 58 51 59 70 60 52 61 55 62 69 63 88 64
REMARK SMILES IDX 53 65 54 66 68 68 89 69 56 70 40 71 41 72 49 73 42 74 48 75
REMARK SMILES IDX 50 76 47 77 43 78 44 79 45 80 46 81 72 82 73 83 81 84 74 85
REMARK SMILES IDX 80 86 82 87 79 88 75 89 76 90 77 91 78 92 57 93 58 94 66 95
REMARK SMILES IDX 59 96 65 97 67 98 64 99 60 100 61 101 62 102 63 103
REMARK H PARENT 6 25 87 56 55 67
REMARK Flexibility Score: inf
ROOT
ATOM      1  O   UNL A   1      36.454  29.685  32.082  1.00  0.00    -0.460 OA
ENDROOT
BRANCH   1   2
ATOM      2  C   UNL A   1      36.201  31.100  32.001  1.00  0.00     0.344 C 
ATOM      3  O   UNL A   1      36.604  31.575  33.088  1.00  0.00    -0.248 OA
BRANCH   2   4
ATOM      4  C   UNL A   1      35.452  32.093  30.189  1.00  0.00     0.352 C 
BRANCH   4   5
ATOM      5  O   UNL A   1      35.378  31.878  28.599  1.00  0.00    -0.479 OA
BRANCH   5   6
ATOM      6  C   UNL A   1      34.480  31.101  27.890  1.00  0.00     0.157 A 
ATOM      7  C   UNL A   1      32.575  29.120  26.915  1.00  0.00    -0.021 A 
ATOM      8  C   UNL A   1      32.263  30.493  26.949  1.00  0.00     0.032 A 
ATOM      9  C   UNL A   1      33.911  28.831  27.222  1.00  0.00     0.032 A 
ATOM     10  C   UNL A   1      33.202  31.468  27.441  1.00  0.00     0.085 A 
ATOM     11  C   UNL A   1      34.864  29.799  27.586  1.00  0.00     0.085 A 
ATOM     12  Cl  UNL A   1      32.724  33.131  27.422  1.00  0.00    -0.080 Cl
ATOM     13  Cl  UNL A   1      36.514  29.279  27.672  1.00  0.00    -0.080 Cl
BRANCH   7  14
ATOM     14  C   UNL A   1      31.534  28.016  26.761  1.00  0.00     0.029 C 
ATOM     15  N   UNL A   1      31.178  24.951  24.794  1.00  0.00    -0.259 N 
ATOM     16  C   UNL A   1      32.269  25.465  24.155  1.00  0.00     0.294 C 
ATOM     17  C   UNL A   1      30.624  25.798  25.751  1.00  0.00     0.268 C 
ATOM     18  O   UNL A   1      33.177  24.869  23.607  1.00  0.00    -0.261 OA
ATOM     19  S   UNL A   1      32.167  27.196  24.204  1.00  0.00    -0.022 SA
ATOM     20  C   UNL A   1      31.373  27.134  25.742  1.00  0.00     0.083 C 
ATOM     21  O   UNL A   1      29.709  25.521  26.514  1.00  0.00    -0.268 OA
BRANCH  15  22
ATOM     22  C   UNL A   1      30.945  23.509  24.697  1.00  0.00     0.230 C 
BRANCH  22  23
ATOM     23  C   UNL A   1      31.003  22.785  26.071  1.00  0.00     0.244 C 
ATOM     24  N   UNL A   1      32.182  22.578  26.735  1.00  0.00    -0.325 N 
ATOM     25  H   UNL A   1      32.113  22.616  27.717  1.00  0.00     0.169 HD
ATOM     26  O   UNL A   1      29.968  22.387  26.619  1.00  0.00    -0.273 OA
BRANCH  24  27
ATOM     27  C   UNL A   1      33.470  22.321  26.251  1.00  0.00     0.041 A 
ATOM     28  C   UNL A   1      37.492  21.578  24.889  1.00  0.00     0.044 C 
ATOM     29  C   UNL A   1      36.112  21.849  25.405  1.00  0.00    -0.051 A 
ATOM     30  C   UNL A   1      35.136  20.857  25.289  1.00  0.00     0.005 A 
ATOM     31  C   UNL A   1      35.768  23.071  25.990  1.00  0.00     0.005 A 
ATOM     32  C   UNL A   1      33.831  21.088  25.720  1.00  0.00     0.026 A 
ATOM     33  C   UNL A   1      34.456  23.301  26.422  1.00  0.00     0.026 A 
ENDBRANCH  24  27
ENDBRANCH  22  23
ENDBRANCH  15  22
ENDBRANCH   7  14
ENDBRANCH   5   6
ENDBRANCH   4   5
ENDBRANCH   2   4
ENDBRANCH   1   2
BRANCH   1  34
ATOM     34  C   UNL A   1      37.149  29.096  30.975  1.00  0.00     0.274 C 
BRANCH  34  35
ATOM     35  C   UNL A   1      38.263  28.193  31.507  1.00  0.00     0.275 C 
BRANCH  35  36
ATOM     36  O   UNL A   1      39.200  27.531  30.599  1.00  0.00    -0.458 OA
BRANCH  36  37
ATOM     37  C   UNL A   1      39.458  27.580  29.279  1.00  0.00     0.338 C 
ATOM     38  O   UNL A   1      39.216  26.653  28.519  1.00  0.00    -0.246 OA
BRANCH  37  39
ATOM     39  C   UNL A   1      40.111  28.774  28.715  1.00  0.00     0.060 A 
ATOM     40  C   UNL A   1      40.808  28.495  27.051  1.00  0.00     0.016 A 
ATOM     41  C   UNL A   1      40.892  29.955  29.829  1.00  0.00     0.016 A 
ATOM     42  C   UNL A   1      42.429  29.167  26.639  1.00  0.00     0.010 A 
ATOM     43  C   UNL A   1      42.510  30.656  29.376  1.00  0.00     0.010 A 
ATOM     44  C   UNL A   1      43.304  30.152  27.845  1.00  0.00    -0.014 A 
BRANCH  44  45
ATOM     45  C   UNL A   1      44.763  29.958  28.045  1.00  0.00     0.031 A 
ATOM     46  C   UNL A   1      45.616  31.026  27.519  1.00  0.00     0.074 A 
ATOM     47  C   UNL A   1      45.296  28.956  28.805  1.00  0.00     0.049 A 
ATOM     48  N   UNL A   1      46.825  30.859  27.122  1.00  0.00    -0.248 NA
ATOM     49  C   UNL A   1      45.117  32.373  27.262  1.00  0.00     0.031 C 
ATOM     50  C   UNL A   1      46.630  28.885  29.422  1.00  0.00     0.029 A 
ATOM     51  N   UNL A   1      44.764  27.737  29.187  1.00  0.00    -0.354 N 
ATOM     52  C   UNL A   1      47.353  32.113  26.919  1.00  0.00     0.074 A 
ATOM     53  C   UNL A   1      46.214  32.978  26.805  1.00  0.00     0.031 C 
ATOM     54  C   UNL A   1      46.864  27.637  29.881  1.00  0.00     0.029 A 
ATOM     55  C   UNL A   1      45.747  26.802  29.494  1.00  0.00     0.049 A 
ATOM     56  H   UNL A   1      43.797  27.553  29.235  1.00  0.00     0.167 HD
ATOM     57  C   UNL A   1      48.694  32.286  27.075  1.00  0.00     0.034 A 
ATOM     58  C   UNL A   1      45.833  25.612  28.824  1.00  0.00     0.034 A 
ATOM     59  C   UNL A   1      49.317  31.001  27.407  1.00  0.00     0.049 A 
ATOM     60  C   UNL A   1      46.990  25.657  27.840  1.00  0.00     0.074 A 
ATOM     61  C   UNL A   1      49.753  30.443  28.598  1.00  0.00     0.029 A 
ATOM     62  N   UNL A   1      49.222  29.958  26.499  1.00  0.00    -0.354 N 
ATOM     63  N   UNL A   1      47.638  26.761  27.576  1.00  0.00    -0.248 NA
ATOM     64  C   UNL A   1      47.555  24.515  27.123  1.00  0.00     0.031 C 
ATOM     65  C   UNL A   1      49.844  29.033  28.406  1.00  0.00     0.029 A 
ATOM     66  C   UNL A   1      49.505  28.748  27.094  1.00  0.00     0.049 A 
ATOM     67  H   UNL A   1      48.983  30.068  25.550  1.00  0.00     0.167 HD
ATOM     68  C   UNL A   1      48.668  26.524  26.717  1.00  0.00     0.074 A 
ATOM     69  C   UNL A   1      48.579  25.095  26.465  1.00  0.00     0.031 C 
ATOM     70  C   UNL A   1      49.489  27.532  26.289  1.00  0.00     0.034 A 
BRANCH  57  71
ATOM     71  C   UNL A   1      49.427  33.603  27.206  1.00  0.00     0.023 A 
ATOM     72  C   UNL A   1      49.957  34.172  26.029  1.00  0.00     0.031 A 
ATOM     73  C   UNL A   1      49.675  34.340  28.383  1.00  0.00     0.131 A 
ATOM     74  C   UNL A   1      50.710  35.358  26.051  1.00  0.00     0.055 A 
ATOM     75  C   UNL A   1      50.435  35.519  28.408  1.00  0.00     0.041 A 
ATOM     76  F   UNL A   1      49.184  33.993  29.574  1.00  0.00    -0.206 F 
ATOM     77  C   UNL A   1      50.959  36.035  27.238  1.00  0.00     0.022 A 
BRANCH  74  78
ATOM     78  S   UNL A   1      51.354  35.998  24.487  1.00  0.00     0.124 S 
ATOM     79  O   UNL A   1      51.826  34.783  23.831  1.00  0.00    -0.237 OA
ATOM     80  O   UNL A   1      50.177  36.634  23.905  1.00  0.00    -0.237 OA
ATOM     81  O   UNL A   1      52.408  36.921  24.910  1.00  0.00    -0.744 OA
ENDBRANCH  74  78
ENDBRANCH  57  71
BRANCH  58  82
ATOM     82  C   UNL A   1      44.489  24.973  28.670  1.00  0.00     0.023 A 
ATOM     83  C   UNL A   1      44.156  24.584  27.349  1.00  0.00     0.031 A 
ATOM     84  C   UNL A   1      43.876  24.289  29.728  1.00  0.00     0.131 A 
ATOM     85  C   UNL A   1      43.444  23.397  27.118  1.00  0.00     0.055 A 
ATOM     86  C   UNL A   1      43.089  23.153  29.489  1.00  0.00     0.041 A 
ATOM     87  F   UNL A   1      44.175  24.589  31.001  1.00  0.00    -0.206 F 
ATOM     88  C   UNL A   1      42.918  22.669  28.186  1.00  0.00     0.022 A 
BRANCH  85  89
ATOM     89  S   UNL A   1      43.528  22.656  25.450  1.00  0.00     0.124 S 
ATOM     90  O   UNL A   1      44.843  22.025  25.458  1.00  0.00    -0.237 OA
ATOM     91  O   UNL A   1      42.392  21.733  25.440  1.00  0.00    -0.237 OA
ATOM     92  O   UNL A   1      43.387  23.796  24.551  1.00  0.00    -0.744 OA
ENDBRANCH  85  89
ENDBRANCH  58  82
BRANCH  70  93
ATOM     93  C   UNL A   1      50.403  27.450  25.092  1.00  0.00     0.023 A 
ATOM     94  C   UNL A   1      49.924  27.572  23.788  1.00  0.00     0.031 A 
ATOM     95  C   UNL A   1      51.811  27.333  25.218  1.00  0.00     0.131 A 
ATOM     96  C   UNL A   1      50.776  27.421  22.688  1.00  0.00     0.055 A 
ATOM     97  C   UNL A   1      52.675  27.332  24.123  1.00  0.00     0.041 A 
ATOM     98  F   UNL A   1      52.419  27.222  26.408  1.00  0.00    -0.206 F 
ATOM     99  C   UNL A   1      52.156  27.337  22.841  1.00  0.00     0.022 A 
BRANCH  96 100
ATOM    100  S   UNL A   1      49.999  27.193  21.076  1.00  0.00     0.124 S 
ATOM    101  O   UNL A   1      50.705  26.016  20.573  1.00  0.00    -0.237 OA
ATOM    102  O   UNL A   1      48.599  26.984  21.428  1.00  0.00    -0.237 OA
ATOM    103  O   UNL A   1      50.289  28.441  20.375  1.00  0.00    -0.744 OA
ENDBRANCH  96 100
ENDBRANCH  70  93
ENDBRANCH  44  45
ENDBRANCH  37  39
ENDBRANCH  36  37
ENDBRANCH  35  36
ENDBRANCH  34  35
ENDBRANCH   1  34
TORSDOF 20
ENDMDL
MODEL 2
REMARK VINA RESULT:     -11.9      5.460     10.910
REMARK SMILES Cc1ccc(NC(=O)CN2C(=O)S/C(=C\c3cc(Cl)c(OCC(=O)OCCOC(=O)c4ccc(-c5c6nc(c(-c7cc(S(=O)(=O)[O-])ccc7F)c7ccc([nH]7)c(-c7cc(S(=O)(=O)[O-])ccc7F)c7nc(c(-c8cc(S(=O)(=O)[O-])ccc8F)c8ccc5[nH]8)C=C7)C=C6)cc4)c(Cl)c3)C2=O)cc1
REMARK SMILES IDX 25 1 23 2 24 3 22 4 21 5 20 6 16 7 17 8 96 9 18 10 94 11
REMARK SMILES IDX 19 12 95 13 15 14 10 15 11 16 97 17 12 18 13 19 14 20 98 21
REMARK SMILES IDX 9 22 7 23 6 24 8 26 5 27 1 28 2 29 3 30 100 31 4 32 99 33
REMARK SMILES IDX 26 34 27 35 28 36 29 37 30 38 31 39 32 40 93 41 33 42 92 43
REMARK SMILES IDX 34 44 35 45 36 46 86 47 37 48 91 49 85 50 87 51 38 52 90 53
REMARK SMILES IDX 84 54 83 55 39 57 71 58 51 59 70 60 52 61 55 62 69 63 88 64
REMARK SMILES IDX 53 65 54 66 68 68 89 69 56 70 40 71 41 72 49 73 42 74 48 75
REMARK SMILES IDX 50 76 47 77 43 78 44 79 45 80 46 81 72 82 73 83 81 84 74 85
REMARK SMILES IDX 80 86 82 87 79 88 75 89 76 90 77 91 78 92 57 93 58 94 66 95
REMARK SMILES IDX 59 96 65 97 67 98 64 99 60 100 61 101 62 102 63 103
REMARK H PARENT 6 25 87 56 55 67
REMARK Flexibility Score: inf
ROOT
ATOM      1  O   UNL A   1      45.765  21.974  23.966  1.00  0.00    -0.460 OA
ENDROOT
BRANCH   1   2
ATOM      2  C   UNL A   1      45.360  21.039  24.984  1.00  0.00     0.344 C 
ATOM      3  O   UNL A   1      46.404  20.426  25.309  1.00  0.00    -0.248 OA
BRANCH   2   4
ATOM      4  C   UNL A   1      43.333  20.975  25.831  1.00  0.00     0.352 C 
BRANCH   4   5
ATOM      5  O   UNL A   1      42.409  21.751  26.890  1.00  0.00    -0.479 OA
BRANCH   5   6
ATOM      6  C   UNL A   1      41.054  22.019  26.797  1.00  0.00     0.157 A 
ATOM      7  C   UNL A   1      38.384  23.032  26.210  1.00  0.00    -0.021 A 
ATOM      8  C   UNL A   1      38.733  21.687  25.978  1.00  0.00     0.032 A 
ATOM      9  C   UNL A   1      39.363  23.766  26.893  1.00  0.00     0.032 A 
ATOM     10  C   UNL A   1      40.056  21.192  26.259  1.00  0.00     0.085 A 
ATOM     11  C   UNL A   1      40.613  23.248  27.277  1.00  0.00     0.085 A 
ATOM     12  Cl  UNL A   1      40.374  19.519  25.953  1.00  0.00    -0.080 Cl
ATOM     13  Cl  UNL A   1      41.575  24.226  28.334  1.00  0.00    -0.080 Cl
BRANCH   7  14
ATOM     14  C   UNL A   1      37.153  23.705  25.613  1.00  0.00     0.029 C 
ATOM     15  N   UNL A   1      33.542  23.654  26.203  1.00  0.00    -0.259 N 
ATOM     16  C   UNL A   1      33.882  22.596  26.994  1.00  0.00     0.294 C 
ATOM     17  C   UNL A   1      34.599  24.177  25.462  1.00  0.00     0.268 C 
ATOM     18  O   UNL A   1      33.338  22.202  28.009  1.00  0.00    -0.261 OA
ATOM     19  S   UNL A   1      35.265  21.814  26.297  1.00  0.00    -0.022 SA
ATOM     20  C   UNL A   1      35.851  23.327  25.694  1.00  0.00     0.083 C 
ATOM     21  O   UNL A   1      34.561  25.179  24.762  1.00  0.00    -0.268 OA
BRANCH  15  22
ATOM     22  C   UNL A   1      32.278  24.339  26.482  1.00  0.00     0.230 C 
BRANCH  22  23
ATOM     23  C   UNL A   1      31.531  24.796  25.198  1.00  0.00     0.244 C 
ATOM     24  N   UNL A   1      31.717  26.038  24.652  1.00  0.00    -0.325 N 
ATOM     25  H   UNL A   1      31.661  26.067  23.669  1.00  0.00     0.169 HD
ATOM     26  O   UNL A   1      30.753  24.033  24.615  1.00  0.00    -0.273 OA
BRANCH  24  27
ATOM     27  C   UNL A   1      31.974  27.273  25.258  1.00  0.00     0.041 A 
ATOM     28  C   UNL A   1      32.804  31.007  27.247  1.00  0.00     0.044 C 
ATOM     29  C   UNL A   1      32.531  29.686  26.594  1.00  0.00    -0.051 A 
ATOM     30  C   UNL A   1      33.070  29.427  25.332  1.00  0.00     0.005 A 
ATOM     31  C   UNL A   1      31.742  28.708  27.206  1.00  0.00     0.005 A 
ATOM     32  C   UNL A   1      32.803  28.226  24.678  1.00  0.00     0.026 A 
ATOM     33  C   UNL A   1      31.475  27.502  26.546  1.00  0.00     0.026 A 
ENDBRANCH  24  27
ENDBRANCH  22  23
ENDBRANCH  15  22
ENDBRANCH   7  14
ENDBRANCH   5   6
ENDBRANCH   4   5
ENDBRANCH   2   4
ENDBRANCH   1   2
BRANCH   1  34
ATOM     34  C   UNL A   1      45.330  23.329  24.134  1.00  0.00     0.274 C 
BRANCH  34  35
ATOM     35  C   UNL A   1      46.407  24.110  24.889  1.00  0.00     0.275 C 
BRANCH  35  36
ATOM     36  O   UNL A   1      46.294  24.362  26.326  1.00  0.00    -0.458 OA
BRANCH  36  37
ATOM     37  C   UNL A   1      45.578  25.195  27.103  1.00  0.00     0.338 C 
ATOM     38  O   UNL A   1      44.703  25.928  26.664  1.00  0.00    -0.246 OA
BRANCH  37  39
ATOM     39  C   UNL A   1      45.886  25.284  28.541  1.00  0.00     0.060 A 
ATOM     40  C   UNL A   1      44.940  24.097  29.555  1.00  0.00     0.016 A 
ATOM     41  C   UNL A   1      46.369  26.874  29.238  1.00  0.00     0.016 A 
ATOM     42  C   UNL A   1      44.239  24.628  31.128  1.00  0.00     0.010 A 
ATOM     43  C   UNL A   1      45.683  27.375  30.848  1.00  0.00     0.010 A 
ATOM     44  C   UNL A   1      44.533  26.292  31.704  1.00  0.00    -0.014 A 
BRANCH  44  45
ATOM     45  C   UNL A   1      43.427  27.073  32.316  1.00  0.00     0.031 A 
ATOM     46  C   UNL A   1      42.601  27.834  31.375  1.00  0.00     0.074 A 
ATOM     47  C   UNL A   1      43.073  26.982  33.632  1.00  0.00     0.049 A 
ATOM     48  N   UNL A   1      41.975  28.914  31.669  1.00  0.00    -0.248 NA
ATOM     49  C   UNL A   1      42.524  27.503  29.956  1.00  0.00     0.031 C 
ATOM     50  C   UNL A   1      41.795  27.346  34.264  1.00  0.00     0.029 A 
ATOM     51  N   UNL A   1      43.800  26.556  34.731  1.00  0.00    -0.354 N 
ATOM     52  C   UNL A   1      41.145  29.194  30.608  1.00  0.00     0.074 A 
ATOM     53  C   UNL A   1      41.680  28.436  29.513  1.00  0.00     0.031 C 
ATOM     54  C   UNL A   1      41.924  27.340  35.608  1.00  0.00     0.029 A 
ATOM     55  C   UNL A   1      43.313  27.081  35.924  1.00  0.00     0.049 A 
ATOM     56  H   UNL A   1      44.574  25.950  34.673  1.00  0.00     0.167 HD
ATOM     57  C   UNL A   1      39.993  29.877  30.847  1.00  0.00     0.034 A 
ATOM     58  C   UNL A   1      44.102  27.841  36.742  1.00  0.00     0.034 A 
ATOM     59  C   UNL A   1      39.911  30.216  32.271  1.00  0.00     0.049 A 
ATOM     60  C   UNL A   1      43.723  29.306  36.608  1.00  0.00     0.074 A 
ATOM     61  C   UNL A   1      39.219  29.661  33.336  1.00  0.00     0.029 A 
ATOM     62  N   UNL A   1      40.894  31.023  32.823  1.00  0.00    -0.354 N 
ATOM     63  N   UNL A   1      42.900  29.731  35.686  1.00  0.00    -0.248 NA
ATOM     64  C   UNL A   1      44.158  30.392  37.485  1.00  0.00     0.031 C 
ATOM     65  C   UNL A   1      39.856  30.092  34.536  1.00  0.00     0.029 A 
ATOM     66  C   UNL A   1      40.900  30.937  34.199  1.00  0.00     0.049 A 
ATOM     67  H   UNL A   1      41.509  31.586  32.299  1.00  0.00     0.167 HD
ATOM     68  C   UNL A   1      42.672  31.068  35.820  1.00  0.00     0.074 A 
ATOM     69  C   UNL A   1      43.482  31.438  36.970  1.00  0.00     0.031 C 
ATOM     70  C   UNL A   1      41.846  31.742  34.963  1.00  0.00     0.034 A 
BRANCH  57  71
ATOM     71  C   UNL A   1      38.813  30.017  29.910  1.00  0.00     0.023 A 
ATOM     72  C   UNL A   1      38.241  31.299  29.773  1.00  0.00     0.031 A 
ATOM     73  C   UNL A   1      38.183  29.004  29.158  1.00  0.00     0.131 A 
ATOM     74  C   UNL A   1      37.103  31.524  28.979  1.00  0.00     0.055 A 
ATOM     75  C   UNL A   1      37.042  29.225  28.373  1.00  0.00     0.041 A 
ATOM     76  F   UNL A   1      38.635  27.750  29.106  1.00  0.00    -0.206 F 
ATOM     77  C   UNL A   1      36.493  30.491  28.280  1.00  0.00     0.022 A 
BRANCH  74  78
ATOM     78  S   UNL A   1      36.442  33.204  28.879  1.00  0.00     0.124 S 
ATOM     79  O   UNL A   1      35.620  33.280  30.083  1.00  0.00    -0.237 OA
ATOM     80  O   UNL A   1      37.655  34.014  28.869  1.00  0.00    -0.237 OA
ATOM     81  O   UNL A   1      35.695  33.197  27.621  1.00  0.00    -0.744 OA
ENDBRANCH  74  78
ENDBRANCH  57  71
BRANCH  58  82
ATOM     82  C   UNL A   1      45.456  27.230  36.917  1.00  0.00     0.023 A 
ATOM     83  C   UNL A   1      45.474  25.998  37.617  1.00  0.00     0.031 A 
ATOM     84  C   UNL A   1      46.500  27.488  36.020  1.00  0.00     0.131 A 
ATOM     85  C   UNL A   1      46.356  24.976  37.231  1.00  0.00     0.055 A 
ATOM     86  C   UNL A   1      47.438  26.493  35.703  1.00  0.00     0.041 A 
ATOM     87  F   UNL A   1      46.523  28.622  35.305  1.00  0.00    -0.206 F 
ATOM     88  C   UNL A   1      47.333  25.215  36.265  1.00  0.00     0.022 A 
BRANCH  85  89
ATOM     89  S   UNL A   1      45.973  23.268  37.753  1.00  0.00     0.124 S 
ATOM     90  O   UNL A   1      47.301  22.676  37.868  1.00  0.00    -0.237 OA
ATOM     91  O   UNL A   1      45.263  23.459  39.018  1.00  0.00    -0.237 OA
ATOM     92  O   UNL A   1      45.148  22.745  36.670  1.00  0.00    -0.744 OA
ENDBRANCH  85  89
ENDBRANCH  58  82
BRANCH  70  93
ATOM     93  C   UNL A   1      41.811  33.241  34.799  1.00  0.00     0.023 A 
ATOM     94  C   UNL A   1      42.773  33.925  34.057  1.00  0.00     0.031 A 
ATOM     95  C   UNL A   1      40.754  34.037  35.312  1.00  0.00     0.131 A 
ATOM     96  C   UNL A   1      42.764  35.322  33.976  1.00  0.00     0.055 A 
ATOM     97  C   UNL A   1      40.669  35.414  35.104  1.00  0.00     0.041 A 
ATOM     98  F   UNL A   1      39.749  33.519  36.032  1.00  0.00    -0.206 F 
ATOM     99  C   UNL A   1      41.701  36.075  34.464  1.00  0.00     0.022 A 
BRANCH  96 100
ATOM    100  S   UNL A   1      44.259  36.115  33.347  1.00  0.00     0.124 S 
ATOM    101  O   UNL A   1      44.332  37.310  34.184  1.00  0.00    -0.237 OA
ATOM    102  O   UNL A   1      45.281  35.105  33.599  1.00  0.00    -0.237 OA
ATOM    103  O   UNL A   1      43.951  36.357  31.939  1.00  0.00    -0.744 OA
ENDBRANCH  96 100
ENDBRANCH  70  93
ENDBRANCH  44  45
ENDBRANCH  37  39
ENDBRANCH  36  37
ENDBRANCH  35  36
ENDBRANCH  34  35
ENDBRANCH   1  34
TORSDOF 20
ENDMDL
MODEL 3
REMARK VINA RESULT:     -11.7      4.700     10.242
REMARK SMILES Cc1ccc(NC(=O)CN2C(=O)S/C(=C\c3cc(Cl)c(OCC(=O)OCCOC(=O)c4ccc(-c5c6nc(c(-c7cc(S(=O)(=O)[O-])ccc7F)c7ccc([nH]7)c(-c7cc(S(=O)(=O)[O-])ccc7F)c7nc(c(-c8cc(S(=O)(=O)[O-])ccc8F)c8ccc5[nH]8)C=C7)C=C6)cc4)c(Cl)c3)C2=O)cc1
REMARK SMILES IDX 25 1 23 2 24 3 22 4 21 5 20 6 16 7 17 8 96 9 18 10 94 11
REMARK SMILES IDX 19 12 95 13 15 14 10 15 11 16 97 17 12 18 13 19 14 20 98 21
REMARK SMILES IDX 9 22 7 23 6 24 8 26 5 27 1 28 2 29 3 30 100 31 4 32 99 33
REMARK SMILES IDX 26 34 27 35 28 36 29 37 30 38 31 39 32 40 93 41 33 42 92 43
REMARK SMILES IDX 34 44 35 45 36 46 86 47 37 48 91 49 85 50 87 51 38 52 90 53
REMARK SMILES IDX 84 54 83 55 39 57 71 58 51 59 70 60 52 61 55 62 69 63 88 64
REMARK SMILES IDX 53 65 54 66 68 68 89 69 56 70 40 71 41 72 49 73 42 74 48 75
REMARK SMILES IDX 50 76 47 77 43 78 44 79 45 80 46 81 72 82 73 83 81 84 74 85
REMARK SMILES IDX 80 86 82 87 79 88 75 89 76 90 77 91 78 92 57 93 58 94 66 95
REMARK SMILES IDX 59 96 65 97 67 98 64 99 60 100 61 101 62 102 63 103
REMARK H PARENT 6 25 87 56 55 67
REMARK Flexibility Score: inf
ROOT
ATOM      1  O   UNL A   1      45.463  22.970  24.379  1.00  0.00    -0.460 OA
ENDROOT
BRANCH   1   2
ATOM      2  C   UNL A   1      45.253  21.740  25.099  1.00  0.00     0.344 C 
ATOM      3  O   UNL A   1      46.398  21.281  25.317  1.00  0.00    -0.248 OA
BRANCH   2   4
ATOM      4  C   UNL A   1      43.278  21.058  25.780  1.00  0.00     0.352 C 
BRANCH   4   5
ATOM      5  O   UNL A   1      42.184  21.369  26.914  1.00  0.00    -0.479 OA
BRANCH   5   6
ATOM      6  C   UNL A   1      40.841  21.653  26.740  1.00  0.00     0.157 A 
ATOM      7  C   UNL A   1      38.224  22.717  26.018  1.00  0.00    -0.021 A 
ATOM      8  C   UNL A   1      38.578  21.380  25.755  1.00  0.00     0.032 A 
ATOM      9  C   UNL A   1      39.160  23.412  26.795  1.00  0.00     0.032 A 
ATOM     10  C   UNL A   1      39.875  20.860  26.103  1.00  0.00     0.085 A 
ATOM     11  C   UNL A   1      40.377  22.866  27.240  1.00  0.00     0.085 A 
ATOM     12  Cl  UNL A   1      40.200  19.198  25.749  1.00  0.00    -0.080 Cl
ATOM     13  Cl  UNL A   1      41.273  23.791  28.400  1.00  0.00    -0.080 Cl
BRANCH   7  14
ATOM     14  C   UNL A   1      37.042  23.427  25.367  1.00  0.00     0.029 C 
ATOM     15  N   UNL A   1      33.436  23.668  25.946  1.00  0.00    -0.259 N 
ATOM     16  C   UNL A   1      33.703  22.650  26.815  1.00  0.00     0.294 C 
ATOM     17  C   UNL A   1      34.526  24.060  25.172  1.00  0.00     0.268 C 
ATOM     18  O   UNL A   1      33.135  22.371  27.854  1.00  0.00    -0.261 OA
ATOM     19  S   UNL A   1      35.029  21.726  26.183  1.00  0.00    -0.022 SA
ATOM     20  C   UNL A   1      35.717  23.146  25.471  1.00  0.00     0.083 C 
ATOM     21  O   UNL A   1      34.556  25.008  24.399  1.00  0.00    -0.268 OA
BRANCH  15  22
ATOM     22  C   UNL A   1      32.223  24.456  26.168  1.00  0.00     0.230 C 
BRANCH  22  23
ATOM     23  C   UNL A   1      30.948  23.804  25.565  1.00  0.00     0.244 C 
ATOM     24  N   UNL A   1      30.371  24.265  24.411  1.00  0.00    -0.325 N 
ATOM     25  H   UNL A   1      29.961  23.568  23.849  1.00  0.00     0.169 HD
ATOM     26  O   UNL A   1      30.423  22.825  26.106  1.00  0.00    -0.273 OA
BRANCH  24  27
ATOM     27  C   UNL A   1      30.269  25.563  23.896  1.00  0.00     0.041 A 
ATOM     28  C   UNL A   1      29.991  29.507  22.179  1.00  0.00     0.044 C 
ATOM     29  C   UNL A   1      30.097  28.119  22.732  1.00  0.00    -0.051 A 
ATOM     30  C   UNL A   1      29.047  27.612  23.501  1.00  0.00     0.005 A 
ATOM     31  C   UNL A   1      31.222  27.319  22.512  1.00  0.00     0.005 A 
ATOM     32  C   UNL A   1      29.129  26.340  24.066  1.00  0.00     0.026 A 
ATOM     33  C   UNL A   1      31.302  26.042  23.081  1.00  0.00     0.026 A 
ENDBRANCH  24  27
ENDBRANCH  22  23
ENDBRANCH  15  22
ENDBRANCH   7  14
ENDBRANCH   5   6
ENDBRANCH   4   5
ENDBRANCH   2   4
ENDBRANCH   1   2
BRANCH   1  34
ATOM     34  C   UNL A   1      44.984  24.166  25.007  1.00  0.00     0.274 C 
BRANCH  34  35
ATOM     35  C   UNL A   1      43.474  24.276  24.787  1.00  0.00     0.275 C 
BRANCH  35  36
ATOM     36  O   UNL A   1      42.851  25.552  24.435  1.00  0.00    -0.458 OA
BRANCH  36  37
ATOM     37  C   UNL A   1      42.505  26.670  25.099  1.00  0.00     0.338 C 
ATOM     38  O   UNL A   1      42.687  27.793  24.652  1.00  0.00    -0.246 OA
BRANCH  37  39
ATOM     39  C   UNL A   1      41.929  26.557  26.451  1.00  0.00     0.060 A 
ATOM     40  C   UNL A   1      40.402  27.534  26.667  1.00  0.00     0.016 A 
ATOM     41  C   UNL A   1      43.029  26.287  27.852  1.00  0.00     0.016 A 
ATOM     42  C   UNL A   1      40.150  28.469  28.187  1.00  0.00     0.010 A 
ATOM     43  C   UNL A   1      42.733  27.209  29.394  1.00  0.00     0.010 A 
ATOM     44  C   UNL A   1      41.370  28.376  29.488  1.00  0.00    -0.014 A 
BRANCH  44  45
ATOM     45  C   UNL A   1      41.777  29.606  30.215  1.00  0.00     0.031 A 
ATOM     46  C   UNL A   1      40.676  30.434  30.714  1.00  0.00     0.074 A 
ATOM     47  C   UNL A   1      43.069  29.892  30.556  1.00  0.00     0.049 A 
ATOM     48  N   UNL A   1      40.744  31.703  30.889  1.00  0.00    -0.248 NA
ATOM     49  C   UNL A   1      39.334  29.904  30.931  1.00  0.00     0.031 C 
ATOM     50  C   UNL A   1      43.559  30.809  31.597  1.00  0.00     0.029 A 
ATOM     51  N   UNL A   1      44.261  29.435  30.023  1.00  0.00    -0.354 N 
ATOM     52  C   UNL A   1      39.608  32.072  31.572  1.00  0.00     0.074 A 
ATOM     53  C   UNL A   1      38.692  30.985  31.375  1.00  0.00     0.031 C 
ATOM     54  C   UNL A   1      44.889  30.999  31.459  1.00  0.00     0.029 A 
ATOM     55  C   UNL A   1      45.317  30.309  30.261  1.00  0.00     0.049 A 
ATOM     56  H   UNL A   1      44.351  28.587  29.530  1.00  0.00     0.167 HD
ATOM     57  C   UNL A   1      39.664  33.162  32.384  1.00  0.00     0.034 A 
ATOM     58  C   UNL A   1      46.031  30.859  29.233  1.00  0.00     0.034 A 
ATOM     59  C   UNL A   1      41.001  33.759  32.311  1.00  0.00     0.049 A 
ATOM     60  C   UNL A   1      45.625  32.311  29.042  1.00  0.00     0.074 A 
ATOM     61  C   UNL A   1      42.107  33.700  33.143  1.00  0.00     0.029 A 
ATOM     62  N   UNL A   1      41.454  34.233  31.090  1.00  0.00    -0.354 N 
ATOM     63  N   UNL A   1      44.601  32.835  29.663  1.00  0.00    -0.248 NA
ATOM     64  C   UNL A   1      46.322  33.299  28.221  1.00  0.00     0.031 C 
ATOM     65  C   UNL A   1      43.247  34.077  32.372  1.00  0.00     0.029 A 
ATOM     66  C   UNL A   1      42.823  34.402  31.095  1.00  0.00     0.049 A 
ATOM     67  H   UNL A   1      40.874  34.425  30.319  1.00  0.00     0.167 HD
ATOM     68  C   UNL A   1      44.488  34.162  29.375  1.00  0.00     0.074 A 
ATOM     69  C   UNL A   1      45.597  34.409  28.468  1.00  0.00     0.031 C 
ATOM     70  C   UNL A   1      43.484  34.925  29.906  1.00  0.00     0.034 A 
BRANCH  57  71
ATOM     71  C   UNL A   1      38.655  33.554  33.442  1.00  0.00     0.023 A 
ATOM     72  C   UNL A   1      38.860  33.063  34.749  1.00  0.00     0.031 A 
ATOM     73  C   UNL A   1      37.499  34.345  33.282  1.00  0.00     0.131 A 
ATOM     74  C   UNL A   1      37.950  33.314  35.789  1.00  0.00     0.055 A 
ATOM     75  C   UNL A   1      36.583  34.589  34.317  1.00  0.00     0.041 A 
ATOM     76  F   UNL A   1      37.188  34.954  32.137  1.00  0.00    -0.206 F 
ATOM     77  C   UNL A   1      36.804  34.072  35.580  1.00  0.00     0.022 A 
BRANCH  74  78
ATOM     78  S   UNL A   1      38.300  32.629  37.425  1.00  0.00     0.124 S 
ATOM     79  O   UNL A   1      37.402  31.480  37.473  1.00  0.00    -0.237 OA
ATOM     80  O   UNL A   1      39.727  32.335  37.338  1.00  0.00    -0.237 OA
ATOM     81  O   UNL A   1      37.951  33.724  38.330  1.00  0.00    -0.744 OA
ENDBRANCH  74  78
ENDBRANCH  57  71
BRANCH  58  82
ATOM     82  C   UNL A   1      46.382  29.836  28.200  1.00  0.00     0.023 A 
ATOM     83  C   UNL A   1      47.036  28.681  28.696  1.00  0.00     0.031 A 
ATOM     84  C   UNL A   1      45.654  29.714  27.009  1.00  0.00     0.131 A 
ATOM     85  C   UNL A   1      46.750  27.417  28.156  1.00  0.00     0.055 A 
ATOM     86  C   UNL A   1      45.444  28.458  26.420  1.00  0.00     0.041 A 
ATOM     87  F   UNL A   1      44.986  30.763  26.506  1.00  0.00    -0.206 F 
ATOM     88  C   UNL A   1      45.944  27.298  27.025  1.00  0.00     0.022 A 
BRANCH  85  89
ATOM     89  S   UNL A   1      47.157  25.944  29.158  1.00  0.00     0.124 S 
ATOM     90  O   UNL A   1      45.944  25.763  29.947  1.00  0.00    -0.237 OA
ATOM     91  O   UNL A   1      47.403  24.915  28.148  1.00  0.00    -0.237 OA
ATOM     92  O   UNL A   1      48.339  26.345  29.911  1.00  0.00    -0.744 OA
ENDBRANCH  85  89
ENDBRANCH  58  82
BRANCH  70  93
ATOM     93  C   UNL A   1      43.060  36.276  29.384  1.00  0.00     0.023 A 
ATOM     94  C   UNL A   1      43.584  37.463  29.895  1.00  0.00     0.031 A 
ATOM     95  C   UNL A   1      42.174  36.422  28.286  1.00  0.00     0.131 A 
ATOM     96  C   UNL A   1      43.126  38.707  29.448  1.00  0.00     0.055 A 
ATOM     97  C   UNL A   1      41.832  37.661  27.743  1.00  0.00     0.041 A 
ATOM     98  F   UNL A   1      41.602  35.371  27.679  1.00  0.00    -0.206 F 
ATOM     99  C   UNL A   1      42.278  38.821  28.350  1.00  0.00     0.022 A 
BRANCH  96 100
ATOM    100  S   UNL A   1      43.562  40.147  30.445  1.00  0.00     0.124 S 
ATOM    101  O   UNL A   1      44.205  41.007  29.454  1.00  0.00    -0.237 OA
ATOM    102  O   UNL A   1      42.262  40.601  30.926  1.00  0.00    -0.237 OA
ATOM    103  O   UNL A   1      44.451  39.600  31.466  1.00  0.00    -0.744 OA
ENDBRANCH  96 100
ENDBRANCH  70  93
ENDBRANCH  44  45
ENDBRANCH  37  39
ENDBRANCH  36  37
ENDBRANCH  35  36
ENDBRANCH  34  35
ENDBRANCH   1  34
TORSDOF 20
ENDMDL
