MODEL 1
REMARK VINA RESULT:     -11.5      0.000      0.000
REMARK SMILES O=C(CCN1C(=O)/C(=C\c2ccc(-c3cccc(Cl)c3)o2)SC1=S)OCCOC(=O)c1ccc(-c2c3nc(c(-c4cc(S(=O)(=O)[O-])ccc4F)c4ccc([nH]4)c(-c4cc(S(=O)(=O)[O-])ccc4F)c4nc(c(-c5cc(S(=O)(=O)[O-])ccc5F)c5ccc2[nH]5)C=C4)C=C3)cc1
REMARK SMILES IDX 26 1 25 2 2 3 1 4 3 5 4 6 5 7 6 8 23 9 7 10 8 11 22 12 24 13
REMARK SMILES IDX 9 14 10 15 11 16 21 17 12 18 13 19 14 20 15 21 20 22 16 23
REMARK SMILES IDX 18 24 17 25 19 26 27 27 28 28 29 29 30 30 31 31 32 32 93 33
REMARK SMILES IDX 33 34 92 35 34 36 35 37 36 38 86 39 37 40 91 41 85 42 87 43
REMARK SMILES IDX 38 44 90 45 84 46 83 47 39 49 71 50 51 51 70 52 52 53 55 54
REMARK SMILES IDX 69 55 88 56 53 57 54 58 68 60 89 61 56 62 40 63 41 64 49 65
REMARK SMILES IDX 42 66 48 67 50 68 47 69 43 70 44 71 45 72 46 73 72 74 73 75
REMARK SMILES IDX 81 76 74 77 80 78 82 79 79 80 75 81 76 82 77 83 78 84 57 85
REMARK SMILES IDX 58 86 66 87 59 88 65 89 67 90 64 91 60 92 61 93 62 94 63 95
REMARK H PARENT 87 48 55 59
REMARK Flexibility Score: inf
ROOT
ATOM      1  C   UNL A   1      37.735  20.053  24.958  1.00  0.00     0.274 C 
ENDROOT
BRANCH   1   2
ATOM      2  O   UNL A   1      38.005  21.465  24.957  1.00  0.00    -0.462 OA
BRANCH   2   3
ATOM      3  C   UNL A   1      37.111  22.333  24.418  1.00  0.00     0.307 C 
ATOM      4  O   UNL A   1      36.858  22.310  23.217  1.00  0.00    -0.252 OA
BRANCH   3   5
ATOM      5  C   UNL A   1      36.537  23.395  25.324  1.00  0.00     0.144 C 
BRANCH   5   6
ATOM      6  C   UNL A   1      35.144  23.042  25.852  1.00  0.00     0.139 C 
BRANCH   6   7
ATOM      7  N   UNL A   1      34.146  22.834  24.788  1.00  0.00    -0.292 N 
ATOM      8  C   UNL A   1      33.748  23.923  24.021  1.00  0.00     0.266 C 
ATOM      9  C   UNL A   1      33.605  21.615  24.437  1.00  0.00     0.148 C 
ATOM     10  O   UNL A   1      34.269  25.027  24.040  1.00  0.00    -0.268 OA
ATOM     11  C   UNL A   1      32.556  23.563  23.201  1.00  0.00     0.084 C 
ATOM     12  S   UNL A   1      32.429  21.839  23.144  1.00  0.00    -0.054 SA
ATOM     13  S   UNL A   1      33.923  20.108  25.069  1.00  0.00    -0.052 S 
ATOM     14  C   UNL A   1      31.591  24.355  22.709  1.00  0.00     0.068 C 
BRANCH  14  15
ATOM     15  C   UNL A   1      31.513  25.767  22.869  1.00  0.00     0.128 A 
ATOM     16  C   UNL A   1      31.070  26.758  22.003  1.00  0.00     0.051 A 
ATOM     17  O   UNL A   1      31.864  26.387  24.056  1.00  0.00    -0.457 OA
ATOM     18  C   UNL A   1      31.163  28.000  22.671  1.00  0.00     0.051 A 
ATOM     19  C   UNL A   1      31.667  27.730  23.921  1.00  0.00     0.134 A 
BRANCH  19  20
ATOM     20  C   UNL A   1      32.026  28.573  25.054  1.00  0.00     0.019 A 
ATOM     21  C   UNL A   1      32.787  28.049  26.108  1.00  0.00     0.012 A 
ATOM     22  C   UNL A   1      31.551  29.887  25.156  1.00  0.00     0.032 A 
ATOM     23  C   UNL A   1      33.052  28.813  27.249  1.00  0.00     0.002 A 
ATOM     24  C   UNL A   1      31.799  30.640  26.305  1.00  0.00     0.041 A 
ATOM     25  C   UNL A   1      32.546  30.106  27.353  1.00  0.00     0.020 A 
ATOM     26  Cl  UNL A   1      31.161  32.231  26.439  1.00  0.00    -0.084 Cl
ENDBRANCH  19  20
ENDBRANCH  14  15
ENDBRANCH   6   7
ENDBRANCH   5   6
ENDBRANCH   3   5
ENDBRANCH   2   3
ENDBRANCH   1   2
BRANCH   1  27
ATOM     27  C   UNL A   1      38.928  19.199  25.382  1.00  0.00     0.275 C 
BRANCH  27  28
ATOM     28  O   UNL A   1      39.512  19.685  26.592  1.00  0.00    -0.458 OA
BRANCH  28  29
ATOM     29  C   UNL A   1      40.840  19.940  26.483  1.00  0.00     0.338 C 
ATOM     30  O   UNL A   1      41.679  19.201  26.002  1.00  0.00    -0.246 OA
BRANCH  29  31
ATOM     31  C   UNL A   1      41.108  21.342  26.861  1.00  0.00     0.060 A 
ATOM     32  C   UNL A   1      40.731  22.322  25.936  1.00  0.00     0.016 A 
ATOM     33  C   UNL A   1      41.716  21.705  28.069  1.00  0.00     0.016 A 
ATOM     34  C   UNL A   1      41.019  23.660  26.185  1.00  0.00     0.010 A 
ATOM     35  C   UNL A   1      42.000  23.052  28.319  1.00  0.00     0.010 A 
ATOM     36  C   UNL A   1      41.689  24.027  27.358  1.00  0.00    -0.014 A 
BRANCH  36  37
ATOM     37  C   UNL A   1      42.199  25.414  27.473  1.00  0.00     0.031 A 
ATOM     38  C   UNL A   1      41.391  26.417  28.250  1.00  0.00     0.074 A 
ATOM     39  C   UNL A   1      43.400  25.747  26.969  1.00  0.00     0.049 A 
ATOM     40  N   UNL A   1      41.687  27.647  28.576  1.00  0.00    -0.248 NA
ATOM     41  C   UNL A   1      40.072  25.968  28.724  1.00  0.00     0.031 C 
ATOM     42  C   UNL A   1      44.279  24.848  26.220  1.00  0.00     0.029 A 
ATOM     43  N   UNL A   1      44.092  26.929  27.022  1.00  0.00    -0.354 N 
ATOM     44  C   UNL A   1      40.604  28.114  29.312  1.00  0.00     0.074 A 
ATOM     45  C   UNL A   1      39.620  27.053  29.332  1.00  0.00     0.031 C 
ATOM     46  C   UNL A   1      45.398  25.513  25.887  1.00  0.00     0.029 A 
ATOM     47  C   UNL A   1      45.309  26.885  26.383  1.00  0.00     0.049 A 
ATOM     48  H   UNL A   1      43.751  27.733  27.476  1.00  0.00     0.167 HD
ATOM     49  C   UNL A   1      40.453  29.309  29.934  1.00  0.00     0.034 A 
ATOM     50  C   UNL A   1      46.241  27.847  26.218  1.00  0.00     0.034 A 
ATOM     51  C   UNL A   1      41.432  30.367  29.885  1.00  0.00     0.049 A 
ATOM     52  C   UNL A   1      46.014  29.200  26.848  1.00  0.00     0.074 A 
ATOM     53  C   UNL A   1      41.389  31.612  30.485  1.00  0.00     0.029 A 
ATOM     54  N   UNL A   1      42.627  30.309  29.179  1.00  0.00    -0.354 N 
ATOM     55  N   UNL A   1      45.002  29.615  27.576  1.00  0.00    -0.248 NA
ATOM     56  C   UNL A   1      47.062  30.208  26.646  1.00  0.00     0.031 C 
ATOM     57  C   UNL A   1      42.522  32.331  30.086  1.00  0.00     0.029 A 
ATOM     58  C   UNL A   1      43.310  31.509  29.296  1.00  0.00     0.049 A 
ATOM     59  H   UNL A   1      42.942  29.528  28.668  1.00  0.00     0.167 HD
ATOM     60  C   UNL A   1      45.310  30.921  27.946  1.00  0.00     0.074 A 
ATOM     61  C   UNL A   1      46.605  31.221  27.368  1.00  0.00     0.031 C 
ATOM     62  C   UNL A   1      44.594  31.795  28.700  1.00  0.00     0.034 A 
BRANCH  49  63
ATOM     63  C   UNL A   1      39.159  29.538  30.676  1.00  0.00     0.023 A 
ATOM     64  C   UNL A   1      38.135  30.339  30.141  1.00  0.00     0.031 A 
ATOM     65  C   UNL A   1      38.965  28.985  31.954  1.00  0.00     0.131 A 
ATOM     66  C   UNL A   1      36.994  30.623  30.909  1.00  0.00     0.055 A 
ATOM     67  C   UNL A   1      37.795  29.210  32.682  1.00  0.00     0.041 A 
ATOM     68  F   UNL A   1      39.918  28.233  32.525  1.00  0.00    -0.206 F 
ATOM     69  C   UNL A   1      36.808  30.045  32.167  1.00  0.00     0.022 A 
BRANCH  66  70
ATOM     70  S   UNL A   1      35.828  31.872  30.302  1.00  0.00     0.124 S 
ATOM     71  O   UNL A   1      36.712  33.009  30.057  1.00  0.00    -0.237 OA
ATOM     72  O   UNL A   1      35.266  31.231  29.119  1.00  0.00    -0.237 OA
ATOM     73  O   UNL A   1      34.900  32.045  31.419  1.00  0.00    -0.744 OA
ENDBRANCH  66  70
ENDBRANCH  49  63
BRANCH  50  74
ATOM     74  C   UNL A   1      47.462  27.582  25.406  1.00  0.00     0.023 A 
ATOM     75  C   UNL A   1      47.469  27.768  24.015  1.00  0.00     0.031 A 
ATOM     76  C   UNL A   1      48.628  27.080  26.011  1.00  0.00     0.131 A 
ATOM     77  C   UNL A   1      48.603  27.409  23.269  1.00  0.00     0.055 A 
ATOM     78  C   UNL A   1      49.770  26.770  25.271  1.00  0.00     0.041 A 
ATOM     79  F   UNL A   1      48.673  26.884  27.340  1.00  0.00    -0.206 F 
ATOM     80  C   UNL A   1      49.756  26.921  23.889  1.00  0.00     0.022 A 
BRANCH  77  81
ATOM     81  S   UNL A   1      48.521  27.508  21.459  1.00  0.00     0.124 S 
ATOM     82  O   UNL A   1      47.204  28.101  21.254  1.00  0.00    -0.237 OA
ATOM     83  O   UNL A   1      49.664  28.360  21.150  1.00  0.00    -0.237 OA
ATOM     84  O   UNL A   1      48.651  26.115  21.036  1.00  0.00    -0.744 OA
ENDBRANCH  77  81
ENDBRANCH  50  74
BRANCH  62  85
ATOM     85  C   UNL A   1      45.220  33.140  28.973  1.00  0.00     0.023 A 
ATOM     86  C   UNL A   1      44.929  34.265  28.181  1.00  0.00     0.031 A 
ATOM     87  C   UNL A   1      46.126  33.296  30.038  1.00  0.00     0.131 A 
ATOM     88  C   UNL A   1      45.576  35.484  28.436  1.00  0.00     0.055 A 
ATOM     89  C   UNL A   1      46.723  34.524  30.320  1.00  0.00     0.041 A 
ATOM     90  F   UNL A   1      46.439  32.253  30.825  1.00  0.00    -0.206 F 
ATOM     91  C   UNL A   1      46.460  35.624  29.510  1.00  0.00     0.022 A 
BRANCH  88  92
ATOM     92  S   UNL A   1      45.310  36.867  27.294  1.00  0.00     0.124 S 
ATOM     93  O   UNL A   1      43.976  36.581  26.774  1.00  0.00    -0.237 OA
ATOM     94  O   UNL A   1      45.416  38.025  28.175  1.00  0.00    -0.237 OA
ATOM     95  O   UNL A   1      46.396  36.727  26.324  1.00  0.00    -0.744 OA
ENDBRANCH  88  92
ENDBRANCH  62  85
ENDBRANCH  36  37
ENDBRANCH  29  31
ENDBRANCH  28  29
ENDBRANCH  27  28
ENDBRANCH   1  27
TORSDOF 18
ENDMDL
MODEL 2
REMARK VINA RESULT:     -11.4      1.608      7.531
REMARK SMILES O=C(CCN1C(=O)/C(=C\c2ccc(-c3cccc(Cl)c3)o2)SC1=S)OCCOC(=O)c1ccc(-c2c3nc(c(-c4cc(S(=O)(=O)[O-])ccc4F)c4ccc([nH]4)c(-c4cc(S(=O)(=O)[O-])ccc4F)c4nc(c(-c5cc(S(=O)(=O)[O-])ccc5F)c5ccc2[nH]5)C=C4)C=C3)cc1
REMARK SMILES IDX 26 1 25 2 2 3 1 4 3 5 4 6 5 7 6 8 23 9 7 10 8 11 22 12 24 13
REMARK SMILES IDX 9 14 10 15 11 16 21 17 12 18 13 19 14 20 15 21 20 22 16 23
REMARK SMILES IDX 18 24 17 25 19 26 27 27 28 28 29 29 30 30 31 31 32 32 93 33
REMARK SMILES IDX 33 34 92 35 34 36 35 37 36 38 86 39 37 40 91 41 85 42 87 43
REMARK SMILES IDX 38 44 90 45 84 46 83 47 39 49 71 50 51 51 70 52 52 53 55 54
REMARK SMILES IDX 69 55 88 56 53 57 54 58 68 60 89 61 56 62 40 63 41 64 49 65
REMARK SMILES IDX 42 66 48 67 50 68 47 69 43 70 44 71 45 72 46 73 72 74 73 75
REMARK SMILES IDX 81 76 74 77 80 78 82 79 79 80 75 81 76 82 77 83 78 84 57 85
REMARK SMILES IDX 58 86 66 87 59 88 65 89 67 90 64 91 60 92 61 93 62 94 63 95
REMARK H PARENT 87 48 55 59
REMARK Flexibility Score: inf
ROOT
ATOM      1  C   UNL A   1      38.029  20.208  25.036  1.00  0.00     0.274 C 
ENDROOT
BRANCH   1   2
ATOM      2  O   UNL A   1      38.087  21.641  24.931  1.00  0.00    -0.462 OA
BRANCH   2   3
ATOM      3  C   UNL A   1      36.980  22.348  24.585  1.00  0.00     0.307 C 
ATOM      4  O   UNL A   1      36.668  22.488  23.407  1.00  0.00    -0.252 OA
BRANCH   3   5
ATOM      5  C   UNL A   1      36.227  23.048  25.689  1.00  0.00     0.144 C 
BRANCH   5   6
ATOM      6  C   UNL A   1      35.019  22.251  26.187  1.00  0.00     0.139 C 
BRANCH   6   7
ATOM      7  N   UNL A   1      33.986  22.042  25.158  1.00  0.00    -0.292 N 
ATOM      8  C   UNL A   1      33.275  23.140  24.688  1.00  0.00     0.266 C 
ATOM      9  C   UNL A   1      33.697  20.832  24.560  1.00  0.00     0.148 C 
ATOM     10  O   UNL A   1      33.535  24.307  24.937  1.00  0.00    -0.268 OA
ATOM     11  C   UNL A   1      32.114  22.688  23.869  1.00  0.00     0.084 C 
ATOM     12  S   UNL A   1      32.371  21.038  23.417  1.00  0.00    -0.054 SA
ATOM     13  S   UNL A   1      34.410  19.347  24.804  1.00  0.00    -0.052 S 
ATOM     14  C   UNL A   1      30.950  23.309  23.627  1.00  0.00     0.068 C 
BRANCH  14  15
ATOM     15  C   UNL A   1      30.576  24.591  24.116  1.00  0.00     0.128 A 
ATOM     16  C   UNL A   1      30.348  25.041  25.410  1.00  0.00     0.051 A 
ATOM     17  O   UNL A   1      30.422  25.678  23.272  1.00  0.00    -0.457 OA
ATOM     18  C   UNL A   1      30.042  26.420  25.350  1.00  0.00     0.051 A 
ATOM     19  C   UNL A   1      30.085  26.768  24.020  1.00  0.00     0.134 A 
BRANCH  19  20
ATOM     20  C   UNL A   1      29.830  28.013  23.308  1.00  0.00     0.019 A 
ATOM     21  C   UNL A   1      30.717  28.448  22.313  1.00  0.00     0.012 A 
ATOM     22  C   UNL A   1      28.753  28.838  23.656  1.00  0.00     0.032 A 
ATOM     23  C   UNL A   1      30.544  29.689  21.692  1.00  0.00     0.002 A 
ATOM     24  C   UNL A   1      28.595  30.085  23.050  1.00  0.00     0.041 A 
ATOM     25  C   UNL A   1      29.489  30.515  22.071  1.00  0.00     0.020 A 
ATOM     26  Cl  UNL A   1      27.300  31.110  23.529  1.00  0.00    -0.084 Cl
ENDBRANCH  19  20
ENDBRANCH  14  15
ENDBRANCH   6   7
ENDBRANCH   5   6
ENDBRANCH   3   5
ENDBRANCH   2   3
ENDBRANCH   1   2
BRANCH   1  27
ATOM     27  C   UNL A   1      39.366  19.563  25.390  1.00  0.00     0.275 C 
BRANCH  27  28
ATOM     28  O   UNL A   1      39.935  20.152  26.561  1.00  0.00    -0.458 OA
BRANCH  28  29
ATOM     29  C   UNL A   1      41.191  20.627  26.369  1.00  0.00     0.338 C 
ATOM     30  O   UNL A   1      42.056  20.119  25.679  1.00  0.00    -0.246 OA
BRANCH  29  31
ATOM     31  C   UNL A   1      41.310  21.970  26.969  1.00  0.00     0.060 A 
ATOM     32  C   UNL A   1      40.921  23.050  26.170  1.00  0.00     0.016 A 
ATOM     33  C   UNL A   1      41.794  22.187  28.265  1.00  0.00     0.016 A 
ATOM     34  C   UNL A   1      41.075  24.351  26.635  1.00  0.00     0.010 A 
ATOM     35  C   UNL A   1      41.944  23.497  28.734  1.00  0.00     0.010 A 
ATOM     36  C   UNL A   1      41.623  24.582  27.903  1.00  0.00    -0.014 A 
BRANCH  36  37
ATOM     37  C   UNL A   1      42.003  25.969  28.263  1.00  0.00     0.031 A 
ATOM     38  C   UNL A   1      43.392  26.444  27.936  1.00  0.00     0.074 A 
ATOM     39  C   UNL A   1      41.098  26.812  28.791  1.00  0.00     0.049 A 
ATOM     40  N   UNL A   1      43.910  27.639  28.054  1.00  0.00    -0.248 NA
ATOM     41  C   UNL A   1      44.319  25.435  27.401  1.00  0.00     0.031 C 
ATOM     42  C   UNL A   1      39.717  26.466  29.125  1.00  0.00     0.029 A 
ATOM     43  N   UNL A   1      41.205  28.138  29.126  1.00  0.00    -0.354 N 
ATOM     44  C   UNL A   1      45.215  27.532  27.588  1.00  0.00     0.074 A 
ATOM     45  C   UNL A   1      45.426  26.142  27.243  1.00  0.00     0.031 C 
ATOM     46  C   UNL A   1      39.102  27.556  29.615  1.00  0.00     0.029 A 
ATOM     47  C   UNL A   1      40.048  28.670  29.645  1.00  0.00     0.049 A 
ATOM     48  H   UNL A   1      42.031  28.659  29.006  1.00  0.00     0.167 HD
ATOM     49  C   UNL A   1      46.145  28.507  27.440  1.00  0.00     0.034 A 
ATOM     50  C   UNL A   1      39.787  29.915  30.092  1.00  0.00     0.034 A 
ATOM     51  C   UNL A   1      45.929  29.883  27.812  1.00  0.00     0.049 A 
ATOM     52  C   UNL A   1      40.866  30.967  29.998  1.00  0.00     0.074 A 
ATOM     53  C   UNL A   1      46.795  30.956  27.697  1.00  0.00     0.029 A 
ATOM     54  N   UNL A   1      44.764  30.375  28.390  1.00  0.00    -0.354 N 
ATOM     55  N   UNL A   1      42.085  30.862  29.517  1.00  0.00    -0.248 NA
ATOM     56  C   UNL A   1      40.529  32.308  30.491  1.00  0.00     0.031 C 
ATOM     57  C   UNL A   1      46.182  32.078  28.267  1.00  0.00     0.029 A 
ATOM     58  C   UNL A   1      44.904  31.724  28.672  1.00  0.00     0.049 A 
ATOM     59  H   UNL A   1      43.958  29.841  28.573  1.00  0.00     0.167 HD
ATOM     60  C   UNL A   1      42.646  32.132  29.621  1.00  0.00     0.074 A 
ATOM     61  C   UNL A   1      41.629  32.987  30.200  1.00  0.00     0.031 C 
ATOM     62  C   UNL A   1      43.885  32.558  29.263  1.00  0.00     0.034 A 
BRANCH  49  63
ATOM     63  C   UNL A   1      47.491  28.095  26.895  1.00  0.00     0.023 A 
ATOM     64  C   UNL A   1      47.734  28.021  25.512  1.00  0.00     0.031 A 
ATOM     65  C   UNL A   1      48.530  27.731  27.768  1.00  0.00     0.131 A 
ATOM     66  C   UNL A   1      48.961  27.524  25.043  1.00  0.00     0.055 A 
ATOM     67  C   UNL A   1      49.774  27.308  27.295  1.00  0.00     0.041 A 
ATOM     68  F   UNL A   1      48.347  27.758  29.098  1.00  0.00    -0.206 F 
ATOM     69  C   UNL A   1      49.990  27.189  25.925  1.00  0.00     0.022 A 
BRANCH  66  70
ATOM     70  S   UNL A   1      49.139  27.185  23.270  1.00  0.00     0.124 S 
ATOM     71  O   UNL A   1      50.591  27.193  23.111  1.00  0.00    -0.237 OA
ATOM     72  O   UNL A   1      48.485  25.889  23.130  1.00  0.00    -0.237 OA
ATOM     73  O   UNL A   1      48.445  28.305  22.636  1.00  0.00    -0.744 OA
ENDBRANCH  66  70
ENDBRANCH  49  63
BRANCH  50  74
ATOM     74  C   UNL A   1      38.463  30.239  30.694  1.00  0.00     0.023 A 
ATOM     75  C   UNL A   1      37.498  30.971  29.985  1.00  0.00     0.031 A 
ATOM     76  C   UNL A   1      38.168  29.864  32.017  1.00  0.00     0.131 A 
ATOM     77  C   UNL A   1      36.302  31.348  30.621  1.00  0.00     0.055 A 
ATOM     78  C   UNL A   1      36.959  30.199  32.628  1.00  0.00     0.041 A 
ATOM     79  F   UNL A   1      39.058  29.161  32.738  1.00  0.00    -0.206 F 
ATOM     80  C   UNL A   1      36.023  30.958  31.933  1.00  0.00     0.022 A 
BRANCH  77  81
ATOM     81  S   UNL A   1      35.151  32.432  29.732  1.00  0.00     0.124 S 
ATOM     82  O   UNL A   1      34.441  31.481  28.885  1.00  0.00    -0.237 OA
ATOM     83  O   UNL A   1      34.382  33.017  30.825  1.00  0.00    -0.237 OA
ATOM     84  O   UNL A   1      36.033  33.360  29.027  1.00  0.00    -0.744 OA
ENDBRANCH  77  81
ENDBRANCH  50  74
BRANCH  62  85
ATOM     85  C   UNL A   1      44.188  34.023  29.456  1.00  0.00     0.023 A 
ATOM     86  C   UNL A   1      43.893  34.976  28.464  1.00  0.00     0.031 A 
ATOM     87  C   UNL A   1      44.785  34.471  30.648  1.00  0.00     0.131 A 
ATOM     88  C   UNL A   1      44.242  36.321  28.662  1.00  0.00     0.055 A 
ATOM     89  C   UNL A   1      45.079  35.818  30.862  1.00  0.00     0.041 A 
ATOM     90  F   UNL A   1      45.088  33.604  31.628  1.00  0.00    -0.206 F 
ATOM     91  C   UNL A   1      44.819  36.750  29.861  1.00  0.00     0.022 A 
BRANCH  88  92
ATOM     92  S   UNL A   1      44.006  37.492  27.298  1.00  0.00     0.124 S 
ATOM     93  O   UNL A   1      45.303  37.447  26.631  1.00  0.00    -0.237 OA
ATOM     94  O   UNL A   1      42.891  36.900  26.567  1.00  0.00    -0.237 OA
ATOM     95  O   UNL A   1      43.701  38.752  27.976  1.00  0.00    -0.744 OA
ENDBRANCH  88  92
ENDBRANCH  62  85
ENDBRANCH  36  37
ENDBRANCH  29  31
ENDBRANCH  28  29
ENDBRANCH  27  28
ENDBRANCH   1  27
TORSDOF 18
ENDMDL
MODEL 3
REMARK VINA RESULT:     -11.0      1.618      7.541
REMARK SMILES O=C(CCN1C(=O)/C(=C\c2ccc(-c3cccc(Cl)c3)o2)SC1=S)OCCOC(=O)c1ccc(-c2c3nc(c(-c4cc(S(=O)(=O)[O-])ccc4F)c4ccc([nH]4)c(-c4cc(S(=O)(=O)[O-])ccc4F)c4nc(c(-c5cc(S(=O)(=O)[O-])ccc5F)c5ccc2[nH]5)C=C4)C=C3)cc1
REMARK SMILES IDX 26 1 25 2 2 3 1 4 3 5 4 6 5 7 6 8 23 9 7 10 8 11 22 12 24 13
REMARK SMILES IDX 9 14 10 15 11 16 21 17 12 18 13 19 14 20 15 21 20 22 16 23
REMARK SMILES IDX 18 24 17 25 19 26 27 27 28 28 29 29 30 30 31 31 32 32 93 33
REMARK SMILES IDX 33 34 92 35 34 36 35 37 36 38 86 39 37 40 91 41 85 42 87 43
REMARK SMILES IDX 38 44 90 45 84 46 83 47 39 49 71 50 51 51 70 52 52 53 55 54
REMARK SMILES IDX 69 55 88 56 53 57 54 58 68 60 89 61 56 62 40 63 41 64 49 65
REMARK SMILES IDX 42 66 48 67 50 68 47 69 43 70 44 71 45 72 46 73 72 74 73 75
REMARK SMILES IDX 81 76 74 77 80 78 82 79 79 80 75 81 76 82 77 83 78 84 57 85
REMARK SMILES IDX 58 86 66 87 59 88 65 89 67 90 64 91 60 92 61 93 62 94 63 95
REMARK H PARENT 87 48 55 59
REMARK Flexibility Score: inf
ROOT
ATOM      1  C   UNL A   1      38.319  19.842  24.983  1.00  0.00     0.274 C 
ENDROOT
BRANCH   1   2
ATOM      2  O   UNL A   1      38.154  21.220  25.357  1.00  0.00    -0.462 OA
BRANCH   2   3
ATOM      3  C   UNL A   1      37.179  21.973  24.787  1.00  0.00     0.307 C 
ATOM      4  O   UNL A   1      37.086  22.063  23.566  1.00  0.00    -0.252 OA
BRANCH   3   5
ATOM      5  C   UNL A   1      36.296  22.783  25.705  1.00  0.00     0.144 C 
BRANCH   5   6
ATOM      6  C   UNL A   1      34.978  22.081  26.039  1.00  0.00     0.139 C 
BRANCH   6   7
ATOM      7  N   UNL A   1      34.007  22.092  24.931  1.00  0.00    -0.292 N 
ATOM      8  C   UNL A   1      33.900  23.233  24.145  1.00  0.00     0.266 C 
ATOM      9  C   UNL A   1      33.221  21.022  24.557  1.00  0.00     0.148 C 
ATOM     10  O   UNL A   1      34.656  24.192  24.186  1.00  0.00    -0.268 OA
ATOM     11  C   UNL A   1      32.696  23.142  23.270  1.00  0.00     0.084 C 
ATOM     12  S   UNL A   1      32.185  21.491  23.210  1.00  0.00    -0.054 SA
ATOM     13  S   UNL A   1      33.161  19.490  25.205  1.00  0.00    -0.052 S 
ATOM     14  C   UNL A   1      31.958  24.126  22.733  1.00  0.00     0.068 C 
BRANCH  14  15
ATOM     15  C   UNL A   1      32.194  25.520  22.887  1.00  0.00     0.128 A 
ATOM     16  C   UNL A   1      32.312  26.533  21.944  1.00  0.00     0.051 A 
ATOM     17  O   UNL A   1      32.300  26.109  24.135  1.00  0.00    -0.457 OA
ATOM     18  C   UNL A   1      32.502  27.754  22.631  1.00  0.00     0.051 A 
ATOM     19  C   UNL A   1      32.503  27.448  23.971  1.00  0.00     0.134 A 
BRANCH  19  20
ATOM     20  C   UNL A   1      32.689  28.247  25.175  1.00  0.00     0.019 A 
ATOM     21  C   UNL A   1      31.638  29.034  25.666  1.00  0.00     0.012 A 
ATOM     22  C   UNL A   1      33.934  28.313  25.813  1.00  0.00     0.032 A 
ATOM     23  C   UNL A   1      31.830  29.885  26.758  1.00  0.00     0.002 A 
ATOM     24  C   UNL A   1      34.129  29.180  26.890  1.00  0.00     0.041 A 
ATOM     25  C   UNL A   1      33.083  29.968  27.363  1.00  0.00     0.020 A 
ATOM     26  Cl  UNL A   1      35.680  29.292  27.627  1.00  0.00    -0.084 Cl
ENDBRANCH  19  20
ENDBRANCH  14  15
ENDBRANCH   6   7
ENDBRANCH   5   6
ENDBRANCH   3   5
ENDBRANCH   2   3
ENDBRANCH   1   2
BRANCH   1  27
ATOM     27  C   UNL A   1      39.505  19.158  25.659  1.00  0.00     0.275 C 
BRANCH  27  28
ATOM     28  O   UNL A   1      40.057  19.976  26.693  1.00  0.00    -0.458 OA
BRANCH  28  29
ATOM     29  C   UNL A   1      41.270  20.496  26.377  1.00  0.00     0.338 C 
ATOM     30  O   UNL A   1      42.086  20.011  25.615  1.00  0.00    -0.246 OA
BRANCH  29  31
ATOM     31  C   UNL A   1      41.391  21.852  26.947  1.00  0.00     0.060 A 
ATOM     32  C   UNL A   1      41.084  22.919  26.096  1.00  0.00     0.016 A 
ATOM     33  C   UNL A   1      41.800  22.093  28.265  1.00  0.00     0.016 A 
ATOM     34  C   UNL A   1      41.248  24.228  26.535  1.00  0.00     0.010 A 
ATOM     35  C   UNL A   1      41.959  23.411  28.706  1.00  0.00     0.010 A 
ATOM     36  C   UNL A   1      41.723  24.481  27.828  1.00  0.00    -0.014 A 
BRANCH  36  37
ATOM     37  C   UNL A   1      42.121  25.866  28.173  1.00  0.00     0.031 A 
ATOM     38  C   UNL A   1      43.491  26.343  27.777  1.00  0.00     0.074 A 
ATOM     39  C   UNL A   1      41.244  26.707  28.749  1.00  0.00     0.049 A 
ATOM     40  N   UNL A   1      44.014  27.537  27.872  1.00  0.00    -0.248 NA
ATOM     41  C   UNL A   1      44.390  25.336  27.191  1.00  0.00     0.031 C 
ATOM     42  C   UNL A   1      39.882  26.359  29.153  1.00  0.00     0.029 A 
ATOM     43  N   UNL A   1      41.368  28.032  29.084  1.00  0.00    -0.354 N 
ATOM     44  C   UNL A   1      45.293  27.432  27.339  1.00  0.00     0.074 A 
ATOM     45  C   UNL A   1      45.487  26.044  26.979  1.00  0.00     0.031 C 
ATOM     46  C   UNL A   1      39.293  27.447  29.678  1.00  0.00     0.029 A 
ATOM     47  C   UNL A   1      40.239  28.562  29.663  1.00  0.00     0.049 A 
ATOM     48  H   UNL A   1      42.186  28.554  28.923  1.00  0.00     0.167 HD
ATOM     49  C   UNL A   1      46.215  28.408  27.147  1.00  0.00     0.034 A 
ATOM     50  C   UNL A   1      40.002  29.805  30.128  1.00  0.00     0.034 A 
ATOM     51  C   UNL A   1      46.018  29.783  27.535  1.00  0.00     0.049 A 
ATOM     52  C   UNL A   1      41.074  30.857  29.982  1.00  0.00     0.074 A 
ATOM     53  C   UNL A   1      46.877  30.856  27.380  1.00  0.00     0.029 A 
ATOM     54  N   UNL A   1      44.884  30.272  28.174  1.00  0.00    -0.354 N 
ATOM     55  N   UNL A   1      42.266  30.754  29.439  1.00  0.00    -0.248 NA
ATOM     56  C   UNL A   1      40.763  32.196  30.498  1.00  0.00     0.031 C 
ATOM     57  C   UNL A   1      46.294  31.976  27.985  1.00  0.00     0.029 A 
ATOM     58  C   UNL A   1      45.038  31.620  28.453  1.00  0.00     0.049 A 
ATOM     59  H   UNL A   1      44.088  29.737  28.396  1.00  0.00     0.167 HD
ATOM     60  C   UNL A   1      42.832  32.024  29.519  1.00  0.00     0.074 A 
ATOM     61  C   UNL A   1      41.846  32.876  30.153  1.00  0.00     0.031 C 
ATOM     62  C   UNL A   1      44.051  32.452  29.100  1.00  0.00     0.034 A 
BRANCH  49  63
ATOM     63  C   UNL A   1      47.531  27.999  26.532  1.00  0.00     0.023 A 
ATOM     64  C   UNL A   1      47.717  27.975  25.139  1.00  0.00     0.031 A 
ATOM     65  C   UNL A   1      48.599  27.586  27.348  1.00  0.00     0.131 A 
ATOM     66  C   UNL A   1      48.916  27.480  24.601  1.00  0.00     0.055 A 
ATOM     67  C   UNL A   1      49.816  27.165  26.808  1.00  0.00     0.041 A 
ATOM     68  F   UNL A   1      48.470  27.564  28.684  1.00  0.00    -0.206 F 
ATOM     69  C   UNL A   1      49.974  27.095  25.427  1.00  0.00     0.022 A 
BRANCH  66  70
ATOM     70  S   UNL A   1      49.017  27.208  22.810  1.00  0.00     0.124 S 
ATOM     71  O   UNL A   1      48.418  25.881  22.678  1.00  0.00    -0.237 OA
ATOM     72  O   UNL A   1      48.236  28.319  22.278  1.00  0.00    -0.237 OA
ATOM     73  O   UNL A   1      50.451  27.266  22.536  1.00  0.00    -0.744 OA
ENDBRANCH  66  70
ENDBRANCH  49  63
BRANCH  50  74
ATOM     74  C   UNL A   1      38.709  30.125  30.798  1.00  0.00     0.023 A 
ATOM     75  C   UNL A   1      37.779  30.998  30.212  1.00  0.00     0.031 A 
ATOM     76  C   UNL A   1      38.415  29.603  32.070  1.00  0.00     0.131 A 
ATOM     77  C   UNL A   1      36.620  31.359  30.919  1.00  0.00     0.055 A 
ATOM     78  C   UNL A   1      37.239  29.927  32.749  1.00  0.00     0.041 A 
ATOM     79  F   UNL A   1      39.272  28.763  32.675  1.00  0.00    -0.206 F 
ATOM     80  C   UNL A   1      36.340  30.822  32.178  1.00  0.00     0.022 A 
BRANCH  77  81
ATOM     81  S   UNL A   1      35.521  32.613  30.203  1.00  0.00     0.124 S 
ATOM     82  O   UNL A   1      36.376  33.794  30.205  1.00  0.00    -0.237 OA
ATOM     83  O   UNL A   1      35.219  32.040  28.896  1.00  0.00    -0.237 OA
ATOM     84  O   UNL A   1      34.398  32.654  31.138  1.00  0.00    -0.744 OA
ENDBRANCH  77  81
ENDBRANCH  50  74
BRANCH  62  85
ATOM     85  C   UNL A   1      44.363  33.917  29.282  1.00  0.00     0.023 A 
ATOM     86  C   UNL A   1      44.984  34.401  30.446  1.00  0.00     0.031 A 
ATOM     87  C   UNL A   1      44.030  34.841  28.275  1.00  0.00     0.131 A 
ATOM     88  C   UNL A   1      45.207  35.778  30.598  1.00  0.00     0.055 A 
ATOM     89  C   UNL A   1      44.304  36.202  28.407  1.00  0.00     0.041 A 
ATOM     90  F   UNL A   1      43.436  34.431  27.142  1.00  0.00    -0.206 F 
ATOM     91  C   UNL A   1      44.885  36.680  29.579  1.00  0.00     0.022 A 
BRANCH  88  92
ATOM     92  S   UNL A   1      45.850  36.389  32.180  1.00  0.00     0.124 S 
ATOM     93  O   UNL A   1      44.768  37.258  32.633  1.00  0.00    -0.237 OA
ATOM     94  O   UNL A   1      46.037  35.156  32.938  1.00  0.00    -0.237 OA
ATOM     95  O   UNL A   1      47.084  37.080  31.806  1.00  0.00    -0.744 OA
ENDBRANCH  88  92
ENDBRANCH  62  85
ENDBRANCH  36  37
ENDBRANCH  29  31
ENDBRANCH  28  29
ENDBRANCH  27  28
ENDBRANCH   1  27
TORSDOF 18
ENDMDL
