MODEL 1
REMARK VINA RESULT:     -12.2      0.000      0.000
REMARK SMILES CC[C@@]1(C)NC(=O)N(/N=C/c2ccccc2C(=O)OCCOC(=O)c2ccc(-c3c4nc(c(-c5cc(S(=O)(=O)[O-])ccc5F)c5ccc([nH]5)c(-c5cc(S(=O)(=O)[O-])ccc5F)c5nc(c(-c6cc(S(=O)(=O)[O-])ccc6F)c6ccc3[nH]6)C=C5)C=C4)cc2)C1=O
REMARK SMILES IDX 20 1 19 2 17 3 18 4 16 5 11 6 12 7 13 8 15 9 14 10 10 11
REMARK SMILES IDX 9 12 8 13 3 14 4 15 5 16 88 17 6 18 89 20 7 21 2 22 1 23
REMARK SMILES IDX 21 24 22 25 23 26 24 27 25 28 26 29 87 30 27 31 86 32 28 33
REMARK SMILES IDX 29 34 30 35 80 36 31 37 85 38 79 39 81 40 32 41 84 42 78 43
REMARK SMILES IDX 77 44 33 46 65 47 45 48 64 49 46 50 49 51 63 52 82 53 47 54
REMARK SMILES IDX 48 55 62 57 83 58 50 59 34 60 35 61 43 62 36 63 42 64 44 65
REMARK SMILES IDX 41 66 37 67 38 68 39 69 40 70 66 71 67 72 75 73 68 74 74 75
REMARK SMILES IDX 76 76 73 77 69 78 70 79 71 80 72 81 51 82 52 83 60 84 53 85
REMARK SMILES IDX 59 86 61 87 58 88 54 89 55 90 56 91 57 92
REMARK H PARENT 5 19 81 45 49 56
REMARK Flexibility Score: inf
ROOT
ATOM      1  C   UNL A   1      31.757  28.379  27.457  1.00  0.00     0.275 C 
ENDROOT
BRANCH   1   2
ATOM      2  O   UNL A   1      32.671  27.416  26.897  1.00  0.00    -0.458 OA
BRANCH   2   3
ATOM      3  C   UNL A   1      32.113  26.277  26.410  1.00  0.00     0.338 C 
ATOM      4  O   UNL A   1      31.166  25.672  26.876  1.00  0.00    -0.246 OA
BRANCH   3   5
ATOM      5  C   UNL A   1      32.718  25.917  25.105  1.00  0.00     0.068 A 
ATOM      6  C   UNL A   1      32.310  26.449  23.877  1.00  0.00     0.009 A 
ATOM      7  C   UNL A   1      32.908  26.001  22.688  1.00  0.00     0.010 A 
ATOM      8  C   UNL A   1      33.915  25.034  22.722  1.00  0.00     0.001 A 
ATOM      9  C   UNL A   1      33.763  24.977  25.127  1.00  0.00     0.016 A 
ATOM     10  C   UNL A   1      34.344  24.523  23.942  1.00  0.00     0.001 A 
BRANCH   6  11
ATOM     11  C   UNL A   1      31.270  27.488  23.733  1.00  0.00     0.143 C 
ATOM     12  N   UNL A   1      30.256  27.336  22.948  1.00  0.00    -0.169 NA
BRANCH  12  13
ATOM     13  N   UNL A   1      29.360  28.357  22.776  1.00  0.00    -0.146 N 
ATOM     14  C   UNL A   1      28.220  30.365  22.283  1.00  0.00     0.120 C 
ATOM     15  C   UNL A   1      28.345  31.479  23.319  1.00  0.00     0.045 C 
ATOM     16  N   UNL A   1      27.345  29.331  22.775  1.00  0.00    -0.322 N 
ATOM     17  C   UNL A   1      29.563  29.608  22.233  1.00  0.00     0.276 C 
ATOM     18  C   UNL A   1      28.035  28.186  23.126  1.00  0.00     0.346 C 
ATOM     19  H   UNL A   1      26.368  29.429  22.854  1.00  0.00     0.166 HD
ATOM     20  O   UNL A   1      30.598  30.118  21.819  1.00  0.00    -0.270 OA
ATOM     21  O   UNL A   1      27.475  27.226  23.635  1.00  0.00    -0.246 OA
BRANCH  14  22
ATOM     22  C   UNL A   1      27.832  30.837  20.874  1.00  0.00     0.035 C 
ATOM     23  C   UNL A   1      28.028  32.328  20.638  1.00  0.00     0.007 C 
ENDBRANCH  14  22
ENDBRANCH  12  13
ENDBRANCH   6  11
ENDBRANCH   3   5
ENDBRANCH   2   3
ENDBRANCH   1   2
BRANCH   1  24
ATOM     24  C   UNL A   1      31.746  29.662  26.635  1.00  0.00     0.275 C 
BRANCH  24  25
ATOM     25  O   UNL A   1      33.093  30.091  26.393  1.00  0.00    -0.458 OA
BRANCH  25  26
ATOM     26  C   UNL A   1      33.455  31.207  27.063  1.00  0.00     0.338 C 
ATOM     27  O   UNL A   1      32.798  32.217  27.253  1.00  0.00    -0.246 OA
BRANCH  26  28
ATOM     28  C   UNL A   1      34.778  30.980  27.648  1.00  0.00     0.060 A 
ATOM     29  C   UNL A   1      35.141  29.670  27.951  1.00  0.00     0.016 A 
ATOM     30  C   UNL A   1      35.602  32.047  27.987  1.00  0.00     0.016 A 
ATOM     31  C   UNL A   1      36.303  29.417  28.672  1.00  0.00     0.010 A 
ATOM     32  C   UNL A   1      36.806  31.785  28.645  1.00  0.00     0.010 A 
ATOM     33  C   UNL A   1      37.154  30.473  29.024  1.00  0.00    -0.014 A 
BRANCH  33  34
ATOM     34  C   UNL A   1      38.370  30.226  29.847  1.00  0.00     0.031 A 
ATOM     35  C   UNL A   1      39.448  29.317  29.317  1.00  0.00     0.074 A 
ATOM     36  C   UNL A   1      38.512  30.803  31.056  1.00  0.00     0.049 A 
ATOM     37  N   UNL A   1      40.461  28.775  29.941  1.00  0.00    -0.248 NA
ATOM     38  C   UNL A   1      39.355  28.955  27.894  1.00  0.00     0.031 C 
ATOM     39  C   UNL A   1      37.577  31.755  31.657  1.00  0.00     0.029 A 
ATOM     40  N   UNL A   1      39.498  30.666  32.003  1.00  0.00    -0.354 N 
ATOM     41  C   UNL A   1      41.089  27.958  29.006  1.00  0.00     0.074 A 
ATOM     42  C   UNL A   1      40.335  28.072  27.775  1.00  0.00     0.031 C 
ATOM     43  C   UNL A   1      38.043  32.132  32.858  1.00  0.00     0.029 A 
ATOM     44  C   UNL A   1      39.254  31.377  33.157  1.00  0.00     0.049 A 
ATOM     45  H   UNL A   1      40.302  30.115  31.869  1.00  0.00     0.167 HD
ATOM     46  C   UNL A   1      42.190  27.182  29.168  1.00  0.00     0.034 A 
ATOM     47  C   UNL A   1      39.895  31.374  34.342  1.00  0.00     0.034 A 
ATOM     48  C   UNL A   1      42.949  27.122  30.395  1.00  0.00     0.049 A 
ATOM     49  C   UNL A   1      41.086  30.468  34.517  1.00  0.00     0.074 A 
ATOM     50  C   UNL A   1      44.089  26.386  30.671  1.00  0.00     0.029 A 
ATOM     51  N   UNL A   1      42.650  27.834  31.550  1.00  0.00    -0.354 N 
ATOM     52  N   UNL A   1      41.630  29.643  33.652  1.00  0.00    -0.248 NA
ATOM     53  C   UNL A   1      41.739  30.481  35.833  1.00  0.00     0.031 C 
ATOM     54  C   UNL A   1      44.442  26.607  32.007  1.00  0.00     0.029 A 
ATOM     55  C   UNL A   1      43.568  27.537  32.546  1.00  0.00     0.049 A 
ATOM     56  H   UNL A   1      41.895  28.460  31.648  1.00  0.00     0.167 HD
ATOM     57  C   UNL A   1      42.702  29.052  34.315  1.00  0.00     0.074 A 
ATOM     58  C   UNL A   1      42.736  29.628  35.645  1.00  0.00     0.031 C 
ATOM     59  C   UNL A   1      43.578  28.116  33.870  1.00  0.00     0.034 A 
BRANCH  46  60
ATOM     60  C   UNL A   1      42.592  26.291  28.016  1.00  0.00     0.023 A 
ATOM     61  C   UNL A   1      41.980  25.049  27.777  1.00  0.00     0.031 A 
ATOM     62  C   UNL A   1      43.637  26.683  27.159  1.00  0.00     0.131 A 
ATOM     63  C   UNL A   1      42.465  24.214  26.757  1.00  0.00     0.055 A 
ATOM     64  C   UNL A   1      44.061  25.883  26.095  1.00  0.00     0.041 A 
ATOM     65  F   UNL A   1      44.277  27.849  27.349  1.00  0.00    -0.206 F 
ATOM     66  C   UNL A   1      43.483  24.633  25.899  1.00  0.00     0.022 A 
BRANCH  63  67
ATOM     67  S   UNL A   1      41.840  22.513  26.657  1.00  0.00     0.124 S 
ATOM     68  O   UNL A   1      42.449  21.905  27.838  1.00  0.00    -0.237 OA
ATOM     69  O   UNL A   1      40.396  22.703  26.709  1.00  0.00    -0.237 OA
ATOM     70  O   UNL A   1      42.361  22.031  25.379  1.00  0.00    -0.744 OA
ENDBRANCH  63  67
ENDBRANCH  46  60
BRANCH  47  71
ATOM     71  C   UNL A   1      39.383  32.196  35.477  1.00  0.00     0.023 A 
ATOM     72  C   UNL A   1      39.811  33.519  35.668  1.00  0.00     0.031 A 
ATOM     73  C   UNL A   1      38.475  31.657  36.407  1.00  0.00     0.131 A 
ATOM     74  C   UNL A   1      39.356  34.247  36.779  1.00  0.00     0.055 A 
ATOM     75  C   UNL A   1      37.981  32.404  37.477  1.00  0.00     0.041 A 
ATOM     76  F   UNL A   1      38.037  30.394  36.276  1.00  0.00    -0.206 F 
ATOM     77  C   UNL A   1      38.431  33.705  37.674  1.00  0.00     0.022 A 
BRANCH  74  78
ATOM     78  S   UNL A   1      40.051  35.895  37.082  1.00  0.00     0.124 S 
ATOM     79  O   UNL A   1      39.653  36.612  35.876  1.00  0.00    -0.237 OA
ATOM     80  O   UNL A   1      39.375  36.287  38.314  1.00  0.00    -0.237 OA
ATOM     81  O   UNL A   1      41.484  35.641  37.214  1.00  0.00    -0.744 OA
ENDBRANCH  74  78
ENDBRANCH  47  71
BRANCH  59  82
ATOM     82  C   UNL A   1      44.673  27.703  34.818  1.00  0.00     0.023 A 
ATOM     83  C   UNL A   1      44.439  26.799  35.869  1.00  0.00     0.031 A 
ATOM     84  C   UNL A   1      45.966  28.235  34.675  1.00  0.00     0.131 A 
ATOM     85  C   UNL A   1      45.473  26.493  36.767  1.00  0.00     0.055 A 
ATOM     86  C   UNL A   1      47.005  27.884  35.538  1.00  0.00     0.041 A 
ATOM     87  F   UNL A   1      46.242  29.105  33.689  1.00  0.00    -0.206 F 
ATOM     88  C   UNL A   1      46.757  27.018  36.599  1.00  0.00     0.022 A 
BRANCH  85  89
ATOM     89  S   UNL A   1      45.097  25.460  38.210  1.00  0.00     0.124 S 
ATOM     90  O   UNL A   1      46.414  25.297  38.818  1.00  0.00    -0.237 OA
ATOM     91  O   UNL A   1      44.151  26.289  38.951  1.00  0.00    -0.237 OA
ATOM     92  O   UNL A   1      44.530  24.247  37.624  1.00  0.00    -0.744 OA
ENDBRANCH  85  89
ENDBRANCH  59  82
ENDBRANCH  33  34
ENDBRANCH  26  28
ENDBRANCH  25  26
ENDBRANCH  24  25
ENDBRANCH   1  24
TORSDOF 17
ENDMDL
MODEL 2
REMARK VINA RESULT:     -11.7      2.459      4.176
REMARK SMILES CC[C@@]1(C)NC(=O)N(/N=C/c2ccccc2C(=O)OCCOC(=O)c2ccc(-c3c4nc(c(-c5cc(S(=O)(=O)[O-])ccc5F)c5ccc([nH]5)c(-c5cc(S(=O)(=O)[O-])ccc5F)c5nc(c(-c6cc(S(=O)(=O)[O-])ccc6F)c6ccc3[nH]6)C=C5)C=C4)cc2)C1=O
REMARK SMILES IDX 20 1 19 2 17 3 18 4 16 5 11 6 12 7 13 8 15 9 14 10 10 11
REMARK SMILES IDX 9 12 8 13 3 14 4 15 5 16 88 17 6 18 89 20 7 21 2 22 1 23
REMARK SMILES IDX 21 24 22 25 23 26 24 27 25 28 26 29 87 30 27 31 86 32 28 33
REMARK SMILES IDX 29 34 30 35 80 36 31 37 85 38 79 39 81 40 32 41 84 42 78 43
REMARK SMILES IDX 77 44 33 46 65 47 45 48 64 49 46 50 49 51 63 52 82 53 47 54
REMARK SMILES IDX 48 55 62 57 83 58 50 59 34 60 35 61 43 62 36 63 42 64 44 65
REMARK SMILES IDX 41 66 37 67 38 68 39 69 40 70 66 71 67 72 75 73 68 74 74 75
REMARK SMILES IDX 76 76 73 77 69 78 70 79 71 80 72 81 51 82 52 83 60 84 53 85
REMARK SMILES IDX 59 86 61 87 58 88 54 89 55 90 56 91 57 92
REMARK H PARENT 5 19 81 45 49 56
REMARK Flexibility Score: inf
ROOT
ATOM      1  C   UNL A   1      32.984  29.482  25.237  1.00  0.00     0.275 C 
ENDROOT
BRANCH   1   2
ATOM      2  O   UNL A   1      32.271  28.278  24.892  1.00  0.00    -0.458 OA
BRANCH   2   3
ATOM      3  C   UNL A   1      31.838  28.190  23.607  1.00  0.00     0.338 C 
ATOM      4  O   UNL A   1      32.526  28.046  22.613  1.00  0.00    -0.246 OA
BRANCH   3   5
ATOM      5  C   UNL A   1      30.357  28.134  23.559  1.00  0.00     0.068 A 
ATOM      6  C   UNL A   1      29.604  26.991  23.848  1.00  0.00     0.009 A 
ATOM      7  C   UNL A   1      28.206  27.023  23.719  1.00  0.00     0.010 A 
ATOM      8  C   UNL A   1      27.559  28.193  23.314  1.00  0.00     0.001 A 
ATOM      9  C   UNL A   1      29.689  29.316  23.195  1.00  0.00     0.016 A 
ATOM     10  C   UNL A   1      28.301  29.340  23.053  1.00  0.00     0.001 A 
BRANCH   6  11
ATOM     11  C   UNL A   1      30.187  25.712  24.303  1.00  0.00     0.143 C 
ATOM     12  N   UNL A   1      30.477  25.494  25.542  1.00  0.00    -0.169 NA
BRANCH  12  13
ATOM     13  N   UNL A   1      31.095  24.330  25.910  1.00  0.00    -0.146 N 
ATOM     14  C   UNL A   1      32.539  22.491  26.239  1.00  0.00     0.120 C 
ATOM     15  C   UNL A   1      32.489  21.400  25.171  1.00  0.00     0.045 C 
ATOM     16  N   UNL A   1      31.357  22.429  27.061  1.00  0.00    -0.322 N 
ATOM     17  C   UNL A   1      32.333  23.849  25.539  1.00  0.00     0.276 C 
ATOM     18  C   UNL A   1      30.489  23.473  26.808  1.00  0.00     0.346 C 
ATOM     19  H   UNL A   1      31.188  21.722  27.727  1.00  0.00     0.166 HD
ATOM     20  O   UNL A   1      33.152  24.327  24.761  1.00  0.00    -0.270 OA
ATOM     21  O   UNL A   1      29.398  23.551  27.353  1.00  0.00    -0.246 OA
BRANCH  14  22
ATOM     22  C   UNL A   1      33.829  22.519  27.069  1.00  0.00     0.035 C 
ATOM     23  C   UNL A   1      34.926  21.597  26.554  1.00  0.00     0.007 C 
ENDBRANCH  14  22
ENDBRANCH  12  13
ENDBRANCH   6  11
ENDBRANCH   3   5
ENDBRANCH   2   3
ENDBRANCH   1   2
BRANCH   1  24
ATOM     24  C   UNL A   1      32.180  30.328  26.217  1.00  0.00     0.275 C 
BRANCH  24  25
ATOM     25  O   UNL A   1      32.891  30.436  27.458  1.00  0.00    -0.458 OA
BRANCH  25  26
ATOM     26  C   UNL A   1      33.617  31.567  27.592  1.00  0.00     0.338 C 
ATOM     27  O   UNL A   1      33.240  32.722  27.474  1.00  0.00    -0.246 OA
BRANCH  26  28
ATOM     28  C   UNL A   1      34.966  31.197  28.023  1.00  0.00     0.060 A 
ATOM     29  C   UNL A   1      35.166  29.904  28.502  1.00  0.00     0.016 A 
ATOM     30  C   UNL A   1      35.991  32.137  28.054  1.00  0.00     0.016 A 
ATOM     31  C   UNL A   1      36.377  29.558  29.092  1.00  0.00     0.010 A 
ATOM     32  C   UNL A   1      37.231  31.765  28.578  1.00  0.00     0.010 A 
ATOM     33  C   UNL A   1      37.427  30.484  29.133  1.00  0.00    -0.014 A 
BRANCH  33  34
ATOM     34  C   UNL A   1      38.709  30.149  29.814  1.00  0.00     0.031 A 
ATOM     35  C   UNL A   1      39.661  29.182  29.161  1.00  0.00     0.074 A 
ATOM     36  C   UNL A   1      39.020  30.698  31.005  1.00  0.00     0.049 A 
ATOM     37  N   UNL A   1      40.699  28.568  29.665  1.00  0.00    -0.248 NA
ATOM     38  C   UNL A   1      39.389  28.847  27.754  1.00  0.00     0.031 C 
ATOM     39  C   UNL A   1      38.219  31.698  31.713  1.00  0.00     0.029 A 
ATOM     40  N   UNL A   1      40.093  30.486  31.835  1.00  0.00    -0.354 N 
ATOM     41  C   UNL A   1      41.168  27.727  28.660  1.00  0.00     0.074 A 
ATOM     42  C   UNL A   1      40.291  27.906  27.522  1.00  0.00     0.031 C 
ATOM     43  C   UNL A   1      38.838  32.028  32.857  1.00  0.00     0.029 A 
ATOM     44  C   UNL A   1      40.023  31.194  33.014  1.00  0.00     0.049 A 
ATOM     45  H   UNL A   1      40.840  29.887  31.608  1.00  0.00     0.167 HD
ATOM     46  C   UNL A   1      42.228  26.881  28.693  1.00  0.00     0.034 A 
ATOM     47  C   UNL A   1      40.790  31.134  34.121  1.00  0.00     0.034 A 
ATOM     48  C   UNL A   1      43.112  26.755  29.828  1.00  0.00     0.049 A 
ATOM     49  C   UNL A   1      41.932  30.152  34.157  1.00  0.00     0.074 A 
ATOM     50  C   UNL A   1      44.225  25.945  29.971  1.00  0.00     0.029 A 
ATOM     51  N   UNL A   1      42.987  27.468  31.014  1.00  0.00    -0.354 N 
ATOM     52  N   UNL A   1      42.323  29.307  33.230  1.00  0.00    -0.248 NA
ATOM     53  C   UNL A   1      42.725  30.105  35.392  1.00  0.00     0.031 C 
ATOM     54  C   UNL A   1      44.736  26.124  31.261  1.00  0.00     0.029 A 
ATOM     55  C   UNL A   1      43.989  27.099  31.900  1.00  0.00     0.049 A 
ATOM     56  H   UNL A   1      42.290  28.138  31.200  1.00  0.00     0.167 HD
ATOM     57  C   UNL A   1      43.421  28.640  33.766  1.00  0.00     0.074 A 
ATOM     58  C   UNL A   1      43.638  29.193  35.088  1.00  0.00     0.031 C 
ATOM     59  C   UNL A   1      44.181  27.657  33.219  1.00  0.00     0.034 A 
BRANCH  46  60
ATOM     60  C   UNL A   1      42.443  25.983  27.497  1.00  0.00     0.023 A 
ATOM     61  C   UNL A   1      42.037  24.637  27.484  1.00  0.00     0.031 A 
ATOM     62  C   UNL A   1      43.100  26.481  26.357  1.00  0.00     0.131 A 
ATOM     63  C   UNL A   1      42.357  23.820  26.388  1.00  0.00     0.055 A 
ATOM     64  C   UNL A   1      43.343  25.684  25.236  1.00  0.00     0.041 A 
ATOM     65  F   UNL A   1      43.531  27.752  26.316  1.00  0.00    -0.206 F 
ATOM     66  C   UNL A   1      42.984  24.340  25.254  1.00  0.00     0.022 A 
BRANCH  63  67
ATOM     67  S   UNL A   1      42.068  22.034  26.524  1.00  0.00     0.124 S 
ATOM     68  O   UNL A   1      42.117  21.835  27.971  1.00  0.00    -0.237 OA
ATOM     69  O   UNL A   1      40.760  21.877  25.901  1.00  0.00    -0.237 OA
ATOM     70  O   UNL A   1      43.185  21.449  25.784  1.00  0.00    -0.744 OA
ENDBRANCH  63  67
ENDBRANCH  46  60
BRANCH  47  71
ATOM     71  C   UNL A   1      40.459  31.969  35.311  1.00  0.00     0.023 A 
ATOM     72  C   UNL A   1      39.426  31.608  36.190  1.00  0.00     0.031 A 
ATOM     73  C   UNL A   1      41.157  33.163  35.572  1.00  0.00     0.131 A 
ATOM     74  C   UNL A   1      39.100  32.446  37.267  1.00  0.00     0.055 A 
ATOM     75  C   UNL A   1      40.867  33.964  36.678  1.00  0.00     0.041 A 
ATOM     76  F   UNL A   1      42.151  33.561  34.761  1.00  0.00    -0.206 F 
ATOM     77  C   UNL A   1      39.824  33.611  37.528  1.00  0.00     0.022 A 
BRANCH  74  78
ATOM     78  S   UNL A   1      37.658  32.030  38.287  1.00  0.00     0.124 S 
ATOM     79  O   UNL A   1      37.369  30.668  37.850  1.00  0.00    -0.237 OA
ATOM     80  O   UNL A   1      38.190  32.171  39.638  1.00  0.00    -0.237 OA
ATOM     81  O   UNL A   1      36.667  33.032  37.901  1.00  0.00    -0.744 OA
ENDBRANCH  74  78
ENDBRANCH  47  71
BRANCH  59  82
ATOM     82  C   UNL A   1      45.346  27.162  34.037  1.00  0.00     0.023 A 
ATOM     83  C   UNL A   1      46.617  27.756  33.948  1.00  0.00     0.031 A 
ATOM     84  C   UNL A   1      45.181  26.070  34.907  1.00  0.00     0.131 A 
ATOM     85  C   UNL A   1      47.688  27.220  34.679  1.00  0.00     0.055 A 
ATOM     86  C   UNL A   1      46.238  25.578  35.675  1.00  0.00     0.041 A 
ATOM     87  F   UNL A   1      43.988  25.466  35.028  1.00  0.00    -0.206 F 
ATOM     88  C   UNL A   1      47.503  26.145  35.553  1.00  0.00     0.022 A 
BRANCH  85  89
ATOM     89  S   UNL A   1      49.350  27.897  34.414  1.00  0.00     0.124 S 
ATOM     90  O   UNL A   1      50.120  26.696  34.103  1.00  0.00    -0.237 OA
ATOM     91  O   UNL A   1      49.138  28.823  33.306  1.00  0.00    -0.237 OA
ATOM     92  O   UNL A   1      49.673  28.526  35.693  1.00  0.00    -0.744 OA
ENDBRANCH  85  89
ENDBRANCH  59  82
ENDBRANCH  33  34
ENDBRANCH  26  28
ENDBRANCH  25  26
ENDBRANCH  24  25
ENDBRANCH   1  24
TORSDOF 17
ENDMDL
MODEL 3
REMARK VINA RESULT:     -11.7      5.384     10.391
REMARK SMILES CC[C@@]1(C)NC(=O)N(/N=C/c2ccccc2C(=O)OCCOC(=O)c2ccc(-c3c4nc(c(-c5cc(S(=O)(=O)[O-])ccc5F)c5ccc([nH]5)c(-c5cc(S(=O)(=O)[O-])ccc5F)c5nc(c(-c6cc(S(=O)(=O)[O-])ccc6F)c6ccc3[nH]6)C=C5)C=C4)cc2)C1=O
REMARK SMILES IDX 20 1 19 2 17 3 18 4 16 5 11 6 12 7 13 8 15 9 14 10 10 11
REMARK SMILES IDX 9 12 8 13 3 14 4 15 5 16 88 17 6 18 89 20 7 21 2 22 1 23
REMARK SMILES IDX 21 24 22 25 23 26 24 27 25 28 26 29 87 30 27 31 86 32 28 33
REMARK SMILES IDX 29 34 30 35 80 36 31 37 85 38 79 39 81 40 32 41 84 42 78 43
REMARK SMILES IDX 77 44 33 46 65 47 45 48 64 49 46 50 49 51 63 52 82 53 47 54
REMARK SMILES IDX 48 55 62 57 83 58 50 59 34 60 35 61 43 62 36 63 42 64 44 65
REMARK SMILES IDX 41 66 37 67 38 68 39 69 40 70 66 71 67 72 75 73 68 74 74 75
REMARK SMILES IDX 76 76 73 77 69 78 70 79 71 80 72 81 51 82 52 83 60 84 53 85
REMARK SMILES IDX 59 86 61 87 58 88 54 89 55 90 56 91 57 92
REMARK H PARENT 5 19 81 45 49 56
REMARK Flexibility Score: inf
ROOT
ATOM      1  C   UNL A   1      36.743  22.546  23.567  1.00  0.00     0.275 C 
ENDROOT
BRANCH   1   2
ATOM      2  O   UNL A   1      35.897  23.560  24.144  1.00  0.00    -0.458 OA
BRANCH   2   3
ATOM      3  C   UNL A   1      34.664  23.696  23.589  1.00  0.00     0.338 C 
ATOM      4  O   UNL A   1      34.364  23.508  22.425  1.00  0.00    -0.246 OA
BRANCH   3   5
ATOM      5  C   UNL A   1      33.648  23.964  24.635  1.00  0.00     0.068 A 
ATOM      6  C   UNL A   1      32.945  22.967  25.322  1.00  0.00     0.009 A 
ATOM      7  C   UNL A   1      31.960  23.325  26.257  1.00  0.00     0.010 A 
ATOM      8  C   UNL A   1      31.682  24.669  26.514  1.00  0.00     0.001 A 
ATOM      9  C   UNL A   1      33.389  25.312  24.937  1.00  0.00     0.016 A 
ATOM     10  C   UNL A   1      32.398  25.663  25.855  1.00  0.00     0.001 A 
BRANCH   6  11
ATOM     11  C   UNL A   1      33.176  21.520  25.138  1.00  0.00     0.143 C 
ATOM     12  N   UNL A   1      32.435  20.803  24.361  1.00  0.00    -0.169 NA
BRANCH  12  13
ATOM     13  N   UNL A   1      32.627  19.450  24.284  1.00  0.00    -0.146 N 
ATOM     14  C   UNL A   1      33.075  17.160  24.651  1.00  0.00     0.120 C 
ATOM     15  C   UNL A   1      34.544  16.747  24.586  1.00  0.00     0.045 C 
ATOM     16  N   UNL A   1      32.581  17.429  23.324  1.00  0.00    -0.322 N 
ATOM     17  C   UNL A   1      33.007  18.569  25.275  1.00  0.00     0.276 C 
ATOM     18  C   UNL A   1      32.389  18.779  23.101  1.00  0.00     0.346 C 
ATOM     19  H   UNL A   1      32.401  16.730  22.654  1.00  0.00     0.166 HD
ATOM     20  O   UNL A   1      33.305  18.794  26.443  1.00  0.00    -0.270 OA
ATOM     21  O   UNL A   1      32.046  19.209  22.010  1.00  0.00    -0.246 OA
BRANCH  14  22
ATOM     22  C   UNL A   1      32.170  16.197  25.430  1.00  0.00     0.035 C 
ATOM     23  C   UNL A   1      32.684  14.766  25.492  1.00  0.00     0.007 C 
ENDBRANCH  14  22
ENDBRANCH  12  13
ENDBRANCH   6  11
ENDBRANCH   3   5
ENDBRANCH   2   3
ENDBRANCH   1   2
BRANCH   1  24
ATOM     24  C   UNL A   1      36.980  21.409  24.554  1.00  0.00     0.275 C 
BRANCH  24  25
ATOM     25  O   UNL A   1      37.470  21.941  25.793  1.00  0.00    -0.458 OA
BRANCH  25  26
ATOM     26  C   UNL A   1      38.773  21.686  26.038  1.00  0.00     0.338 C 
ATOM     27  O   UNL A   1      39.424  20.707  25.708  1.00  0.00    -0.246 OA
BRANCH  26  28
ATOM     28  C   UNL A   1      39.353  22.857  26.698  1.00  0.00     0.060 A 
ATOM     29  C   UNL A   1      38.878  24.114  26.331  1.00  0.00     0.016 A 
ATOM     30  C   UNL A   1      40.415  22.726  27.585  1.00  0.00     0.016 A 
ATOM     31  C   UNL A   1      39.516  25.262  26.789  1.00  0.00     0.010 A 
ATOM     32  C   UNL A   1      41.007  23.880  28.103  1.00  0.00     0.010 A 
ATOM     33  C   UNL A   1      40.587  25.159  27.686  1.00  0.00    -0.014 A 
BRANCH  33  34
ATOM     34  C   UNL A   1      41.319  26.375  28.138  1.00  0.00     0.031 A 
ATOM     35  C   UNL A   1      40.586  27.425  28.930  1.00  0.00     0.074 A 
ATOM     36  C   UNL A   1      42.622  26.543  27.843  1.00  0.00     0.049 A 
ATOM     37  N   UNL A   1      40.941  28.649  29.219  1.00  0.00    -0.248 NA
ATOM     38  C   UNL A   1      39.261  27.046  29.448  1.00  0.00     0.031 C 
ATOM     39  C   UNL A   1      43.466  25.574  27.143  1.00  0.00     0.029 A 
ATOM     40  N   UNL A   1      43.467  27.597  28.092  1.00  0.00    -0.354 N 
ATOM     41  C   UNL A   1      39.862  29.210  29.895  1.00  0.00     0.074 A 
ATOM     42  C   UNL A   1      38.837  28.189  29.965  1.00  0.00     0.031 C 
ATOM     43  C   UNL A   1      44.709  26.067  27.036  1.00  0.00     0.029 A 
ATOM     44  C   UNL A   1      44.729  27.425  27.569  1.00  0.00     0.049 A 
ATOM     45  H   UNL A   1      43.197  28.399  28.595  1.00  0.00     0.167 HD
ATOM     46  C   UNL A   1      39.742  30.462  30.403  1.00  0.00     0.034 A 
ATOM     47  C   UNL A   1      45.765  28.282  27.473  1.00  0.00     0.034 A 
ATOM     48  C   UNL A   1      40.798  31.445  30.358  1.00  0.00     0.049 A 
ATOM     49  C   UNL A   1      45.594  29.684  27.998  1.00  0.00     0.074 A 
ATOM     50  C   UNL A   1      40.798  32.738  30.852  1.00  0.00     0.029 A 
ATOM     51  N   UNL A   1      42.051  31.239  29.791  1.00  0.00    -0.354 N 
ATOM     52  N   UNL A   1      44.544  30.229  28.570  1.00  0.00    -0.248 NA
ATOM     53  C   UNL A   1      46.740  30.589  27.851  1.00  0.00     0.031 C 
ATOM     54  C   UNL A   1      42.024  33.331  30.533  1.00  0.00     0.029 A 
ATOM     55  C   UNL A   1      42.820  32.388  29.904  1.00  0.00     0.049 A 
ATOM     56  H   UNL A   1      42.349  30.400  29.371  1.00  0.00     0.167 HD
ATOM     57  C   UNL A   1      44.912  31.538  28.867  1.00  0.00     0.074 A 
ATOM     58  C   UNL A   1      46.284  31.693  28.426  1.00  0.00     0.031 C 
ATOM     59  C   UNL A   1      44.184  32.525  29.448  1.00  0.00     0.034 A 
BRANCH  46  60
ATOM     60  C   UNL A   1      38.404  30.854  30.985  1.00  0.00     0.023 A 
ATOM     61  C   UNL A   1      37.395  31.454  30.212  1.00  0.00     0.031 A 
ATOM     62  C   UNL A   1      38.149  30.651  32.353  1.00  0.00     0.131 A 
ATOM     63  C   UNL A   1      36.211  31.895  30.827  1.00  0.00     0.055 A 
ATOM     64  C   UNL A   1      36.937  31.019  32.943  1.00  0.00     0.041 A 
ATOM     65  F   UNL A   1      39.081  30.102  33.149  1.00  0.00    -0.206 F 
ATOM     66  C   UNL A   1      35.965  31.659  32.180  1.00  0.00     0.022 A 
BRANCH  63  67
ATOM     67  S   UNL A   1      35.058  32.910  29.861  1.00  0.00     0.124 S 
ATOM     68  O   UNL A   1      34.153  33.399  30.898  1.00  0.00    -0.237 OA
ATOM     69  O   UNL A   1      35.939  33.905  29.261  1.00  0.00    -0.237 OA
ATOM     70  O   UNL A   1      34.464  31.957  28.924  1.00  0.00    -0.744 OA
ENDBRANCH  63  67
ENDBRANCH  46  60
BRANCH  47  71
ATOM     71  C   UNL A   1      47.024  27.867  26.788  1.00  0.00     0.023 A 
ATOM     72  C   UNL A   1      47.157  27.955  25.394  1.00  0.00     0.031 A 
ATOM     73  C   UNL A   1      48.107  27.347  27.521  1.00  0.00     0.131 A 
ATOM     74  C   UNL A   1      48.331  27.502  24.774  1.00  0.00     0.055 A 
ATOM     75  C   UNL A   1      49.295  26.952  26.906  1.00  0.00     0.041 A 
ATOM     76  F   UNL A   1      48.032  27.236  28.858  1.00  0.00    -0.206 F 
ATOM     77  C   UNL A   1      49.407  27.018  25.521  1.00  0.00     0.022 A 
BRANCH  74  78
ATOM     78  S   UNL A   1      48.406  27.481  22.962  1.00  0.00     0.124 S 
ATOM     79  O   UNL A   1      49.700  28.107  22.711  1.00  0.00    -0.237 OA
ATOM     80  O   UNL A   1      48.316  26.055  22.670  1.00  0.00    -0.237 OA
ATOM     81  O   UNL A   1      47.243  28.272  22.564  1.00  0.00    -0.744 OA
ENDBRANCH  74  78
ENDBRANCH  47  71
BRANCH  59  82
ATOM     82  C   UNL A   1      44.884  33.838  29.683  1.00  0.00     0.023 A 
ATOM     83  C   UNL A   1      45.626  34.082  30.852  1.00  0.00     0.031 A 
ATOM     84  C   UNL A   1      44.792  34.865  28.728  1.00  0.00     0.131 A 
ATOM     85  C   UNL A   1      46.205  35.343  31.059  1.00  0.00     0.055 A 
ATOM     86  C   UNL A   1      45.419  36.099  28.914  1.00  0.00     0.041 A 
ATOM     87  F   UNL A   1      44.094  34.684  27.595  1.00  0.00    -0.206 F 
ATOM     88  C   UNL A   1      46.120  36.347  30.090  1.00  0.00     0.022 A 
BRANCH  85  89
ATOM     89  S   UNL A   1      47.009  35.684  32.649  1.00  0.00     0.124 S 
ATOM     90  O   UNL A   1      47.528  37.033  32.443  1.00  0.00    -0.237 OA
ATOM     91  O   UNL A   1      45.901  35.563  33.592  1.00  0.00    -0.237 OA
ATOM     92  O   UNL A   1      48.025  34.637  32.750  1.00  0.00    -0.744 OA
ENDBRANCH  85  89
ENDBRANCH  59  82
ENDBRANCH  33  34
ENDBRANCH  26  28
ENDBRANCH  25  26
ENDBRANCH  24  25
ENDBRANCH   1  24
TORSDOF 17
ENDMDL
