MODEL 1
REMARK VINA RESULT:     -13.5      0.000      0.000
REMARK SMILES Cc1ccc(S(=O)(=O)n2cc(C(=O)C(=O)NCC(=O)N[C@H](Cc3c[nH]c4ccccc34)C(=O)OCCOC(=O)c3ccc(-c4c5nc(c(-c6cc(S(=O)(=O)[O-])ccc6F)c6ccc([nH]6)c(-c6cc(S(=O)(=O)[O-])ccc6F)c6nc(c(-c7cc(S(=O)(=O)[O-])ccc7F)c7ccc4[nH]7)C=C6)C=C5)cc3)c3ccccc32)cc1
REMARK SMILES IDX 32 1 33 2 21 3 20 4 18 5 19 6 17 8 16 9 14 10 15 11 12 13
REMARK SMILES IDX 13 14 11 15 9 16 10 17 108 18 103 19 107 20 104 21 106 22
REMARK SMILES IDX 105 23 6 24 7 25 8 26 5 27 1 28 2 29 3 30 110 31 4 32 109 33
REMARK SMILES IDX 22 34 23 35 24 36 31 37 25 38 26 39 30 40 27 42 29 43 28 44
REMARK SMILES IDX 34 45 35 46 36 47 37 48 38 49 39 50 40 51 41 52 102 53 42 54
REMARK SMILES IDX 101 55 43 56 44 57 45 58 95 59 46 60 100 61 94 62 96 63
REMARK SMILES IDX 47 64 99 65 93 66 92 67 48 69 80 70 60 71 79 72 61 73 64 74
REMARK SMILES IDX 78 75 97 76 62 77 63 78 77 80 98 81 65 82 49 83 50 84 58 85
REMARK SMILES IDX 51 86 57 87 59 88 56 89 52 90 53 91 54 92 55 93 81 94 82 95
REMARK SMILES IDX 90 96 83 97 89 98 91 99 88 100 84 101 85 102 86 103 87 104
REMARK SMILES IDX 66 105 67 106 75 107 68 108 74 109 76 110 73 111 69 112
REMARK SMILES IDX 70 113 71 114 72 115
REMARK H PARENT 20 7 16 12 25 41 96 68 64 79
REMARK Flexibility Score: inf
ROOT
ATOM      1  C   UNL A   1      32.467  28.824  26.835  1.00  0.00     0.329 C 
ATOM      2  O   UNL A   1      32.144  30.042  26.873  1.00  0.00    -0.250 OA
ENDROOT
BRANCH   1   3
ATOM      3  C   UNL A   1      31.467  27.062  25.961  1.00  0.00     0.196 C 
BRANCH   3   4
ATOM      4  N   UNL A   1      31.580  25.378  26.467  1.00  0.00    -0.341 N 
ATOM      5  C   UNL A   1      32.384  24.287  26.597  1.00  0.00     0.240 C 
ATOM      6  O   UNL A   1      31.834  23.437  27.334  1.00  0.00    -0.273 OA
ATOM      7  H   UNL A   1      30.689  25.116  26.792  1.00  0.00     0.164 HD
BRANCH   5   8
ATOM      8  C   UNL A   1      33.864  23.897  26.138  1.00  0.00     0.216 C 
BRANCH   8   9
ATOM      9  N   UNL A   1      34.663  23.807  24.892  1.00  0.00    -0.340 N 
ATOM     10  C   UNL A   1      35.796  23.038  24.608  1.00  0.00     0.292 C 
ATOM     11  O   UNL A   1      36.109  22.711  23.471  1.00  0.00    -0.265 OA
ATOM     12  H   UNL A   1      34.348  24.375  24.151  1.00  0.00     0.164 HD
BRANCH  10  13
ATOM     13  C   UNL A   1      36.722  22.666  25.748  1.00  0.00     0.252 C 
ATOM     14  O   UNL A   1      36.242  21.828  26.521  1.00  0.00    -0.283 OA
BRANCH  13  15
ATOM     15  C   UNL A   1      38.105  23.120  26.024  1.00  0.00     0.054 A 
ATOM     16  N   UNL A   1      39.974  23.904  27.056  1.00  0.00    -0.240 N 
ATOM     17  C   UNL A   1      38.833  24.292  26.310  1.00  0.00     0.117 A 
ATOM     18  C   UNL A   1      39.884  22.491  27.181  1.00  0.00     0.065 A 
ATOM     19  C   UNL A   1      39.075  22.106  26.130  1.00  0.00     0.012 A 
ATOM     20  C   UNL A   1      40.717  21.551  27.820  1.00  0.00     0.028 A 
ATOM     21  C   UNL A   1      39.225  20.841  25.545  1.00  0.00     0.011 A 
ATOM     22  C   UNL A   1      40.954  20.352  27.144  1.00  0.00     0.002 A 
ATOM     23  C   UNL A   1      40.249  20.019  25.995  1.00  0.00     0.001 A 
BRANCH  16  24
ATOM     24  S   UNL A   1      41.646  24.331  26.900  1.00  0.00     0.268 S 
ATOM     25  O   UNL A   1      41.895  24.838  28.248  1.00  0.00    -0.201 OA
ATOM     26  O   UNL A   1      41.528  25.258  25.770  1.00  0.00    -0.201 OA
BRANCH  24  27
ATOM     27  C   UNL A   1      43.226  23.713  26.478  1.00  0.00     0.088 A 
ATOM     28  C   UNL A   1      46.231  21.053  24.824  1.00  0.00     0.044 C 
ATOM     29  C   UNL A   1      45.243  22.022  25.405  1.00  0.00    -0.051 A 
ATOM     30  C   UNL A   1      44.016  22.086  24.776  1.00  0.00     0.005 A 
ATOM     31  C   UNL A   1      45.464  22.829  26.551  1.00  0.00     0.005 A 
ATOM     32  C   UNL A   1      43.053  22.921  25.298  1.00  0.00     0.022 A 
ATOM     33  C   UNL A   1      44.453  23.674  27.109  1.00  0.00     0.022 A 
ENDBRANCH  24  27
ENDBRANCH  16  24
ENDBRANCH  13  15
ENDBRANCH  10  13
ENDBRANCH   8   9
ENDBRANCH   5   8
ENDBRANCH   3   4
BRANCH   3  34
ATOM     34  C   UNL A   1      30.786  26.669  24.331  1.00  0.00     0.074 C 
BRANCH  34  35
ATOM     35  C   UNL A   1      30.650  27.662  23.191  1.00  0.00    -0.020 A 
ATOM     36  C   UNL A   1      31.661  28.179  22.399  1.00  0.00     0.087 A 
ATOM     37  C   UNL A   1      29.461  28.421  22.883  1.00  0.00     0.003 A 
ATOM     38  N   UNL A   1      31.223  29.396  21.929  1.00  0.00    -0.361 N 
ATOM     39  C   UNL A   1      29.898  29.588  22.253  1.00  0.00     0.046 A 
ATOM     40  C   UNL A   1      28.104  28.329  23.257  1.00  0.00     0.010 A 
ATOM     41  H   UNL A   1      31.778  30.039  21.431  1.00  0.00     0.166 HD
ATOM     42  C   UNL A   1      29.080  30.717  22.110  1.00  0.00     0.026 A 
ATOM     43  C   UNL A   1      27.250  29.416  23.032  1.00  0.00     0.001 A 
ATOM     44  C   UNL A   1      27.743  30.606  22.506  1.00  0.00     0.002 A 
ENDBRANCH  34  35
ENDBRANCH   3  34
ENDBRANCH   1   3
BRANCH   1  45
ATOM     45  O   UNL A   1      33.691  28.764  27.621  1.00  0.00    -0.461 OA
BRANCH  45  46
ATOM     46  C   UNL A   1      34.870  29.286  26.997  1.00  0.00     0.274 C 
BRANCH  46  47
ATOM     47  C   UNL A   1      35.905  29.655  28.074  1.00  0.00     0.275 C 
BRANCH  47  48
ATOM     48  O   UNL A   1      37.228  29.056  27.944  1.00  0.00    -0.458 OA
BRANCH  48  49
ATOM     49  C   UNL A   1      38.332  29.477  28.627  1.00  0.00     0.338 C 
ATOM     50  O   UNL A   1      39.435  28.960  28.553  1.00  0.00    -0.246 OA
BRANCH  49  51
ATOM     51  C   UNL A   1      37.988  30.327  29.786  1.00  0.00     0.060 A 
ATOM     52  C   UNL A   1      37.948  32.069  29.432  1.00  0.00     0.016 A 
ATOM     53  C   UNL A   1      38.548  29.752  31.372  1.00  0.00     0.016 A 
ATOM     54  C   UNL A   1      38.622  33.220  30.670  1.00  0.00     0.010 A 
ATOM     55  C   UNL A   1      39.141  30.884  32.623  1.00  0.00     0.010 A 
ATOM     56  C   UNL A   1      39.315  32.613  32.213  1.00  0.00    -0.014 A 
BRANCH  56  57
ATOM     57  C   UNL A   1      40.305  33.274  33.038  1.00  0.00     0.031 A 
ATOM     58  C   UNL A   1      39.728  34.068  34.155  1.00  0.00     0.074 A 
ATOM     59  C   UNL A   1      41.609  32.895  32.940  1.00  0.00     0.049 A 
ATOM     60  N   UNL A   1      40.362  34.980  34.793  1.00  0.00    -0.248 NA
ATOM     61  C   UNL A   1      38.320  34.010  34.587  1.00  0.00     0.031 C 
ATOM     62  C   UNL A   1      42.621  32.951  33.990  1.00  0.00     0.029 A 
ATOM     63  N   UNL A   1      42.337  32.409  31.844  1.00  0.00    -0.354 N 
ATOM     64  C   UNL A   1      39.605  35.288  35.909  1.00  0.00     0.074 A 
ATOM     65  C   UNL A   1      38.282  34.863  35.607  1.00  0.00     0.031 C 
ATOM     66  C   UNL A   1      43.847  32.744  33.470  1.00  0.00     0.029 A 
ATOM     67  C   UNL A   1      43.726  32.649  32.025  1.00  0.00     0.049 A 
ATOM     68  H   UNL A   1      41.942  31.963  31.060  1.00  0.00     0.167 HD
ATOM     69  C   UNL A   1      40.248  35.650  37.049  1.00  0.00     0.034 A 
ATOM     70  C   UNL A   1      44.476  33.422  31.165  1.00  0.00     0.034 A 
ATOM     71  C   UNL A   1      41.672  35.763  36.754  1.00  0.00     0.049 A 
ATOM     72  C   UNL A   1      44.615  34.851  31.743  1.00  0.00     0.074 A 
ATOM     73  C   UNL A   1      42.750  34.922  36.964  1.00  0.00     0.029 A 
ATOM     74  N   UNL A   1      42.057  36.669  35.781  1.00  0.00    -0.354 N 
ATOM     75  N   UNL A   1      43.991  35.264  32.818  1.00  0.00    -0.248 NA
ATOM     76  C   UNL A   1      45.477  35.899  31.194  1.00  0.00     0.031 C 
ATOM     77  C   UNL A   1      43.761  35.291  36.028  1.00  0.00     0.029 A 
ATOM     78  C   UNL A   1      43.303  36.364  35.283  1.00  0.00     0.049 A 
ATOM     79  H   UNL A   1      41.510  37.432  35.484  1.00  0.00     0.167 HD
ATOM     80  C   UNL A   1      44.353  36.547  33.132  1.00  0.00     0.074 A 
ATOM     81  C   UNL A   1      45.290  36.900  32.078  1.00  0.00     0.031 C 
ATOM     82  C   UNL A   1      43.875  37.201  34.240  1.00  0.00     0.034 A 
BRANCH  69  83
ATOM     83  C   UNL A   1      39.699  35.651  38.456  1.00  0.00     0.023 A 
ATOM     84  C   UNL A   1      39.230  34.418  38.948  1.00  0.00     0.031 A 
ATOM     85  C   UNL A   1      39.537  36.741  39.338  1.00  0.00     0.131 A 
ATOM     86  C   UNL A   1      38.614  34.299  40.202  1.00  0.00     0.055 A 
ATOM     87  C   UNL A   1      38.936  36.621  40.602  1.00  0.00     0.041 A 
ATOM     88  F   UNL A   1      39.933  37.983  39.044  1.00  0.00    -0.206 F 
ATOM     89  C   UNL A   1      38.466  35.396  41.040  1.00  0.00     0.022 A 
BRANCH  86  90
ATOM     90  S   UNL A   1      37.989  32.675  40.694  1.00  0.00     0.124 S 
ATOM     91  O   UNL A   1      37.072  32.363  39.602  1.00  0.00    -0.237 OA
ATOM     92  O   UNL A   1      39.210  31.883  40.764  1.00  0.00    -0.237 OA
ATOM     93  O   UNL A   1      37.347  32.938  41.981  1.00  0.00    -0.744 OA
ENDBRANCH  86  90
ENDBRANCH  69  83
BRANCH  70  94
ATOM     94  C   UNL A   1      44.207  33.106  29.709  1.00  0.00     0.023 A 
ATOM     95  C   UNL A   1      43.338  33.940  28.932  1.00  0.00     0.031 A 
ATOM     96  C   UNL A   1      45.323  32.591  29.070  1.00  0.00     0.131 A 
ATOM     97  C   UNL A   1      43.824  34.544  27.753  1.00  0.00     0.055 A 
ATOM     98  C   UNL A   1      45.783  33.261  27.952  1.00  0.00     0.041 A 
ATOM     99  F   UNL A   1      46.153  31.742  29.699  1.00  0.00    -0.206 F 
ATOM    100  C   UNL A   1      45.118  34.313  27.373  1.00  0.00     0.022 A 
BRANCH  97 101
ATOM    101  S   UNL A   1      42.900  35.659  26.669  1.00  0.00     0.124 S 
ATOM    102  O   UNL A   1      43.705  36.873  26.693  1.00  0.00    -0.237 OA
ATOM    103  O   UNL A   1      42.870  34.920  25.413  1.00  0.00    -0.237 OA
ATOM    104  O   UNL A   1      41.599  35.792  27.338  1.00  0.00    -0.744 OA
ENDBRANCH  97 101
ENDBRANCH  70  94
BRANCH  82 105
ATOM    105  C   UNL A   1      43.995  38.690  34.513  1.00  0.00     0.023 A 
ATOM    106  C   UNL A   1      43.252  39.631  33.806  1.00  0.00     0.031 A 
ATOM    107  C   UNL A   1      44.839  39.224  35.526  1.00  0.00     0.131 A 
ATOM    108  C   UNL A   1      43.493  41.003  33.959  1.00  0.00     0.055 A 
ATOM    109  C   UNL A   1      44.962  40.591  35.783  1.00  0.00     0.041 A 
ATOM    110  F   UNL A   1      45.595  38.456  36.321  1.00  0.00    -0.206 F 
ATOM    111  C   UNL A   1      44.322  41.497  34.960  1.00  0.00     0.022 A 
BRANCH 108 112
ATOM    112  S   UNL A   1      42.826  42.097  32.688  1.00  0.00     0.124 S 
ATOM    113  O   UNL A   1      41.769  41.269  32.114  1.00  0.00    -0.237 OA
ATOM    114  O   UNL A   1      42.376  43.244  33.469  1.00  0.00    -0.237 OA
ATOM    115  O   UNL A   1      43.970  42.343  31.813  1.00  0.00    -0.744 OA
ENDBRANCH 108 112
ENDBRANCH  82 105
ENDBRANCH  56  57
ENDBRANCH  49  51
ENDBRANCH  48  49
ENDBRANCH  47  48
ENDBRANCH  46  47
ENDBRANCH  45  46
ENDBRANCH   1  45
TORSDOF 23
ENDMDL
MODEL 2
REMARK VINA RESULT:     -13.2      3.870      8.365
REMARK SMILES Cc1ccc(S(=O)(=O)n2cc(C(=O)C(=O)NCC(=O)N[C@H](Cc3c[nH]c4ccccc34)C(=O)OCCOC(=O)c3ccc(-c4c5nc(c(-c6cc(S(=O)(=O)[O-])ccc6F)c6ccc([nH]6)c(-c6cc(S(=O)(=O)[O-])ccc6F)c6nc(c(-c7cc(S(=O)(=O)[O-])ccc7F)c7ccc4[nH]7)C=C6)C=C5)cc3)c3ccccc32)cc1
REMARK SMILES IDX 32 1 33 2 21 3 20 4 18 5 19 6 17 8 16 9 14 10 15 11 12 13
REMARK SMILES IDX 13 14 11 15 9 16 10 17 108 18 103 19 107 20 104 21 106 22
REMARK SMILES IDX 105 23 6 24 7 25 8 26 5 27 1 28 2 29 3 30 110 31 4 32 109 33
REMARK SMILES IDX 22 34 23 35 24 36 31 37 25 38 26 39 30 40 27 42 29 43 28 44
REMARK SMILES IDX 34 45 35 46 36 47 37 48 38 49 39 50 40 51 41 52 102 53 42 54
REMARK SMILES IDX 101 55 43 56 44 57 45 58 95 59 46 60 100 61 94 62 96 63
REMARK SMILES IDX 47 64 99 65 93 66 92 67 48 69 80 70 60 71 79 72 61 73 64 74
REMARK SMILES IDX 78 75 97 76 62 77 63 78 77 80 98 81 65 82 49 83 50 84 58 85
REMARK SMILES IDX 51 86 57 87 59 88 56 89 52 90 53 91 54 92 55 93 81 94 82 95
REMARK SMILES IDX 90 96 83 97 89 98 91 99 88 100 84 101 85 102 86 103 87 104
REMARK SMILES IDX 66 105 67 106 75 107 68 108 74 109 76 110 73 111 69 112
REMARK SMILES IDX 70 113 71 114 72 115
REMARK H PARENT 20 7 16 12 25 41 96 68 64 79
REMARK Flexibility Score: inf
ROOT
ATOM      1  C   UNL A   1      38.441  22.714  26.127  1.00  0.00     0.329 C 
ATOM      2  O   UNL A   1      38.648  23.679  26.910  1.00  0.00    -0.250 OA
ENDROOT
BRANCH   1   3
ATOM      3  C   UNL A   1      36.836  22.323  24.663  1.00  0.00     0.196 C 
BRANCH   3   4
ATOM      4  N   UNL A   1      35.751  23.480  23.895  1.00  0.00    -0.341 N 
ATOM      5  C   UNL A   1      34.512  23.695  23.374  1.00  0.00     0.240 C 
ATOM      6  O   UNL A   1      34.316  24.924  23.232  1.00  0.00    -0.273 OA
ATOM      7  H   UNL A   1      36.249  24.324  23.806  1.00  0.00     0.164 HD
BRANCH   5   8
ATOM      8  C   UNL A   1      33.248  22.784  23.017  1.00  0.00     0.216 C 
BRANCH   8   9
ATOM      9  N   UNL A   1      31.803  22.940  22.726  1.00  0.00    -0.340 N 
ATOM     10  C   UNL A   1      30.848  23.755  23.344  1.00  0.00     0.292 C 
ATOM     11  O   UNL A   1      29.828  24.129  22.779  1.00  0.00    -0.265 OA
ATOM     12  H   UNL A   1      31.463  22.387  21.986  1.00  0.00     0.164 HD
BRANCH  10  13
ATOM     13  C   UNL A   1      31.041  24.119  24.801  1.00  0.00     0.252 C 
ATOM     14  O   UNL A   1      30.720  23.216  25.583  1.00  0.00    -0.283 OA
BRANCH  13  15
ATOM     15  C   UNL A   1      31.596  25.357  25.396  1.00  0.00     0.054 A 
ATOM     16  N   UNL A   1      32.983  27.069  25.961  1.00  0.00    -0.240 N 
ATOM     17  C   UNL A   1      32.539  25.782  26.354  1.00  0.00     0.117 A 
ATOM     18  C   UNL A   1      32.271  27.370  24.769  1.00  0.00     0.065 A 
ATOM     19  C   UNL A   1      31.150  26.565  24.829  1.00  0.00     0.012 A 
ATOM     20  C   UNL A   1      32.295  28.494  23.920  1.00  0.00     0.028 A 
ATOM     21  C   UNL A   1      29.953  26.967  24.219  1.00  0.00     0.011 A 
ATOM     22  C   UNL A   1      31.067  28.952  23.438  1.00  0.00     0.002 A 
ATOM     23  C   UNL A   1      29.901  28.220  23.623  1.00  0.00     0.001 A 
BRANCH  16  24
ATOM     24  S   UNL A   1      33.183  28.537  26.861  1.00  0.00     0.268 S 
ATOM     25  O   UNL A   1      34.636  28.526  27.023  1.00  0.00    -0.201 OA
ATOM     26  O   UNL A   1      32.310  28.218  27.993  1.00  0.00    -0.201 OA
BRANCH  24  27
ATOM     27  C   UNL A   1      32.861  30.255  26.846  1.00  0.00     0.088 A 
ATOM     28  C   UNL A   1      32.902  34.399  28.135  1.00  0.00     0.044 C 
ATOM     29  C   UNL A   1      32.863  32.988  27.626  1.00  0.00    -0.051 A 
ATOM     30  C   UNL A   1      33.946  32.197  27.950  1.00  0.00     0.005 A 
ATOM     31  C   UNL A   1      31.797  32.414  26.886  1.00  0.00     0.005 A 
ATOM     32  C   UNL A   1      33.939  30.879  27.553  1.00  0.00     0.022 A 
ATOM     33  C   UNL A   1      31.778  31.036  26.499  1.00  0.00     0.022 A 
ENDBRANCH  24  27
ENDBRANCH  16  24
ENDBRANCH  13  15
ENDBRANCH  10  13
ENDBRANCH   8   9
ENDBRANCH   5   8
ENDBRANCH   3   4
BRANCH   3  34
ATOM     34  C   UNL A   1      35.814  20.886  24.257  1.00  0.00     0.074 C 
BRANCH  34  35
ATOM     35  C   UNL A   1      34.547  20.492  24.993  1.00  0.00    -0.020 A 
ATOM     36  C   UNL A   1      34.058  21.027  26.174  1.00  0.00     0.087 A 
ATOM     37  C   UNL A   1      33.746  19.325  24.712  1.00  0.00     0.003 A 
ATOM     38  N   UNL A   1      33.278  20.059  26.763  1.00  0.00    -0.361 N 
ATOM     39  C   UNL A   1      33.113  18.990  25.909  1.00  0.00     0.046 A 
ATOM     40  C   UNL A   1      33.663  18.420  23.633  1.00  0.00     0.010 A 
ATOM     41  H   UNL A   1      32.892  20.121  27.667  1.00  0.00     0.166 HD
ATOM     42  C   UNL A   1      32.527  17.735  26.125  1.00  0.00     0.026 A 
ATOM     43  C   UNL A   1      32.996  17.199  23.805  1.00  0.00     0.001 A 
ATOM     44  C   UNL A   1      32.474  16.848  25.046  1.00  0.00     0.002 A 
ENDBRANCH  34  35
ENDBRANCH   3  34
ENDBRANCH   1   3
BRANCH   1  45
ATOM     45  O   UNL A   1      39.502  21.770  26.449  1.00  0.00    -0.461 OA
BRANCH  45  46
ATOM     46  C   UNL A   1      40.612  22.293  27.188  1.00  0.00     0.274 C 
BRANCH  46  47
ATOM     47  C   UNL A   1      41.795  22.540  26.237  1.00  0.00     0.275 C 
BRANCH  47  48
ATOM     48  O   UNL A   1      42.837  23.446  26.709  1.00  0.00    -0.458 OA
BRANCH  48  49
ATOM     49  C   UNL A   1      42.935  24.758  26.346  1.00  0.00     0.338 C 
ATOM     50  O   UNL A   1      43.904  25.255  25.795  1.00  0.00    -0.246 OA
BRANCH  49  51
ATOM     51  C   UNL A   1      41.965  25.615  27.058  1.00  0.00     0.060 A 
ATOM     52  C   UNL A   1      41.305  26.945  26.081  1.00  0.00     0.016 A 
ATOM     53  C   UNL A   1      42.254  25.845  28.797  1.00  0.00     0.016 A 
ATOM     54  C   UNL A   1      41.071  28.568  26.870  1.00  0.00     0.010 A 
ATOM     55  C   UNL A   1      41.954  27.416  29.597  1.00  0.00     0.010 A 
ATOM     56  C   UNL A   1      41.500  28.824  28.596  1.00  0.00    -0.014 A 
BRANCH  56  57
ATOM     57  C   UNL A   1      41.857  30.079  29.224  1.00  0.00     0.031 A 
ATOM     58  C   UNL A   1      40.690  30.902  29.636  1.00  0.00     0.074 A 
ATOM     59  C   UNL A   1      43.136  30.265  29.651  1.00  0.00     0.049 A 
ATOM     60  N   UNL A   1      40.747  32.155  29.896  1.00  0.00    -0.248 NA
ATOM     61  C   UNL A   1      39.296  30.425  29.672  1.00  0.00     0.031 C 
ATOM     62  C   UNL A   1      43.576  31.102  30.763  1.00  0.00     0.029 A 
ATOM     63  N   UNL A   1      44.347  29.770  29.148  1.00  0.00    -0.354 N 
ATOM     64  C   UNL A   1      39.548  32.496  30.496  1.00  0.00     0.074 A 
ATOM     65  C   UNL A   1      38.625  31.485  30.112  1.00  0.00     0.031 C 
ATOM     66  C   UNL A   1      44.916  31.251  30.735  1.00  0.00     0.029 A 
ATOM     67  C   UNL A   1      45.427  30.610  29.536  1.00  0.00     0.049 A 
ATOM     68  H   UNL A   1      44.438  28.956  28.602  1.00  0.00     0.167 HD
ATOM     69  C   UNL A   1      39.550  33.468  31.444  1.00  0.00     0.034 A 
ATOM     70  C   UNL A   1      46.236  31.264  28.631  1.00  0.00     0.034 A 
ATOM     71  C   UNL A   1      40.888  34.047  31.502  1.00  0.00     0.049 A 
ATOM     72  C   UNL A   1      45.752  32.726  28.469  1.00  0.00     0.074 A 
ATOM     73  C   UNL A   1      41.962  33.861  32.352  1.00  0.00     0.029 A 
ATOM     74  N   UNL A   1      41.390  34.622  30.347  1.00  0.00    -0.354 N 
ATOM     75  N   UNL A   1      44.658  33.194  29.017  1.00  0.00    -0.248 NA
ATOM     76  C   UNL A   1      46.460  33.767  27.723  1.00  0.00     0.031 C 
ATOM     77  C   UNL A   1      43.134  34.258  31.645  1.00  0.00     0.029 A 
ATOM     78  C   UNL A   1      42.763  34.705  30.389  1.00  0.00     0.049 A 
ATOM     79  H   UNL A   1      40.836  34.932  29.594  1.00  0.00     0.167 HD
ATOM     80  C   UNL A   1      44.516  34.531  28.758  1.00  0.00     0.074 A 
ATOM     81  C   UNL A   1      45.676  34.842  27.939  1.00  0.00     0.031 C 
ATOM     82  C   UNL A   1      43.474  35.275  29.256  1.00  0.00     0.034 A 
BRANCH  69  83
ATOM     83  C   UNL A   1      38.493  33.740  32.488  1.00  0.00     0.023 A 
ATOM     84  C   UNL A   1      37.184  33.953  32.014  1.00  0.00     0.031 A 
ATOM     85  C   UNL A   1      38.646  33.867  33.885  1.00  0.00     0.131 A 
ATOM     86  C   UNL A   1      36.129  34.304  32.868  1.00  0.00     0.055 A 
ATOM     87  C   UNL A   1      37.587  34.201  34.744  1.00  0.00     0.041 A 
ATOM     88  F   UNL A   1      39.813  33.689  34.510  1.00  0.00    -0.206 F 
ATOM     89  C   UNL A   1      36.319  34.427  34.238  1.00  0.00     0.022 A 
BRANCH  86  90
ATOM     90  S   UNL A   1      34.508  34.622  32.133  1.00  0.00     0.124 S 
ATOM     91  O   UNL A   1      34.810  34.578  30.706  1.00  0.00    -0.237 OA
ATOM     92  O   UNL A   1      33.709  33.523  32.662  1.00  0.00    -0.237 OA
ATOM     93  O   UNL A   1      34.158  35.945  32.650  1.00  0.00    -0.744 OA
ENDBRANCH  86  90
ENDBRANCH  69  83
BRANCH  70  94
ATOM     94  C   UNL A   1      46.679  30.373  27.491  1.00  0.00     0.023 A 
ATOM     95  C   UNL A   1      47.555  29.264  27.732  1.00  0.00     0.031 A 
ATOM     96  C   UNL A   1      45.682  30.195  26.546  1.00  0.00     0.131 A 
ATOM     97  C   UNL A   1      47.147  27.964  27.367  1.00  0.00     0.055 A 
ATOM     98  C   UNL A   1      45.288  28.898  26.273  1.00  0.00     0.041 A 
ATOM     99  F   UNL A   1      44.862  31.202  26.204  1.00  0.00    -0.206 F 
ATOM    100  C   UNL A   1      45.923  27.792  26.780  1.00  0.00     0.022 A 
BRANCH  97 101
ATOM    101  S   UNL A   1      48.085  26.440  27.629  1.00  0.00     0.124 S 
ATOM    102  O   UNL A   1      47.892  26.183  29.051  1.00  0.00    -0.237 OA
ATOM    103  O   UNL A   1      47.443  25.514  26.704  1.00  0.00    -0.237 OA
ATOM    104  O   UNL A   1      49.460  26.815  27.273  1.00  0.00    -0.744 OA
ENDBRANCH  97 101
ENDBRANCH  70  94
BRANCH  82 105
ATOM    105  C   UNL A   1      43.083  36.670  28.802  1.00  0.00     0.023 A 
ATOM    106  C   UNL A   1      43.528  37.812  29.464  1.00  0.00     0.031 A 
ATOM    107  C   UNL A   1      42.273  36.913  27.658  1.00  0.00     0.131 A 
ATOM    108  C   UNL A   1      43.029  39.079  29.131  1.00  0.00     0.055 A 
ATOM    109  C   UNL A   1      41.903  38.190  27.234  1.00  0.00     0.041 A 
ATOM    110  F   UNL A   1      41.791  35.928  26.888  1.00  0.00    -0.206 F 
ATOM    111  C   UNL A   1      42.240  39.286  28.004  1.00  0.00     0.022 A 
BRANCH 108 112
ATOM    112  S   UNL A   1      43.301  40.404  30.325  1.00  0.00     0.124 S 
ATOM    113  O   UNL A   1      43.230  39.677  31.590  1.00  0.00    -0.237 OA
ATOM    114  O   UNL A   1      44.623  40.894  29.951  1.00  0.00    -0.237 OA
ATOM    115  O   UNL A   1      42.195  41.325  30.072  1.00  0.00    -0.744 OA
ENDBRANCH 108 112
ENDBRANCH  82 105
ENDBRANCH  56  57
ENDBRANCH  49  51
ENDBRANCH  48  49
ENDBRANCH  47  48
ENDBRANCH  46  47
ENDBRANCH  45  46
ENDBRANCH   1  45
TORSDOF 23
ENDMDL
MODEL 3
REMARK VINA RESULT:     -12.9      3.744      4.767
REMARK SMILES Cc1ccc(S(=O)(=O)n2cc(C(=O)C(=O)NCC(=O)N[C@H](Cc3c[nH]c4ccccc34)C(=O)OCCOC(=O)c3ccc(-c4c5nc(c(-c6cc(S(=O)(=O)[O-])ccc6F)c6ccc([nH]6)c(-c6cc(S(=O)(=O)[O-])ccc6F)c6nc(c(-c7cc(S(=O)(=O)[O-])ccc7F)c7ccc4[nH]7)C=C6)C=C5)cc3)c3ccccc32)cc1
REMARK SMILES IDX 32 1 33 2 21 3 20 4 18 5 19 6 17 8 16 9 14 10 15 11 12 13
REMARK SMILES IDX 13 14 11 15 9 16 10 17 108 18 103 19 107 20 104 21 106 22
REMARK SMILES IDX 105 23 6 24 7 25 8 26 5 27 1 28 2 29 3 30 110 31 4 32 109 33
REMARK SMILES IDX 22 34 23 35 24 36 31 37 25 38 26 39 30 40 27 42 29 43 28 44
REMARK SMILES IDX 34 45 35 46 36 47 37 48 38 49 39 50 40 51 41 52 102 53 42 54
REMARK SMILES IDX 101 55 43 56 44 57 45 58 95 59 46 60 100 61 94 62 96 63
REMARK SMILES IDX 47 64 99 65 93 66 92 67 48 69 80 70 60 71 79 72 61 73 64 74
REMARK SMILES IDX 78 75 97 76 62 77 63 78 77 80 98 81 65 82 49 83 50 84 58 85
REMARK SMILES IDX 51 86 57 87 59 88 56 89 52 90 53 91 54 92 55 93 81 94 82 95
REMARK SMILES IDX 90 96 83 97 89 98 91 99 88 100 84 101 85 102 86 103 87 104
REMARK SMILES IDX 66 105 67 106 75 107 68 108 74 109 76 110 73 111 69 112
REMARK SMILES IDX 70 113 71 114 72 115
REMARK H PARENT 20 7 16 12 25 41 96 68 64 79
REMARK Flexibility Score: inf
ROOT
ATOM      1  C   UNL A   1      32.833  29.257  26.676  1.00  0.00     0.329 C 
ATOM      2  O   UNL A   1      32.573  30.481  26.538  1.00  0.00    -0.250 OA
ENDROOT
BRANCH   1   3
ATOM      3  C   UNL A   1      31.902  27.446  25.824  1.00  0.00     0.196 C 
BRANCH   3   4
ATOM      4  N   UNL A   1      32.373  25.764  26.052  1.00  0.00    -0.341 N 
ATOM      5  C   UNL A   1      33.343  24.827  25.868  1.00  0.00     0.240 C 
ATOM      6  O   UNL A   1      33.096  23.815  26.565  1.00  0.00    -0.273 OA
ATOM      7  H   UNL A   1      31.621  25.313  26.498  1.00  0.00     0.164 HD
BRANCH   5   8
ATOM      8  C   UNL A   1      34.735  24.759  25.086  1.00  0.00     0.216 C 
BRANCH   8   9
ATOM      9  N   UNL A   1      35.471  23.837  24.189  1.00  0.00    -0.340 N 
ATOM     10  C   UNL A   1      36.326  22.774  24.504  1.00  0.00     0.292 C 
ATOM     11  O   UNL A   1      36.528  21.837  23.743  1.00  0.00    -0.265 OA
ATOM     12  H   UNL A   1      35.340  23.995  23.226  1.00  0.00     0.164 HD
BRANCH  10  13
ATOM     13  C   UNL A   1      37.099  22.829  25.806  1.00  0.00     0.252 C 
ATOM     14  O   UNL A   1      36.429  22.501  26.792  1.00  0.00    -0.283 OA
BRANCH  13  15
ATOM     15  C   UNL A   1      38.523  23.163  26.041  1.00  0.00     0.054 A 
ATOM     16  N   UNL A   1      40.473  23.823  27.007  1.00  0.00    -0.240 N 
ATOM     17  C   UNL A   1      39.365  24.274  26.249  1.00  0.00     0.117 A 
ATOM     18  C   UNL A   1      40.250  22.435  27.219  1.00  0.00     0.065 A 
ATOM     19  C   UNL A   1      39.392  22.068  26.200  1.00  0.00     0.012 A 
ATOM     20  C   UNL A   1      40.998  21.459  27.907  1.00  0.00     0.028 A 
ATOM     21  C   UNL A   1      39.411  20.762  25.692  1.00  0.00     0.011 A 
ATOM     22  C   UNL A   1      41.109  20.205  27.304  1.00  0.00     0.002 A 
ATOM     23  C   UNL A   1      40.359  19.873  26.183  1.00  0.00     0.001 A 
BRANCH  16  24
ATOM     24  S   UNL A   1      42.176  24.076  26.810  1.00  0.00     0.268 S 
ATOM     25  O   UNL A   1      42.517  24.501  28.167  1.00  0.00    -0.201 OA
ATOM     26  O   UNL A   1      42.125  25.053  25.720  1.00  0.00    -0.201 OA
BRANCH  24  27
ATOM     27  C   UNL A   1      43.668  23.311  26.315  1.00  0.00     0.088 A 
ATOM     28  C   UNL A   1      46.340  20.270  24.750  1.00  0.00     0.044 C 
ATOM     29  C   UNL A   1      45.470  21.368  25.287  1.00  0.00    -0.051 A 
ATOM     30  C   UNL A   1      44.183  21.418  24.792  1.00  0.00     0.005 A 
ATOM     31  C   UNL A   1      45.858  22.312  26.273  1.00  0.00     0.005 A 
ATOM     32  C   UNL A   1      43.325  22.374  25.288  1.00  0.00     0.022 A 
ATOM     33  C   UNL A   1      44.956  23.286  26.808  1.00  0.00     0.022 A 
ENDBRANCH  24  27
ENDBRANCH  16  24
ENDBRANCH  13  15
ENDBRANCH  10  13
ENDBRANCH   8   9
ENDBRANCH   5   8
ENDBRANCH   3   4
BRANCH   3  34
ATOM     34  C   UNL A   1      30.892  27.110  24.361  1.00  0.00     0.074 C 
BRANCH  34  35
ATOM     35  C   UNL A   1      30.744  28.051  23.181  1.00  0.00    -0.020 A 
ATOM     36  C   UNL A   1      31.753  28.594  22.403  1.00  0.00     0.087 A 
ATOM     37  C   UNL A   1      29.528  28.733  22.804  1.00  0.00     0.003 A 
ATOM     38  N   UNL A   1      31.268  29.767  21.872  1.00  0.00    -0.361 N 
ATOM     39  C   UNL A   1      29.924  29.898  22.145  1.00  0.00     0.046 A 
ATOM     40  C   UNL A   1      28.165  28.580  23.135  1.00  0.00     0.010 A 
ATOM     41  H   UNL A   1      31.805  30.421  21.369  1.00  0.00     0.166 HD
ATOM     42  C   UNL A   1      29.052  30.975  21.932  1.00  0.00     0.026 A 
ATOM     43  C   UNL A   1      27.262  29.610  22.841  1.00  0.00     0.001 A 
ATOM     44  C   UNL A   1      27.710  30.805  22.286  1.00  0.00     0.002 A 
ENDBRANCH  34  35
ENDBRANCH   3  34
ENDBRANCH   1   3
BRANCH   1  45
ATOM     45  O   UNL A   1      33.907  29.238  27.661  1.00  0.00    -0.461 OA
BRANCH  45  46
ATOM     46  C   UNL A   1      35.199  29.644  27.196  1.00  0.00     0.274 C 
BRANCH  46  47
ATOM     47  C   UNL A   1      35.626  30.935  27.917  1.00  0.00     0.275 C 
BRANCH  47  48
ATOM     48  O   UNL A   1      34.662  31.516  28.844  1.00  0.00    -0.458 OA
BRANCH  48  49
ATOM     49  C   UNL A   1      34.339  32.842  28.883  1.00  0.00     0.338 C 
ATOM     50  O   UNL A   1      33.742  33.438  28.001  1.00  0.00    -0.246 OA
BRANCH  49  51
ATOM     51  C   UNL A   1      35.145  33.590  29.870  1.00  0.00     0.060 A 
ATOM     52  C   UNL A   1      36.728  34.129  29.266  1.00  0.00     0.016 A 
ATOM     53  C   UNL A   1      34.958  33.098  31.567  1.00  0.00     0.016 A 
ATOM     54  C   UNL A   1      38.162  34.027  30.383  1.00  0.00     0.010 A 
ATOM     55  C   UNL A   1      36.348  33.068  32.692  1.00  0.00     0.010 A 
ATOM     56  C   UNL A   1      37.985  33.394  32.055  1.00  0.00    -0.014 A 
BRANCH  56  57
ATOM     57  C   UNL A   1      39.018  32.784  32.865  1.00  0.00     0.031 A 
ATOM     58  C   UNL A   1      39.534  33.663  33.947  1.00  0.00     0.074 A 
ATOM     59  C   UNL A   1      39.210  31.438  32.793  1.00  0.00     0.049 A 
ATOM     60  N   UNL A   1      40.645  33.478  34.559  1.00  0.00    -0.248 NA
ATOM     61  C   UNL A   1      38.912  34.932  34.369  1.00  0.00     0.031 C 
ATOM     62  C   UNL A   1      39.709  30.565  33.850  1.00  0.00     0.029 A 
ATOM     63  N   UNL A   1      39.037  30.550  31.722  1.00  0.00    -0.354 N 
ATOM     64  C   UNL A   1      40.644  34.320  35.656  1.00  0.00     0.074 A 
ATOM     65  C   UNL A   1      39.701  35.342  35.357  1.00  0.00     0.031 C 
ATOM     66  C   UNL A   1      40.013  29.351  33.349  1.00  0.00     0.029 A 
ATOM     67  C   UNL A   1      39.835  29.388  31.908  1.00  0.00     0.049 A 
ATOM     68  H   UNL A   1      38.446  30.707  30.951  1.00  0.00     0.167 HD
ATOM     69  C   UNL A   1      41.272  33.911  36.788  1.00  0.00     0.034 A 
ATOM     70  C   UNL A   1      40.824  29.005  31.027  1.00  0.00     0.034 A 
ATOM     71  C   UNL A   1      41.955  32.654  36.503  1.00  0.00     0.049 A 
ATOM     72  C   UNL A   1      42.199  29.481  31.556  1.00  0.00     0.074 A 
ATOM     73  C   UNL A   1      41.641  31.330  36.752  1.00  0.00     0.029 A 
ATOM     74  N   UNL A   1      42.911  32.655  35.502  1.00  0.00    -0.354 N 
ATOM     75  N   UNL A   1      42.347  30.245  32.610  1.00  0.00    -0.248 NA
ATOM     76  C   UNL A   1      43.493  29.116  30.978  1.00  0.00     0.031 C 
ATOM     77  C   UNL A   1      42.368  30.541  35.814  1.00  0.00     0.029 A 
ATOM     78  C   UNL A   1      43.134  31.383  35.026  1.00  0.00     0.049 A 
ATOM     79  H   UNL A   1      43.371  33.461  35.173  1.00  0.00     0.167 HD
ATOM     80  C   UNL A   1      43.673  30.452  32.881  1.00  0.00     0.074 A 
ATOM     81  C   UNL A   1      44.352  29.720  31.824  1.00  0.00     0.031 C 
ATOM     82  C   UNL A   1      44.103  31.184  33.960  1.00  0.00     0.034 A 
BRANCH  69  83
ATOM     83  C   UNL A   1      41.086  34.444  38.189  1.00  0.00     0.023 A 
ATOM     84  C   UNL A   1      40.457  33.584  39.110  1.00  0.00     0.031 A 
ATOM     85  C   UNL A   1      41.408  35.721  38.696  1.00  0.00     0.131 A 
ATOM     86  C   UNL A   1      40.143  33.988  40.415  1.00  0.00     0.055 A 
ATOM     87  C   UNL A   1      41.111  36.122  40.009  1.00  0.00     0.041 A 
ATOM     88  F   UNL A   1      42.017  36.662  37.969  1.00  0.00    -0.206 F 
ATOM     89  C   UNL A   1      40.470  35.256  40.877  1.00  0.00     0.022 A 
BRANCH  86  90
ATOM     90  S   UNL A   1      39.271  32.818  41.483  1.00  0.00     0.124 S 
ATOM     91  O   UNL A   1      37.974  32.717  40.822  1.00  0.00    -0.237 OA
ATOM     92  O   UNL A   1      40.128  31.640  41.415  1.00  0.00    -0.237 OA
ATOM     93  O   UNL A   1      39.252  33.495  42.779  1.00  0.00    -0.744 OA
ENDBRANCH  86  90
ENDBRANCH  69  83
BRANCH  70  94
ATOM     94  C   UNL A   1      40.384  29.084  29.582  1.00  0.00     0.023 A 
ATOM     95  C   UNL A   1      41.313  29.466  28.558  1.00  0.00     0.031 A 
ATOM     96  C   UNL A   1      39.459  28.105  29.260  1.00  0.00     0.131 A 
ATOM     97  C   UNL A   1      41.550  28.595  27.473  1.00  0.00     0.055 A 
ATOM     98  C   UNL A   1      39.775  27.246  28.222  1.00  0.00     0.041 A 
ATOM     99  F   UNL A   1      38.506  27.737  30.131  1.00  0.00    -0.206 F 
ATOM    100  C   UNL A   1      40.877  27.404  27.420  1.00  0.00     0.022 A 
BRANCH  97 101
ATOM    101  S   UNL A   1      42.712  28.875  26.116  1.00  0.00     0.124 S 
ATOM    102  O   UNL A   1      43.746  27.879  26.367  1.00  0.00    -0.237 OA
ATOM    103  O   UNL A   1      41.875  28.667  24.940  1.00  0.00    -0.237 OA
ATOM    104  O   UNL A   1      43.155  30.260  26.321  1.00  0.00    -0.744 OA
ENDBRANCH  97 101
ENDBRANCH  70  94
BRANCH  82 105
ATOM    105  C   UNL A   1      45.515  31.695  34.181  1.00  0.00     0.023 A 
ATOM    106  C   UNL A   1      46.465  30.958  34.883  1.00  0.00     0.031 A 
ATOM    107  C   UNL A   1      45.978  32.935  33.660  1.00  0.00     0.131 A 
ATOM    108  C   UNL A   1      47.709  31.514  35.214  1.00  0.00     0.055 A 
ATOM    109  C   UNL A   1      47.272  33.419  33.859  1.00  0.00     0.041 A 
ATOM    110  F   UNL A   1      45.205  33.751  32.931  1.00  0.00    -0.206 F 
ATOM    111  C   UNL A   1      48.135  32.728  34.687  1.00  0.00     0.022 A 
BRANCH 108 112
ATOM    112  S   UNL A   1      48.662  30.677  36.497  1.00  0.00     0.124 S 
ATOM    113  O   UNL A   1      49.503  31.764  36.994  1.00  0.00    -0.237 OA
ATOM    114  O   UNL A   1      47.622  30.215  37.409  1.00  0.00    -0.237 OA
ATOM    115  O   UNL A   1      49.370  29.627  35.768  1.00  0.00    -0.744 OA
ENDBRANCH 108 112
ENDBRANCH  82 105
ENDBRANCH  56  57
ENDBRANCH  49  51
ENDBRANCH  48  49
ENDBRANCH  47  48
ENDBRANCH  46  47
ENDBRANCH  45  46
ENDBRANCH   1  45
TORSDOF 23
ENDMDL
