MODEL 1
REMARK VINA RESULT:     -11.4      0.000      0.000
REMARK SMILES CC(C)=CC[C@@]1(C(=O)OCCOC(=O)c2ccc(-c3c4nc(c(-c5cc(S(=O)(=O)[O-])ccc5F)c5ccc([nH]5)c(-c5cc(S(=O)(=O)[O-])ccc5F)c5nc(c(-c6cc(S(=O)(=O)[O-])ccc6F)c6ccc3[nH]6)C=C5)C=C4)cc2)CCC[C@H](C)C1
REMARK SMILES IDX 11 1 10 2 9 3 7 4 8 5 6 6 78 7 83 8 79 9 81 10 80 11 82 12
REMARK SMILES IDX 5 13 4 14 1 15 2 16 3 17 12 18 13 19 14 20 15 21 16 22 77 23
REMARK SMILES IDX 17 24 76 25 18 26 19 27 20 28 70 29 21 30 75 31 69 32 71 33
REMARK SMILES IDX 22 34 74 35 68 36 67 37 23 39 55 40 35 41 54 42 36 43 39 44
REMARK SMILES IDX 53 45 72 46 37 47 38 48 52 50 73 51 40 52 24 53 25 54 33 55
REMARK SMILES IDX 26 56 32 57 34 58 31 59 27 60 28 61 29 62 30 63 56 64 57 65
REMARK SMILES IDX 65 66 58 67 64 68 66 69 63 70 59 71 60 72 61 73 62 74 41 75
REMARK SMILES IDX 42 76 50 77 43 78 49 79 51 80 48 81 44 82 45 83 46 84 47 85
REMARK H PARENT 71 38 39 49
REMARK Flexibility Score: inf
ROOT
ATOM      1  C   UNL A   1      35.975  20.878  24.879  1.00  0.00     0.275 C 
ENDROOT
BRANCH   1   2
ATOM      2  C   UNL A   1      34.611  21.519  24.627  1.00  0.00     0.274 C 
BRANCH   2   3
ATOM      3  O   UNL A   1      34.729  22.956  24.594  1.00  0.00    -0.462 OA
BRANCH   3   4
ATOM      4  C   UNL A   1      34.256  23.558  23.465  1.00  0.00     0.312 C 
ATOM      5  O   UNL A   1      34.449  23.120  22.337  1.00  0.00    -0.252 OA
BRANCH   4   6
ATOM      6  C   UNL A   1      33.416  24.819  23.774  1.00  0.00     0.072 C 
ATOM      7  C   UNL A   1      31.970  24.492  23.261  1.00  0.00     0.019 C 
ATOM      8  C   UNL A   1      33.926  26.007  22.937  1.00  0.00     0.022 C 
ATOM      9  C   UNL A   1      31.017  25.682  23.173  1.00  0.00     0.001 C 
ATOM     10  C   UNL A   1      32.986  27.224  23.028  1.00  0.00    -0.013 C 
ATOM     11  C   UNL A   1      31.630  26.862  22.422  1.00  0.00     0.003 C 
ATOM     12  C   UNL A   1      33.598  28.478  22.412  1.00  0.00     0.007 C 
BRANCH   6  13
ATOM     13  C   UNL A   1      33.440  25.028  25.335  1.00  0.00     0.046 C 
BRANCH  13  14
ATOM     14  C   UNL A   1      33.761  26.340  26.020  1.00  0.00    -0.027 C 
ATOM     15  C   UNL A   1      31.475  27.343  26.536  1.00  0.00     0.039 C 
ATOM     16  C   UNL A   1      32.975  27.318  26.515  1.00  0.00    -0.080 C 
ATOM     17  C   UNL A   1      33.600  28.552  27.123  1.00  0.00     0.039 C 
ENDBRANCH  13  14
ENDBRANCH   6  13
ENDBRANCH   4   6
ENDBRANCH   3   4
ENDBRANCH   2   3
ENDBRANCH   1   2
BRANCH   1  18
ATOM     18  O   UNL A   1      36.739  21.704  25.774  1.00  0.00    -0.458 OA
BRANCH  18  19
ATOM     19  C   UNL A   1      38.071  21.480  25.778  1.00  0.00     0.338 C 
ATOM     20  O   UNL A   1      38.639  20.462  25.393  1.00  0.00    -0.246 OA
BRANCH  19  21
ATOM     21  C   UNL A   1      38.784  22.646  26.337  1.00  0.00     0.060 A 
ATOM     22  C   UNL A   1      38.301  23.943  26.150  1.00  0.00     0.016 A 
ATOM     23  C   UNL A   1      40.001  22.449  26.990  1.00  0.00     0.016 A 
ATOM     24  C   UNL A   1      39.069  25.044  26.530  1.00  0.00     0.010 A 
ATOM     25  C   UNL A   1      40.722  23.550  27.461  1.00  0.00     0.010 A 
ATOM     26  C   UNL A   1      40.282  24.862  27.206  1.00  0.00    -0.014 A 
BRANCH  26  27
ATOM     27  C   UNL A   1      41.115  26.025  27.622  1.00  0.00     0.031 A 
ATOM     28  C   UNL A   1      40.524  27.093  28.507  1.00  0.00     0.074 A 
ATOM     29  C   UNL A   1      42.390  26.139  27.198  1.00  0.00     0.049 A 
ATOM     30  N   UNL A   1      40.993  28.275  28.814  1.00  0.00    -0.248 NA
ATOM     31  C   UNL A   1      39.219  26.788  29.113  1.00  0.00     0.031 C 
ATOM     32  C   UNL A   1      43.104  25.154  26.383  1.00  0.00     0.029 A 
ATOM     33  N   UNL A   1      43.313  27.139  27.389  1.00  0.00    -0.354 N 
ATOM     34  C   UNL A   1      40.023  28.874  29.612  1.00  0.00     0.074 A 
ATOM     35  C   UNL A   1      38.931  27.929  29.721  1.00  0.00     0.031 C 
ATOM     36  C   UNL A   1      44.356  25.585  26.166  1.00  0.00     0.029 A 
ATOM     37  C   UNL A   1      44.508  26.915  26.745  1.00  0.00     0.049 A 
ATOM     38  H   UNL A   1      43.136  27.938  27.936  1.00  0.00     0.167 HD
ATOM     39  C   UNL A   1      40.044  30.099  30.197  1.00  0.00     0.034 A 
ATOM     40  C   UNL A   1      45.587  27.708  26.592  1.00  0.00     0.034 A 
ATOM     41  C   UNL A   1      41.155  31.017  30.095  1.00  0.00     0.049 A 
ATOM     42  C   UNL A   1      45.561  29.091  27.189  1.00  0.00     0.074 A 
ATOM     43  C   UNL A   1      41.286  32.282  30.644  1.00  0.00     0.029 A 
ATOM     44  N   UNL A   1      42.329  30.768  29.396  1.00  0.00    -0.354 N 
ATOM     45  N   UNL A   1      44.612  29.673  27.886  1.00  0.00    -0.248 NA
ATOM     46  C   UNL A   1      46.747  29.928  26.968  1.00  0.00     0.031 C 
ATOM     47  C   UNL A   1      42.512  32.818  30.231  1.00  0.00     0.029 A 
ATOM     48  C   UNL A   1      43.178  31.862  29.482  1.00  0.00     0.049 A 
ATOM     49  H   UNL A   1      42.531  29.936  28.911  1.00  0.00     0.167 HD
ATOM     50  C   UNL A   1      45.096  30.939  28.200  1.00  0.00     0.074 A 
ATOM     51  C   UNL A   1      46.427  31.028  27.634  1.00  0.00     0.031 C 
ATOM     52  C   UNL A   1      44.496  31.939  28.896  1.00  0.00     0.034 A 
BRANCH  39  53
ATOM     53  C   UNL A   1      38.804  30.532  30.944  1.00  0.00     0.023 A 
ATOM     54  C   UNL A   1      37.694  31.093  30.287  1.00  0.00     0.031 A 
ATOM     55  C   UNL A   1      38.748  30.419  32.346  1.00  0.00     0.131 A 
ATOM     56  C   UNL A   1      36.614  31.591  31.035  1.00  0.00     0.055 A 
ATOM     57  C   UNL A   1      37.636  30.843  33.077  1.00  0.00     0.041 A 
ATOM     58  F   UNL A   1      39.783  29.911  33.032  1.00  0.00    -0.206 F 
ATOM     59  C   UNL A   1      36.567  31.448  32.423  1.00  0.00     0.022 A 
BRANCH  56  60
ATOM     60  S   UNL A   1      35.342  32.563  30.181  1.00  0.00     0.124 S 
ATOM     61  O   UNL A   1      34.312  32.673  31.212  1.00  0.00    -0.237 OA
ATOM     62  O   UNL A   1      36.051  33.794  29.853  1.00  0.00    -0.237 OA
ATOM     63  O   UNL A   1      34.981  31.727  29.039  1.00  0.00    -0.744 OA
ENDBRANCH  56  60
ENDBRANCH  39  53
BRANCH  40  64
ATOM     64  C   UNL A   1      46.754  27.247  25.787  1.00  0.00     0.023 A 
ATOM     65  C   UNL A   1      46.967  27.721  24.483  1.00  0.00     0.031 A 
ATOM     66  C   UNL A   1      47.658  26.297  26.299  1.00  0.00     0.131 A 
ATOM     67  C   UNL A   1      48.039  27.222  23.724  1.00  0.00     0.055 A 
ATOM     68  C   UNL A   1      48.752  25.844  25.561  1.00  0.00     0.041 A 
ATOM     69  F   UNL A   1      47.498  25.808  27.539  1.00  0.00    -0.206 F 
ATOM     70  C   UNL A   1      48.940  26.300  24.260  1.00  0.00     0.022 A 
BRANCH  67  71
ATOM     71  S   UNL A   1      48.194  27.743  21.994  1.00  0.00     0.124 S 
ATOM     72  O   UNL A   1      49.383  28.586  22.042  1.00  0.00    -0.237 OA
ATOM     73  O   UNL A   1      48.341  26.465  21.306  1.00  0.00    -0.237 OA
ATOM     74  O   UNL A   1      46.939  28.447  21.737  1.00  0.00    -0.744 OA
ENDBRANCH  67  71
ENDBRANCH  40  64
BRANCH  52  75
ATOM     75  C   UNL A   1      45.305  33.194  29.111  1.00  0.00     0.023 A 
ATOM     76  C   UNL A   1      45.191  34.302  28.253  1.00  0.00     0.031 A 
ATOM     77  C   UNL A   1      46.222  33.268  30.173  1.00  0.00     0.131 A 
ATOM     78  C   UNL A   1      46.022  35.416  28.440  1.00  0.00     0.055 A 
ATOM     79  C   UNL A   1      47.007  34.402  30.386  1.00  0.00     0.041 A 
ATOM     80  F   UNL A   1      46.373  32.236  31.019  1.00  0.00    -0.206 F 
ATOM     81  C   UNL A   1      46.920  35.479  29.509  1.00  0.00     0.022 A 
BRANCH  78  82
ATOM     82  S   UNL A   1      45.982  36.750  27.210  1.00  0.00     0.124 S 
ATOM     83  O   UNL A   1      44.550  36.900  26.972  1.00  0.00    -0.237 OA
ATOM     84  O   UNL A   1      46.631  37.848  27.920  1.00  0.00    -0.237 OA
ATOM     85  O   UNL A   1      46.743  36.205  26.087  1.00  0.00    -0.744 OA
ENDBRANCH  78  82
ENDBRANCH  52  75
ENDBRANCH  26  27
ENDBRANCH  19  21
ENDBRANCH  18  19
ENDBRANCH   1  18
TORSDOF 16
ENDMDL
MODEL 2
REMARK VINA RESULT:     -11.2      5.207     10.196
REMARK SMILES CC(C)=CC[C@@]1(C(=O)OCCOC(=O)c2ccc(-c3c4nc(c(-c5cc(S(=O)(=O)[O-])ccc5F)c5ccc([nH]5)c(-c5cc(S(=O)(=O)[O-])ccc5F)c5nc(c(-c6cc(S(=O)(=O)[O-])ccc6F)c6ccc3[nH]6)C=C5)C=C4)cc2)CCC[C@H](C)C1
REMARK SMILES IDX 11 1 10 2 9 3 7 4 8 5 6 6 78 7 83 8 79 9 81 10 80 11 82 12
REMARK SMILES IDX 5 13 4 14 1 15 2 16 3 17 12 18 13 19 14 20 15 21 16 22 77 23
REMARK SMILES IDX 17 24 76 25 18 26 19 27 20 28 70 29 21 30 75 31 69 32 71 33
REMARK SMILES IDX 22 34 74 35 68 36 67 37 23 39 55 40 35 41 54 42 36 43 39 44
REMARK SMILES IDX 53 45 72 46 37 47 38 48 52 50 73 51 40 52 24 53 25 54 33 55
REMARK SMILES IDX 26 56 32 57 34 58 31 59 27 60 28 61 29 62 30 63 56 64 57 65
REMARK SMILES IDX 65 66 58 67 64 68 66 69 63 70 59 71 60 72 61 73 62 74 41 75
REMARK SMILES IDX 42 76 50 77 43 78 49 79 51 80 48 81 44 82 45 83 46 84 47 85
REMARK H PARENT 71 38 39 49
REMARK Flexibility Score: inf
ROOT
ATOM      1  C   UNL A   1      31.786  29.980  26.756  1.00  0.00     0.275 C 
ENDROOT
BRANCH   1   2
ATOM      2  C   UNL A   1      31.908  28.506  27.140  1.00  0.00     0.274 C 
BRANCH   2   3
ATOM      3  O   UNL A   1      31.794  27.670  25.969  1.00  0.00    -0.462 OA
BRANCH   3   4
ATOM      4  C   UNL A   1      32.953  27.090  25.547  1.00  0.00     0.312 C 
ATOM      5  O   UNL A   1      33.996  27.711  25.381  1.00  0.00    -0.252 OA
BRANCH   4   6
ATOM      6  C   UNL A   1      32.812  25.563  25.349  1.00  0.00     0.072 C 
ATOM      7  C   UNL A   1      32.441  25.371  23.837  1.00  0.00     0.019 C 
ATOM      8  C   UNL A   1      31.618  25.036  26.168  1.00  0.00     0.022 C 
ATOM      9  C   UNL A   1      31.952  23.977  23.449  1.00  0.00     0.001 C 
ATOM     10  C   UNL A   1      31.287  23.570  25.830  1.00  0.00    -0.013 C 
ATOM     11  C   UNL A   1      30.842  23.476  24.371  1.00  0.00     0.003 C 
ATOM     12  C   UNL A   1      30.279  22.964  26.801  1.00  0.00     0.007 C 
BRANCH   6  13
ATOM     13  C   UNL A   1      34.207  24.914  25.688  1.00  0.00     0.046 C 
BRANCH  13  14
ATOM     14  C   UNL A   1      35.187  24.400  24.655  1.00  0.00    -0.027 C 
ATOM     15  C   UNL A   1      34.806  21.880  24.640  1.00  0.00     0.039 C 
ATOM     16  C   UNL A   1      35.465  23.158  24.209  1.00  0.00    -0.080 C 
ATOM     17  C   UNL A   1      36.545  22.951  23.174  1.00  0.00     0.039 C 
ENDBRANCH  13  14
ENDBRANCH   6  13
ENDBRANCH   4   6
ENDBRANCH   3   4
ENDBRANCH   2   3
ENDBRANCH   1   2
BRANCH   1  18
ATOM     18  O   UNL A   1      33.083  30.501  26.422  1.00  0.00    -0.458 OA
BRANCH  18  19
ATOM     19  C   UNL A   1      33.552  31.464  27.245  1.00  0.00     0.338 C 
ATOM     20  O   UNL A   1      33.001  32.530  27.506  1.00  0.00    -0.246 OA
BRANCH  19  21
ATOM     21  C   UNL A   1      34.862  31.070  27.800  1.00  0.00     0.060 A 
ATOM     22  C   UNL A   1      35.136  29.739  28.124  1.00  0.00     0.016 A 
ATOM     23  C   UNL A   1      35.807  32.058  28.079  1.00  0.00     0.016 A 
ATOM     24  C   UNL A   1      36.307  29.406  28.805  1.00  0.00     0.010 A 
ATOM     25  C   UNL A   1      37.024  31.707  28.671  1.00  0.00     0.010 A 
ATOM     26  C   UNL A   1      37.274  30.382  29.073  1.00  0.00    -0.014 A 
BRANCH  26  27
ATOM     27  C   UNL A   1      38.531  30.044  29.798  1.00  0.00     0.031 A 
ATOM     28  C   UNL A   1      39.510  29.073  29.188  1.00  0.00     0.074 A 
ATOM     29  C   UNL A   1      38.792  30.588  31.004  1.00  0.00     0.049 A 
ATOM     30  N   UNL A   1      40.547  28.486  29.728  1.00  0.00    -0.248 NA
ATOM     31  C   UNL A   1      39.275  28.705  27.784  1.00  0.00     0.031 C 
ATOM     32  C   UNL A   1      37.959  31.581  31.685  1.00  0.00     0.029 A 
ATOM     33  N   UNL A   1      39.832  30.377  31.876  1.00  0.00    -0.354 N 
ATOM     34  C   UNL A   1      41.063  27.645  28.746  1.00  0.00     0.074 A 
ATOM     35  C   UNL A   1      40.208  27.785  27.586  1.00  0.00     0.031 C 
ATOM     36  C   UNL A   1      38.530  31.910  32.852  1.00  0.00     0.029 A 
ATOM     37  C   UNL A   1      39.719  31.089  33.048  1.00  0.00     0.049 A 
ATOM     38  H   UNL A   1      40.586  29.776  31.681  1.00  0.00     0.167 HD
ATOM     39  C   UNL A   1      42.149  26.832  28.811  1.00  0.00     0.034 A 
ATOM     40  C   UNL A   1      40.457  31.049  34.176  1.00  0.00     0.034 A 
ATOM     41  C   UNL A   1      43.003  26.725  29.971  1.00  0.00     0.049 A 
ATOM     42  C   UNL A   1      41.615  30.089  34.252  1.00  0.00     0.074 A 
ATOM     43  C   UNL A   1      44.127  25.936  30.148  1.00  0.00     0.029 A 
ATOM     44  N   UNL A   1      42.828  27.432  31.154  1.00  0.00    -0.354 N 
ATOM     45  N   UNL A   1      42.054  29.250  33.342  1.00  0.00    -0.248 NA
ATOM     46  C   UNL A   1      42.367  30.061  35.512  1.00  0.00     0.031 C 
ATOM     47  C   UNL A   1      44.595  26.123  31.454  1.00  0.00     0.029 A 
ATOM     48  C   UNL A   1      43.807  27.081  32.071  1.00  0.00     0.049 A 
ATOM     49  H   UNL A   1      42.112  28.088  31.318  1.00  0.00     0.167 HD
ATOM     50  C   UNL A   1      43.146  28.607  33.916  1.00  0.00     0.074 A 
ATOM     51  C   UNL A   1      43.309  29.169  35.242  1.00  0.00     0.031 C 
ATOM     52  C   UNL A   1      43.945  27.640  33.395  1.00  0.00     0.034 A 
BRANCH  39  53
ATOM     53  C   UNL A   1      42.429  25.955  27.612  1.00  0.00     0.023 A 
ATOM     54  C   UNL A   1      41.914  24.650  27.505  1.00  0.00     0.031 A 
ATOM     55  C   UNL A   1      43.262  26.418  26.577  1.00  0.00     0.131 A 
ATOM     56  C   UNL A   1      42.300  23.830  26.433  1.00  0.00     0.055 A 
ATOM     57  C   UNL A   1      43.577  25.624  25.472  1.00  0.00     0.041 A 
ATOM     58  F   UNL A   1      43.801  27.646  26.632  1.00  0.00    -0.206 F 
ATOM     59  C   UNL A   1      43.109  24.316  25.403  1.00  0.00     0.022 A 
BRANCH  56  60
ATOM     60  S   UNL A   1      41.853  22.072  26.479  1.00  0.00     0.124 S 
ATOM     61  O   UNL A   1      40.406  22.130  26.278  1.00  0.00    -0.237 OA
ATOM     62  O   UNL A   1      42.628  21.519  25.375  1.00  0.00    -0.237 OA
ATOM     63  O   UNL A   1      42.271  21.646  27.812  1.00  0.00    -0.744 OA
ENDBRANCH  56  60
ENDBRANCH  39  53
BRANCH  40  64
ATOM     64  C   UNL A   1      40.088  31.894  35.348  1.00  0.00     0.023 A 
ATOM     65  C   UNL A   1      39.126  31.465  36.275  1.00  0.00     0.031 A 
ATOM     66  C   UNL A   1      40.671  33.160  35.541  1.00  0.00     0.131 A 
ATOM     67  C   UNL A   1      38.752  32.307  37.335  1.00  0.00     0.055 A 
ATOM     68  C   UNL A   1      40.335  33.971  36.626  1.00  0.00     0.041 A 
ATOM     69  F   UNL A   1      41.594  33.621  34.682  1.00  0.00    -0.206 F 
ATOM     70  C   UNL A   1      39.361  33.549  37.525  1.00  0.00     0.022 A 
BRANCH  67  71
ATOM     71  S   UNL A   1      37.399  31.784  38.424  1.00  0.00     0.124 S 
ATOM     72  O   UNL A   1      36.360  32.753  38.095  1.00  0.00    -0.237 OA
ATOM     73  O   UNL A   1      37.164  30.415  37.978  1.00  0.00    -0.237 OA
ATOM     74  O   UNL A   1      37.971  31.912  39.763  1.00  0.00    -0.744 OA
ENDBRANCH  67  71
ENDBRANCH  40  64
BRANCH  52  75
ATOM     75  C   UNL A   1      45.089  27.170  34.258  1.00  0.00     0.023 A 
ATOM     76  C   UNL A   1      44.978  26.032  35.077  1.00  0.00     0.031 A 
ATOM     77  C   UNL A   1      46.296  27.888  34.280  1.00  0.00     0.131 A 
ATOM     78  C   UNL A   1      46.036  25.678  35.926  1.00  0.00     0.055 A 
ATOM     79  C   UNL A   1      47.367  27.498  35.086  1.00  0.00     0.041 A 
ATOM     80  F   UNL A   1      46.454  28.983  33.520  1.00  0.00    -0.206 F 
ATOM     81  C   UNL A   1      47.236  26.396  35.926  1.00  0.00     0.022 A 
BRANCH  78  82
ATOM     82  S   UNL A   1      45.793  24.318  37.102  1.00  0.00     0.124 S 
ATOM     83  O   UNL A   1      47.165  23.898  37.369  1.00  0.00    -0.237 OA
ATOM     84  O   UNL A   1      45.102  24.979  38.205  1.00  0.00    -0.237 OA
ATOM     85  O   UNL A   1      44.986  23.357  36.354  1.00  0.00    -0.744 OA
ENDBRANCH  78  82
ENDBRANCH  52  75
ENDBRANCH  26  27
ENDBRANCH  19  21
ENDBRANCH  18  19
ENDBRANCH   1  18
TORSDOF 16
ENDMDL
MODEL 3
REMARK VINA RESULT:     -11.2      1.519      2.787
REMARK SMILES CC(C)=CC[C@@]1(C(=O)OCCOC(=O)c2ccc(-c3c4nc(c(-c5cc(S(=O)(=O)[O-])ccc5F)c5ccc([nH]5)c(-c5cc(S(=O)(=O)[O-])ccc5F)c5nc(c(-c6cc(S(=O)(=O)[O-])ccc6F)c6ccc3[nH]6)C=C5)C=C4)cc2)CCC[C@H](C)C1
REMARK SMILES IDX 11 1 10 2 9 3 7 4 8 5 6 6 78 7 83 8 79 9 81 10 80 11 82 12
REMARK SMILES IDX 5 13 4 14 1 15 2 16 3 17 12 18 13 19 14 20 15 21 16 22 77 23
REMARK SMILES IDX 17 24 76 25 18 26 19 27 20 28 70 29 21 30 75 31 69 32 71 33
REMARK SMILES IDX 22 34 74 35 68 36 67 37 23 39 55 40 35 41 54 42 36 43 39 44
REMARK SMILES IDX 53 45 72 46 37 47 38 48 52 50 73 51 40 52 24 53 25 54 33 55
REMARK SMILES IDX 26 56 32 57 34 58 31 59 27 60 28 61 29 62 30 63 56 64 57 65
REMARK SMILES IDX 65 66 58 67 64 68 66 69 63 70 59 71 60 72 61 73 62 74 41 75
REMARK SMILES IDX 42 76 50 77 43 78 49 79 51 80 48 81 44 82 45 83 46 84 47 85
REMARK H PARENT 71 38 39 49
REMARK Flexibility Score: inf
ROOT
ATOM      1  C   UNL A   1      37.549  20.433  24.819  1.00  0.00     0.275 C 
ENDROOT
BRANCH   1   2
ATOM      2  C   UNL A   1      36.048  20.215  25.001  1.00  0.00     0.274 C 
BRANCH   2   3
ATOM      3  O   UNL A   1      35.351  21.479  24.989  1.00  0.00    -0.462 OA
BRANCH   3   4
ATOM      4  C   UNL A   1      34.199  21.522  25.718  1.00  0.00     0.312 C 
ATOM      5  O   UNL A   1      34.140  21.215  26.902  1.00  0.00    -0.252 OA
BRANCH   4   6
ATOM      6  C   UNL A   1      32.998  22.044  24.895  1.00  0.00     0.072 C 
ATOM      7  C   UNL A   1      33.621  22.661  23.594  1.00  0.00     0.019 C 
ATOM      8  C   UNL A   1      32.310  23.199  25.648  1.00  0.00     0.022 C 
ATOM      9  C   UNL A   1      32.677  23.515  22.751  1.00  0.00     0.001 C 
ATOM     10  C   UNL A   1      31.257  23.909  24.777  1.00  0.00    -0.013 C 
ATOM     11  C   UNL A   1      31.949  24.568  23.583  1.00  0.00     0.003 C 
ATOM     12  C   UNL A   1      30.400  24.883  25.581  1.00  0.00     0.007 C 
BRANCH   6  13
ATOM     13  C   UNL A   1      32.081  20.807  24.564  1.00  0.00     0.046 C 
BRANCH  13  14
ATOM     14  C   UNL A   1      32.532  19.588  23.789  1.00  0.00    -0.027 C 
ATOM     15  C   UNL A   1      32.853  17.801  25.579  1.00  0.00     0.039 C 
ATOM     16  C   UNL A   1      32.867  18.340  24.179  1.00  0.00    -0.080 C 
ATOM     17  C   UNL A   1      33.322  17.327  23.155  1.00  0.00     0.039 C 
ENDBRANCH  13  14
ENDBRANCH   6  13
ENDBRANCH   4   6
ENDBRANCH   3   4
ENDBRANCH   2   3
ENDBRANCH   1   2
BRANCH   1  18
ATOM     18  O   UNL A   1      38.000  21.461  25.717  1.00  0.00    -0.458 OA
BRANCH  18  19
ATOM     19  C   UNL A   1      39.269  21.331  26.160  1.00  0.00     0.338 C 
ATOM     20  O   UNL A   1      39.942  20.303  26.150  1.00  0.00    -0.246 OA
BRANCH  19  21
ATOM     21  C   UNL A   1      39.761  22.617  26.692  1.00  0.00     0.060 A 
ATOM     22  C   UNL A   1      39.262  23.831  26.215  1.00  0.00     0.016 A 
ATOM     23  C   UNL A   1      40.798  22.615  27.625  1.00  0.00     0.016 A 
ATOM     24  C   UNL A   1      39.853  25.035  26.597  1.00  0.00     0.010 A 
ATOM     25  C   UNL A   1      41.322  23.827  28.083  1.00  0.00     0.010 A 
ATOM     26  C   UNL A   1      40.880  25.051  27.549  1.00  0.00    -0.014 A 
BRANCH  26  27
ATOM     27  C   UNL A   1      41.522  26.328  27.970  1.00  0.00     0.031 A 
ATOM     28  C   UNL A   1      40.721  27.356  28.728  1.00  0.00     0.074 A 
ATOM     29  C   UNL A   1      42.811  26.578  27.664  1.00  0.00     0.049 A 
ATOM     30  N   UNL A   1      41.012  28.600  29.005  1.00  0.00    -0.248 NA
ATOM     31  C   UNL A   1      39.406  26.921  29.224  1.00  0.00     0.031 C 
ATOM     32  C   UNL A   1      43.717  25.650  26.984  1.00  0.00     0.029 A 
ATOM     33  N   UNL A   1      43.584  27.693  27.881  1.00  0.00    -0.354 N 
ATOM     34  C   UNL A   1      39.901  29.113  29.669  1.00  0.00     0.074 A 
ATOM     35  C   UNL A   1      38.923  28.046  29.730  1.00  0.00     0.031 C 
ATOM     36  C   UNL A   1      44.924  26.223  26.861  1.00  0.00     0.029 A 
ATOM     37  C   UNL A   1      44.857  27.588  27.369  1.00  0.00     0.049 A 
ATOM     38  H   UNL A   1      43.259  28.490  28.358  1.00  0.00     0.167 HD
ATOM     39  C   UNL A   1      39.717  30.359  30.177  1.00  0.00     0.034 A 
ATOM     40  C   UNL A   1      45.843  28.501  27.272  1.00  0.00     0.034 A 
ATOM     41  C   UNL A   1      40.715  31.402  30.125  1.00  0.00     0.049 A 
ATOM     42  C   UNL A   1      45.593  29.897  27.778  1.00  0.00     0.074 A 
ATOM     43  C   UNL A   1      40.638  32.698  30.606  1.00  0.00     0.029 A 
ATOM     44  N   UNL A   1      41.976  31.266  29.559  1.00  0.00    -0.354 N 
ATOM     45  N   UNL A   1      44.516  30.390  28.343  1.00  0.00    -0.248 NA
ATOM     46  C   UNL A   1      46.687  30.862  27.620  1.00  0.00     0.031 C 
ATOM     47  C   UNL A   1      41.827  33.361  30.280  1.00  0.00     0.029 A 
ATOM     48  C   UNL A   1      42.676  32.460  29.658  1.00  0.00     0.049 A 
ATOM     49  H   UNL A   1      42.323  30.442  29.147  1.00  0.00     0.167 HD
ATOM     50  C   UNL A   1      44.811  31.720  28.624  1.00  0.00     0.074 A 
ATOM     51  C   UNL A   1      46.172  31.946  28.183  1.00  0.00     0.031 C 
ATOM     52  C   UNL A   1      44.029  32.671  29.197  1.00  0.00     0.034 A 
BRANCH  39  53
ATOM     53  C   UNL A   1      38.364  30.670  30.774  1.00  0.00     0.023 A 
ATOM     54  C   UNL A   1      37.354  31.317  30.038  1.00  0.00     0.031 A 
ATOM     55  C   UNL A   1      38.094  30.351  32.117  1.00  0.00     0.131 A 
ATOM     56  C   UNL A   1      36.158  31.694  30.671  1.00  0.00     0.055 A 
ATOM     57  C   UNL A   1      36.871  30.657  32.718  1.00  0.00     0.041 A 
ATOM     58  F   UNL A   1      39.024  29.752  32.877  1.00  0.00    -0.206 F 
ATOM     59  C   UNL A   1      35.900  31.347  31.999  1.00  0.00     0.022 A 
BRANCH  56  60
ATOM     60  S   UNL A   1      35.006  32.775  29.778  1.00  0.00     0.124 S 
ATOM     61  O   UNL A   1      34.108  33.200  30.849  1.00  0.00    -0.237 OA
ATOM     62  O   UNL A   1      35.890  33.803  29.240  1.00  0.00    -0.237 OA
ATOM     63  O   UNL A   1      34.403  31.888  28.786  1.00  0.00    -0.744 OA
ENDBRANCH  56  60
ENDBRANCH  39  53
BRANCH  40  64
ATOM     64  C   UNL A   1      47.134  28.148  26.611  1.00  0.00     0.023 A 
ATOM     65  C   UNL A   1      47.235  28.076  25.214  1.00  0.00     0.031 A 
ATOM     66  C   UNL A   1      48.278  27.848  27.373  1.00  0.00     0.131 A 
ATOM     67  C   UNL A   1      48.446  27.681  24.620  1.00  0.00     0.055 A 
ATOM     68  C   UNL A   1      49.494  27.507  26.777  1.00  0.00     0.041 A 
ATOM     69  F   UNL A   1      48.235  27.898  28.713  1.00  0.00    -0.206 F 
ATOM     70  C   UNL A   1      49.578  27.412  25.392  1.00  0.00     0.022 A 
BRANCH  67  71
ATOM     71  S   UNL A   1      48.497  27.451  22.822  1.00  0.00     0.124 S 
ATOM     72  O   UNL A   1      48.302  26.011  22.700  1.00  0.00    -0.237 OA
ATOM     73  O   UNL A   1      47.388  28.289  22.378  1.00  0.00    -0.237 OA
ATOM     74  O   UNL A   1      49.827  27.935  22.455  1.00  0.00    -0.744 OA
ENDBRANCH  67  71
ENDBRANCH  40  64
BRANCH  52  75
ATOM     75  C   UNL A   1      44.657  34.026  29.411  1.00  0.00     0.023 A 
ATOM     76  C   UNL A   1      44.637  35.015  28.412  1.00  0.00     0.031 A 
ATOM     77  C   UNL A   1      45.307  34.318  30.622  1.00  0.00     0.131 A 
ATOM     78  C   UNL A   1      45.306  36.230  28.621  1.00  0.00     0.055 A 
ATOM     79  C   UNL A   1      45.922  35.550  30.845  1.00  0.00     0.041 A 
ATOM     80  F   UNL A   1      45.357  33.408  31.607  1.00  0.00    -0.206 F 
ATOM     81  C   UNL A   1      45.936  36.510  29.837  1.00  0.00     0.022 A 
BRANCH  78  82
ATOM     82  S   UNL A   1      45.420  37.410  27.248  1.00  0.00     0.124 S 
ATOM     83  O   UNL A   1      46.090  38.544  27.876  1.00  0.00    -0.237 OA
ATOM     84  O   UNL A   1      46.204  36.669  26.264  1.00  0.00    -0.237 OA
ATOM     85  O   UNL A   1      44.025  37.643  26.877  1.00  0.00    -0.744 OA
ENDBRANCH  78  82
ENDBRANCH  52  75
ENDBRANCH  26  27
ENDBRANCH  19  21
ENDBRANCH  18  19
ENDBRANCH   1  18
TORSDOF 16
ENDMDL
