MODEL 1
REMARK VINA RESULT:      -9.1      0.000      0.000
REMARK SMILES O=C(C[N@@H+](Cc1c(F)cccc1Cl)C1CC1)OCCOC(=O)c1ccc(-c2c3nc(c(-c4cc(S(=O)(=O)[O-])ccc4F)c4ccc([nH]4)c(-c4cc(S(=O)(=O)[O-])ccc4F)c4nc(c(-c5cc(S(=O)(=O)[O-])ccc5F)c5ccc2[nH]5)C=C4)C=C3)cc1
REMARK SMILES IDX 18 1 17 2 2 3 1 4 3 5 4 6 5 8 6 9 7 10 12 11 8 12 9 13 11 14
REMARK SMILES IDX 13 15 10 16 14 17 15 18 16 19 19 20 20 21 21 22 22 23 23 24
REMARK SMILES IDX 24 25 85 26 25 27 84 28 26 29 27 30 28 31 78 32 29 33 83 34
REMARK SMILES IDX 77 35 79 36 30 37 82 38 76 39 75 40 31 42 63 43 43 44 62 45
REMARK SMILES IDX 44 46 47 47 61 48 80 49 45 50 46 51 60 53 81 54 48 55 32 56
REMARK SMILES IDX 33 57 41 58 34 59 40 60 42 61 39 62 35 63 36 64 37 65 38 66
REMARK SMILES IDX 64 67 65 68 73 69 66 70 72 71 74 72 71 73 67 74 68 75 69 76
REMARK SMILES IDX 70 77 49 78 50 79 58 80 51 81 57 82 59 83 56 84 52 85 53 86
REMARK SMILES IDX 54 87 55 88
REMARK H PARENT 4 7 79 41 47 52
REMARK Flexibility Score: inf
ROOT
ATOM      1  C   UNL A   1      33.136  34.337  28.480  1.00  0.00     0.274 C 
ENDROOT
BRANCH   1   2
ATOM      2  O   UNL A   1      33.564  34.119  29.840  1.00  0.00    -0.458 OA
BRANCH   2   3
ATOM      3  C   UNL A   1      33.588  35.066  30.814  1.00  0.00     0.361 C 
ATOM      4  O   UNL A   1      33.217  36.211  30.552  1.00  0.00    -0.245 OA
BRANCH   3   5
ATOM      5  C   UNL A   1      34.060  34.681  32.216  1.00  0.00     0.387 C 
BRANCH   5   6
ATOM      6  N   UNL A   1      35.355  33.970  32.185  1.00  0.00    -0.319 N 
ATOM      7  H   UNL A   1      35.485  33.593  31.247  1.00  0.00     0.349 HD
BRANCH   6   8
ATOM      8  C   UNL A   1      36.512  34.876  32.340  1.00  0.00     0.304 C 
BRANCH   8   9
ATOM      9  C   UNL A   1      37.789  34.566  31.591  1.00  0.00     0.061 A 
ATOM     10  C   UNL A   1      37.710  34.157  30.251  1.00  0.00     0.133 A 
ATOM     11  C   UNL A   1      39.067  34.577  32.173  1.00  0.00     0.052 A 
ATOM     12  F   UNL A   1      36.509  34.023  29.670  1.00  0.00    -0.206 F 
ATOM     13  C   UNL A   1      38.836  33.830  29.501  1.00  0.00     0.040 A 
ATOM     14  C   UNL A   1      40.208  34.263  31.420  1.00  0.00     0.021 A 
ATOM     15  Cl  UNL A   1      39.325  34.869  33.856  1.00  0.00    -0.084 Cl
ATOM     16  C   UNL A   1      40.093  33.895  30.084  1.00  0.00     0.005 A 
ENDBRANCH   8   9
ENDBRANCH   6   8
BRANCH   6  17
ATOM     17  C   UNL A   1      35.345  32.786  33.065  1.00  0.00     0.185 C 
ATOM     18  C   UNL A   1      35.913  31.513  32.478  1.00  0.00     0.071 C 
ATOM     19  C   UNL A   1      36.587  32.167  33.639  1.00  0.00     0.071 C 
ENDBRANCH   6  17
ENDBRANCH   5   6
ENDBRANCH   3   5
ENDBRANCH   2   3
ENDBRANCH   1   2
BRANCH   1  20
ATOM     20  C   UNL A   1      33.252  33.058  27.645  1.00  0.00     0.275 C 
BRANCH  20  21
ATOM     21  O   UNL A   1      33.951  32.034  28.374  1.00  0.00    -0.458 OA
BRANCH  21  22
ATOM     22  C   UNL A   1      34.382  30.969  27.645  1.00  0.00     0.338 C 
ATOM     23  O   UNL A   1      33.920  30.586  26.589  1.00  0.00    -0.246 OA
BRANCH  22  24
ATOM     24  C   UNL A   1      35.632  30.441  28.249  1.00  0.00     0.060 A 
ATOM     25  C   UNL A   1      36.852  30.736  27.627  1.00  0.00     0.016 A 
ATOM     26  C   UNL A   1      35.617  29.689  29.425  1.00  0.00     0.016 A 
ATOM     27  C   UNL A   1      38.056  30.266  28.170  1.00  0.00     0.010 A 
ATOM     28  C   UNL A   1      36.820  29.233  29.972  1.00  0.00     0.010 A 
ATOM     29  C   UNL A   1      38.050  29.497  29.341  1.00  0.00    -0.014 A 
BRANCH  29  30
ATOM     30  C   UNL A   1      39.291  28.848  29.852  1.00  0.00     0.031 A 
ATOM     31  C   UNL A   1      40.011  29.475  31.018  1.00  0.00     0.074 A 
ATOM     32  C   UNL A   1      39.814  27.749  29.274  1.00  0.00     0.049 A 
ATOM     33  N   UNL A   1      41.134  29.121  31.590  1.00  0.00    -0.248 NA
ATOM     34  C   UNL A   1      39.383  30.666  31.607  1.00  0.00     0.031 C 
ATOM     35  C   UNL A   1      39.236  27.016  28.149  1.00  0.00     0.029 A 
ATOM     36  N   UNL A   1      40.988  27.081  29.536  1.00  0.00    -0.354 N 
ATOM     37  C   UNL A   1      41.322  30.019  32.634  1.00  0.00     0.074 A 
ATOM     38  C   UNL A   1      40.264  31.004  32.532  1.00  0.00     0.031 C 
ATOM     39  C   UNL A   1      40.089  26.045  27.774  1.00  0.00     0.029 A 
ATOM     40  C   UNL A   1      41.274  26.089  28.628  1.00  0.00     0.049 A 
ATOM     41  H   UNL A   1      41.568  27.295  30.302  1.00  0.00     0.167 HD
ATOM     42  C   UNL A   1      42.246  29.997  33.628  1.00  0.00     0.034 A 
ATOM     43  C   UNL A   1      42.375  25.323  28.484  1.00  0.00     0.034 A 
ATOM     44  C   UNL A   1      43.308  29.029  33.724  1.00  0.00     0.049 A 
ATOM     45  C   UNL A   1      43.495  25.420  29.491  1.00  0.00     0.074 A 
ATOM     46  C   UNL A   1      44.247  28.872  34.729  1.00  0.00     0.029 A 
ATOM     47  N   UNL A   1      43.592  28.069  32.764  1.00  0.00    -0.354 N 
ATOM     48  N   UNL A   1      43.605  26.209  30.533  1.00  0.00    -0.248 NA
ATOM     49  C   UNL A   1      44.621  24.491  29.320  1.00  0.00     0.031 C 
ATOM     50  C   UNL A   1      45.136  27.859  34.346  1.00  0.00     0.029 A 
ATOM     51  C   UNL A   1      44.714  27.341  33.133  1.00  0.00     0.049 A 
ATOM     52  H   UNL A   1      43.072  27.923  31.940  1.00  0.00     0.167 HD
ATOM     53  C   UNL A   1      44.768  25.810  31.189  1.00  0.00     0.074 A 
ATOM     54  C   UNL A   1      45.345  24.741  30.401  1.00  0.00     0.031 C 
ATOM     55  C   UNL A   1      45.287  26.264  32.358  1.00  0.00     0.034 A 
BRANCH  42  56
ATOM     56  C   UNL A   1      42.117  31.060  34.691  1.00  0.00     0.023 A 
ATOM     57  C   UNL A   1      42.755  32.306  34.547  1.00  0.00     0.031 A 
ATOM     58  C   UNL A   1      41.416  30.812  35.882  1.00  0.00     0.131 A 
ATOM     59  C   UNL A   1      42.769  33.213  35.614  1.00  0.00     0.055 A 
ATOM     60  C   UNL A   1      41.357  31.759  36.907  1.00  0.00     0.041 A 
ATOM     61  F   UNL A   1      40.801  29.635  36.082  1.00  0.00    -0.206 F 
ATOM     62  C   UNL A   1      42.054  32.958  36.786  1.00  0.00     0.022 A 
BRANCH  59  63
ATOM     63  S   UNL A   1      43.883  34.640  35.513  1.00  0.00     0.124 S 
ATOM     64  O   UNL A   1      43.940  35.068  36.909  1.00  0.00    -0.237 OA
ATOM     65  O   UNL A   1      45.103  34.052  34.974  1.00  0.00    -0.237 OA
ATOM     66  O   UNL A   1      43.183  35.558  34.617  1.00  0.00    -0.744 OA
ENDBRANCH  59  63
ENDBRANCH  42  56
BRANCH  43  67
ATOM     67  C   UNL A   1      42.505  24.402  27.320  1.00  0.00     0.023 A 
ATOM     68  C   UNL A   1      41.934  23.122  27.336  1.00  0.00     0.031 A 
ATOM     69  C   UNL A   1      43.290  24.768  26.212  1.00  0.00     0.131 A 
ATOM     70  C   UNL A   1      42.200  22.229  26.285  1.00  0.00     0.055 A 
ATOM     71  C   UNL A   1      43.517  23.891  25.151  1.00  0.00     0.041 A 
ATOM     72  F   UNL A   1      43.859  25.982  26.153  1.00  0.00    -0.206 F 
ATOM     73  C   UNL A   1      42.982  22.606  25.191  1.00  0.00     0.022 A 
BRANCH  70  74
ATOM     74  S   UNL A   1      41.575  20.530  26.412  1.00  0.00     0.124 S 
ATOM     75  O   UNL A   1      42.347  19.853  25.376  1.00  0.00    -0.237 OA
ATOM     76  O   UNL A   1      41.909  20.188  27.790  1.00  0.00    -0.237 OA
ATOM     77  O   UNL A   1      40.147  20.674  26.136  1.00  0.00    -0.744 OA
ENDBRANCH  70  74
ENDBRANCH  43  67
BRANCH  55  78
ATOM     78  C   UNL A   1      46.478  25.527  32.920  1.00  0.00     0.023 A 
ATOM     79  C   UNL A   1      46.347  24.422  33.779  1.00  0.00     0.031 A 
ATOM     80  C   UNL A   1      47.778  25.963  32.600  1.00  0.00     0.131 A 
ATOM     81  C   UNL A   1      47.493  23.827  34.332  1.00  0.00     0.055 A 
ATOM     82  C   UNL A   1      48.915  25.332  33.108  1.00  0.00     0.041 A 
ATOM     83  F   UNL A   1      47.964  27.016  31.788  1.00  0.00    -0.206 F 
ATOM     84  C   UNL A   1      48.775  24.265  33.990  1.00  0.00     0.022 A 
BRANCH  81  85
ATOM     85  S   UNL A   1      47.286  22.525  35.580  1.00  0.00     0.124 S 
ATOM     86  O   UNL A   1      48.182  21.486  35.085  1.00  0.00    -0.237 OA
ATOM     87  O   UNL A   1      47.705  23.199  36.805  1.00  0.00    -0.237 OA
ATOM     88  O   UNL A   1      45.862  22.203  35.507  1.00  0.00    -0.744 OA
ENDBRANCH  81  85
ENDBRANCH  55  78
ENDBRANCH  29  30
ENDBRANCH  22  24
ENDBRANCH  21  22
ENDBRANCH  20  21
ENDBRANCH   1  20
TORSDOF 18
ENDMDL
MODEL 2
REMARK VINA RESULT:      -9.1      6.388     10.682
REMARK SMILES O=C(C[N@@H+](Cc1c(F)cccc1Cl)C1CC1)OCCOC(=O)c1ccc(-c2c3nc(c(-c4cc(S(=O)(=O)[O-])ccc4F)c4ccc([nH]4)c(-c4cc(S(=O)(=O)[O-])ccc4F)c4nc(c(-c5cc(S(=O)(=O)[O-])ccc5F)c5ccc2[nH]5)C=C4)C=C3)cc1
REMARK SMILES IDX 18 1 17 2 2 3 1 4 3 5 4 6 5 8 6 9 7 10 12 11 8 12 9 13 11 14
REMARK SMILES IDX 13 15 10 16 14 17 15 18 16 19 19 20 20 21 21 22 22 23 23 24
REMARK SMILES IDX 24 25 85 26 25 27 84 28 26 29 27 30 28 31 78 32 29 33 83 34
REMARK SMILES IDX 77 35 79 36 30 37 82 38 76 39 75 40 31 42 63 43 43 44 62 45
REMARK SMILES IDX 44 46 47 47 61 48 80 49 45 50 46 51 60 53 81 54 48 55 32 56
REMARK SMILES IDX 33 57 41 58 34 59 40 60 42 61 39 62 35 63 36 64 37 65 38 66
REMARK SMILES IDX 64 67 65 68 73 69 66 70 72 71 74 72 71 73 67 74 68 75 69 76
REMARK SMILES IDX 70 77 49 78 50 79 58 80 51 81 57 82 59 83 56 84 52 85 53 86
REMARK SMILES IDX 54 87 55 88
REMARK H PARENT 4 7 79 41 47 52
REMARK Flexibility Score: inf
ROOT
ATOM      1  C   UNL A   1      35.886  20.277  25.013  1.00  0.00     0.274 C 
ENDROOT
BRANCH   1   2
ATOM      2  O   UNL A   1      35.473  21.644  24.805  1.00  0.00    -0.458 OA
BRANCH   2   3
ATOM      3  C   UNL A   1      34.995  22.471  25.771  1.00  0.00     0.361 C 
ATOM      4  O   UNL A   1      35.767  23.240  26.345  1.00  0.00    -0.245 OA
BRANCH   3   5
ATOM      5  C   UNL A   1      33.505  22.436  26.109  1.00  0.00     0.387 C 
BRANCH   5   6
ATOM      6  N   UNL A   1      32.670  22.258  24.903  1.00  0.00    -0.319 N 
ATOM      7  H   UNL A   1      33.286  22.020  24.126  1.00  0.00     0.349 HD
BRANCH   6   8
ATOM      8  C   UNL A   1      31.778  21.083  24.990  1.00  0.00     0.304 C 
BRANCH   8   9
ATOM      9  C   UNL A   1      32.222  19.781  24.361  1.00  0.00     0.061 A 
ATOM     10  C   UNL A   1      32.753  18.775  25.181  1.00  0.00     0.133 A 
ATOM     11  C   UNL A   1      32.218  19.532  22.979  1.00  0.00     0.052 A 
ATOM     12  F   UNL A   1      32.884  18.993  26.498  1.00  0.00    -0.206 F 
ATOM     13  C   UNL A   1      33.207  17.559  24.676  1.00  0.00     0.040 A 
ATOM     14  C   UNL A   1      32.659  18.304  22.463  1.00  0.00     0.021 A 
ATOM     15  Cl  UNL A   1      31.778  20.729  21.815  1.00  0.00    -0.084 Cl
ATOM     16  C   UNL A   1      33.148  17.316  23.312  1.00  0.00     0.005 A 
ENDBRANCH   8   9
ENDBRANCH   6   8
BRANCH   6  17
ATOM     17  C   UNL A   1      32.027  23.522  24.497  1.00  0.00     0.185 C 
ATOM     18  C   UNL A   1      32.440  24.078  23.152  1.00  0.00     0.071 C 
ATOM     19  C   UNL A   1      31.034  23.627  23.375  1.00  0.00     0.071 C 
ENDBRANCH   6  17
ENDBRANCH   5   6
ENDBRANCH   3   5
ENDBRANCH   2   3
ENDBRANCH   1   2
BRANCH   1  20
ATOM     20  C   UNL A   1      37.401  20.118  24.841  1.00  0.00     0.275 C 
BRANCH  20  21
ATOM     21  O   UNL A   1      38.097  21.254  25.381  1.00  0.00    -0.458 OA
BRANCH  21  22
ATOM     22  C   UNL A   1      39.227  20.981  26.088  1.00  0.00     0.338 C 
ATOM     23  O   UNL A   1      39.761  19.896  26.201  1.00  0.00    -0.246 OA
BRANCH  22  24
ATOM     24  C   UNL A   1      39.822  22.256  26.565  1.00  0.00     0.060 A 
ATOM     25  C   UNL A   1      39.307  23.461  26.070  1.00  0.00     0.016 A 
ATOM     26  C   UNL A   1      40.854  22.278  27.506  1.00  0.00     0.016 A 
ATOM     27  C   UNL A   1      39.832  24.687  26.501  1.00  0.00     0.010 A 
ATOM     28  C   UNL A   1      41.366  23.502  27.944  1.00  0.00     0.010 A 
ATOM     29  C   UNL A   1      40.877  24.719  27.433  1.00  0.00    -0.014 A 
BRANCH  29  30
ATOM     30  C   UNL A   1      41.564  25.993  27.788  1.00  0.00     0.031 A 
ATOM     31  C   UNL A   1      40.750  27.121  28.365  1.00  0.00     0.074 A 
ATOM     32  C   UNL A   1      42.880  26.183  27.563  1.00  0.00     0.049 A 
ATOM     33  N   UNL A   1      41.121  28.334  28.691  1.00  0.00    -0.248 NA
ATOM     34  C   UNL A   1      39.324  26.845  28.592  1.00  0.00     0.031 C 
ATOM     35  C   UNL A   1      43.808  25.192  27.025  1.00  0.00     0.029 A 
ATOM     36  N   UNL A   1      43.654  27.308  27.727  1.00  0.00    -0.354 N 
ATOM     37  C   UNL A   1      39.984  28.948  29.204  1.00  0.00     0.074 A 
ATOM     38  C   UNL A   1      38.890  28.016  29.026  1.00  0.00     0.031 C 
ATOM     39  C   UNL A   1      45.008  25.773  26.836  1.00  0.00     0.029 A 
ATOM     40  C   UNL A   1      44.932  27.176  27.237  1.00  0.00     0.049 A 
ATOM     41  H   UNL A   1      43.323  28.132  28.153  1.00  0.00     0.167 HD
ATOM     42  C   UNL A   1      39.866  30.148  29.826  1.00  0.00     0.034 A 
ATOM     43  C   UNL A   1      45.919  28.085  27.102  1.00  0.00     0.034 A 
ATOM     44  C   UNL A   1      40.947  31.085  29.992  1.00  0.00     0.049 A 
ATOM     45  C   UNL A   1      45.729  29.484  27.635  1.00  0.00     0.074 A 
ATOM     46  C   UNL A   1      40.952  32.290  30.673  1.00  0.00     0.029 A 
ATOM     47  N   UNL A   1      42.214  30.934  29.445  1.00  0.00    -0.354 N 
ATOM     48  N   UNL A   1      44.676  30.015  28.210  1.00  0.00    -0.248 NA
ATOM     49  C   UNL A   1      46.879  30.394  27.533  1.00  0.00     0.031 C 
ATOM     50  C   UNL A   1      42.200  32.897  30.484  1.00  0.00     0.029 A 
ATOM     51  C   UNL A   1      42.996  32.042  29.739  1.00  0.00     0.049 A 
ATOM     52  H   UNL A   1      42.515  30.155  28.925  1.00  0.00     0.167 HD
ATOM     53  C   UNL A   1      45.069  31.289  28.616  1.00  0.00     0.074 A 
ATOM     54  C   UNL A   1      46.439  31.462  28.182  1.00  0.00     0.031 C 
ATOM     55  C   UNL A   1      44.368  32.214  29.320  1.00  0.00     0.034 A 
BRANCH  42  56
ATOM     56  C   UNL A   1      38.504  30.488  30.381  1.00  0.00     0.023 A 
ATOM     57  C   UNL A   1      37.578  31.225  29.619  1.00  0.00     0.031 A 
ATOM     58  C   UNL A   1      38.148  30.138  31.693  1.00  0.00     0.131 A 
ATOM     59  C   UNL A   1      36.391  31.679  30.207  1.00  0.00     0.055 A 
ATOM     60  C   UNL A   1      36.921  30.517  32.244  1.00  0.00     0.041 A 
ATOM     61  F   UNL A   1      38.996  29.449  32.472  1.00  0.00    -0.206 F 
ATOM     62  C   UNL A   1      36.044  31.310  31.508  1.00  0.00     0.022 A 
BRANCH  59  63
ATOM     63  S   UNL A   1      35.402  32.905  29.308  1.00  0.00     0.124 S 
ATOM     64  O   UNL A   1      36.313  34.047  29.270  1.00  0.00    -0.237 OA
ATOM     65  O   UNL A   1      35.155  32.240  28.035  1.00  0.00    -0.237 OA
ATOM     66  O   UNL A   1      34.226  33.085  30.158  1.00  0.00    -0.744 OA
ENDBRANCH  59  63
ENDBRANCH  42  56
BRANCH  43  67
ATOM     67  C   UNL A   1      47.185  27.725  26.404  1.00  0.00     0.023 A 
ATOM     68  C   UNL A   1      47.333  27.909  25.022  1.00  0.00     0.031 A 
ATOM     69  C   UNL A   1      48.230  27.102  27.109  1.00  0.00     0.131 A 
ATOM     70  C   UNL A   1      48.482  27.423  24.376  1.00  0.00     0.055 A 
ATOM     71  C   UNL A   1      49.387  26.658  26.468  1.00  0.00     0.041 A 
ATOM     72  F   UNL A   1      48.132  26.902  28.433  1.00  0.00    -0.206 F 
ATOM     73  C   UNL A   1      49.511  26.805  25.090  1.00  0.00     0.022 A 
BRANCH  70  74
ATOM     74  S   UNL A   1      48.572  27.537  22.567  1.00  0.00     0.124 S 
ATOM     75  O   UNL A   1      49.785  28.324  22.381  1.00  0.00    -0.237 OA
ATOM     76  O   UNL A   1      48.651  26.132  22.181  1.00  0.00    -0.237 OA
ATOM     77  O   UNL A   1      47.327  28.211  22.208  1.00  0.00    -0.744 OA
ENDBRANCH  70  74
ENDBRANCH  43  67
BRANCH  55  78
ATOM     78  C   UNL A   1      45.108  33.451  29.768  1.00  0.00     0.023 A 
ATOM     79  C   UNL A   1      45.147  34.627  29.000  1.00  0.00     0.031 A 
ATOM     80  C   UNL A   1      45.810  33.436  30.988  1.00  0.00     0.131 A 
ATOM     81  C   UNL A   1      45.918  35.719  29.432  1.00  0.00     0.055 A 
ATOM     82  C   UNL A   1      46.529  34.544  31.440  1.00  0.00     0.041 A 
ATOM     83  F   UNL A   1      45.812  32.338  31.761  1.00  0.00    -0.206 F 
ATOM     84  C   UNL A   1      46.596  35.690  30.654  1.00  0.00     0.022 A 
BRANCH  81  85
ATOM     85  S   UNL A   1      46.100  37.151  28.333  1.00  0.00     0.124 S 
ATOM     86  O   UNL A   1      45.163  36.831  27.261  1.00  0.00    -0.237 OA
ATOM     87  O   UNL A   1      45.721  38.261  29.201  1.00  0.00    -0.237 OA
ATOM     88  O   UNL A   1      47.512  37.117  27.954  1.00  0.00    -0.744 OA
ENDBRANCH  81  85
ENDBRANCH  55  78
ENDBRANCH  29  30
ENDBRANCH  22  24
ENDBRANCH  21  22
ENDBRANCH  20  21
ENDBRANCH   1  20
TORSDOF 18
ENDMDL
MODEL 3
REMARK VINA RESULT:      -8.9      3.912      6.074
REMARK SMILES O=C(C[N@@H+](Cc1c(F)cccc1Cl)C1CC1)OCCOC(=O)c1ccc(-c2c3nc(c(-c4cc(S(=O)(=O)[O-])ccc4F)c4ccc([nH]4)c(-c4cc(S(=O)(=O)[O-])ccc4F)c4nc(c(-c5cc(S(=O)(=O)[O-])ccc5F)c5ccc2[nH]5)C=C4)C=C3)cc1
REMARK SMILES IDX 18 1 17 2 2 3 1 4 3 5 4 6 5 8 6 9 7 10 12 11 8 12 9 13 11 14
REMARK SMILES IDX 13 15 10 16 14 17 15 18 16 19 19 20 20 21 21 22 22 23 23 24
REMARK SMILES IDX 24 25 85 26 25 27 84 28 26 29 27 30 28 31 78 32 29 33 83 34
REMARK SMILES IDX 77 35 79 36 30 37 82 38 76 39 75 40 31 42 63 43 43 44 62 45
REMARK SMILES IDX 44 46 47 47 61 48 80 49 45 50 46 51 60 53 81 54 48 55 32 56
REMARK SMILES IDX 33 57 41 58 34 59 40 60 42 61 39 62 35 63 36 64 37 65 38 66
REMARK SMILES IDX 64 67 65 68 73 69 66 70 72 71 74 72 71 73 67 74 68 75 69 76
REMARK SMILES IDX 70 77 49 78 50 79 58 80 51 81 57 82 59 83 56 84 52 85 53 86
REMARK SMILES IDX 54 87 55 88
REMARK H PARENT 4 7 79 41 47 52
REMARK Flexibility Score: inf
ROOT
ATOM      1  C   UNL A   1      32.886  29.694  25.432  1.00  0.00     0.274 C 
ENDROOT
BRANCH   1   2
ATOM      2  O   UNL A   1      32.407  28.356  25.675  1.00  0.00    -0.458 OA
BRANCH   2   3
ATOM      3  C   UNL A   1      33.072  27.217  25.349  1.00  0.00     0.361 C 
ATOM      4  O   UNL A   1      33.898  27.238  24.436  1.00  0.00    -0.245 OA
BRANCH   3   5
ATOM      5  C   UNL A   1      32.789  25.939  26.139  1.00  0.00     0.387 C 
BRANCH   5   6
ATOM      6  N   UNL A   1      33.017  24.727  25.325  1.00  0.00    -0.319 N 
ATOM      7  H   UNL A   1      33.821  24.898  24.722  1.00  0.00     0.349 HD
BRANCH   6   8
ATOM      8  C   UNL A   1      33.447  23.565  26.130  1.00  0.00     0.304 C 
BRANCH   8   9
ATOM      9  C   UNL A   1      34.690  22.809  25.715  1.00  0.00     0.061 A 
ATOM     10  C   UNL A   1      35.891  23.513  25.545  1.00  0.00     0.133 A 
ATOM     11  C   UNL A   1      34.711  21.440  25.400  1.00  0.00     0.052 A 
ATOM     12  F   UNL A   1      35.911  24.841  25.725  1.00  0.00    -0.206 F 
ATOM     13  C   UNL A   1      37.071  22.894  25.140  1.00  0.00     0.040 A 
ATOM     14  C   UNL A   1      35.898  20.806  25.006  1.00  0.00     0.021 A 
ATOM     15  Cl  UNL A   1      33.285  20.466  25.371  1.00  0.00    -0.084 Cl
ATOM     16  C   UNL A   1      37.078  21.531  24.882  1.00  0.00     0.005 A 
ENDBRANCH   8   9
ENDBRANCH   6   8
BRANCH   6  17
ATOM     17  C   UNL A   1      31.899  24.482  24.393  1.00  0.00     0.185 C 
ATOM     18  C   UNL A   1      32.255  23.805  23.088  1.00  0.00     0.071 C 
ATOM     19  C   UNL A   1      31.369  23.114  24.072  1.00  0.00     0.071 C 
ENDBRANCH   6  17
ENDBRANCH   5   6
ENDBRANCH   3   5
ENDBRANCH   2   3
ENDBRANCH   1   2
BRANCH   1  20
ATOM     20  C   UNL A   1      32.299  30.690  26.438  1.00  0.00     0.275 C 
BRANCH  20  21
ATOM     21  O   UNL A   1      33.122  30.772  27.614  1.00  0.00    -0.458 OA
BRANCH  21  22
ATOM     22  C   UNL A   1      34.146  31.667  27.566  1.00  0.00     0.338 C 
ATOM     23  O   UNL A   1      34.054  32.853  27.320  1.00  0.00    -0.246 OA
BRANCH  22  24
ATOM     24  C   UNL A   1      35.390  31.007  28.038  1.00  0.00     0.060 A 
ATOM     25  C   UNL A   1      35.386  29.617  28.215  1.00  0.00     0.016 A 
ATOM     26  C   UNL A   1      36.559  31.733  28.280  1.00  0.00     0.016 A 
ATOM     27  C   UNL A   1      36.542  28.954  28.649  1.00  0.00     0.010 A 
ATOM     28  C   UNL A   1      37.714  31.067  28.699  1.00  0.00     0.010 A 
ATOM     29  C   UNL A   1      37.714  29.675  28.909  1.00  0.00    -0.014 A 
BRANCH  29  30
ATOM     30  C   UNL A   1      38.906  29.026  29.524  1.00  0.00     0.031 A 
ATOM     31  C   UNL A   1      39.485  29.616  30.785  1.00  0.00     0.074 A 
ATOM     32  C   UNL A   1      39.511  27.960  28.963  1.00  0.00     0.049 A 
ATOM     33  N   UNL A   1      40.547  29.257  31.460  1.00  0.00    -0.248 NA
ATOM     34  C   UNL A   1      38.772  30.772  31.348  1.00  0.00     0.031 C 
ATOM     35  C   UNL A   1      39.072  27.265  27.755  1.00  0.00     0.029 A 
ATOM     36  N   UNL A   1      40.663  27.302  29.324  1.00  0.00    -0.354 N 
ATOM     37  C   UNL A   1      40.604  30.115  32.552  1.00  0.00     0.074 A 
ATOM     38  C   UNL A   1      39.543  31.086  32.376  1.00  0.00     0.031 C 
ATOM     39  C   UNL A   1      39.980  26.324  27.436  1.00  0.00     0.029 A 
ATOM     40  C   UNL A   1      41.066  26.353  28.414  1.00  0.00     0.049 A 
ATOM     41  H   UNL A   1      41.154  27.493  30.155  1.00  0.00     0.167 HD
ATOM     42  C   UNL A   1      41.416  30.067  33.638  1.00  0.00     0.034 A 
ATOM     43  C   UNL A   1      42.192  25.611  28.359  1.00  0.00     0.034 A 
ATOM     44  C   UNL A   1      42.483  29.114  33.810  1.00  0.00     0.049 A 
ATOM     45  C   UNL A   1      43.195  25.685  29.483  1.00  0.00     0.074 A 
ATOM     46  C   UNL A   1      43.311  28.931  34.903  1.00  0.00     0.029 A 
ATOM     47  N   UNL A   1      42.887  28.198  32.849  1.00  0.00    -0.354 N 
ATOM     48  N   UNL A   1      43.177  26.433  30.561  1.00  0.00    -0.248 NA
ATOM     49  C   UNL A   1      44.352  24.783  29.399  1.00  0.00     0.031 C 
ATOM     50  C   UNL A   1      44.257  27.950  34.579  1.00  0.00     0.029 A 
ATOM     51  C   UNL A   1      43.978  27.475  33.308  1.00  0.00     0.049 A 
ATOM     52  H   UNL A   1      42.462  28.078  31.969  1.00  0.00     0.167 HD
ATOM     53  C   UNL A   1      44.271  26.026  31.322  1.00  0.00     0.074 A 
ATOM     54  C   UNL A   1      44.951  25.000  30.560  1.00  0.00     0.031 C 
ATOM     55  C   UNL A   1      44.652  26.440  32.558  1.00  0.00     0.034 A 
BRANCH  42  56
ATOM     56  C   UNL A   1      41.153  31.083  34.722  1.00  0.00     0.023 A 
ATOM     57  C   UNL A   1      40.072  30.928  35.609  1.00  0.00     0.031 A 
ATOM     58  C   UNL A   1      41.936  32.243  34.833  1.00  0.00     0.131 A 
ATOM     59  C   UNL A   1      39.739  31.961  36.494  1.00  0.00     0.055 A 
ATOM     60  C   UNL A   1      41.653  33.229  35.782  1.00  0.00     0.041 A 
ATOM     61  F   UNL A   1      42.971  32.452  34.004  1.00  0.00    -0.206 F 
ATOM     62  C   UNL A   1      40.537  33.101  36.604  1.00  0.00     0.022 A 
BRANCH  59  63
ATOM     63  S   UNL A   1      38.150  31.867  37.364  1.00  0.00     0.124 S 
ATOM     64  O   UNL A   1      37.350  32.837  36.619  1.00  0.00    -0.237 OA
ATOM     65  O   UNL A   1      37.780  30.468  37.196  1.00  0.00    -0.237 OA
ATOM     66  O   UNL A   1      38.484  32.266  38.730  1.00  0.00    -0.744 OA
ENDBRANCH  59  63
ENDBRANCH  42  56
BRANCH  43  67
ATOM     67  C   UNL A   1      42.464  24.741  27.180  1.00  0.00     0.023 A 
ATOM     68  C   UNL A   1      42.045  23.403  27.150  1.00  0.00     0.031 A 
ATOM     69  C   UNL A   1      43.236  25.223  26.108  1.00  0.00     0.131 A 
ATOM     70  C   UNL A   1      42.446  22.574  26.090  1.00  0.00     0.055 A 
ATOM     71  C   UNL A   1      43.597  24.405  25.037  1.00  0.00     0.041 A 
ATOM     72  F   UNL A   1      43.662  26.495  26.096  1.00  0.00    -0.206 F 
ATOM     73  C   UNL A   1      43.213  23.067  25.031  1.00  0.00     0.022 A 
BRANCH  70  74
ATOM     74  S   UNL A   1      42.018  20.812  26.158  1.00  0.00     0.124 S 
ATOM     75  O   UNL A   1      42.281  20.498  27.558  1.00  0.00    -0.237 OA
ATOM     76  O   UNL A   1      40.616  20.827  25.755  1.00  0.00    -0.237 OA
ATOM     77  O   UNL A   1      42.935  20.204  25.197  1.00  0.00    -0.744 OA
ENDBRANCH  70  74
ENDBRANCH  43  67
BRANCH  55  78
ATOM     78  C   UNL A   1      45.792  25.700  33.215  1.00  0.00     0.023 A 
ATOM     79  C   UNL A   1      45.594  24.551  33.999  1.00  0.00     0.031 A 
ATOM     80  C   UNL A   1      47.107  26.179  33.067  1.00  0.00     0.131 A 
ATOM     81  C   UNL A   1      46.686  23.952  34.650  1.00  0.00     0.055 A 
ATOM     82  C   UNL A   1      48.196  25.546  33.670  1.00  0.00     0.041 A 
ATOM     83  F   UNL A   1      47.356  27.275  32.332  1.00  0.00    -0.206 F 
ATOM     84  C   UNL A   1      47.986  24.433  34.477  1.00  0.00     0.022 A 
BRANCH  81  85
ATOM     85  S   UNL A   1      46.374  22.585  35.802  1.00  0.00     0.124 S 
ATOM     86  O   UNL A   1      47.554  22.635  36.659  1.00  0.00    -0.237 OA
ATOM     87  O   UNL A   1      45.116  22.982  36.424  1.00  0.00    -0.237 OA
ATOM     88  O   UNL A   1      46.291  21.414  34.930  1.00  0.00    -0.744 OA
ENDBRANCH  81  85
ENDBRANCH  55  78
ENDBRANCH  29  30
ENDBRANCH  22  24
ENDBRANCH  21  22
ENDBRANCH  20  21
ENDBRANCH   1  20
TORSDOF 18
ENDMDL
