MODEL 1
REMARK VINA RESULT:     -10.6      0.000      0.000
REMARK SMILES CC(C)CC[C@@]1(CC(=O)OCCOC(=O)c2ccc(-c3c4nc(c(-c5cc(S(=O)(=O)[O-])ccc5F)c5ccc([nH]5)c(-c5cc(S(=O)(=O)[O-])ccc5F)c5nc(c(-c6cc(S(=O)(=O)[O-])ccc6F)c6ccc3[nH]6)C=C5)C=C4)cc2)CCOC(C)(C)C1
REMARK SMILES IDX 11 1 10 2 8 3 9 4 7 5 6 6 79 7 85 8 80 9 82 10 81 11 83 12
REMARK SMILES IDX 84 13 5 14 4 15 2 16 1 17 3 18 12 19 13 20 14 21 15 22 16 23
REMARK SMILES IDX 17 24 78 25 18 26 77 27 19 28 20 29 21 30 71 31 22 32 76 33
REMARK SMILES IDX 70 34 72 35 23 36 75 37 69 38 68 39 24 41 56 42 36 43 55 44
REMARK SMILES IDX 37 45 40 46 54 47 73 48 38 49 39 50 53 52 74 53 41 54 25 55
REMARK SMILES IDX 26 56 34 57 27 58 33 59 35 60 32 61 28 62 29 63 30 64 31 65
REMARK SMILES IDX 57 66 58 67 66 68 59 69 65 70 67 71 64 72 60 73 61 74 62 75
REMARK SMILES IDX 63 76 42 77 43 78 51 79 44 80 50 81 52 82 49 83 45 84 46 85
REMARK SMILES IDX 47 86 48 87
REMARK H PARENT 72 40 40 51
REMARK Flexibility Score: inf
ROOT
ATOM      1  C   UNL A   1      31.869  28.665  26.990  1.00  0.00     0.274 C 
ENDROOT
BRANCH   1   2
ATOM      2  O   UNL A   1      31.887  27.761  25.865  1.00  0.00    -0.462 OA
BRANCH   2   3
ATOM      3  C   UNL A   1      31.675  26.470  26.203  1.00  0.00     0.306 C 
ATOM      4  O   UNL A   1      30.574  26.005  26.492  1.00  0.00    -0.252 OA
BRANCH   3   5
ATOM      5  C   UNL A   1      32.904  25.606  26.308  1.00  0.00     0.130 C 
BRANCH   5   6
ATOM      6  C   UNL A   1      33.407  24.564  25.254  1.00  0.00    -0.014 C 
ATOM      7  C   UNL A   1      33.074  23.202  25.963  1.00  0.00     0.036 C 
ATOM      8  C   UNL A   1      34.940  24.695  25.046  1.00  0.00     0.042 C 
ATOM      9  C   UNL A   1      33.912  22.039  25.489  1.00  0.00     0.161 C 
ATOM     10  C   UNL A   1      35.794  23.399  24.927  1.00  0.00     0.063 C 
ATOM     11  O   UNL A   1      35.281  22.336  25.733  1.00  0.00    -0.376 OA
ATOM     12  C   UNL A   1      35.995  22.878  23.499  1.00  0.00     0.042 C 
ATOM     13  C   UNL A   1      37.199  23.704  25.483  1.00  0.00     0.042 C 
BRANCH   6  14
ATOM     14  C   UNL A   1      32.533  24.610  23.948  1.00  0.00     0.008 C 
BRANCH  14  15
ATOM     15  C   UNL A   1      33.157  24.948  22.579  1.00  0.00     0.003 C 
BRANCH  15  16
ATOM     16  C   UNL A   1      32.901  26.378  22.063  1.00  0.00    -0.017 C 
ATOM     17  C   UNL A   1      31.420  26.768  22.047  1.00  0.00     0.007 C 
ATOM     18  C   UNL A   1      33.685  27.411  22.874  1.00  0.00     0.007 C 
ENDBRANCH  15  16
ENDBRANCH  14  15
ENDBRANCH   6  14
ENDBRANCH   5   6
ENDBRANCH   3   5
ENDBRANCH   2   3
ENDBRANCH   1   2
BRANCH   1  19
ATOM     19  C   UNL A   1      31.906  30.130  26.556  1.00  0.00     0.275 C 
BRANCH  19  20
ATOM     20  O   UNL A   1      33.259  30.583  26.371  1.00  0.00    -0.458 OA
BRANCH  20  21
ATOM     21  C   UNL A   1      33.711  31.439  27.317  1.00  0.00     0.338 C 
ATOM     22  O   UNL A   1      33.161  32.454  27.707  1.00  0.00    -0.246 OA
BRANCH  21  23
ATOM     23  C   UNL A   1      35.035  31.023  27.811  1.00  0.00     0.060 A 
ATOM     24  C   UNL A   1      35.293  29.701  28.184  1.00  0.00     0.016 A 
ATOM     25  C   UNL A   1      35.993  32.015  28.024  1.00  0.00     0.016 A 
ATOM     26  C   UNL A   1      36.495  29.381  28.819  1.00  0.00     0.010 A 
ATOM     27  C   UNL A   1      37.215  31.682  28.607  1.00  0.00     0.010 A 
ATOM     28  C   UNL A   1      37.469  30.368  29.032  1.00  0.00    -0.014 A 
BRANCH  28  29
ATOM     29  C   UNL A   1      38.765  30.050  29.685  1.00  0.00     0.031 A 
ATOM     30  C   UNL A   1      39.690  29.033  29.074  1.00  0.00     0.074 A 
ATOM     31  C   UNL A   1      39.075  30.632  30.859  1.00  0.00     0.049 A 
ATOM     32  N   UNL A   1      40.756  28.471  29.581  1.00  0.00    -0.248 NA
ATOM     33  C   UNL A   1      39.361  28.583  27.712  1.00  0.00     0.031 C 
ATOM     34  C   UNL A   1      38.271  31.655  31.531  1.00  0.00     0.029 A 
ATOM     35  N   UNL A   1      40.134  30.430  31.706  1.00  0.00    -0.354 N 
ATOM     36  C   UNL A   1      41.216  27.582  28.614  1.00  0.00     0.074 A 
ATOM     37  C   UNL A   1      40.300  27.671  27.495  1.00  0.00     0.031 C 
ATOM     38  C   UNL A   1      38.861  31.984  32.689  1.00  0.00     0.029 A 
ATOM     39  C   UNL A   1      40.043  31.149  32.875  1.00  0.00     0.049 A 
ATOM     40  H   UNL A   1      40.886  29.829  31.500  1.00  0.00     0.167 HD
ATOM     41  C   UNL A   1      42.301  26.768  28.662  1.00  0.00     0.034 A 
ATOM     42  C   UNL A   1      40.795  31.106  33.992  1.00  0.00     0.034 A 
ATOM     43  C   UNL A   1      43.199  26.693  29.792  1.00  0.00     0.049 A 
ATOM     44  C   UNL A   1      41.954  30.148  34.049  1.00  0.00     0.074 A 
ATOM     45  C   UNL A   1      44.330  25.909  29.947  1.00  0.00     0.029 A 
ATOM     46  N   UNL A   1      43.065  27.430  30.963  1.00  0.00    -0.354 N 
ATOM     47  N   UNL A   1      42.361  29.290  33.141  1.00  0.00    -0.248 NA
ATOM     48  C   UNL A   1      42.753  30.150  35.281  1.00  0.00     0.031 C 
ATOM     49  C   UNL A   1      44.846  26.130  31.230  1.00  0.00     0.029 A 
ATOM     50  C   UNL A   1      44.077  27.099  31.853  1.00  0.00     0.049 A 
ATOM     51  H   UNL A   1      42.355  28.089  31.136  1.00  0.00     0.167 HD
ATOM     52  C   UNL A   1      43.475  28.662  33.688  1.00  0.00     0.074 A 
ATOM     53  C   UNL A   1      43.686  29.253  34.994  1.00  0.00     0.031 C 
ATOM     54  C   UNL A   1      44.258  27.688  33.158  1.00  0.00     0.034 A 
BRANCH  41  55
ATOM     55  C   UNL A   1      42.540  25.853  27.485  1.00  0.00     0.023 A 
ATOM     56  C   UNL A   1      42.019  24.549  27.438  1.00  0.00     0.031 A 
ATOM     57  C   UNL A   1      43.314  26.292  26.395  1.00  0.00     0.131 A 
ATOM     58  C   UNL A   1      42.320  23.712  26.350  1.00  0.00     0.055 A 
ATOM     59  C   UNL A   1      43.555  25.480  25.286  1.00  0.00     0.041 A 
ATOM     60  F   UNL A   1      43.856  27.520  26.394  1.00  0.00    -0.206 F 
ATOM     61  C   UNL A   1      43.066  24.177  25.264  1.00  0.00     0.022 A 
BRANCH  58  62
ATOM     62  S   UNL A   1      41.816  21.971  26.424  1.00  0.00     0.124 S 
ATOM     63  O   UNL A   1      42.176  21.617  27.795  1.00  0.00    -0.237 OA
ATOM     64  O   UNL A   1      40.389  22.042  26.136  1.00  0.00    -0.237 OA
ATOM     65  O   UNL A   1      42.630  21.334  25.391  1.00  0.00    -0.744 OA
ENDBRANCH  58  62
ENDBRANCH  41  55
BRANCH  42  66
ATOM     66  C   UNL A   1      40.442  31.951  35.166  1.00  0.00     0.023 A 
ATOM     67  C   UNL A   1      39.425  31.568  36.054  1.00  0.00     0.031 A 
ATOM     68  C   UNL A   1      41.103  33.170  35.404  1.00  0.00     0.131 A 
ATOM     69  C   UNL A   1      39.075  32.411  37.119  1.00  0.00     0.055 A 
ATOM     70  C   UNL A   1      40.785  33.981  36.494  1.00  0.00     0.041 A 
ATOM     71  F   UNL A   1      42.085  33.581  34.584  1.00  0.00    -0.206 F 
ATOM     72  C   UNL A   1      39.757  33.608  37.353  1.00  0.00     0.022 A 
BRANCH  69  73
ATOM     73  S   UNL A   1      37.658  31.955  38.155  1.00  0.00     0.124 S 
ATOM     74  O   UNL A   1      37.377  30.600  37.696  1.00  0.00    -0.237 OA
ATOM     75  O   UNL A   1      38.215  32.076  39.498  1.00  0.00    -0.237 OA
ATOM     76  O   UNL A   1      36.649  32.954  37.809  1.00  0.00    -0.744 OA
ENDBRANCH  69  73
ENDBRANCH  42  66
BRANCH  54  77
ATOM     77  C   UNL A   1      45.432  27.243  33.991  1.00  0.00     0.023 A 
ATOM     78  C   UNL A   1      45.329  26.173  34.898  1.00  0.00     0.031 A 
ATOM     79  C   UNL A   1      46.659  27.923  33.902  1.00  0.00     0.131 A 
ATOM     80  C   UNL A   1      46.416  25.852  35.724  1.00  0.00     0.055 A 
ATOM     81  C   UNL A   1      47.755  27.564  34.687  1.00  0.00     0.041 A 
ATOM     82  F   UNL A   1      46.808  28.952  33.052  1.00  0.00    -0.206 F 
ATOM     83  C   UNL A   1      47.633  26.533  35.615  1.00  0.00     0.022 A 
BRANCH  80  84
ATOM     84  S   UNL A   1      46.193  24.591  37.008  1.00  0.00     0.124 S 
ATOM     85  O   UNL A   1      45.228  25.229  37.897  1.00  0.00    -0.237 OA
ATOM     86  O   UNL A   1      45.699  23.450  36.243  1.00  0.00    -0.237 OA
ATOM     87  O   UNL A   1      47.535  24.427  37.564  1.00  0.00    -0.744 OA
ENDBRANCH  80  84
ENDBRANCH  54  77
ENDBRANCH  28  29
ENDBRANCH  21  23
ENDBRANCH  20  21
ENDBRANCH  19  20
ENDBRANCH   1  19
TORSDOF 18
ENDMDL
MODEL 2
REMARK VINA RESULT:     -10.4      1.673      2.250
REMARK SMILES CC(C)CC[C@@]1(CC(=O)OCCOC(=O)c2ccc(-c3c4nc(c(-c5cc(S(=O)(=O)[O-])ccc5F)c5ccc([nH]5)c(-c5cc(S(=O)(=O)[O-])ccc5F)c5nc(c(-c6cc(S(=O)(=O)[O-])ccc6F)c6ccc3[nH]6)C=C5)C=C4)cc2)CCOC(C)(C)C1
REMARK SMILES IDX 11 1 10 2 8 3 9 4 7 5 6 6 79 7 85 8 80 9 82 10 81 11 83 12
REMARK SMILES IDX 84 13 5 14 4 15 2 16 1 17 3 18 12 19 13 20 14 21 15 22 16 23
REMARK SMILES IDX 17 24 78 25 18 26 77 27 19 28 20 29 21 30 71 31 22 32 76 33
REMARK SMILES IDX 70 34 72 35 23 36 75 37 69 38 68 39 24 41 56 42 36 43 55 44
REMARK SMILES IDX 37 45 40 46 54 47 73 48 38 49 39 50 53 52 74 53 41 54 25 55
REMARK SMILES IDX 26 56 34 57 27 58 33 59 35 60 32 61 28 62 29 63 30 64 31 65
REMARK SMILES IDX 57 66 58 67 66 68 59 69 65 70 67 71 64 72 60 73 61 74 62 75
REMARK SMILES IDX 63 76 42 77 43 78 51 79 44 80 50 81 52 82 49 83 45 84 46 85
REMARK SMILES IDX 47 86 48 87
REMARK H PARENT 72 40 40 51
REMARK Flexibility Score: inf
ROOT
ATOM      1  C   UNL A   1      31.551  28.344  25.319  1.00  0.00     0.274 C 
ENDROOT
BRANCH   1   2
ATOM      2  O   UNL A   1      31.843  27.750  24.037  1.00  0.00    -0.462 OA
BRANCH   2   3
ATOM      3  C   UNL A   1      33.073  27.196  23.964  1.00  0.00     0.306 C 
ATOM      4  O   UNL A   1      33.841  27.343  23.015  1.00  0.00    -0.252 OA
BRANCH   3   5
ATOM      5  C   UNL A   1      33.450  26.276  25.096  1.00  0.00     0.130 C 
BRANCH   5   6
ATOM      6  C   UNL A   1      33.631  24.723  25.016  1.00  0.00    -0.014 C 
ATOM      7  C   UNL A   1      33.442  24.300  26.518  1.00  0.00     0.036 C 
ATOM      8  C   UNL A   1      35.065  24.365  24.539  1.00  0.00     0.042 C 
ATOM      9  C   UNL A   1      34.091  22.984  26.873  1.00  0.00     0.161 C 
ATOM     10  C   UNL A   1      35.815  23.191  25.232  1.00  0.00     0.063 C 
ATOM     11  O   UNL A   1      35.487  23.082  26.619  1.00  0.00    -0.376 OA
ATOM     12  C   UNL A   1      35.628  21.818  24.575  1.00  0.00     0.042 C 
ATOM     13  C   UNL A   1      37.325  23.497  25.183  1.00  0.00     0.042 C 
BRANCH   6  14
ATOM     14  C   UNL A   1      32.456  24.054  24.214  1.00  0.00     0.008 C 
BRANCH  14  15
ATOM     15  C   UNL A   1      32.725  23.228  22.941  1.00  0.00     0.003 C 
BRANCH  15  16
ATOM     16  C   UNL A   1      32.617  21.698  23.103  1.00  0.00    -0.017 C 
ATOM     17  C   UNL A   1      32.044  21.264  24.456  1.00  0.00     0.007 C 
ATOM     18  C   UNL A   1      31.782  21.077  21.981  1.00  0.00     0.007 C 
ENDBRANCH  15  16
ENDBRANCH  14  15
ENDBRANCH   6  14
ENDBRANCH   5   6
ENDBRANCH   3   5
ENDBRANCH   2   3
ENDBRANCH   1   2
BRANCH   1  19
ATOM     19  C   UNL A   1      31.796  29.853  25.328  1.00  0.00     0.275 C 
BRANCH  19  20
ATOM     20  O   UNL A   1      33.112  30.162  25.821  1.00  0.00    -0.458 OA
BRANCH  20  21
ATOM     21  C   UNL A   1      33.155  31.110  26.786  1.00  0.00     0.338 C 
ATOM     22  O   UNL A   1      32.356  32.014  26.959  1.00  0.00    -0.246 OA
BRANCH  21  23
ATOM     23  C   UNL A   1      34.361  30.959  27.617  1.00  0.00     0.060 A 
ATOM     24  C   UNL A   1      35.258  32.015  27.802  1.00  0.00     0.016 A 
ATOM     25  C   UNL A   1      34.659  29.688  28.111  1.00  0.00     0.016 A 
ATOM     26  C   UNL A   1      36.479  31.786  28.440  1.00  0.00     0.010 A 
ATOM     27  C   UNL A   1      35.855  29.475  28.796  1.00  0.00     0.010 A 
ATOM     28  C   UNL A   1      36.786  30.515  28.947  1.00  0.00    -0.014 A 
BRANCH  28  29
ATOM     29  C   UNL A   1      38.069  30.249  29.649  1.00  0.00     0.031 A 
ATOM     30  C   UNL A   1      39.058  29.274  29.070  1.00  0.00     0.074 A 
ATOM     31  C   UNL A   1      38.308  30.837  30.836  1.00  0.00     0.049 A 
ATOM     32  N   UNL A   1      40.127  28.755  29.617  1.00  0.00    -0.248 NA
ATOM     33  C   UNL A   1      38.802  28.817  27.696  1.00  0.00     0.031 C 
ATOM     34  C   UNL A   1      37.436  31.822  31.479  1.00  0.00     0.029 A 
ATOM     35  N   UNL A   1      39.341  30.675  31.723  1.00  0.00    -0.354 N 
ATOM     36  C   UNL A   1      40.661  27.891  28.665  1.00  0.00     0.074 A 
ATOM     37  C   UNL A   1      39.786  27.947  27.513  1.00  0.00     0.031 C 
ATOM     38  C   UNL A   1      37.966  32.169  32.661  1.00  0.00     0.029 A 
ATOM     39  C   UNL A   1      39.174  31.384  32.890  1.00  0.00     0.049 A 
ATOM     40  H   UNL A   1      40.125  30.107  31.544  1.00  0.00     0.167 HD
ATOM     41  C   UNL A   1      41.776  27.122  28.754  1.00  0.00     0.034 A 
ATOM     42  C   UNL A   1      39.883  31.367  34.035  1.00  0.00     0.034 A 
ATOM     43  C   UNL A   1      42.633  27.080  29.917  1.00  0.00     0.049 A 
ATOM     44  C   UNL A   1      41.078  30.458  34.135  1.00  0.00     0.074 A 
ATOM     45  C   UNL A   1      43.788  26.344  30.114  1.00  0.00     0.029 A 
ATOM     46  N   UNL A   1      42.422  27.804  31.084  1.00  0.00    -0.354 N 
ATOM     47  N   UNL A   1      41.556  29.622  33.240  1.00  0.00    -0.248 NA
ATOM     48  C   UNL A   1      41.828  30.487  35.396  1.00  0.00     0.031 C 
ATOM     49  C   UNL A   1      44.244  26.579  31.417  1.00  0.00     0.029 A 
ATOM     50  C   UNL A   1      43.412  27.512  32.012  1.00  0.00     0.049 A 
ATOM     51  H   UNL A   1      41.679  28.432  31.232  1.00  0.00     0.167 HD
ATOM     52  C   UNL A   1      42.674  29.039  33.827  1.00  0.00     0.074 A 
ATOM     53  C   UNL A   1      42.808  29.632  35.144  1.00  0.00     0.031 C 
ATOM     54  C   UNL A   1      43.516  28.101  33.326  1.00  0.00     0.034 A 
BRANCH  41  55
ATOM     55  C   UNL A   1      42.100  26.225  27.584  1.00  0.00     0.023 A 
ATOM     56  C   UNL A   1      41.716  24.873  27.554  1.00  0.00     0.031 A 
ATOM     57  C   UNL A   1      42.815  26.730  26.482  1.00  0.00     0.131 A 
ATOM     58  C   UNL A   1      42.094  24.060  26.473  1.00  0.00     0.055 A 
ATOM     59  C   UNL A   1      43.129  25.934  25.379  1.00  0.00     0.041 A 
ATOM     60  F   UNL A   1      43.225  28.007  26.463  1.00  0.00    -0.206 F 
ATOM     61  C   UNL A   1      42.778  24.587  25.375  1.00  0.00     0.022 A 
BRANCH  58  62
ATOM     62  S   UNL A   1      41.774  22.277  26.569  1.00  0.00     0.124 S 
ATOM     63  O   UNL A   1      42.459  21.789  25.374  1.00  0.00    -0.237 OA
ATOM     64  O   UNL A   1      42.379  21.915  27.845  1.00  0.00    -0.237 OA
ATOM     65  O   UNL A   1      40.316  22.186  26.522  1.00  0.00    -0.744 OA
ENDBRANCH  58  62
ENDBRANCH  41  55
BRANCH  42  66
ATOM     66  C   UNL A   1      39.449  32.190  35.197  1.00  0.00     0.023 A 
ATOM     67  C   UNL A   1      39.952  33.485  35.396  1.00  0.00     0.031 A 
ATOM     68  C   UNL A   1      38.540  31.682  36.143  1.00  0.00     0.131 A 
ATOM     69  C   UNL A   1      39.570  34.215  36.531  1.00  0.00     0.055 A 
ATOM     70  C   UNL A   1      38.123  32.432  37.243  1.00  0.00     0.041 A 
ATOM     71  F   UNL A   1      38.027  30.448  35.998  1.00  0.00    -0.206 F 
ATOM     72  C   UNL A   1      38.648  33.704  37.448  1.00  0.00     0.022 A 
BRANCH  69  73
ATOM     73  S   UNL A   1      40.354  35.822  36.832  1.00  0.00     0.124 S 
ATOM     74  O   UNL A   1      39.653  36.679  35.882  1.00  0.00    -0.237 OA
ATOM     75  O   UNL A   1      40.053  36.046  38.242  1.00  0.00    -0.237 OA
ATOM     76  O   UNL A   1      41.762  35.575  36.529  1.00  0.00    -0.744 OA
ENDBRANCH  69  73
ENDBRANCH  42  66
BRANCH  54  77
ATOM     77  C   UNL A   1      44.675  27.701  34.202  1.00  0.00     0.023 A 
ATOM     78  C   UNL A   1      44.571  26.645  35.125  1.00  0.00     0.031 A 
ATOM     79  C   UNL A   1      45.886  28.412  34.139  1.00  0.00     0.131 A 
ATOM     80  C   UNL A   1      45.641  26.367  35.989  1.00  0.00     0.055 A 
ATOM     81  C   UNL A   1      46.966  28.096  34.964  1.00  0.00     0.041 A 
ATOM     82  F   UNL A   1      46.036  29.430  33.276  1.00  0.00    -0.206 F 
ATOM     83  C   UNL A   1      46.842  27.078  35.906  1.00  0.00     0.022 A 
BRANCH  80  84
ATOM     84  S   UNL A   1      45.410  25.122  37.287  1.00  0.00     0.124 S 
ATOM     85  O   UNL A   1      46.333  25.583  38.319  1.00  0.00    -0.237 OA
ATOM     86  O   UNL A   1      43.989  25.253  37.598  1.00  0.00    -0.237 OA
ATOM     87  O   UNL A   1      45.785  23.870  36.633  1.00  0.00    -0.744 OA
ENDBRANCH  80  84
ENDBRANCH  54  77
ENDBRANCH  28  29
ENDBRANCH  21  23
ENDBRANCH  20  21
ENDBRANCH  19  20
ENDBRANCH   1  19
TORSDOF 18
ENDMDL
MODEL 3
REMARK VINA RESULT:     -10.3      4.728      9.595
REMARK SMILES CC(C)CC[C@@]1(CC(=O)OCCOC(=O)c2ccc(-c3c4nc(c(-c5cc(S(=O)(=O)[O-])ccc5F)c5ccc([nH]5)c(-c5cc(S(=O)(=O)[O-])ccc5F)c5nc(c(-c6cc(S(=O)(=O)[O-])ccc6F)c6ccc3[nH]6)C=C5)C=C4)cc2)CCOC(C)(C)C1
REMARK SMILES IDX 11 1 10 2 8 3 9 4 7 5 6 6 79 7 85 8 80 9 82 10 81 11 83 12
REMARK SMILES IDX 84 13 5 14 4 15 2 16 1 17 3 18 12 19 13 20 14 21 15 22 16 23
REMARK SMILES IDX 17 24 78 25 18 26 77 27 19 28 20 29 21 30 71 31 22 32 76 33
REMARK SMILES IDX 70 34 72 35 23 36 75 37 69 38 68 39 24 41 56 42 36 43 55 44
REMARK SMILES IDX 37 45 40 46 54 47 73 48 38 49 39 50 53 52 74 53 41 54 25 55
REMARK SMILES IDX 26 56 34 57 27 58 33 59 35 60 32 61 28 62 29 63 30 64 31 65
REMARK SMILES IDX 57 66 58 67 66 68 59 69 65 70 67 71 64 72 60 73 61 74 62 75
REMARK SMILES IDX 63 76 42 77 43 78 51 79 44 80 50 81 52 82 49 83 45 84 46 85
REMARK SMILES IDX 47 86 48 87
REMARK H PARENT 72 40 40 51
REMARK Flexibility Score: inf
ROOT
ATOM      1  C   UNL A   1      36.551  22.546  23.716  1.00  0.00     0.274 C 
ENDROOT
BRANCH   1   2
ATOM      2  O   UNL A   1      35.898  23.595  24.462  1.00  0.00    -0.462 OA
BRANCH   2   3
ATOM      3  C   UNL A   1      34.552  23.576  24.359  1.00  0.00     0.306 C 
ATOM      4  O   UNL A   1      33.934  22.937  23.510  1.00  0.00    -0.252 OA
BRANCH   3   5
ATOM      5  C   UNL A   1      33.805  24.481  25.305  1.00  0.00     0.130 C 
BRANCH   5   6
ATOM      6  C   UNL A   1      33.073  25.815  24.939  1.00  0.00    -0.014 C 
ATOM      7  C   UNL A   1      33.850  26.265  23.650  1.00  0.00     0.036 C 
ATOM      8  C   UNL A   1      33.259  26.866  26.067  1.00  0.00     0.042 C 
ATOM      9  C   UNL A   1      33.776  27.747  23.373  1.00  0.00     0.161 C 
ATOM     10  C   UNL A   1      33.547  28.344  25.674  1.00  0.00     0.063 C 
ATOM     11  O   UNL A   1      34.329  28.445  24.482  1.00  0.00    -0.376 OA
ATOM     12  C   UNL A   1      32.308  29.234  25.526  1.00  0.00     0.042 C 
ATOM     13  C   UNL A   1      34.405  28.973  26.790  1.00  0.00     0.042 C 
BRANCH   6  14
ATOM     14  C   UNL A   1      31.590  25.545  24.494  1.00  0.00     0.008 C 
BRANCH  14  15
ATOM     15  C   UNL A   1      30.413  26.320  25.119  1.00  0.00     0.003 C 
BRANCH  15  16
ATOM     16  C   UNL A   1      29.584  27.178  24.143  1.00  0.00    -0.017 C 
ATOM     17  C   UNL A   1      30.284  27.431  22.804  1.00  0.00     0.007 C 
ATOM     18  C   UNL A   1      28.210  26.557  23.883  1.00  0.00     0.007 C 
ENDBRANCH  15  16
ENDBRANCH  14  15
ENDBRANCH   6  14
ENDBRANCH   5   6
ENDBRANCH   3   5
ENDBRANCH   2   3
ENDBRANCH   1   2
BRANCH   1  19
ATOM     19  C   UNL A   1      36.805  21.302  24.567  1.00  0.00     0.275 C 
BRANCH  19  20
ATOM     20  O   UNL A   1      37.324  21.655  25.861  1.00  0.00    -0.458 OA
BRANCH  20  21
ATOM     21  C   UNL A   1      38.666  21.532  25.995  1.00  0.00     0.338 C 
ATOM     22  O   UNL A   1      39.340  20.553  25.727  1.00  0.00    -0.246 OA
BRANCH  21  23
ATOM     23  C   UNL A   1      39.249  22.751  26.581  1.00  0.00     0.060 A 
ATOM     24  C   UNL A   1      38.832  24.024  26.184  1.00  0.00     0.016 A 
ATOM     25  C   UNL A   1      40.328  22.604  27.453  1.00  0.00     0.016 A 
ATOM     26  C   UNL A   1      39.530  25.152  26.622  1.00  0.00     0.010 A 
ATOM     27  C   UNL A   1      40.989  23.734  27.933  1.00  0.00     0.010 A 
ATOM     28  C   UNL A   1      40.613  25.017  27.504  1.00  0.00    -0.014 A 
BRANCH  28  29
ATOM     29  C   UNL A   1      41.359  26.201  28.002  1.00  0.00     0.031 A 
ATOM     30  C   UNL A   1      40.645  27.272  28.781  1.00  0.00     0.074 A 
ATOM     31  C   UNL A   1      42.663  26.338  27.697  1.00  0.00     0.049 A 
ATOM     32  N   UNL A   1      41.059  28.463  29.125  1.00  0.00    -0.248 NA
ATOM     33  C   UNL A   1      39.276  26.960  29.220  1.00  0.00     0.031 C 
ATOM     34  C   UNL A   1      43.468  25.350  26.976  1.00  0.00     0.029 A 
ATOM     35  N   UNL A   1      43.535  27.369  27.933  1.00  0.00    -0.354 N 
ATOM     36  C   UNL A   1      39.998  29.057  29.801  1.00  0.00     0.074 A 
ATOM     37  C   UNL A   1      38.914  28.096  29.803  1.00  0.00     0.031 C 
ATOM     38  C   UNL A   1      44.712  25.827  26.820  1.00  0.00     0.029 A 
ATOM     39  C   UNL A   1      44.774  27.178  27.367  1.00  0.00     0.049 A 
ATOM     40  H   UNL A   1      43.298  28.170  28.456  1.00  0.00     0.167 HD
ATOM     41  C   UNL A   1      39.938  30.291  30.362  1.00  0.00     0.034 A 
ATOM     42  C   UNL A   1      45.825  28.014  27.256  1.00  0.00     0.034 A 
ATOM     43  C   UNL A   1      41.032  31.235  30.345  1.00  0.00     0.049 A 
ATOM     44  C   UNL A   1      45.713  29.401  27.828  1.00  0.00     0.074 A 
ATOM     45  C   UNL A   1      41.084  32.509  30.886  1.00  0.00     0.029 A 
ATOM     46  N   UNL A   1      42.267  31.008  29.750  1.00  0.00    -0.354 N 
ATOM     47  N   UNL A   1      44.693  29.962  28.437  1.00  0.00    -0.248 NA
ATOM     48  C   UNL A   1      46.890  30.267  27.696  1.00  0.00     0.031 C 
ATOM     49  C   UNL A   1      42.327  33.071  30.571  1.00  0.00     0.029 A 
ATOM     50  C   UNL A   1      43.077  32.126  29.890  1.00  0.00     0.049 A 
ATOM     51  H   UNL A   1      42.529  30.176  29.295  1.00  0.00     0.167 HD
ATOM     52  C   UNL A   1      45.115  31.243  28.777  1.00  0.00     0.074 A 
ATOM     53  C   UNL A   1      46.485  31.364  28.320  1.00  0.00     0.031 C 
ATOM     54  C   UNL A   1      44.434  32.232  29.411  1.00  0.00     0.034 A 
BRANCH  41  55
ATOM     55  C   UNL A   1      38.630  30.710  30.991  1.00  0.00     0.023 A 
ATOM     56  C   UNL A   1      37.605  31.313  30.243  1.00  0.00     0.031 A 
ATOM     57  C   UNL A   1      38.411  30.509  32.366  1.00  0.00     0.131 A 
ATOM     58  C   UNL A   1      36.430  31.743  30.882  1.00  0.00     0.055 A 
ATOM     59  C   UNL A   1      37.215  30.878  32.984  1.00  0.00     0.041 A 
ATOM     60  F   UNL A   1      39.363  29.957  33.135  1.00  0.00    -0.206 F 
ATOM     61  C   UNL A   1      36.219  31.509  32.243  1.00  0.00     0.022 A 
BRANCH  58  62
ATOM     62  S   UNL A   1      35.225  32.711  29.933  1.00  0.00     0.124 S 
ATOM     63  O   UNL A   1      34.254  33.069  30.965  1.00  0.00    -0.237 OA
ATOM     64  O   UNL A   1      36.037  33.805  29.413  1.00  0.00    -0.237 OA
ATOM     65  O   UNL A   1      34.737  31.766  28.931  1.00  0.00    -0.744 OA
ENDBRANCH  58  62
ENDBRANCH  41  55
BRANCH  42  66
ATOM     66  C   UNL A   1      47.048  27.584  26.525  1.00  0.00     0.023 A 
ATOM     67  C   UNL A   1      47.199  27.838  25.153  1.00  0.00     0.031 A 
ATOM     68  C   UNL A   1      48.079  26.889  27.185  1.00  0.00     0.131 A 
ATOM     69  C   UNL A   1      48.336  27.371  24.478  1.00  0.00     0.055 A 
ATOM     70  C   UNL A   1      49.232  26.472  26.520  1.00  0.00     0.041 A 
ATOM     71  F   UNL A   1      47.984  26.623  28.499  1.00  0.00    -0.206 F 
ATOM     72  C   UNL A   1      49.359  26.703  25.154  1.00  0.00     0.022 A 
BRANCH  69  73
ATOM     73  S   UNL A   1      48.425  27.586  22.679  1.00  0.00     0.124 S 
ATOM     74  O   UNL A   1      49.616  28.416  22.537  1.00  0.00    -0.237 OA
ATOM     75  O   UNL A   1      48.544  26.208  22.216  1.00  0.00    -0.237 OA
ATOM     76  O   UNL A   1      47.162  28.245  22.353  1.00  0.00    -0.744 OA
ENDBRANCH  69  73
ENDBRANCH  42  66
BRANCH  54  77
ATOM     77  C   UNL A   1      45.192  33.507  29.675  1.00  0.00     0.023 A 
ATOM     78  C   UNL A   1      45.928  33.695  30.858  1.00  0.00     0.031 A 
ATOM     79  C   UNL A   1      45.147  34.561  28.746  1.00  0.00     0.131 A 
ATOM     80  C   UNL A   1      46.540  34.932  31.109  1.00  0.00     0.055 A 
ATOM     81  C   UNL A   1      45.802  35.771  28.976  1.00  0.00     0.041 A 
ATOM     82  F   UNL A   1      44.456  34.432  27.601  1.00  0.00    -0.206 F 
ATOM     83  C   UNL A   1      46.493  35.966  30.170  1.00  0.00     0.022 A 
BRANCH  80  84
ATOM     84  S   UNL A   1      47.326  35.204  32.721  1.00  0.00     0.124 S 
ATOM     85  O   UNL A   1      46.693  34.179  33.545  1.00  0.00    -0.237 OA
ATOM     86  O   UNL A   1      48.739  34.997  32.419  1.00  0.00    -0.237 OA
ATOM     87  O   UNL A   1      46.960  36.580  33.053  1.00  0.00    -0.744 OA
ENDBRANCH  80  84
ENDBRANCH  54  77
ENDBRANCH  28  29
ENDBRANCH  21  23
ENDBRANCH  20  21
ENDBRANCH  19  20
ENDBRANCH   1  19
TORSDOF 18
ENDMDL
