MODEL 1
REMARK VINA RESULT:     -12.4      0.000      0.000
REMARK SMILES CCOc1ccc(-c2cc(Cl)cc3c2O[C@H](C(F)(F)F)C(C(=O)OCCOC(=O)c2ccc(-c4c5nc(c(-c6cc(S(=O)(=O)[O-])ccc6F)c6ccc([nH]6)c(-c6cc(S(=O)(=O)[O-])ccc6F)c6nc(c(-c7cc(S(=O)(=O)[O-])ccc7F)c7ccc4[nH]7)C=C6)C=C5)cc2)=C3)cc1
REMARK SMILES IDX 25 1 24 2 22 3 23 4 21 5 8 6 9 7 14 8 10 9 13 10 15 11 11 12
REMARK SMILES IDX 12 13 93 14 16 15 7 16 4 17 5 18 95 19 6 20 94 21 3 22 2 23
REMARK SMILES IDX 1 24 17 25 18 26 19 27 20 28 26 29 27 30 28 31 29 32 30 33
REMARK SMILES IDX 31 34 92 35 32 36 91 37 33 38 34 39 35 40 85 41 36 42 90 43
REMARK SMILES IDX 84 44 86 45 37 46 89 47 83 48 82 49 38 51 70 52 50 53 69 54
REMARK SMILES IDX 51 55 54 56 68 57 87 58 52 59 53 60 67 62 88 63 55 64 39 65
REMARK SMILES IDX 40 66 48 67 41 68 47 69 49 70 46 71 42 72 43 73 44 74 45 75
REMARK SMILES IDX 71 76 72 77 80 78 73 79 79 80 81 81 78 82 74 83 75 84 76 85
REMARK SMILES IDX 77 86 56 87 57 88 65 89 58 90 64 91 66 92 63 93 59 94 60 95
REMARK SMILES IDX 61 96 62 97
REMARK H PARENT 86 50 54 61
REMARK Flexibility Score: inf
ROOT
ATOM      1  C   UNL A   1      35.796  21.973  24.331  1.00  0.00     0.275 C 
ENDROOT
BRANCH   1   2
ATOM      2  O   UNL A   1      35.437  23.301  24.788  1.00  0.00    -0.459 OA
BRANCH   2   3
ATOM      3  C   UNL A   1      34.491  23.288  25.762  1.00  0.00     0.338 C 
ATOM      4  O   UNL A   1      34.742  23.257  26.963  1.00  0.00    -0.246 OA
BRANCH   3   5
ATOM      5  C   UNL A   1      33.091  23.351  25.265  1.00  0.00     0.087 C 
ATOM      6  C   UNL A   1      31.714  26.928  23.981  1.00  0.00     0.026 A 
ATOM      7  C   UNL A   1      32.589  27.788  24.685  1.00  0.00     0.033 A 
ATOM      8  C   UNL A   1      31.764  25.599  24.406  1.00  0.00     0.135 A 
ATOM      9  C   UNL A   1      33.286  27.417  25.837  1.00  0.00     0.042 A 
ATOM     10  C   UNL A   1      32.251  25.309  25.706  1.00  0.00     0.019 A 
ATOM     11  O   UNL A   1      31.611  24.499  23.564  1.00  0.00    -0.475 OA
ATOM     12  Cl  UNL A   1      34.519  28.366  26.561  1.00  0.00    -0.084 Cl
ATOM     13  C   UNL A   1      33.008  26.213  26.428  1.00  0.00     0.032 A 
ATOM     14  C   UNL A   1      32.250  23.905  26.154  1.00  0.00     0.027 C 
ATOM     15  C   UNL A   1      32.685  23.458  23.804  1.00  0.00     0.316 C 
BRANCH   6  16
ATOM     16  C   UNL A   1      30.698  27.642  23.143  1.00  0.00    -0.014 A 
ATOM     17  C   UNL A   1      28.591  29.475  22.444  1.00  0.00     0.119 A 
ATOM     18  C   UNL A   1      29.912  29.697  22.045  1.00  0.00     0.047 A 
ATOM     19  C   UNL A   1      28.304  28.303  23.123  1.00  0.00     0.047 A 
ATOM     20  C   UNL A   1      30.946  28.782  22.366  1.00  0.00     0.013 A 
ATOM     21  C   UNL A   1      29.338  27.405  23.458  1.00  0.00     0.013 A 
BRANCH  17  22
ATOM     22  O   UNL A   1      27.664  30.398  22.045  1.00  0.00    -0.494 OA
BRANCH  22  23
ATOM     23  C   UNL A   1      27.951  31.202  20.891  1.00  0.00     0.226 C 
ATOM     24  C   UNL A   1      27.999  32.689  21.212  1.00  0.00     0.049 C 
ENDBRANCH  22  23
ENDBRANCH  17  22
ENDBRANCH   6  16
BRANCH  15  25
ATOM     25  C   UNL A   1      32.193  22.057  23.421  1.00  0.00     0.430 C 
ATOM     26  F   UNL A   1      33.157  21.338  22.794  1.00  0.00    -0.167 F 
ATOM     27  F   UNL A   1      31.771  21.340  24.483  1.00  0.00    -0.167 F 
ATOM     28  F   UNL A   1      31.144  22.131  22.557  1.00  0.00    -0.167 F 
ENDBRANCH  15  25
ENDBRANCH   3   5
ENDBRANCH   2   3
ENDBRANCH   1   2
BRANCH   1  29
ATOM     29  C   UNL A   1      37.272  21.627  24.548  1.00  0.00     0.275 C 
BRANCH  29  30
ATOM     30  O   UNL A   1      37.661  21.770  25.928  1.00  0.00    -0.458 OA
BRANCH  30  31
ATOM     31  C   UNL A   1      38.981  21.558  26.149  1.00  0.00     0.338 C 
ATOM     32  O   UNL A   1      39.605  20.558  25.810  1.00  0.00    -0.246 OA
BRANCH  31  33
ATOM     33  C   UNL A   1      39.641  22.745  26.752  1.00  0.00     0.060 A 
ATOM     34  C   UNL A   1      39.186  23.987  26.322  1.00  0.00     0.016 A 
ATOM     35  C   UNL A   1      40.675  22.696  27.699  1.00  0.00     0.016 A 
ATOM     36  C   UNL A   1      39.719  25.153  26.876  1.00  0.00     0.010 A 
ATOM     37  C   UNL A   1      41.204  23.891  28.257  1.00  0.00     0.010 A 
ATOM     38  C   UNL A   1      40.706  25.144  27.880  1.00  0.00    -0.014 A 
BRANCH  38  39
ATOM     39  C   UNL A   1      41.163  26.481  28.421  1.00  0.00     0.031 A 
ATOM     40  C   UNL A   1      42.554  26.947  28.081  1.00  0.00     0.074 A 
ATOM     41  C   UNL A   1      40.332  27.383  29.002  1.00  0.00     0.049 A 
ATOM     42  N   UNL A   1      43.088  28.130  28.235  1.00  0.00    -0.248 NA
ATOM     43  C   UNL A   1      43.450  25.952  27.471  1.00  0.00     0.031 C 
ATOM     44  C   UNL A   1      38.944  27.129  29.336  1.00  0.00     0.029 A 
ATOM     45  N   UNL A   1      40.476  28.721  29.325  1.00  0.00    -0.354 N 
ATOM     46  C   UNL A   1      44.368  28.035  27.712  1.00  0.00     0.074 A 
ATOM     47  C   UNL A   1      44.527  26.681  27.222  1.00  0.00     0.031 C 
ATOM     48  C   UNL A   1      38.307  28.282  29.595  1.00  0.00     0.029 A 
ATOM     49  C   UNL A   1      39.290  29.352  29.677  1.00  0.00     0.049 A 
ATOM     50  H   UNL A   1      41.344  29.184  29.306  1.00  0.00     0.167 HD
ATOM     51  C   UNL A   1      45.344  28.971  27.679  1.00  0.00     0.034 A 
ATOM     52  C   UNL A   1      39.023  30.624  30.066  1.00  0.00     0.034 A 
ATOM     53  C   UNL A   1      45.243  30.275  28.279  1.00  0.00     0.049 A 
ATOM     54  C   UNL A   1      40.198  31.560  30.245  1.00  0.00     0.074 A 
ATOM     55  C   UNL A   1      46.239  31.222  28.436  1.00  0.00     0.029 A 
ATOM     56  N   UNL A   1      44.095  30.809  28.845  1.00  0.00    -0.354 N 
ATOM     57  N   UNL A   1      41.437  31.411  29.841  1.00  0.00    -0.248 NA
ATOM     58  C   UNL A   1      39.946  32.824  30.952  1.00  0.00     0.031 C 
ATOM     59  C   UNL A   1      45.715  32.294  29.166  1.00  0.00     0.029 A 
ATOM     60  C   UNL A   1      44.367  32.059  29.381  1.00  0.00     0.049 A 
ATOM     61  H   UNL A   1      43.215  30.366  28.863  1.00  0.00     0.167 HD
ATOM     62  C   UNL A   1      42.096  32.582  30.204  1.00  0.00     0.074 A 
ATOM     63  C   UNL A   1      41.116  33.435  30.839  1.00  0.00     0.031 C 
ATOM     64  C   UNL A   1      43.398  32.916  30.018  1.00  0.00     0.034 A 
BRANCH  51  65
ATOM     65  C   UNL A   1      46.654  28.544  27.082  1.00  0.00     0.023 A 
ATOM     66  C   UNL A   1      46.820  28.421  25.692  1.00  0.00     0.031 A 
ATOM     67  C   UNL A   1      47.726  28.194  27.919  1.00  0.00     0.131 A 
ATOM     68  C   UNL A   1      48.023  27.914  25.183  1.00  0.00     0.055 A 
ATOM     69  C   UNL A   1      48.944  27.755  27.403  1.00  0.00     0.041 A 
ATOM     70  F   UNL A   1      47.596  28.253  29.254  1.00  0.00    -0.206 F 
ATOM     71  C   UNL A   1      49.094  27.604  26.027  1.00  0.00     0.022 A 
BRANCH  68  72
ATOM     72  S   UNL A   1      48.125  27.535  23.414  1.00  0.00     0.124 S 
ATOM     73  O   UNL A   1      46.988  28.286  22.885  1.00  0.00    -0.237 OA
ATOM     74  O   UNL A   1      49.445  28.038  23.058  1.00  0.00    -0.237 OA
ATOM     75  O   UNL A   1      47.977  26.082  23.367  1.00  0.00    -0.744 OA
ENDBRANCH  68  72
ENDBRANCH  51  65
BRANCH  52  76
ATOM     76  C   UNL A   1      37.637  31.117  30.408  1.00  0.00     0.023 A 
ATOM     77  C   UNL A   1      36.773  31.614  29.408  1.00  0.00     0.031 A 
ATOM     78  C   UNL A   1      37.203  31.246  31.740  1.00  0.00     0.131 A 
ATOM     79  C   UNL A   1      35.575  32.267  29.759  1.00  0.00     0.055 A 
ATOM     80  C   UNL A   1      35.968  31.810  32.077  1.00  0.00     0.041 A 
ATOM     81  F   UNL A   1      37.986  30.855  32.758  1.00  0.00    -0.206 F 
ATOM     82  C   UNL A   1      35.157  32.348  31.086  1.00  0.00     0.022 A 
BRANCH  79  83
ATOM     83  S   UNL A   1      34.657  33.181  28.481  1.00  0.00     0.124 S 
ATOM     84  O   UNL A   1      34.075  34.271  29.255  1.00  0.00    -0.237 OA
ATOM     85  O   UNL A   1      35.721  33.548  27.553  1.00  0.00    -0.237 OA
ATOM     86  O   UNL A   1      33.703  32.195  27.978  1.00  0.00    -0.744 OA
ENDBRANCH  79  83
ENDBRANCH  52  76
BRANCH  64  87
ATOM     87  C   UNL A   1      43.831  34.295  30.455  1.00  0.00     0.023 A 
ATOM     88  C   UNL A   1      43.721  35.415  29.614  1.00  0.00     0.031 A 
ATOM     89  C   UNL A   1      44.374  34.486  31.739  1.00  0.00     0.131 A 
ATOM     90  C   UNL A   1      44.207  36.661  30.039  1.00  0.00     0.055 A 
ATOM     91  C   UNL A   1      44.786  35.743  32.185  1.00  0.00     0.041 A 
ATOM     92  F   UNL A   1      44.511  33.452  32.585  1.00  0.00    -0.206 F 
ATOM     93  C   UNL A   1      44.717  36.836  31.328  1.00  0.00     0.022 A 
BRANCH  90  94
ATOM     94  S   UNL A   1      44.251  38.030  28.850  1.00  0.00     0.124 S 
ATOM     95  O   UNL A   1      44.088  37.332  27.580  1.00  0.00    -0.237 OA
ATOM     96  O   UNL A   1      43.122  38.851  29.275  1.00  0.00    -0.237 OA
ATOM     97  O   UNL A   1      45.567  38.630  29.066  1.00  0.00    -0.744 OA
ENDBRANCH  90  94
ENDBRANCH  64  87
ENDBRANCH  38  39
ENDBRANCH  31  33
ENDBRANCH  30  31
ENDBRANCH  29  30
ENDBRANCH   1  29
TORSDOF 18
ENDMDL
MODEL 2
REMARK VINA RESULT:     -12.3      4.827      9.945
REMARK SMILES CCOc1ccc(-c2cc(Cl)cc3c2O[C@H](C(F)(F)F)C(C(=O)OCCOC(=O)c2ccc(-c4c5nc(c(-c6cc(S(=O)(=O)[O-])ccc6F)c6ccc([nH]6)c(-c6cc(S(=O)(=O)[O-])ccc6F)c6nc(c(-c7cc(S(=O)(=O)[O-])ccc7F)c7ccc4[nH]7)C=C6)C=C5)cc2)=C3)cc1
REMARK SMILES IDX 25 1 24 2 22 3 23 4 21 5 8 6 9 7 14 8 10 9 13 10 15 11 11 12
REMARK SMILES IDX 12 13 93 14 16 15 7 16 4 17 5 18 95 19 6 20 94 21 3 22 2 23
REMARK SMILES IDX 1 24 17 25 18 26 19 27 20 28 26 29 27 30 28 31 29 32 30 33
REMARK SMILES IDX 31 34 92 35 32 36 91 37 33 38 34 39 35 40 85 41 36 42 90 43
REMARK SMILES IDX 84 44 86 45 37 46 89 47 83 48 82 49 38 51 70 52 50 53 69 54
REMARK SMILES IDX 51 55 54 56 68 57 87 58 52 59 53 60 67 62 88 63 55 64 39 65
REMARK SMILES IDX 40 66 48 67 41 68 47 69 49 70 46 71 42 72 43 73 44 74 45 75
REMARK SMILES IDX 71 76 72 77 80 78 73 79 79 80 81 81 78 82 74 83 75 84 76 85
REMARK SMILES IDX 77 86 56 87 57 88 65 89 58 90 64 91 66 92 63 93 59 94 60 95
REMARK SMILES IDX 61 96 62 97
REMARK H PARENT 86 50 54 61
REMARK Flexibility Score: inf
ROOT
ATOM      1  C   UNL A   1      31.796  28.091  26.081  1.00  0.00     0.275 C 
ENDROOT
BRANCH   1   2
ATOM      2  O   UNL A   1      32.916  27.179  25.955  1.00  0.00    -0.459 OA
BRANCH   2   3
ATOM      3  C   UNL A   1      33.352  27.050  24.676  1.00  0.00     0.338 C 
ATOM      4  O   UNL A   1      34.185  27.786  24.156  1.00  0.00    -0.246 OA
BRANCH   3   5
ATOM      5  C   UNL A   1      32.762  25.903  23.935  1.00  0.00     0.087 C 
ATOM      6  C   UNL A   1      34.037  22.191  24.899  1.00  0.00     0.026 A 
ATOM      7  C   UNL A   1      35.296  22.508  25.459  1.00  0.00     0.033 A 
ATOM      8  C   UNL A   1      33.433  23.255  24.226  1.00  0.00     0.135 A 
ATOM      9  C   UNL A   1      35.989  23.691  25.196  1.00  0.00     0.042 A 
ATOM     10  C   UNL A   1      34.242  24.318  23.753  1.00  0.00     0.019 A 
ATOM     11  O   UNL A   1      32.059  23.488  24.198  1.00  0.00    -0.475 OA
ATOM     12  Cl  UNL A   1      37.397  24.188  26.043  1.00  0.00    -0.084 Cl
ATOM     13  C   UNL A   1      35.520  24.540  24.229  1.00  0.00     0.032 A 
ATOM     14  C   UNL A   1      33.592  25.408  23.002  1.00  0.00     0.027 C 
ATOM     15  C   UNL A   1      31.731  24.936  24.495  1.00  0.00     0.316 C 
BRANCH   6  16
ATOM     16  C   UNL A   1      33.734  20.723  24.868  1.00  0.00    -0.014 A 
ATOM     17  C   UNL A   1      33.289  18.087  23.801  1.00  0.00     0.119 A 
ATOM     18  C   UNL A   1      34.466  18.408  24.481  1.00  0.00     0.047 A 
ATOM     19  C   UNL A   1      32.300  19.053  23.719  1.00  0.00     0.047 A 
ATOM     20  C   UNL A   1      34.677  19.699  25.030  1.00  0.00     0.013 A 
ATOM     21  C   UNL A   1      32.520  20.341  24.249  1.00  0.00     0.013 A 
BRANCH  17  22
ATOM     22  O   UNL A   1      33.170  16.802  23.348  1.00  0.00    -0.494 OA
BRANCH  22  23
ATOM     23  C   UNL A   1      33.498  15.728  24.243  1.00  0.00     0.226 C 
ATOM     24  C   UNL A   1      32.519  15.615  25.402  1.00  0.00     0.049 C 
ENDBRANCH  22  23
ENDBRANCH  17  22
ENDBRANCH   6  16
BRANCH  15  25
ATOM     25  C   UNL A   1      30.404  25.347  23.848  1.00  0.00     0.430 C 
ATOM     26  F   UNL A   1      29.483  25.714  24.775  1.00  0.00    -0.167 F 
ATOM     27  F   UNL A   1      30.537  26.367  22.976  1.00  0.00    -0.167 F 
ATOM     28  F   UNL A   1      29.860  24.309  23.156  1.00  0.00    -0.167 F 
ENDBRANCH  15  25
ENDBRANCH   3   5
ENDBRANCH   2   3
ENDBRANCH   1   2
BRANCH   1  29
ATOM     29  C   UNL A   1      32.117  29.349  26.894  1.00  0.00     0.275 C 
BRANCH  29  30
ATOM     30  O   UNL A   1      33.303  30.011  26.414  1.00  0.00    -0.458 OA
BRANCH  30  31
ATOM     31  C   UNL A   1      33.711  31.039  27.198  1.00  0.00     0.338 C 
ATOM     32  O   UNL A   1      33.024  32.005  27.515  1.00  0.00    -0.246 OA
BRANCH  31  33
ATOM     33  C   UNL A   1      35.071  30.811  27.751  1.00  0.00     0.060 A 
ATOM     34  C   UNL A   1      35.385  29.500  28.093  1.00  0.00     0.016 A 
ATOM     35  C   UNL A   1      36.036  31.809  27.953  1.00  0.00     0.016 A 
ATOM     36  C   UNL A   1      36.660  29.191  28.573  1.00  0.00     0.010 A 
ATOM     37  C   UNL A   1      37.330  31.480  28.436  1.00  0.00     0.010 A 
ATOM     38  C   UNL A   1      37.678  30.153  28.719  1.00  0.00    -0.014 A 
BRANCH  38  39
ATOM     39  C   UNL A   1      39.027  29.673  29.210  1.00  0.00     0.031 A 
ATOM     40  C   UNL A   1      39.480  30.107  30.579  1.00  0.00     0.074 A 
ATOM     41  C   UNL A   1      39.750  28.705  28.594  1.00  0.00     0.049 A 
ATOM     42  N   UNL A   1      40.474  29.657  31.298  1.00  0.00    -0.248 NA
ATOM     43  C   UNL A   1      38.698  31.172  31.224  1.00  0.00     0.031 C 
ATOM     44  C   UNL A   1      39.422  28.121  27.308  1.00  0.00     0.029 A 
ATOM     45  N   UNL A   1      40.844  27.956  28.990  1.00  0.00    -0.354 N 
ATOM     46  C   UNL A   1      40.419  30.357  32.494  1.00  0.00     0.074 A 
ATOM     47  C   UNL A   1      39.283  31.253  32.409  1.00  0.00     0.031 C 
ATOM     48  C   UNL A   1      40.120  26.992  27.115  1.00  0.00     0.029 A 
ATOM     49  C   UNL A   1      41.129  26.880  28.158  1.00  0.00     0.049 A 
ATOM     50  H   UNL A   1      41.375  28.168  29.792  1.00  0.00     0.167 HD
ATOM     51  C   UNL A   1      41.259  30.298  33.552  1.00  0.00     0.034 A 
ATOM     52  C   UNL A   1      42.108  25.942  28.196  1.00  0.00     0.034 A 
ATOM     53  C   UNL A   1      42.462  29.510  33.595  1.00  0.00     0.049 A 
ATOM     54  C   UNL A   1      43.163  26.078  29.270  1.00  0.00     0.074 A 
ATOM     55  C   UNL A   1      43.455  29.518  34.558  1.00  0.00     0.029 A 
ATOM     56  N   UNL A   1      42.856  28.597  32.627  1.00  0.00    -0.354 N 
ATOM     57  N   UNL A   1      43.151  26.828  30.346  1.00  0.00    -0.248 NA
ATOM     58  C   UNL A   1      44.375  25.257  29.127  1.00  0.00     0.031 C 
ATOM     59  C   UNL A   1      44.484  28.671  34.136  1.00  0.00     0.029 A 
ATOM     60  C   UNL A   1      44.093  28.061  32.956  1.00  0.00     0.049 A 
ATOM     61  H   UNL A   1      42.334  28.363  31.825  1.00  0.00     0.167 HD
ATOM     62  C   UNL A   1      44.328  26.534  31.027  1.00  0.00     0.074 A 
ATOM     63  C   UNL A   1      45.018  25.524  30.255  1.00  0.00     0.031 C 
ATOM     64  C   UNL A   1      44.788  27.055  32.192  1.00  0.00     0.034 A 
BRANCH  51  65
ATOM     65  C   UNL A   1      40.957  31.227  34.692  1.00  0.00     0.023 A 
ATOM     66  C   UNL A   1      39.856  31.014  35.539  1.00  0.00     0.031 A 
ATOM     67  C   UNL A   1      41.744  32.374  34.892  1.00  0.00     0.131 A 
ATOM     68  C   UNL A   1      39.546  31.965  36.520  1.00  0.00     0.055 A 
ATOM     69  C   UNL A   1      41.470  33.279  35.914  1.00  0.00     0.041 A 
ATOM     70  F   UNL A   1      42.778  32.640  34.078  1.00  0.00    -0.206 F 
ATOM     71  C   UNL A   1      40.360  33.082  36.730  1.00  0.00     0.022 A 
BRANCH  68  72
ATOM     72  S   UNL A   1      37.989  31.794  37.432  1.00  0.00     0.124 S 
ATOM     73  O   UNL A   1      38.390  32.195  38.779  1.00  0.00    -0.237 OA
ATOM     74  O   UNL A   1      37.106  32.714  36.726  1.00  0.00    -0.237 OA
ATOM     75  O   UNL A   1      37.661  30.377  37.285  1.00  0.00    -0.744 OA
ENDBRANCH  68  72
ENDBRANCH  51  65
BRANCH  52  76
ATOM     76  C   UNL A   1      42.240  24.835  27.176  1.00  0.00     0.023 A 
ATOM     77  C   UNL A   1      41.562  23.608  27.342  1.00  0.00     0.031 A 
ATOM     78  C   UNL A   1      43.153  24.915  26.108  1.00  0.00     0.131 A 
ATOM     79  C   UNL A   1      41.856  22.511  26.508  1.00  0.00     0.055 A 
ATOM     80  C   UNL A   1      43.371  23.852  25.226  1.00  0.00     0.041 A 
ATOM     81  F   UNL A   1      43.885  26.022  25.913  1.00  0.00    -0.206 F 
ATOM     82  C   UNL A   1      42.741  22.633  25.437  1.00  0.00     0.022 A 
BRANCH  79  83
ATOM     83  S   UNL A   1      41.219  20.865  26.951  1.00  0.00     0.124 S 
ATOM     84  O   UNL A   1      40.120  20.708  26.005  1.00  0.00    -0.237 OA
ATOM     85  O   UNL A   1      42.386  20.020  26.725  1.00  0.00    -0.237 OA
ATOM     86  O   UNL A   1      40.820  21.021  28.348  1.00  0.00    -0.744 OA
ENDBRANCH  79  83
ENDBRANCH  52  76
BRANCH  64  87
ATOM     87  C   UNL A   1      46.079  26.496  32.742  1.00  0.00     0.023 A 
ATOM     88  C   UNL A   1      46.104  25.407  33.629  1.00  0.00     0.031 A 
ATOM     89  C   UNL A   1      47.308  27.076  32.375  1.00  0.00     0.131 A 
ATOM     90  C   UNL A   1      47.324  24.972  34.170  1.00  0.00     0.055 A 
ATOM     91  C   UNL A   1      48.524  26.591  32.857  1.00  0.00     0.041 A 
ATOM     92  F   UNL A   1      47.346  28.124  31.537  1.00  0.00    -0.206 F 
ATOM     93  C   UNL A   1      48.535  25.543  33.772  1.00  0.00     0.022 A 
BRANCH  90  94
ATOM     94  S   UNL A   1      47.298  23.713  35.475  1.00  0.00     0.124 S 
ATOM     95  O   UNL A   1      48.676  23.744  35.952  1.00  0.00    -0.237 OA
ATOM     96  O   UNL A   1      46.294  24.236  36.396  1.00  0.00    -0.237 OA
ATOM     97  O   UNL A   1      46.911  22.494  34.768  1.00  0.00    -0.744 OA
ENDBRANCH  90  94
ENDBRANCH  64  87
ENDBRANCH  38  39
ENDBRANCH  31  33
ENDBRANCH  30  31
ENDBRANCH  29  30
ENDBRANCH   1  29
TORSDOF 18
ENDMDL
MODEL 3
REMARK VINA RESULT:     -11.9      4.553      9.665
REMARK SMILES CCOc1ccc(-c2cc(Cl)cc3c2O[C@H](C(F)(F)F)C(C(=O)OCCOC(=O)c2ccc(-c4c5nc(c(-c6cc(S(=O)(=O)[O-])ccc6F)c6ccc([nH]6)c(-c6cc(S(=O)(=O)[O-])ccc6F)c6nc(c(-c7cc(S(=O)(=O)[O-])ccc7F)c7ccc4[nH]7)C=C6)C=C5)cc2)=C3)cc1
REMARK SMILES IDX 25 1 24 2 22 3 23 4 21 5 8 6 9 7 14 8 10 9 13 10 15 11 11 12
REMARK SMILES IDX 12 13 93 14 16 15 7 16 4 17 5 18 95 19 6 20 94 21 3 22 2 23
REMARK SMILES IDX 1 24 17 25 18 26 19 27 20 28 26 29 27 30 28 31 29 32 30 33
REMARK SMILES IDX 31 34 92 35 32 36 91 37 33 38 34 39 35 40 85 41 36 42 90 43
REMARK SMILES IDX 84 44 86 45 37 46 89 47 83 48 82 49 38 51 70 52 50 53 69 54
REMARK SMILES IDX 51 55 54 56 68 57 87 58 52 59 53 60 67 62 88 63 55 64 39 65
REMARK SMILES IDX 40 66 48 67 41 68 47 69 49 70 46 71 42 72 43 73 44 74 45 75
REMARK SMILES IDX 71 76 72 77 80 78 73 79 79 80 81 81 78 82 74 83 75 84 76 85
REMARK SMILES IDX 77 86 56 87 57 88 65 89 58 90 64 91 66 92 63 93 59 94 60 95
REMARK SMILES IDX 61 96 62 97
REMARK H PARENT 86 50 54 61
REMARK Flexibility Score: inf
ROOT
ATOM      1  C   UNL A   1      31.596  27.955  25.530  1.00  0.00     0.275 C 
ENDROOT
BRANCH   1   2
ATOM      2  O   UNL A   1      32.707  27.029  25.637  1.00  0.00    -0.459 OA
BRANCH   2   3
ATOM      3  C   UNL A   1      33.319  26.797  24.447  1.00  0.00     0.338 C 
ATOM      4  O   UNL A   1      34.223  27.490  23.992  1.00  0.00    -0.246 OA
BRANCH   3   5
ATOM      5  C   UNL A   1      32.830  25.591  23.726  1.00  0.00     0.087 C 
ATOM      6  C   UNL A   1      34.181  21.988  24.964  1.00  0.00     0.026 A 
ATOM      7  C   UNL A   1      35.384  22.386  25.592  1.00  0.00     0.033 A 
ATOM      8  C   UNL A   1      33.584  22.991  24.197  1.00  0.00     0.135 A 
ATOM      9  C   UNL A   1      36.046  23.585  25.318  1.00  0.00     0.042 A 
ATOM     10  C   UNL A   1      34.382  24.065  23.727  1.00  0.00     0.019 A 
ATOM     11  O   UNL A   1      32.208  23.162  24.062  1.00  0.00    -0.475 OA
ATOM     12  Cl  UNL A   1      37.369  24.183  26.234  1.00  0.00    -0.084 Cl
ATOM     13  C   UNL A   1      35.613  24.366  24.279  1.00  0.00     0.032 A 
ATOM     14  C   UNL A   1      33.744  25.089  22.879  1.00  0.00     0.027 C 
ATOM     15  C   UNL A   1      31.802  24.608  24.262  1.00  0.00     0.316 C 
BRANCH   6  16
ATOM     16  C   UNL A   1      33.941  20.509  24.985  1.00  0.00    -0.014 A 
ATOM     17  C   UNL A   1      33.467  17.842  24.011  1.00  0.00     0.119 A 
ATOM     18  C   UNL A   1      34.712  18.222  24.518  1.00  0.00     0.047 A 
ATOM     19  C   UNL A   1      32.435  18.765  24.060  1.00  0.00     0.047 A 
ATOM     20  C   UNL A   1      34.940  19.527  25.022  1.00  0.00     0.013 A 
ATOM     21  C   UNL A   1      32.670  20.068  24.544  1.00  0.00     0.013 A 
BRANCH  17  22
ATOM     22  O   UNL A   1      33.342  16.547  23.589  1.00  0.00    -0.494 OA
BRANCH  22  23
ATOM     23  C   UNL A   1      33.420  15.498  24.566  1.00  0.00     0.226 C 
ATOM     24  C   UNL A   1      32.397  15.663  25.681  1.00  0.00     0.049 C 
ENDBRANCH  22  23
ENDBRANCH  17  22
ENDBRANCH   6  16
BRANCH  15  25
ATOM     25  C   UNL A   1      30.508  24.929  23.505  1.00  0.00     0.430 C 
ATOM     26  F   UNL A   1      29.957  23.820  22.952  1.00  0.00    -0.167 F 
ATOM     27  F   UNL A   1      29.572  25.507  24.286  1.00  0.00    -0.167 F 
ATOM     28  F   UNL A   1      30.749  25.791  22.479  1.00  0.00    -0.167 F 
ENDBRANCH  15  25
ENDBRANCH   3   5
ENDBRANCH   2   3
ENDBRANCH   1   2
BRANCH   1  29
ATOM     29  C   UNL A   1      31.735  29.187  26.429  1.00  0.00     0.275 C 
BRANCH  29  30
ATOM     30  O   UNL A   1      32.928  29.938  26.131  1.00  0.00    -0.458 OA
BRANCH  30  31
ATOM     31  C   UNL A   1      33.104  31.022  26.925  1.00  0.00     0.338 C 
ATOM     32  O   UNL A   1      32.256  31.878  27.155  1.00  0.00    -0.246 OA
BRANCH  31  33
ATOM     33  C   UNL A   1      34.425  31.006  27.604  1.00  0.00     0.060 A 
ATOM     34  C   UNL A   1      34.882  29.764  28.032  1.00  0.00     0.016 A 
ATOM     35  C   UNL A   1      35.222  32.136  27.845  1.00  0.00     0.016 A 
ATOM     36  C   UNL A   1      36.137  29.653  28.636  1.00  0.00     0.010 A 
ATOM     37  C   UNL A   1      36.498  32.007  28.454  1.00  0.00     0.010 A 
ATOM     38  C   UNL A   1      36.995  30.753  28.827  1.00  0.00    -0.014 A 
BRANCH  38  39
ATOM     39  C   UNL A   1      38.345  30.483  29.456  1.00  0.00     0.031 A 
ATOM     40  C   UNL A   1      38.572  30.936  30.873  1.00  0.00     0.074 A 
ATOM     41  C   UNL A   1      39.281  29.667  28.907  1.00  0.00     0.049 A 
ATOM     42  N   UNL A   1      39.546  30.630  31.691  1.00  0.00    -0.248 NA
ATOM     43  C   UNL A   1      37.560  31.836  31.446  1.00  0.00     0.031 C 
ATOM     44  C   UNL A   1      39.193  29.083  27.583  1.00  0.00     0.029 A 
ATOM     45  N   UNL A   1      40.437  29.094  29.409  1.00  0.00    -0.354 N 
ATOM     46  C   UNL A   1      39.248  31.270  32.884  1.00  0.00     0.074 A 
ATOM     47  C   UNL A   1      37.995  31.971  32.689  1.00  0.00     0.031 C 
ATOM     48  C   UNL A   1      40.086  28.091  27.450  1.00  0.00     0.029 A 
ATOM     49  C   UNL A   1      40.983  28.109  28.596  1.00  0.00     0.049 A 
ATOM     50  H   UNL A   1      40.836  29.362  30.268  1.00  0.00     0.167 HD
ATOM     51  C   UNL A   1      39.969  31.313  34.028  1.00  0.00     0.034 A 
ATOM     52  C   UNL A   1      42.094  27.343  28.726  1.00  0.00     0.034 A 
ATOM     53  C   UNL A   1      41.275  30.731  34.190  1.00  0.00     0.049 A 
ATOM     54  C   UNL A   1      42.993  27.612  29.913  1.00  0.00     0.074 A 
ATOM     55  C   UNL A   1      42.145  30.868  35.257  1.00  0.00     0.029 A 
ATOM     56  N   UNL A   1      41.916  29.929  33.256  1.00  0.00    -0.354 N 
ATOM     57  N   UNL A   1      42.741  28.312  30.993  1.00  0.00    -0.248 NA
ATOM     58  C   UNL A   1      44.332  27.006  29.891  1.00  0.00     0.031 C 
ATOM     59  C   UNL A   1      43.339  30.215  34.937  1.00  0.00     0.029 A 
ATOM     60  C   UNL A   1      43.182  29.591  33.711  1.00  0.00     0.049 A 
ATOM     61  H   UNL A   1      41.528  29.641  32.398  1.00  0.00     0.167 HD
ATOM     62  C   UNL A   1      43.872  28.191  31.794  1.00  0.00     0.074 A 
ATOM     63  C   UNL A   1      44.798  27.335  31.087  1.00  0.00     0.031 C 
ATOM     64  C   UNL A   1      44.112  28.739  33.012  1.00  0.00     0.034 A 
BRANCH  51  65
ATOM     65  C   UNL A   1      39.397  32.139  35.143  1.00  0.00     0.023 A 
ATOM     66  C   UNL A   1      39.797  33.470  35.348  1.00  0.00     0.031 A 
ATOM     67  C   UNL A   1      38.489  31.565  36.048  1.00  0.00     0.131 A 
ATOM     68  C   UNL A   1      39.321  34.169  36.466  1.00  0.00     0.055 A 
ATOM     69  C   UNL A   1      37.966  32.288  37.118  1.00  0.00     0.041 A 
ATOM     70  F   UNL A   1      38.114  30.282  35.915  1.00  0.00    -0.206 F 
ATOM     71  C   UNL A   1      38.390  33.595  37.337  1.00  0.00     0.022 A 
BRANCH  68  72
ATOM     72  S   UNL A   1      40.038  35.790  36.845  1.00  0.00     0.124 S 
ATOM     73  O   UNL A   1      39.654  36.565  35.666  1.00  0.00    -0.237 OA
ATOM     74  O   UNL A   1      39.371  36.148  38.090  1.00  0.00    -0.237 OA
ATOM     75  O   UNL A   1      41.468  35.513  36.959  1.00  0.00    -0.744 OA
ENDBRANCH  68  72
ENDBRANCH  51  65
BRANCH  52  76
ATOM     76  C   UNL A   1      42.516  26.309  27.709  1.00  0.00     0.023 A 
ATOM     77  C   UNL A   1      42.090  24.967  27.815  1.00  0.00     0.031 A 
ATOM     78  C   UNL A   1      43.465  26.594  26.709  1.00  0.00     0.131 A 
ATOM     79  C   UNL A   1      42.656  23.970  26.995  1.00  0.00     0.055 A 
ATOM     80  C   UNL A   1      43.953  25.617  25.836  1.00  0.00     0.041 A 
ATOM     81  F   UNL A   1      43.970  27.831  26.577  1.00  0.00    -0.206 F 
ATOM     82  C   UNL A   1      43.568  24.292  25.991  1.00  0.00     0.022 A 
BRANCH  79  83
ATOM     83  S   UNL A   1      42.335  22.221  27.377  1.00  0.00     0.124 S 
ATOM     84  O   UNL A   1      43.100  22.040  28.604  1.00  0.00    -0.237 OA
ATOM     85  O   UNL A   1      40.883  22.206  27.517  1.00  0.00    -0.237 OA
ATOM     86  O   UNL A   1      42.857  21.517  26.208  1.00  0.00    -0.744 OA
ENDBRANCH  79  83
ENDBRANCH  52  76
BRANCH  64  87
ATOM     87  C   UNL A   1      45.413  28.380  33.691  1.00  0.00     0.023 A 
ATOM     88  C   UNL A   1      46.586  29.130  33.505  1.00  0.00     0.031 A 
ATOM     89  C   UNL A   1      45.476  27.256  34.535  1.00  0.00     0.131 A 
ATOM     90  C   UNL A   1      47.786  28.713  34.099  1.00  0.00     0.055 A 
ATOM     91  C   UNL A   1      46.656  26.889  35.185  1.00  0.00     0.041 A 
ATOM     92  F   UNL A   1      44.390  26.496  34.746  1.00  0.00    -0.206 F 
ATOM     93  C   UNL A   1      47.823  27.610  34.956  1.00  0.00     0.022 A 
BRANCH  90  94
ATOM     94  S   UNL A   1      49.321  29.574  33.660  1.00  0.00     0.124 S 
ATOM     95  O   UNL A   1      49.368  30.634  34.661  1.00  0.00    -0.237 OA
ATOM     96  O   UNL A   1      50.323  28.522  33.799  1.00  0.00    -0.237 OA
ATOM     97  O   UNL A   1      49.083  30.023  32.290  1.00  0.00    -0.744 OA
ENDBRANCH  90  94
ENDBRANCH  64  87
ENDBRANCH  38  39
ENDBRANCH  31  33
ENDBRANCH  30  31
ENDBRANCH  29  30
ENDBRANCH   1  29
TORSDOF 18
ENDMDL
