MODEL 1
REMARK VINA RESULT:     -12.0      0.000      0.000
REMARK SMILES C[C@H](C(=O)OCCOC(=O)c1ccc(-c2c3nc(c(-c4cc(S(=O)(=O)[O-])ccc4F)c4ccc([nH]4)c(-c4cc(S(=O)(=O)[O-])ccc4F)c4nc(c(-c5cc(S(=O)(=O)[O-])ccc5F)c5ccc2[nH]5)C=C4)C=C3)cc1)c1ccc(-c2ccccc2)c(F)c1
REMARK SMILES IDX 7 1 6 2 5 3 3 4 4 5 2 6 1 7 74 8 75 9 86 10 76 11 84 12
REMARK SMILES IDX 77 13 85 14 78 15 79 16 83 17 80 18 82 19 81 20 8 21 9 22
REMARK SMILES IDX 10 23 11 24 12 25 73 26 13 27 72 28 14 29 15 30 16 31 66 32
REMARK SMILES IDX 17 33 71 34 65 35 67 36 18 37 70 38 64 39 63 40 19 42 51 43
REMARK SMILES IDX 31 44 50 45 32 46 35 47 49 48 68 49 33 50 34 51 48 53 69 54
REMARK SMILES IDX 36 55 20 56 21 57 29 58 22 59 28 60 30 61 27 62 23 63 24 64
REMARK SMILES IDX 25 65 26 66 52 67 53 68 61 69 54 70 60 71 62 72 59 73 55 74
REMARK SMILES IDX 56 75 57 76 58 77 37 78 38 79 46 80 39 81 45 82 47 83 44 84
REMARK SMILES IDX 40 85 41 86 42 87 43 88
REMARK H PARENT 67 41 35 52
REMARK Flexibility Score: inf
ROOT
ATOM      1  C   UNL A   1      35.695  20.875  25.253  1.00  0.00     0.275 C 
ENDROOT
BRANCH   1   2
ATOM      2  C   UNL A   1      34.302  21.142  25.816  1.00  0.00     0.274 C 
BRANCH   2   3
ATOM      3  O   UNL A   1      33.710  22.266  25.140  1.00  0.00    -0.462 OA
BRANCH   3   4
ATOM      4  C   UNL A   1      33.345  23.308  25.938  1.00  0.00     0.313 C 
ATOM      5  O   UNL A   1      32.626  23.192  26.926  1.00  0.00    -0.252 OA
BRANCH   4   6
ATOM      6  C   UNL A   1      33.986  24.631  25.513  1.00  0.00     0.126 C 
ATOM      7  C   UNL A   1      35.105  24.476  24.481  1.00  0.00     0.025 C 
BRANCH   6   8
ATOM      8  C   UNL A   1      32.978  25.671  25.046  1.00  0.00    -0.031 A 
ATOM      9  C   UNL A   1      32.288  26.499  25.943  1.00  0.00     0.005 A 
ATOM     10  C   UNL A   1      32.683  25.781  23.679  1.00  0.00     0.044 A 
ATOM     11  C   UNL A   1      31.322  27.401  25.487  1.00  0.00     0.012 A 
ATOM     12  C   UNL A   1      31.703  26.669  23.235  1.00  0.00     0.131 A 
ATOM     13  C   UNL A   1      30.994  27.484  24.125  1.00  0.00     0.017 A 
ATOM     14  F   UNL A   1      31.430  26.706  21.922  1.00  0.00    -0.206 F 
BRANCH  13  15
ATOM     15  C   UNL A   1      29.894  28.350  23.687  1.00  0.00    -0.015 A 
ATOM     16  C   UNL A   1      30.042  29.744  23.622  1.00  0.00     0.009 A 
ATOM     17  C   UNL A   1      28.639  27.799  23.377  1.00  0.00     0.009 A 
ATOM     18  C   UNL A   1      28.964  30.562  23.275  1.00  0.00     0.001 A 
ATOM     19  C   UNL A   1      27.560  28.616  23.035  1.00  0.00     0.001 A 
ATOM     20  C   UNL A   1      27.722  29.997  22.988  1.00  0.00     0.000 A 
ENDBRANCH  13  15
ENDBRANCH   6   8
ENDBRANCH   4   6
ENDBRANCH   3   4
ENDBRANCH   2   3
ENDBRANCH   1   2
BRANCH   1  21
ATOM     21  O   UNL A   1      36.666  21.687  25.940  1.00  0.00    -0.458 OA
BRANCH  21  22
ATOM     22  C   UNL A   1      37.960  21.336  25.750  1.00  0.00     0.338 C 
ATOM     23  O   UNL A   1      38.374  20.280  25.293  1.00  0.00    -0.246 OA
BRANCH  22  24
ATOM     24  C   UNL A   1      38.857  22.421  26.192  1.00  0.00     0.060 A 
ATOM     25  C   UNL A   1      39.996  22.157  26.956  1.00  0.00     0.016 A 
ATOM     26  C   UNL A   1      38.495  23.739  25.913  1.00  0.00     0.016 A 
ATOM     27  C   UNL A   1      40.730  23.211  27.502  1.00  0.00     0.010 A 
ATOM     28  C   UNL A   1      39.289  24.790  26.379  1.00  0.00     0.010 A 
ATOM     29  C   UNL A   1      40.403  24.541  27.200  1.00  0.00    -0.014 A 
BRANCH  29  30
ATOM     30  C   UNL A   1      41.206  25.682  27.725  1.00  0.00     0.031 A 
ATOM     31  C   UNL A   1      40.548  26.740  28.571  1.00  0.00     0.074 A 
ATOM     32  C   UNL A   1      42.509  25.803  27.402  1.00  0.00     0.049 A 
ATOM     33  N   UNL A   1      40.981  27.929  28.904  1.00  0.00    -0.248 NA
ATOM     34  C   UNL A   1      39.209  26.422  29.093  1.00  0.00     0.031 C 
ATOM     35  C   UNL A   1      43.285  24.835  26.624  1.00  0.00     0.029 A 
ATOM     36  N   UNL A   1      43.409  26.804  27.673  1.00  0.00    -0.354 N 
ATOM     37  C   UNL A   1      39.950  28.526  29.622  1.00  0.00     0.074 A 
ATOM     38  C   UNL A   1      38.867  27.565  29.671  1.00  0.00     0.031 C 
ATOM     39  C   UNL A   1      44.544  25.280  26.495  1.00  0.00     0.029 A 
ATOM     40  C   UNL A   1      44.643  26.605  27.098  1.00  0.00     0.049 A 
ATOM     41  H   UNL A   1      43.193  27.589  28.227  1.00  0.00     0.167 HD
ATOM     42  C   UNL A   1      39.910  29.762  30.181  1.00  0.00     0.034 A 
ATOM     43  C   UNL A   1      45.716  27.414  27.009  1.00  0.00     0.034 A 
ATOM     44  C   UNL A   1      41.016  30.691  30.155  1.00  0.00     0.049 A 
ATOM     45  C   UNL A   1      45.640  28.794  27.603  1.00  0.00     0.074 A 
ATOM     46  C   UNL A   1      41.095  31.957  30.713  1.00  0.00     0.029 A 
ATOM     47  N   UNL A   1      42.243  30.452  29.547  1.00  0.00    -0.354 N 
ATOM     48  N   UNL A   1      44.637  29.372  28.223  1.00  0.00    -0.248 NA
ATOM     49  C   UNL A   1      46.836  29.635  27.474  1.00  0.00     0.031 C 
ATOM     50  C   UNL A   1      42.346  32.502  30.397  1.00  0.00     0.029 A 
ATOM     51  C   UNL A   1      43.073  31.553  29.697  1.00  0.00     0.049 A 
ATOM     52  H   UNL A   1      42.487  29.622  29.079  1.00  0.00     0.167 HD
ATOM     53  C   UNL A   1      45.087  30.641  28.566  1.00  0.00     0.074 A 
ATOM     54  C   UNL A   1      46.456  30.738  28.101  1.00  0.00     0.031 C 
ATOM     55  C   UNL A   1      44.429  31.640  29.209  1.00  0.00     0.034 A 
BRANCH  42  56
ATOM     56  C   UNL A   1      38.608  30.204  30.806  1.00  0.00     0.023 A 
ATOM     57  C   UNL A   1      37.608  30.862  30.071  1.00  0.00     0.031 A 
ATOM     58  C   UNL A   1      38.379  29.983  32.177  1.00  0.00     0.131 A 
ATOM     59  C   UNL A   1      36.458  31.335  30.721  1.00  0.00     0.055 A 
ATOM     60  C   UNL A   1      37.200  30.390  32.802  1.00  0.00     0.041 A 
ATOM     61  F   UNL A   1      39.306  29.378  32.936  1.00  0.00    -0.206 F 
ATOM     62  C   UNL A   1      36.236  31.084  32.078  1.00  0.00     0.022 A 
BRANCH  59  63
ATOM     63  S   UNL A   1      35.316  32.404  29.801  1.00  0.00     0.124 S 
ATOM     64  O   UNL A   1      34.355  32.771  30.836  1.00  0.00    -0.237 OA
ATOM     65  O   UNL A   1      36.192  33.471  29.333  1.00  0.00    -0.237 OA
ATOM     66  O   UNL A   1      34.791  31.526  28.756  1.00  0.00    -0.744 OA
ENDBRANCH  59  63
ENDBRANCH  42  56
BRANCH  43  67
ATOM     67  C   UNL A   1      46.928  26.972  26.265  1.00  0.00     0.023 A 
ATOM     68  C   UNL A   1      48.000  26.357  26.928  1.00  0.00     0.031 A 
ATOM     69  C   UNL A   1      47.036  27.177  24.877  1.00  0.00     0.131 A 
ATOM     70  C   UNL A   1      49.149  25.994  26.208  1.00  0.00     0.055 A 
ATOM     71  C   UNL A   1      48.162  26.771  24.157  1.00  0.00     0.041 A 
ATOM     72  F   UNL A   1      46.036  27.759  24.196  1.00  0.00    -0.206 F 
ATOM     73  C   UNL A   1      49.232  26.184  24.827  1.00  0.00     0.022 A 
BRANCH  70  74
ATOM     74  S   UNL A   1      50.568  25.326  27.118  1.00  0.00     0.124 S 
ATOM     75  O   UNL A   1      49.959  24.226  27.856  1.00  0.00    -0.237 OA
ATOM     76  O   UNL A   1      51.472  24.949  26.035  1.00  0.00    -0.237 OA
ATOM     77  O   UNL A   1      51.014  26.455  27.932  1.00  0.00    -0.744 OA
ENDBRANCH  70  74
ENDBRANCH  43  67
BRANCH  55  78
ATOM     78  C   UNL A   1      45.210  32.900  29.474  1.00  0.00     0.023 A 
ATOM     79  C   UNL A   1      45.217  33.968  28.560  1.00  0.00     0.031 A 
ATOM     80  C   UNL A   1      45.983  33.019  30.642  1.00  0.00     0.131 A 
ATOM     81  C   UNL A   1      46.027  35.088  28.803  1.00  0.00     0.055 A 
ATOM     82  C   UNL A   1      46.748  34.156  30.902  1.00  0.00     0.041 A 
ATOM     83  F   UNL A   1      46.012  32.025  31.544  1.00  0.00    -0.206 F 
ATOM     84  C   UNL A   1      46.783  35.194  29.975  1.00  0.00     0.022 A 
BRANCH  81  85
ATOM     85  S   UNL A   1      46.147  36.371  27.526  1.00  0.00     0.124 S 
ATOM     86  O   UNL A   1      44.947  37.162  27.776  1.00  0.00    -0.237 OA
ATOM     87  O   UNL A   1      47.415  37.017  27.851  1.00  0.00    -0.237 OA
ATOM     88  O   UNL A   1      46.141  35.614  26.276  1.00  0.00    -0.744 OA
ENDBRANCH  81  85
ENDBRANCH  55  78
ENDBRANCH  29  30
ENDBRANCH  22  24
ENDBRANCH  21  22
ENDBRANCH   1  21
TORSDOF 16
ENDMDL
MODEL 2
REMARK VINA RESULT:     -11.9      2.068      2.469
REMARK SMILES C[C@H](C(=O)OCCOC(=O)c1ccc(-c2c3nc(c(-c4cc(S(=O)(=O)[O-])ccc4F)c4ccc([nH]4)c(-c4cc(S(=O)(=O)[O-])ccc4F)c4nc(c(-c5cc(S(=O)(=O)[O-])ccc5F)c5ccc2[nH]5)C=C4)C=C3)cc1)c1ccc(-c2ccccc2)c(F)c1
REMARK SMILES IDX 7 1 6 2 5 3 3 4 4 5 2 6 1 7 74 8 75 9 86 10 76 11 84 12
REMARK SMILES IDX 77 13 85 14 78 15 79 16 83 17 80 18 82 19 81 20 8 21 9 22
REMARK SMILES IDX 10 23 11 24 12 25 73 26 13 27 72 28 14 29 15 30 16 31 66 32
REMARK SMILES IDX 17 33 71 34 65 35 67 36 18 37 70 38 64 39 63 40 19 42 51 43
REMARK SMILES IDX 31 44 50 45 32 46 35 47 49 48 68 49 33 50 34 51 48 53 69 54
REMARK SMILES IDX 36 55 20 56 21 57 29 58 22 59 28 60 30 61 27 62 23 63 24 64
REMARK SMILES IDX 25 65 26 66 52 67 53 68 61 69 54 70 60 71 62 72 59 73 55 74
REMARK SMILES IDX 56 75 57 76 58 77 37 78 38 79 46 80 39 81 45 82 47 83 44 84
REMARK SMILES IDX 40 85 41 86 42 87 43 88
REMARK H PARENT 67 41 35 52
REMARK Flexibility Score: inf
ROOT
ATOM      1  C   UNL A   1      36.386  20.404  24.982  1.00  0.00     0.275 C 
ENDROOT
BRANCH   1   2
ATOM      2  C   UNL A   1      34.976  20.352  25.564  1.00  0.00     0.274 C 
BRANCH   2   3
ATOM      3  O   UNL A   1      34.054  19.881  24.565  1.00  0.00    -0.462 OA
BRANCH   3   4
ATOM      4  C   UNL A   1      32.903  20.599  24.440  1.00  0.00     0.313 C 
ATOM      5  O   UNL A   1      31.895  20.396  25.109  1.00  0.00    -0.252 OA
BRANCH   4   6
ATOM      6  C   UNL A   1      33.024  21.737  23.423  1.00  0.00     0.126 C 
ATOM      7  C   UNL A   1      31.974  21.689  22.310  1.00  0.00     0.025 C 
BRANCH   6   8
ATOM      8  C   UNL A   1      33.056  23.119  24.059  1.00  0.00    -0.031 A 
ATOM      9  C   UNL A   1      33.469  23.323  25.383  1.00  0.00     0.005 A 
ATOM     10  C   UNL A   1      32.611  24.228  23.322  1.00  0.00     0.044 A 
ATOM     11  C   UNL A   1      33.427  24.597  25.958  1.00  0.00     0.012 A 
ATOM     12  C   UNL A   1      32.553  25.491  23.912  1.00  0.00     0.131 A 
ATOM     13  C   UNL A   1      32.944  25.701  25.239  1.00  0.00     0.017 A 
ATOM     14  F   UNL A   1      32.081  26.511  23.177  1.00  0.00    -0.206 F 
BRANCH  13  15
ATOM     15  C   UNL A   1      32.796  27.001  25.903  1.00  0.00    -0.015 A 
ATOM     16  C   UNL A   1      33.755  28.014  25.748  1.00  0.00     0.009 A 
ATOM     17  C   UNL A   1      31.710  27.238  26.762  1.00  0.00     0.009 A 
ATOM     18  C   UNL A   1      33.640  29.220  26.444  1.00  0.00     0.001 A 
ATOM     19  C   UNL A   1      31.597  28.441  27.462  1.00  0.00     0.001 A 
ATOM     20  C   UNL A   1      32.564  29.429  27.306  1.00  0.00     0.000 A 
ENDBRANCH  13  15
ENDBRANCH   6   8
ENDBRANCH   4   6
ENDBRANCH   3   4
ENDBRANCH   2   3
ENDBRANCH   1   2
BRANCH   1  21
ATOM     21  O   UNL A   1      37.129  21.478  25.589  1.00  0.00    -0.458 OA
BRANCH  21  22
ATOM     22  C   UNL A   1      38.436  21.221  25.830  1.00  0.00     0.338 C 
ATOM     23  O   UNL A   1      39.022  20.164  25.646  1.00  0.00    -0.246 OA
BRANCH  22  24
ATOM     24  C   UNL A   1      39.103  22.418  26.379  1.00  0.00     0.060 A 
ATOM     25  C   UNL A   1      38.654  23.705  26.073  1.00  0.00     0.016 A 
ATOM     26  C   UNL A   1      40.260  22.246  27.139  1.00  0.00     0.016 A 
ATOM     27  C   UNL A   1      39.401  24.816  26.465  1.00  0.00     0.010 A 
ATOM     28  C   UNL A   1      40.951  23.364  27.613  1.00  0.00     0.010 A 
ATOM     29  C   UNL A   1      40.545  24.663  27.262  1.00  0.00    -0.014 A 
BRANCH  29  30
ATOM     30  C   UNL A   1      41.327  25.839  27.740  1.00  0.00     0.031 A 
ATOM     31  C   UNL A   1      40.662  26.892  28.587  1.00  0.00     0.074 A 
ATOM     32  C   UNL A   1      42.615  25.996  27.372  1.00  0.00     0.049 A 
ATOM     33  N   UNL A   1      41.066  28.101  28.883  1.00  0.00    -0.248 NA
ATOM     34  C   UNL A   1      39.352  26.542  29.158  1.00  0.00     0.031 C 
ATOM     35  C   UNL A   1      43.397  25.038  26.588  1.00  0.00     0.029 A 
ATOM     36  N   UNL A   1      43.490  27.030  27.595  1.00  0.00    -0.354 N 
ATOM     37  C   UNL A   1      40.039  28.678  29.623  1.00  0.00     0.074 A 
ATOM     38  C   UNL A   1      38.991  27.684  29.725  1.00  0.00     0.031 C 
ATOM     39  C   UNL A   1      44.636  25.520  26.409  1.00  0.00     0.029 A 
ATOM     40  C   UNL A   1      44.710  26.859  26.984  1.00  0.00     0.049 A 
ATOM     41  H   UNL A   1      43.265  27.818  28.141  1.00  0.00     0.167 HD
ATOM     42  C   UNL A   1      39.978  29.923  30.160  1.00  0.00     0.034 A 
ATOM     43  C   UNL A   1      45.753  27.700  26.846  1.00  0.00     0.034 A 
ATOM     44  C   UNL A   1      41.052  30.886  30.082  1.00  0.00     0.049 A 
ATOM     45  C   UNL A   1      45.651  29.088  27.417  1.00  0.00     0.074 A 
ATOM     46  C   UNL A   1      41.107  32.164  30.613  1.00  0.00     0.029 A 
ATOM     47  N   UNL A   1      42.265  30.674  29.439  1.00  0.00    -0.354 N 
ATOM     48  N   UNL A   1      44.650  29.645  28.057  1.00  0.00    -0.248 NA
ATOM     49  C   UNL A   1      46.814  29.964  27.233  1.00  0.00     0.031 C 
ATOM     50  C   UNL A   1      42.329  32.743  30.246  1.00  0.00     0.029 A 
ATOM     51  C   UNL A   1      43.064  31.804  29.541  1.00  0.00     0.049 A 
ATOM     52  H   UNL A   1      42.521  29.843  28.978  1.00  0.00     0.167 HD
ATOM     53  C   UNL A   1      45.069  30.935  28.363  1.00  0.00     0.074 A 
ATOM     54  C   UNL A   1      46.419  31.067  27.852  1.00  0.00     0.031 C 
ATOM     55  C   UNL A   1      44.400  31.924  29.008  1.00  0.00     0.034 A 
BRANCH  42  56
ATOM     56  C   UNL A   1      38.683  30.335  30.819  1.00  0.00     0.023 A 
ATOM     57  C   UNL A   1      37.653  30.980  30.112  1.00  0.00     0.031 A 
ATOM     58  C   UNL A   1      38.489  30.099  32.193  1.00  0.00     0.131 A 
ATOM     59  C   UNL A   1      36.510  31.426  30.793  1.00  0.00     0.055 A 
ATOM     60  C   UNL A   1      37.317  30.479  32.849  1.00  0.00     0.041 A 
ATOM     61  F   UNL A   1      39.445  29.506  32.925  1.00  0.00    -0.206 F 
ATOM     62  C   UNL A   1      36.324  31.160  32.152  1.00  0.00     0.022 A 
BRANCH  59  63
ATOM     63  S   UNL A   1      35.328  32.480  29.908  1.00  0.00     0.124 S 
ATOM     64  O   UNL A   1      34.310  32.706  30.930  1.00  0.00    -0.237 OA
ATOM     65  O   UNL A   1      36.142  33.635  29.550  1.00  0.00    -0.237 OA
ATOM     66  O   UNL A   1      34.898  31.648  28.786  1.00  0.00    -0.744 OA
ENDBRANCH  59  63
ENDBRANCH  42  56
BRANCH  43  67
ATOM     67  C   UNL A   1      46.954  27.282  26.071  1.00  0.00     0.023 A 
ATOM     68  C   UNL A   1      47.130  27.680  24.738  1.00  0.00     0.031 A 
ATOM     69  C   UNL A   1      47.937  26.461  26.653  1.00  0.00     0.131 A 
ATOM     70  C   UNL A   1      48.249  27.231  24.019  1.00  0.00     0.055 A 
ATOM     71  C   UNL A   1      49.072  26.057  25.948  1.00  0.00     0.041 A 
ATOM     72  F   UNL A   1      47.816  26.056  27.927  1.00  0.00    -0.206 F 
ATOM     73  C   UNL A   1      49.227  26.435  24.618  1.00  0.00     0.022 A 
BRANCH  70  74
ATOM     74  S   UNL A   1      48.376  27.653  22.259  1.00  0.00     0.124 S 
ATOM     75  O   UNL A   1      49.621  28.412  22.223  1.00  0.00    -0.237 OA
ATOM     76  O   UNL A   1      48.410  26.335  21.634  1.00  0.00    -0.237 OA
ATOM     77  O   UNL A   1      47.163  28.428  22.005  1.00  0.00    -0.744 OA
ENDBRANCH  70  74
ENDBRANCH  43  67
BRANCH  55  78
ATOM     78  C   UNL A   1      45.147  33.214  29.224  1.00  0.00     0.023 A 
ATOM     79  C   UNL A   1      45.107  34.256  28.281  1.00  0.00     0.031 A 
ATOM     80  C   UNL A   1      45.936  33.388  30.375  1.00  0.00     0.131 A 
ATOM     81  C   UNL A   1      45.887  35.405  28.478  1.00  0.00     0.055 A 
ATOM     82  C   UNL A   1      46.671  34.555  30.590  1.00  0.00     0.041 A 
ATOM     83  F   UNL A   1      46.009  32.422  31.304  1.00  0.00    -0.206 F 
ATOM     84  C   UNL A   1      46.659  35.566  29.634  1.00  0.00     0.022 A 
BRANCH  81  85
ATOM     85  S   UNL A   1      45.948  36.655  27.165  1.00  0.00     0.124 S 
ATOM     86  O   UNL A   1      44.550  37.057  27.062  1.00  0.00    -0.237 OA
ATOM     87  O   UNL A   1      46.859  37.650  27.722  1.00  0.00    -0.237 OA
ATOM     88  O   UNL A   1      46.468  35.918  26.014  1.00  0.00    -0.744 OA
ENDBRANCH  81  85
ENDBRANCH  55  78
ENDBRANCH  29  30
ENDBRANCH  22  24
ENDBRANCH  21  22
ENDBRANCH   1  21
TORSDOF 16
ENDMDL
MODEL 3
REMARK VINA RESULT:     -11.8      4.842     10.034
REMARK SMILES C[C@H](C(=O)OCCOC(=O)c1ccc(-c2c3nc(c(-c4cc(S(=O)(=O)[O-])ccc4F)c4ccc([nH]4)c(-c4cc(S(=O)(=O)[O-])ccc4F)c4nc(c(-c5cc(S(=O)(=O)[O-])ccc5F)c5ccc2[nH]5)C=C4)C=C3)cc1)c1ccc(-c2ccccc2)c(F)c1
REMARK SMILES IDX 7 1 6 2 5 3 3 4 4 5 2 6 1 7 74 8 75 9 86 10 76 11 84 12
REMARK SMILES IDX 77 13 85 14 78 15 79 16 83 17 80 18 82 19 81 20 8 21 9 22
REMARK SMILES IDX 10 23 11 24 12 25 73 26 13 27 72 28 14 29 15 30 16 31 66 32
REMARK SMILES IDX 17 33 71 34 65 35 67 36 18 37 70 38 64 39 63 40 19 42 51 43
REMARK SMILES IDX 31 44 50 45 32 46 35 47 49 48 68 49 33 50 34 51 48 53 69 54
REMARK SMILES IDX 36 55 20 56 21 57 29 58 22 59 28 60 30 61 27 62 23 63 24 64
REMARK SMILES IDX 25 65 26 66 52 67 53 68 61 69 54 70 60 71 62 72 59 73 55 74
REMARK SMILES IDX 56 75 57 76 58 77 37 78 38 79 46 80 39 81 45 82 47 83 44 84
REMARK SMILES IDX 40 85 41 86 42 87 43 88
REMARK H PARENT 67 41 35 52
REMARK Flexibility Score: inf
ROOT
ATOM      1  C   UNL A   1      31.540  29.998  25.392  1.00  0.00     0.275 C 
ENDROOT
BRANCH   1   2
ATOM      2  C   UNL A   1      31.465  28.952  24.283  1.00  0.00     0.274 C 
BRANCH   2   3
ATOM      3  O   UNL A   1      30.765  27.788  24.757  1.00  0.00    -0.462 OA
BRANCH   3   4
ATOM      4  C   UNL A   1      31.466  26.983  25.603  1.00  0.00     0.313 C 
ATOM      5  O   UNL A   1      31.082  26.671  26.726  1.00  0.00    -0.252 OA
BRANCH   4   6
ATOM      6  C   UNL A   1      32.757  26.449  24.977  1.00  0.00     0.126 C 
ATOM      7  C   UNL A   1      34.023  26.815  25.755  1.00  0.00     0.025 C 
BRANCH   6   8
ATOM      8  C   UNL A   1      32.723  24.953  24.698  1.00  0.00    -0.031 A 
ATOM      9  C   UNL A   1      31.521  24.238  24.605  1.00  0.00     0.005 A 
ATOM     10  C   UNL A   1      33.929  24.246  24.578  1.00  0.00     0.044 A 
ATOM     11  C   UNL A   1      31.525  22.853  24.411  1.00  0.00     0.012 A 
ATOM     12  C   UNL A   1      33.923  22.862  24.405  1.00  0.00     0.131 A 
ATOM     13  C   UNL A   1      32.729  22.136  24.332  1.00  0.00     0.017 A 
ATOM     14  F   UNL A   1      35.104  22.228  24.337  1.00  0.00    -0.206 F 
BRANCH  13  15
ATOM     15  C   UNL A   1      32.707  20.671  24.250  1.00  0.00    -0.015 A 
ATOM     16  C   UNL A   1      32.341  20.011  23.066  1.00  0.00     0.009 A 
ATOM     17  C   UNL A   1      32.996  19.894  25.384  1.00  0.00     0.009 A 
ATOM     18  C   UNL A   1      32.252  18.618  23.024  1.00  0.00     0.001 A 
ATOM     19  C   UNL A   1      32.903  18.502  25.343  1.00  0.00     0.001 A 
ATOM     20  C   UNL A   1      32.526  17.865  24.164  1.00  0.00     0.000 A 
ENDBRANCH  13  15
ENDBRANCH   6   8
ENDBRANCH   4   6
ENDBRANCH   3   4
ENDBRANCH   2   3
ENDBRANCH   1   2
BRANCH   1  21
ATOM     21  O   UNL A   1      32.914  30.231  25.756  1.00  0.00    -0.458 OA
BRANCH  21  22
ATOM     22  C   UNL A   1      33.107  31.075  26.797  1.00  0.00     0.338 C 
ATOM     23  O   UNL A   1      32.350  31.957  27.176  1.00  0.00    -0.246 OA
BRANCH  22  24
ATOM     24  C   UNL A   1      34.405  30.805  27.444  1.00  0.00     0.060 A 
ATOM     25  C   UNL A   1      34.746  29.523  27.883  1.00  0.00     0.016 A 
ATOM     26  C   UNL A   1      35.258  31.879  27.701  1.00  0.00     0.016 A 
ATOM     27  C   UNL A   1      35.902  29.329  28.641  1.00  0.00     0.010 A 
ATOM     28  C   UNL A   1      36.463  31.662  28.374  1.00  0.00     0.010 A 
ATOM     29  C   UNL A   1      36.789  30.390  28.875  1.00  0.00    -0.014 A 
BRANCH  29  30
ATOM     30  C   UNL A   1      38.057  30.194  29.633  1.00  0.00     0.031 A 
ATOM     31  C   UNL A   1      39.127  29.282  29.091  1.00  0.00     0.074 A 
ATOM     32  C   UNL A   1      38.232  30.786  30.832  1.00  0.00     0.049 A 
ATOM     33  N   UNL A   1      40.168  28.769  29.693  1.00  0.00    -0.248 NA
ATOM     34  C   UNL A   1      38.988  28.876  27.683  1.00  0.00     0.031 C 
ATOM     35  C   UNL A   1      37.300  31.723  31.461  1.00  0.00     0.029 A 
ATOM     36  N   UNL A   1      39.251  30.672  31.747  1.00  0.00    -0.354 N 
ATOM     37  C   UNL A   1      40.777  27.934  28.762  1.00  0.00     0.074 A 
ATOM     38  C   UNL A   1      39.981  28.008  27.554  1.00  0.00     0.031 C 
ATOM     39  C   UNL A   1      37.794  32.109  32.647  1.00  0.00     0.029 A 
ATOM     40  C   UNL A   1      39.031  31.380  32.905  1.00  0.00     0.049 A 
ATOM     41  H   UNL A   1      40.061  30.136  31.587  1.00  0.00     0.167 HD
ATOM     42  C   UNL A   1      41.891  27.172  28.907  1.00  0.00     0.034 A 
ATOM     43  C   UNL A   1      39.708  31.399  34.069  1.00  0.00     0.034 A 
ATOM     44  C   UNL A   1      42.694  27.143  30.107  1.00  0.00     0.049 A 
ATOM     45  C   UNL A   1      40.920  30.521  34.222  1.00  0.00     0.074 A 
ATOM     46  C   UNL A   1      43.857  26.431  30.352  1.00  0.00     0.029 A 
ATOM     47  N   UNL A   1      42.425  27.866  31.263  1.00  0.00    -0.354 N 
ATOM     48  N   UNL A   1      41.449  29.686  33.357  1.00  0.00    -0.248 NA
ATOM     49  C   UNL A   1      41.618  30.578  35.512  1.00  0.00     0.031 C 
ATOM     50  C   UNL A   1      44.259  26.681  31.671  1.00  0.00     0.029 A 
ATOM     51  C   UNL A   1      43.384  27.599  32.229  1.00  0.00     0.049 A 
ATOM     52  H   UNL A   1      41.663  28.479  31.379  1.00  0.00     0.167 HD
ATOM     53  C   UNL A   1      42.549  29.127  33.998  1.00  0.00     0.074 A 
ATOM     54  C   UNL A   1      42.618  29.733  35.313  1.00  0.00     0.031 C 
ATOM     55  C   UNL A   1      43.425  28.196  33.542  1.00  0.00     0.034 A 
BRANCH  42  56
ATOM     56  C   UNL A   1      42.266  26.261  27.762  1.00  0.00     0.023 A 
ATOM     57  C   UNL A   1      41.733  24.968  27.628  1.00  0.00     0.031 A 
ATOM     58  C   UNL A   1      43.200  26.690  26.801  1.00  0.00     0.131 A 
ATOM     59  C   UNL A   1      42.187  24.126  26.600  1.00  0.00     0.055 A 
ATOM     60  C   UNL A   1      43.591  25.875  25.738  1.00  0.00     0.041 A 
ATOM     61  F   UNL A   1      43.759  27.907  26.888  1.00  0.00    -0.206 F 
ATOM     62  C   UNL A   1      43.096  24.580  25.640  1.00  0.00     0.022 A 
BRANCH  59  63
ATOM     63  S   UNL A   1      41.677  22.385  26.612  1.00  0.00     0.124 S 
ATOM     64  O   UNL A   1      40.222  22.503  26.635  1.00  0.00    -0.237 OA
ATOM     65  O   UNL A   1      42.259  21.878  25.376  1.00  0.00    -0.237 OA
ATOM     66  O   UNL A   1      42.270  21.862  27.841  1.00  0.00    -0.744 OA
ENDBRANCH  59  63
ENDBRANCH  42  56
BRANCH  43  67
ATOM     67  C   UNL A   1      39.215  32.220  35.209  1.00  0.00     0.023 A 
ATOM     68  C   UNL A   1      39.693  33.522  35.423  1.00  0.00     0.031 A 
ATOM     69  C   UNL A   1      38.269  31.704  36.114  1.00  0.00     0.131 A 
ATOM     70  C   UNL A   1      39.245  34.254  36.534  1.00  0.00     0.055 A 
ATOM     71  C   UNL A   1      37.791  32.454  37.189  1.00  0.00     0.041 A 
ATOM     72  F   UNL A   1      37.779  30.465  35.950  1.00  0.00    -0.206 F 
ATOM     73  C   UNL A   1      38.288  33.736  37.409  1.00  0.00     0.022 A 
BRANCH  70  74
ATOM     74  S   UNL A   1      39.983  35.879  36.857  1.00  0.00     0.124 S 
ATOM     75  O   UNL A   1      39.653  36.605  35.635  1.00  0.00    -0.237 OA
ATOM     76  O   UNL A   1      39.276  36.298  38.063  1.00  0.00    -0.237 OA
ATOM     77  O   UNL A   1      41.401  35.579  37.042  1.00  0.00    -0.744 OA
ENDBRANCH  70  74
ENDBRANCH  43  67
BRANCH  55  78
ATOM     78  C   UNL A   1      44.550  27.818  34.469  1.00  0.00     0.023 A 
ATOM     79  C   UNL A   1      44.356  26.923  35.536  1.00  0.00     0.031 A 
ATOM     80  C   UNL A   1      45.825  28.387  34.302  1.00  0.00     0.131 A 
ATOM     81  C   UNL A   1      45.407  26.665  36.429  1.00  0.00     0.055 A 
ATOM     82  C   UNL A   1      46.880  28.088  35.164  1.00  0.00     0.041 A 
ATOM     83  F   UNL A   1      46.060  29.249  33.300  1.00  0.00    -0.206 F 
ATOM     84  C   UNL A   1      46.672  27.233  36.242  1.00  0.00     0.022 A 
BRANCH  81  85
ATOM     85  S   UNL A   1      45.079  25.642  37.891  1.00  0.00     0.124 S 
ATOM     86  O   UNL A   1      44.132  26.468  38.633  1.00  0.00    -0.237 OA
ATOM     87  O   UNL A   1      44.537  24.421  37.303  1.00  0.00    -0.237 OA
ATOM     88  O   UNL A   1      46.394  25.498  38.512  1.00  0.00    -0.744 OA
ENDBRANCH  81  85
ENDBRANCH  55  78
ENDBRANCH  29  30
ENDBRANCH  22  24
ENDBRANCH  21  22
ENDBRANCH   1  21
TORSDOF 16
ENDMDL
