MODEL 1
REMARK VINA RESULT:     -11.5      0.000      0.000
REMARK SMILES CN(Cc1ncc(C(=O)OCCOC(=O)c2ccc(-c3c4nc(c(-c5cc(S(=O)(=O)[O-])ccc5F)c5ccc([nH]5)c(-c5cc(S(=O)(=O)[O-])ccc5F)c5nc(c(-c6cc(S(=O)(=O)[O-])ccc6F)c6ccc3[nH]6)C=C5)C=C4)cc2)cn1)S(=O)(=O)c1ccc(Cl)cc1
REMARK SMILES IDX 11 1 10 2 8 3 9 4 7 5 4 6 5 7 80 8 6 9 79 10 3 11 2 12 1 13
REMARK SMILES IDX 81 14 82 15 83 16 84 17 85 18 90 19 86 20 89 21 87 22 88 23
REMARK SMILES IDX 12 24 13 25 14 26 15 27 16 28 17 29 78 30 18 31 77 32 19 33
REMARK SMILES IDX 20 34 21 35 71 36 22 37 76 38 70 39 72 40 23 41 75 42 69 43
REMARK SMILES IDX 68 44 24 46 56 47 36 48 55 49 37 50 40 51 54 52 73 53 38 54
REMARK SMILES IDX 39 55 53 57 74 58 41 59 25 60 26 61 34 62 27 63 33 64 35 65
REMARK SMILES IDX 32 66 28 67 29 68 30 69 31 70 57 71 58 72 66 73 59 74 65 75
REMARK SMILES IDX 67 76 64 77 60 78 61 79 62 80 63 81 42 82 43 83 51 84 44 85
REMARK SMILES IDX 50 86 52 87 49 88 45 89 46 90 47 91 48 92
REMARK H PARENT 72 45 40 56
REMARK Flexibility Score: inf
ROOT
ATOM      1  C   UNL A   1      31.575  29.488  24.571  1.00  0.00     0.275 C 
ENDROOT
BRANCH   1   2
ATOM      2  O   UNL A   1      32.023  28.913  23.325  1.00  0.00    -0.458 OA
BRANCH   2   3
ATOM      3  C   UNL A   1      31.158  28.042  22.762  1.00  0.00     0.341 C 
ATOM      4  O   UNL A   1      29.979  28.231  22.517  1.00  0.00    -0.246 OA
BRANCH   3   5
ATOM      5  C   UNL A   1      31.817  26.783  22.449  1.00  0.00     0.096 A 
ATOM      6  C   UNL A   1      33.296  24.519  22.465  1.00  0.00     0.143 A 
ATOM      7  N   UNL A   1      33.855  25.632  21.930  1.00  0.00    -0.239 NA
ATOM      8  N   UNL A   1      32.010  24.432  22.850  1.00  0.00    -0.239 NA
ATOM      9  C   UNL A   1      33.091  26.750  21.939  1.00  0.00     0.130 A 
ATOM     10  C   UNL A   1      31.308  25.582  22.874  1.00  0.00     0.130 A 
BRANCH   6  11
ATOM     11  C   UNL A   1      34.186  23.305  22.678  1.00  0.00     0.179 C 
BRANCH  11  12
ATOM     12  N   UNL A   1      35.353  23.422  23.614  1.00  0.00    -0.193 NA
ATOM     13  C   UNL A   1      36.581  22.771  23.090  1.00  0.00     0.125 C 
BRANCH  12  14
ATOM     14  S   UNL A   1      35.075  23.053  25.258  1.00  0.00     0.243 S 
ATOM     15  O   UNL A   1      34.441  21.762  25.356  1.00  0.00    -0.207 OA
ATOM     16  O   UNL A   1      36.295  23.351  25.985  1.00  0.00    -0.207 OA
BRANCH  14  17
ATOM     17  C   UNL A   1      33.893  24.283  25.759  1.00  0.00     0.082 A 
ATOM     18  C   UNL A   1      32.654  23.887  26.272  1.00  0.00     0.023 A 
ATOM     19  C   UNL A   1      34.241  25.635  25.683  1.00  0.00     0.023 A 
ATOM     20  C   UNL A   1      31.748  24.859  26.702  1.00  0.00     0.022 A 
ATOM     21  C   UNL A   1      33.330  26.602  26.110  1.00  0.00     0.022 A 
ATOM     22  C   UNL A   1      32.088  26.210  26.616  1.00  0.00     0.041 A 
ATOM     23  Cl  UNL A   1      30.966  27.404  27.143  1.00  0.00    -0.084 Cl
ENDBRANCH  14  17
ENDBRANCH  12  14
ENDBRANCH  11  12
ENDBRANCH   6  11
ENDBRANCH   3   5
ENDBRANCH   2   3
ENDBRANCH   1   2
BRANCH   1  24
ATOM     24  C   UNL A   1      32.753  30.022  25.387  1.00  0.00     0.275 C 
BRANCH  24  25
ATOM     25  O   UNL A   1      32.332  30.472  26.690  1.00  0.00    -0.458 OA
BRANCH  25  26
ATOM     26  C   UNL A   1      32.986  31.561  27.152  1.00  0.00     0.338 C 
ATOM     27  O   UNL A   1      32.533  32.686  27.286  1.00  0.00    -0.246 OA
BRANCH  26  28
ATOM     28  C   UNL A   1      34.356  31.222  27.567  1.00  0.00     0.060 A 
ATOM     29  C   UNL A   1      34.642  29.908  27.929  1.00  0.00     0.016 A 
ATOM     30  C   UNL A   1      35.278  32.237  27.824  1.00  0.00     0.016 A 
ATOM     31  C   UNL A   1      35.794  29.628  28.662  1.00  0.00     0.010 A 
ATOM     32  C   UNL A   1      36.493  31.926  28.449  1.00  0.00     0.010 A 
ATOM     33  C   UNL A   1      36.752  30.623  28.915  1.00  0.00    -0.014 A 
BRANCH  33  34
ATOM     34  C   UNL A   1      38.001  30.301  29.676  1.00  0.00     0.031 A 
ATOM     35  C   UNL A   1      39.072  29.424  29.071  1.00  0.00     0.074 A 
ATOM     36  C   UNL A   1      38.187  30.803  30.915  1.00  0.00     0.049 A 
ATOM     37  N   UNL A   1      40.123  28.884  29.637  1.00  0.00    -0.248 NA
ATOM     38  C   UNL A   1      38.929  29.091  27.646  1.00  0.00     0.031 C 
ATOM     39  C   UNL A   1      37.263  31.696  31.616  1.00  0.00     0.029 A 
ATOM     40  N   UNL A   1      39.223  30.645  31.805  1.00  0.00    -0.354 N 
ATOM     41  C   UNL A   1      40.734  28.104  28.658  1.00  0.00     0.074 A 
ATOM     42  C   UNL A   1      39.922  28.231  27.464  1.00  0.00     0.031 C 
ATOM     43  C   UNL A   1      37.795  32.052  32.792  1.00  0.00     0.029 A 
ATOM     44  C   UNL A   1      39.043  31.326  32.988  1.00  0.00     0.049 A 
ATOM     45  H   UNL A   1      40.019  30.097  31.615  1.00  0.00     0.167 HD
ATOM     46  C   UNL A   1      41.862  27.352  28.748  1.00  0.00     0.034 A 
ATOM     47  C   UNL A   1      39.761  31.332  34.128  1.00  0.00     0.034 A 
ATOM     48  C   UNL A   1      42.692  27.282  29.930  1.00  0.00     0.049 A 
ATOM     49  C   UNL A   1      40.988  30.465  34.218  1.00  0.00     0.074 A 
ATOM     50  C   UNL A   1      43.866  26.571  30.119  1.00  0.00     0.029 A 
ATOM     51  N   UNL A   1      42.446  27.955  31.120  1.00  0.00    -0.354 N 
ATOM     52  N   UNL A   1      41.507  29.672  33.309  1.00  0.00    -0.248 NA
ATOM     53  C   UNL A   1      41.714  30.479  35.493  1.00  0.00     0.031 C 
ATOM     54  C   UNL A   1      44.295  26.765  31.437  1.00  0.00     0.029 A 
ATOM     55  C   UNL A   1      43.430  27.655  32.053  1.00  0.00     0.049 A 
ATOM     56  H   UNL A   1      41.683  28.557  31.280  1.00  0.00     0.167 HD
ATOM     57  C   UNL A   1      42.629  29.104  33.901  1.00  0.00     0.074 A 
ATOM     58  C   UNL A   1      42.723  29.660  35.236  1.00  0.00     0.031 C 
ATOM     59  C   UNL A   1      43.502  28.199  33.389  1.00  0.00     0.034 A 
BRANCH  46  60
ATOM     60  C   UNL A   1      42.232  26.496  27.556  1.00  0.00     0.023 A 
ATOM     61  C   UNL A   1      41.842  25.150  27.446  1.00  0.00     0.031 A 
ATOM     62  C   UNL A   1      43.009  27.041  26.517  1.00  0.00     0.131 A 
ATOM     63  C   UNL A   1      42.289  24.379  26.359  1.00  0.00     0.055 A 
ATOM     64  C   UNL A   1      43.383  26.291  25.400  1.00  0.00     0.041 A 
ATOM     65  F   UNL A   1      43.429  28.315  26.572  1.00  0.00    -0.206 F 
ATOM     66  C   UNL A   1      43.035  24.947  25.323  1.00  0.00     0.022 A 
BRANCH  63  67
ATOM     67  S   UNL A   1      42.000  22.587  26.387  1.00  0.00     0.124 S 
ATOM     68  O   UNL A   1      40.540  22.524  26.387  1.00  0.00    -0.237 OA
ATOM     69  O   UNL A   1      42.660  22.141  25.166  1.00  0.00    -0.237 OA
ATOM     70  O   UNL A   1      42.633  22.156  27.633  1.00  0.00    -0.744 OA
ENDBRANCH  63  67
ENDBRANCH  46  60
BRANCH  47  71
ATOM     71  C   UNL A   1      39.297  32.123  35.305  1.00  0.00     0.023 A 
ATOM     72  C   UNL A   1      39.730  33.442  35.512  1.00  0.00     0.031 A 
ATOM     73  C   UNL A   1      38.428  31.557  36.256  1.00  0.00     0.131 A 
ATOM     74  C   UNL A   1      39.319  34.139  36.660  1.00  0.00     0.055 A 
ATOM     75  C   UNL A   1      37.973  32.275  37.362  1.00  0.00     0.041 A 
ATOM     76  F   UNL A   1      37.987  30.297  36.109  1.00  0.00    -0.206 F 
ATOM     77  C   UNL A   1      38.429  33.571  37.575  1.00  0.00     0.022 A 
BRANCH  74  78
ATOM     78  S   UNL A   1      40.030  35.775  36.987  1.00  0.00     0.124 S 
ATOM     79  O   UNL A   1      39.330  36.165  38.206  1.00  0.00    -0.237 OA
ATOM     80  O   UNL A   1      41.449  35.468  37.132  1.00  0.00    -0.237 OA
ATOM     81  O   UNL A   1      39.680  36.543  35.794  1.00  0.00    -0.744 OA
ENDBRANCH  74  78
ENDBRANCH  47  71
BRANCH  59  82
ATOM     82  C   UNL A   1      44.654  27.794  34.273  1.00  0.00     0.023 A 
ATOM     83  C   UNL A   1      44.566  26.691  35.141  1.00  0.00     0.031 A 
ATOM     84  C   UNL A   1      45.843  28.544  34.271  1.00  0.00     0.131 A 
ATOM     85  C   UNL A   1      45.626  26.404  36.014  1.00  0.00     0.055 A 
ATOM     86  C   UNL A   1      46.917  28.219  35.102  1.00  0.00     0.041 A 
ATOM     87  F   UNL A   1      45.980  29.608  33.464  1.00  0.00    -0.206 F 
ATOM     88  C   UNL A   1      46.806  27.152  35.989  1.00  0.00     0.022 A 
BRANCH  85  89
ATOM     89  S   UNL A   1      45.409  25.092  37.249  1.00  0.00     0.124 S 
ATOM     90  O   UNL A   1      45.768  23.899  36.488  1.00  0.00    -0.237 OA
ATOM     91  O   UNL A   1      46.347  25.487  38.293  1.00  0.00    -0.237 OA
ATOM     92  O   UNL A   1      43.998  25.193  37.614  1.00  0.00    -0.744 OA
ENDBRANCH  85  89
ENDBRANCH  59  82
ENDBRANCH  33  34
ENDBRANCH  26  28
ENDBRANCH  25  26
ENDBRANCH  24  25
ENDBRANCH   1  24
TORSDOF 18
ENDMDL
MODEL 2
REMARK VINA RESULT:     -11.3      4.693      9.856
REMARK SMILES CN(Cc1ncc(C(=O)OCCOC(=O)c2ccc(-c3c4nc(c(-c5cc(S(=O)(=O)[O-])ccc5F)c5ccc([nH]5)c(-c5cc(S(=O)(=O)[O-])ccc5F)c5nc(c(-c6cc(S(=O)(=O)[O-])ccc6F)c6ccc3[nH]6)C=C5)C=C4)cc2)cn1)S(=O)(=O)c1ccc(Cl)cc1
REMARK SMILES IDX 11 1 10 2 8 3 9 4 7 5 4 6 5 7 80 8 6 9 79 10 3 11 2 12 1 13
REMARK SMILES IDX 81 14 82 15 83 16 84 17 85 18 90 19 86 20 89 21 87 22 88 23
REMARK SMILES IDX 12 24 13 25 14 26 15 27 16 28 17 29 78 30 18 31 77 32 19 33
REMARK SMILES IDX 20 34 21 35 71 36 22 37 76 38 70 39 72 40 23 41 75 42 69 43
REMARK SMILES IDX 68 44 24 46 56 47 36 48 55 49 37 50 40 51 54 52 73 53 38 54
REMARK SMILES IDX 39 55 53 57 74 58 41 59 25 60 26 61 34 62 27 63 33 64 35 65
REMARK SMILES IDX 32 66 28 67 29 68 30 69 31 70 57 71 58 72 66 73 59 74 65 75
REMARK SMILES IDX 67 76 64 77 60 78 61 79 62 80 63 81 42 82 43 83 51 84 44 85
REMARK SMILES IDX 50 86 52 87 49 88 45 89 46 90 47 91 48 92
REMARK H PARENT 72 45 40 56
REMARK Flexibility Score: inf
ROOT
ATOM      1  C   UNL A   1      35.568  21.368  26.143  1.00  0.00     0.275 C 
ENDROOT
BRANCH   1   2
ATOM      2  O   UNL A   1      34.934  22.661  26.050  1.00  0.00    -0.458 OA
BRANCH   2   3
ATOM      3  C   UNL A   1      33.589  22.641  26.181  1.00  0.00     0.341 C 
ATOM      4  O   UNL A   1      32.862  21.663  26.154  1.00  0.00    -0.246 OA
BRANCH   3   5
ATOM      5  C   UNL A   1      33.065  23.984  26.379  1.00  0.00     0.096 A 
ATOM      6  C   UNL A   1      31.836  26.382  26.155  1.00  0.00     0.143 A 
ATOM      7  N   UNL A   1      33.131  26.301  25.766  1.00  0.00    -0.239 NA
ATOM      8  N   UNL A   1      31.172  25.392  26.778  1.00  0.00    -0.239 NA
ATOM      9  C   UNL A   1      33.718  25.086  25.887  1.00  0.00     0.130 A 
ATOM     10  C   UNL A   1      31.790  24.196  26.839  1.00  0.00     0.130 A 
BRANCH   6  11
ATOM     11  C   UNL A   1      31.073  27.657  25.834  1.00  0.00     0.179 C 
BRANCH  11  12
ATOM     12  N   UNL A   1      31.142  28.206  24.439  1.00  0.00    -0.193 NA
ATOM     13  C   UNL A   1      31.042  29.688  24.395  1.00  0.00     0.125 C 
BRANCH  12  14
ATOM     14  S   UNL A   1      30.165  27.457  23.255  1.00  0.00     0.243 S 
ATOM     15  O   UNL A   1      28.844  27.246  23.791  1.00  0.00    -0.207 OA
ATOM     16  O   UNL A   1      30.369  28.167  22.007  1.00  0.00    -0.207 OA
BRANCH  14  17
ATOM     17  C   UNL A   1      30.929  25.865  23.043  1.00  0.00     0.082 A 
ATOM     18  C   UNL A   1      32.202  25.776  22.473  1.00  0.00     0.023 A 
ATOM     19  C   UNL A   1      30.265  24.723  23.502  1.00  0.00     0.023 A 
ATOM     20  C   UNL A   1      32.812  24.526  22.349  1.00  0.00     0.022 A 
ATOM     21  C   UNL A   1      30.877  23.476  23.370  1.00  0.00     0.022 A 
ATOM     22  C   UNL A   1      32.146  23.383  22.794  1.00  0.00     0.041 A 
ATOM     23  Cl  UNL A   1      32.900  21.844  22.634  1.00  0.00    -0.084 Cl
ENDBRANCH  14  17
ENDBRANCH  12  14
ENDBRANCH  11  12
ENDBRANCH   6  11
ENDBRANCH   3   5
ENDBRANCH   2   3
ENDBRANCH   1   2
BRANCH   1  24
ATOM     24  C   UNL A   1      36.291  21.013  24.844  1.00  0.00     0.275 C 
BRANCH  24  25
ATOM     25  O   UNL A   1      37.551  21.703  24.735  1.00  0.00    -0.458 OA
BRANCH  25  26
ATOM     26  C   UNL A   1      38.500  21.289  25.603  1.00  0.00     0.338 C 
ATOM     27  O   UNL A   1      38.904  20.148  25.758  1.00  0.00    -0.246 OA
BRANCH  26  28
ATOM     28  C   UNL A   1      39.083  22.424  26.336  1.00  0.00     0.060 A 
ATOM     29  C   UNL A   1      38.562  23.698  26.124  1.00  0.00     0.016 A 
ATOM     30  C   UNL A   1      40.280  22.261  27.035  1.00  0.00     0.016 A 
ATOM     31  C   UNL A   1      39.302  24.817  26.500  1.00  0.00     0.010 A 
ATOM     32  C   UNL A   1      40.954  23.389  27.523  1.00  0.00     0.010 A 
ATOM     33  C   UNL A   1      40.497  24.687  27.227  1.00  0.00    -0.014 A 
BRANCH  33  34
ATOM     34  C   UNL A   1      41.265  25.899  27.653  1.00  0.00     0.031 A 
ATOM     35  C   UNL A   1      40.611  26.977  28.487  1.00  0.00     0.074 A 
ATOM     36  C   UNL A   1      42.560  26.039  27.302  1.00  0.00     0.049 A 
ATOM     37  N   UNL A   1      41.048  28.173  28.792  1.00  0.00    -0.248 NA
ATOM     38  C   UNL A   1      39.279  26.675  29.032  1.00  0.00     0.031 C 
ATOM     39  C   UNL A   1      43.340  25.067  26.533  1.00  0.00     0.029 A 
ATOM     40  N   UNL A   1      43.459  27.048  27.554  1.00  0.00    -0.354 N 
ATOM     41  C   UNL A   1      40.027  28.788  29.512  1.00  0.00     0.074 A 
ATOM     42  C   UNL A   1      38.940  27.833  29.584  1.00  0.00     0.031 C 
ATOM     43  C   UNL A   1      44.604  25.494  26.427  1.00  0.00     0.029 A 
ATOM     44  C   UNL A   1      44.707  26.823  27.016  1.00  0.00     0.049 A 
ATOM     45  H   UNL A   1      43.233  27.856  28.069  1.00  0.00     0.167 HD
ATOM     46  C   UNL A   1      39.998  30.032  30.058  1.00  0.00     0.034 A 
ATOM     47  C   UNL A   1      45.800  27.609  26.948  1.00  0.00     0.034 A 
ATOM     48  C   UNL A   1      41.113  30.953  30.025  1.00  0.00     0.049 A 
ATOM     49  C   UNL A   1      45.734  28.995  27.528  1.00  0.00     0.074 A 
ATOM     50  C   UNL A   1      41.197  32.225  30.567  1.00  0.00     0.029 A 
ATOM     51  N   UNL A   1      42.343  30.698  29.431  1.00  0.00    -0.354 N 
ATOM     52  N   UNL A   1      44.733  29.590  28.136  1.00  0.00    -0.248 NA
ATOM     53  C   UNL A   1      46.939  29.823  27.396  1.00  0.00     0.031 C 
ATOM     54  C   UNL A   1      42.451  32.760  30.248  1.00  0.00     0.029 A 
ATOM     55  C   UNL A   1      43.180  31.797  29.570  1.00  0.00     0.049 A 
ATOM     56  H   UNL A   1      42.585  29.859  28.975  1.00  0.00     0.167 HD
ATOM     57  C   UNL A   1      45.195  30.858  28.470  1.00  0.00     0.074 A 
ATOM     58  C   UNL A   1      46.569  30.935  28.015  1.00  0.00     0.031 C 
ATOM     59  C   UNL A   1      44.541  31.870  29.094  1.00  0.00     0.034 A 
BRANCH  46  60
ATOM     60  C   UNL A   1      38.701  30.496  30.683  1.00  0.00     0.023 A 
ATOM     61  C   UNL A   1      37.779  31.304  29.995  1.00  0.00     0.031 A 
ATOM     62  C   UNL A   1      38.391  30.130  32.006  1.00  0.00     0.131 A 
ATOM     63  C   UNL A   1      36.632  31.777  30.655  1.00  0.00     0.055 A 
ATOM     64  C   UNL A   1      37.210  30.537  32.630  1.00  0.00     0.041 A 
ATOM     65  F   UNL A   1      39.239  29.375  32.724  1.00  0.00    -0.206 F 
ATOM     66  C   UNL A   1      36.329  31.377  31.959  1.00  0.00     0.022 A 
BRANCH  63  67
ATOM     67  S   UNL A   1      35.611  33.033  29.834  1.00  0.00     0.124 S 
ATOM     68  O   UNL A   1      36.466  33.422  28.714  1.00  0.00    -0.237 OA
ATOM     69  O   UNL A   1      34.407  32.287  29.491  1.00  0.00    -0.237 OA
ATOM     70  O   UNL A   1      35.440  34.060  30.860  1.00  0.00    -0.744 OA
ENDBRANCH  63  67
ENDBRANCH  46  60
BRANCH  47  71
ATOM     71  C   UNL A   1      47.022  27.135  26.236  1.00  0.00     0.023 A 
ATOM     72  C   UNL A   1      48.056  26.478  26.922  1.00  0.00     0.031 A 
ATOM     73  C   UNL A   1      47.184  27.357  24.856  1.00  0.00     0.131 A 
ATOM     74  C   UNL A   1      49.218  26.096  26.233  1.00  0.00     0.055 A 
ATOM     75  C   UNL A   1      48.314  26.920  24.164  1.00  0.00     0.041 A 
ATOM     76  F   UNL A   1      46.228  27.985  24.152  1.00  0.00    -0.206 F 
ATOM     77  C   UNL A   1      49.345  26.295  24.856  1.00  0.00     0.022 A 
BRANCH  74  78
ATOM     78  S   UNL A   1      50.604  25.405  27.178  1.00  0.00     0.124 S 
ATOM     79  O   UNL A   1      51.425  24.826  26.121  1.00  0.00    -0.237 OA
ATOM     80  O   UNL A   1      51.145  26.590  27.835  1.00  0.00    -0.237 OA
ATOM     81  O   UNL A   1      49.961  24.440  28.068  1.00  0.00    -0.744 OA
ENDBRANCH  74  78
ENDBRANCH  47  71
BRANCH  59  82
ATOM     82  C   UNL A   1      45.330  33.130  29.350  1.00  0.00     0.023 A 
ATOM     83  C   UNL A   1      45.325  34.202  28.440  1.00  0.00     0.031 A 
ATOM     84  C   UNL A   1      46.125  33.243  30.504  1.00  0.00     0.131 A 
ATOM     85  C   UNL A   1      46.144  35.317  28.671  1.00  0.00     0.055 A 
ATOM     86  C   UNL A   1      46.895  34.380  30.757  1.00  0.00     0.041 A 
ATOM     87  F   UNL A   1      46.169  32.248  31.404  1.00  0.00    -0.206 F 
ATOM     88  C   UNL A   1      46.918  35.419  29.830  1.00  0.00     0.022 A 
BRANCH  85  89
ATOM     89  S   UNL A   1      46.257  36.598  27.391  1.00  0.00     0.124 S 
ATOM     90  O   UNL A   1      47.254  36.035  26.486  1.00  0.00    -0.237 OA
ATOM     91  O   UNL A   1      44.892  36.651  26.880  1.00  0.00    -0.237 OA
ATOM     92  O   UNL A   1      46.688  37.784  28.128  1.00  0.00    -0.744 OA
ENDBRANCH  85  89
ENDBRANCH  59  82
ENDBRANCH  33  34
ENDBRANCH  26  28
ENDBRANCH  25  26
ENDBRANCH  24  25
ENDBRANCH   1  24
TORSDOF 18
ENDMDL
MODEL 3
REMARK VINA RESULT:     -11.3      5.011      7.437
REMARK SMILES CN(Cc1ncc(C(=O)OCCOC(=O)c2ccc(-c3c4nc(c(-c5cc(S(=O)(=O)[O-])ccc5F)c5ccc([nH]5)c(-c5cc(S(=O)(=O)[O-])ccc5F)c5nc(c(-c6cc(S(=O)(=O)[O-])ccc6F)c6ccc3[nH]6)C=C5)C=C4)cc2)cn1)S(=O)(=O)c1ccc(Cl)cc1
REMARK SMILES IDX 11 1 10 2 8 3 9 4 7 5 4 6 5 7 80 8 6 9 79 10 3 11 2 12 1 13
REMARK SMILES IDX 81 14 82 15 83 16 84 17 85 18 90 19 86 20 89 21 87 22 88 23
REMARK SMILES IDX 12 24 13 25 14 26 15 27 16 28 17 29 78 30 18 31 77 32 19 33
REMARK SMILES IDX 20 34 21 35 71 36 22 37 76 38 70 39 72 40 23 41 75 42 69 43
REMARK SMILES IDX 68 44 24 46 56 47 36 48 55 49 37 50 40 51 54 52 73 53 38 54
REMARK SMILES IDX 39 55 53 57 74 58 41 59 25 60 26 61 34 62 27 63 33 64 35 65
REMARK SMILES IDX 32 66 28 67 29 68 30 69 31 70 57 71 58 72 66 73 59 74 65 75
REMARK SMILES IDX 67 76 64 77 60 78 61 79 62 80 63 81 42 82 43 83 51 84 44 85
REMARK SMILES IDX 50 86 52 87 49 88 45 89 46 90 47 91 48 92
REMARK H PARENT 72 45 40 56
REMARK Flexibility Score: inf
ROOT
ATOM      1  C   UNL A   1      34.779  21.115  25.993  1.00  0.00     0.275 C 
ENDROOT
BRANCH   1   2
ATOM      2  O   UNL A   1      33.786  21.378  24.979  1.00  0.00    -0.458 OA
BRANCH   2   3
ATOM      3  C   UNL A   1      32.520  21.071  25.336  1.00  0.00     0.341 C 
ATOM      4  O   UNL A   1      32.026  19.959  25.409  1.00  0.00    -0.246 OA
BRANCH   3   5
ATOM      5  C   UNL A   1      31.763  22.272  25.654  1.00  0.00     0.096 A 
ATOM      6  C   UNL A   1      30.923  24.801  26.115  1.00  0.00     0.143 A 
ATOM      7  N   UNL A   1      31.377  24.087  27.172  1.00  0.00    -0.239 NA
ATOM      8  N   UNL A   1      30.726  24.287  24.887  1.00  0.00    -0.239 NA
ATOM      9  C   UNL A   1      31.794  22.825  26.910  1.00  0.00     0.130 A 
ATOM     10  C   UNL A   1      31.192  23.041  24.672  1.00  0.00     0.130 A 
BRANCH   6  11
ATOM     11  C   UNL A   1      30.654  26.284  26.316  1.00  0.00     0.179 C 
BRANCH  11  12
ATOM     12  N   UNL A   1      31.811  27.190  26.621  1.00  0.00    -0.193 NA
ATOM     13  C   UNL A   1      31.488  28.213  27.650  1.00  0.00     0.125 C 
BRANCH  12  14
ATOM     14  S   UNL A   1      32.654  27.853  25.292  1.00  0.00     0.243 S 
ATOM     15  O   UNL A   1      31.708  28.361  24.332  1.00  0.00    -0.207 OA
ATOM     16  O   UNL A   1      33.715  28.690  25.821  1.00  0.00    -0.207 OA
BRANCH  14  17
ATOM     17  C   UNL A   1      33.458  26.440  24.573  1.00  0.00     0.082 A 
ATOM     18  C   UNL A   1      33.287  26.161  23.214  1.00  0.00     0.023 A 
ATOM     19  C   UNL A   1      34.300  25.655  25.368  1.00  0.00     0.023 A 
ATOM     20  C   UNL A   1      33.956  25.073  22.648  1.00  0.00     0.022 A 
ATOM     21  C   UNL A   1      34.962  24.567  24.798  1.00  0.00     0.022 A 
ATOM     22  C   UNL A   1      34.786  24.280  23.442  1.00  0.00     0.041 A 
ATOM     23  Cl  UNL A   1      35.605  22.938  22.741  1.00  0.00    -0.084 Cl
ENDBRANCH  14  17
ENDBRANCH  12  14
ENDBRANCH  11  12
ENDBRANCH   6  11
ENDBRANCH   3   5
ENDBRANCH   2   3
ENDBRANCH   1   2
BRANCH   1  24
ATOM     24  C   UNL A   1      36.076  20.595  25.372  1.00  0.00     0.275 C 
BRANCH  24  25
ATOM     25  O   UNL A   1      37.036  21.654  25.187  1.00  0.00    -0.458 OA
BRANCH  25  26
ATOM     26  C   UNL A   1      38.274  21.384  25.656  1.00  0.00     0.338 C 
ATOM     27  O   UNL A   1      38.887  20.334  25.548  1.00  0.00    -0.246 OA
BRANCH  26  28
ATOM     28  C   UNL A   1      38.876  22.571  26.284  1.00  0.00     0.060 A 
ATOM     29  C   UNL A   1      38.166  23.770  26.270  1.00  0.00     0.016 A 
ATOM     30  C   UNL A   1      40.218  22.554  26.664  1.00  0.00     0.016 A 
ATOM     31  C   UNL A   1      38.832  24.969  26.514  1.00  0.00     0.010 A 
ATOM     32  C   UNL A   1      40.847  23.750  27.033  1.00  0.00     0.010 A 
ATOM     33  C   UNL A   1      40.176  24.983  26.923  1.00  0.00    -0.014 A 
BRANCH  33  34
ATOM     34  C   UNL A   1      40.870  26.277  27.214  1.00  0.00     0.031 A 
ATOM     35  C   UNL A   1      42.237  26.569  26.640  1.00  0.00     0.074 A 
ATOM     36  C   UNL A   1      40.273  27.206  27.990  1.00  0.00     0.049 A 
ATOM     37  N   UNL A   1      43.070  27.539  26.926  1.00  0.00    -0.248 NA
ATOM     38  C   UNL A   1      42.744  25.632  25.626  1.00  0.00     0.031 C 
ATOM     39  C   UNL A   1      38.940  27.086  28.582  1.00  0.00     0.029 A 
ATOM     40  N   UNL A   1      40.703  28.445  28.406  1.00  0.00    -0.354 N 
ATOM     41  C   UNL A   1      44.218  27.300  26.175  1.00  0.00     0.074 A 
ATOM     42  C   UNL A   1      43.977  26.080  25.431  1.00  0.00     0.031 C 
ATOM     43  C   UNL A   1      38.638  28.219  29.231  1.00  0.00     0.029 A 
ATOM     44  C   UNL A   1      39.795  29.104  29.204  1.00  0.00     0.049 A 
ATOM     45  H   UNL A   1      41.577  28.824  28.157  1.00  0.00     0.167 HD
ATOM     46  C   UNL A   1      45.364  28.027  26.115  1.00  0.00     0.034 A 
ATOM     47  C   UNL A   1      39.890  30.262  29.888  1.00  0.00     0.034 A 
ATOM     48  C   UNL A   1      45.567  29.273  26.820  1.00  0.00     0.049 A 
ATOM     49  C   UNL A   1      41.181  31.033  29.834  1.00  0.00     0.074 A 
ATOM     50  C   UNL A   1      46.678  30.099  26.810  1.00  0.00     0.029 A 
ATOM     51  N   UNL A   1      44.635  29.880  27.653  1.00  0.00    -0.354 N 
ATOM     52  N   UNL A   1      42.285  30.751  29.181  1.00  0.00    -0.248 NA
ATOM     53  C   UNL A   1      41.245  32.267  30.625  1.00  0.00     0.031 C 
ATOM     54  C   UNL A   1      46.443  31.170  27.680  1.00  0.00     0.029 A 
ATOM     55  C   UNL A   1      45.156  31.054  28.180  1.00  0.00     0.049 A 
ATOM     56  H   UNL A   1      43.735  29.528  27.842  1.00  0.00     0.167 HD
ATOM     57  C   UNL A   1      43.169  31.782  29.474  1.00  0.00     0.074 A 
ATOM     58  C   UNL A   1      42.464  32.702  30.344  1.00  0.00     0.031 C 
ATOM     59  C   UNL A   1      44.451  31.953  29.063  1.00  0.00     0.034 A 
BRANCH  46  60
ATOM     60  C   UNL A   1      46.512  27.463  25.306  1.00  0.00     0.023 A 
ATOM     61  C   UNL A   1      46.851  27.955  24.034  1.00  0.00     0.031 A 
ATOM     62  C   UNL A   1      47.271  26.394  25.819  1.00  0.00     0.131 A 
ATOM     63  C   UNL A   1      47.870  27.335  23.291  1.00  0.00     0.055 A 
ATOM     64  C   UNL A   1      48.336  25.834  25.109  1.00  0.00     0.041 A 
ATOM     65  F   UNL A   1      46.985  25.866  27.020  1.00  0.00    -0.206 F 
ATOM     66  C   UNL A   1      48.632  26.295  23.831  1.00  0.00     0.022 A 
BRANCH  63  67
ATOM     67  S   UNL A   1      48.097  27.814  21.556  1.00  0.00     0.124 S 
ATOM     68  O   UNL A   1      48.518  26.551  20.954  1.00  0.00    -0.237 OA
ATOM     69  O   UNL A   1      46.771  28.289  21.183  1.00  0.00    -0.237 OA
ATOM     70  O   UNL A   1      49.135  28.842  21.615  1.00  0.00    -0.744 OA
ENDBRANCH  63  67
ENDBRANCH  46  60
BRANCH  47  71
ATOM     71  C   UNL A   1      38.759  30.722  30.745  1.00  0.00     0.023 A 
ATOM     72  C   UNL A   1      37.664  31.411  30.199  1.00  0.00     0.031 A 
ATOM     73  C   UNL A   1      38.772  30.500  32.135  1.00  0.00     0.131 A 
ATOM     74  C   UNL A   1      36.645  31.880  31.043  1.00  0.00     0.055 A 
ATOM     75  C   UNL A   1      37.726  30.914  32.960  1.00  0.00     0.041 A 
ATOM     76  F   UNL A   1      39.797  29.850  32.710  1.00  0.00    -0.206 F 
ATOM     77  C   UNL A   1      36.659  31.620  32.415  1.00  0.00     0.022 A 
BRANCH  74  78
ATOM     78  S   UNL A   1      35.333  32.913  30.332  1.00  0.00     0.124 S 
ATOM     79  O   UNL A   1      34.198  32.580  31.186  1.00  0.00    -0.237 OA
ATOM     80  O   UNL A   1      35.883  34.255  30.489  1.00  0.00    -0.237 OA
ATOM     81  O   UNL A   1      35.237  32.439  28.953  1.00  0.00    -0.744 OA
ENDBRANCH  74  78
ENDBRANCH  47  71
BRANCH  59  82
ATOM     82  C   UNL A   1      45.150  33.207  29.527  1.00  0.00     0.023 A 
ATOM     83  C   UNL A   1      45.090  34.401  28.787  1.00  0.00     0.031 A 
ATOM     84  C   UNL A   1      45.915  33.194  30.707  1.00  0.00     0.131 A 
ATOM     85  C   UNL A   1      45.829  35.518  29.204  1.00  0.00     0.055 A 
ATOM     86  C   UNL A   1      46.603  34.326  31.147  1.00  0.00     0.041 A 
ATOM     87  F   UNL A   1      46.008  32.080  31.449  1.00  0.00    -0.206 F 
ATOM     88  C   UNL A   1      46.573  35.492  30.387  1.00  0.00     0.022 A 
BRANCH  85  89
ATOM     89  S   UNL A   1      45.879  36.982  28.133  1.00  0.00     0.124 S 
ATOM     90  O   UNL A   1      47.283  37.372  28.219  1.00  0.00    -0.237 OA
ATOM     91  O   UNL A   1      45.444  36.445  26.849  1.00  0.00    -0.237 OA
ATOM     92  O   UNL A   1      44.940  37.905  28.768  1.00  0.00    -0.744 OA
ENDBRANCH  85  89
ENDBRANCH  59  82
ENDBRANCH  33  34
ENDBRANCH  26  28
ENDBRANCH  25  26
ENDBRANCH  24  25
ENDBRANCH   1  24
TORSDOF 18
ENDMDL
