MODEL 1
REMARK VINA RESULT:     -12.7      0.000      0.000
REMARK SMILES Nn1c(S[C@@H](C(=O)OCCOC(=O)c2ccc(-c3c4nc(c(-c5cc(S(=O)(=O)[O-])ccc5F)c5ccc([nH]5)c(-c5cc(S(=O)(=O)[O-])ccc5F)c5nc(c(-c6cc(S(=O)(=O)[O-])ccc6F)c6ccc3[nH]6)C=C5)C=C4)cc2)c2ccccc2)nc2ccc(Br)cc2c1=O
REMARK SMILES IDX 9 1 8 2 6 3 7 4 5 5 4 6 3 7 2 8 91 9 83 10 90 11 92 12 84 13
REMARK SMILES IDX 89 14 85 15 87 16 86 17 88 18 1 19 77 22 78 23 82 24 79 25
REMARK SMILES IDX 81 26 80 27 10 28 11 29 12 30 13 31 14 32 15 33 76 34 16 35
REMARK SMILES IDX 75 36 17 37 18 38 19 39 69 40 20 41 74 42 68 43 70 44 21 45
REMARK SMILES IDX 73 46 67 47 66 48 22 50 54 51 34 52 53 53 35 54 38 55 52 56
REMARK SMILES IDX 71 57 36 58 37 59 51 61 72 62 39 63 23 64 24 65 32 66 25 67
REMARK SMILES IDX 31 68 33 69 30 70 26 71 27 72 28 73 29 74 55 75 56 76 64 77
REMARK SMILES IDX 57 78 63 79 65 80 62 81 58 82 59 83 60 84 61 85 40 86 41 87
REMARK SMILES IDX 49 88 42 89 48 90 50 91 47 92 43 93 44 94 45 95 46 96
REMARK H PARENT 1 20 1 21 70 49 38 60
REMARK Flexibility Score: inf
ROOT
ATOM      1  C   UNL A   1      33.202  29.333  25.398  1.00  0.00     0.274 C 
ENDROOT
BRANCH   1   2
ATOM      2  O   UNL A   1      32.345  28.301  24.854  1.00  0.00    -0.461 OA
BRANCH   2   3
ATOM      3  C   UNL A   1      31.756  28.596  23.654  1.00  0.00     0.324 C 
ATOM      4  O   UNL A   1      32.421  28.988  22.695  1.00  0.00    -0.251 OA
BRANCH   3   5
ATOM      5  C   UNL A   1      30.206  28.581  23.668  1.00  0.00     0.194 C 
BRANCH   5   6
ATOM      6  S   UNL A   1      29.456  26.958  23.345  1.00  0.00    -0.066 SA
BRANCH   6   7
ATOM      7  C   UNL A   1      30.630  25.654  23.306  1.00  0.00     0.191 A 
ATOM      8  N   UNL A   1      31.568  25.457  22.301  1.00  0.00    -0.202 N 
ATOM      9  C   UNL A   1      32.483  24.399  22.315  1.00  0.00     0.280 A 
ATOM     10  N   UNL A   1      30.542  24.845  24.320  1.00  0.00    -0.222 NA
ATOM     11  C   UNL A   1      32.382  23.476  23.444  1.00  0.00     0.069 A 
ATOM     12  O   UNL A   1      33.348  24.244  21.453  1.00  0.00    -0.267 OA
ATOM     13  C   UNL A   1      31.408  23.744  24.402  1.00  0.00     0.079 A 
ATOM     14  C   UNL A   1      33.245  22.378  23.543  1.00  0.00     0.031 A 
ATOM     15  C   UNL A   1      31.296  22.872  25.485  1.00  0.00     0.030 A 
ATOM     16  C   UNL A   1      33.119  21.525  24.632  1.00  0.00     0.018 A 
ATOM     17  C   UNL A   1      32.146  21.764  25.604  1.00  0.00     0.018 A 
ATOM     18  Br  UNL A   1      34.274  20.041  24.803  1.00  0.00    -0.051 Br
BRANCH   8  19
ATOM     19  N   UNL A   1      31.720  26.326  21.220  1.00  0.00    -0.334 N 
ATOM     20  H   UNL A   1      31.299  26.116  20.355  1.00  0.00     0.178 HD
ATOM     21  H   UNL A   1      32.249  27.151  21.321  1.00  0.00     0.178 HD
ENDBRANCH   8  19
ENDBRANCH   6   7
ENDBRANCH   5   6
BRANCH   5  22
ATOM     22  C   UNL A   1      29.502  29.845  23.122  1.00  0.00    -0.023 A 
ATOM     23  C   UNL A   1      28.930  29.836  21.831  1.00  0.00     0.005 A 
ATOM     24  C   UNL A   1      29.404  31.049  23.843  1.00  0.00     0.005 A 
ATOM     25  C   UNL A   1      28.199  30.921  21.337  1.00  0.00     0.000 A 
ATOM     26  C   UNL A   1      28.672  32.137  23.351  1.00  0.00     0.000 A 
ATOM     27  C   UNL A   1      28.053  32.066  22.107  1.00  0.00     0.000 A 
ENDBRANCH   5  22
ENDBRANCH   3   5
ENDBRANCH   2   3
ENDBRANCH   1   2
BRANCH   1  28
ATOM     28  C   UNL A   1      32.402  30.450  26.066  1.00  0.00     0.275 C 
BRANCH  28  29
ATOM     29  O   UNL A   1      32.866  30.639  27.411  1.00  0.00    -0.458 OA
BRANCH  29  30
ATOM     30  C   UNL A   1      33.669  31.704  27.618  1.00  0.00     0.338 C 
ATOM     31  O   UNL A   1      33.329  32.886  27.546  1.00  0.00    -0.246 OA
BRANCH  30  32
ATOM     32  C   UNL A   1      35.019  31.271  28.056  1.00  0.00     0.060 A 
ATOM     33  C   UNL A   1      36.038  32.220  28.168  1.00  0.00     0.016 A 
ATOM     34  C   UNL A   1      35.237  29.978  28.548  1.00  0.00     0.016 A 
ATOM     35  C   UNL A   1      37.270  31.863  28.725  1.00  0.00     0.010 A 
ATOM     36  C   UNL A   1      36.413  29.672  29.232  1.00  0.00     0.010 A 
ATOM     37  C   UNL A   1      37.474  30.584  29.275  1.00  0.00    -0.014 A 
BRANCH  37  38
ATOM     38  C   UNL A   1      38.807  30.189  29.817  1.00  0.00     0.031 A 
ATOM     39  C   UNL A   1      39.242  30.668  31.184  1.00  0.00     0.074 A 
ATOM     40  C   UNL A   1      39.629  29.384  29.111  1.00  0.00     0.049 A 
ATOM     41  N   UNL A   1      40.285  30.307  31.891  1.00  0.00    -0.248 NA
ATOM     42  C   UNL A   1      38.427  31.711  31.830  1.00  0.00     0.031 C 
ATOM     43  C   UNL A   1      39.398  28.932  27.738  1.00  0.00     0.029 A 
ATOM     44  N   UNL A   1      40.818  28.784  29.460  1.00  0.00    -0.354 N 
ATOM     45  C   UNL A   1      40.236  31.070  33.053  1.00  0.00     0.074 A 
ATOM     46  C   UNL A   1      39.138  31.993  32.909  1.00  0.00     0.031 C 
ATOM     47  C   UNL A   1      40.375  28.079  27.386  1.00  0.00     0.029 A 
ATOM     48  C   UNL A   1      41.307  27.924  28.502  1.00  0.00     0.049 A 
ATOM     49  H   UNL A   1      41.275  28.954  30.316  1.00  0.00     0.167 HD
ATOM     50  C   UNL A   1      40.989  30.973  34.173  1.00  0.00     0.034 A 
ATOM     51  C   UNL A   1      42.354  27.073  28.534  1.00  0.00     0.034 A 
ATOM     52  C   UNL A   1      42.056  30.026  34.337  1.00  0.00     0.049 A 
ATOM     53  C   UNL A   1      43.154  26.932  29.810  1.00  0.00     0.074 A 
ATOM     54  C   UNL A   1      42.838  29.803  35.455  1.00  0.00     0.029 A 
ATOM     55  N   UNL A   1      42.479  29.137  33.363  1.00  0.00    -0.354 N 
ATOM     56  N   UNL A   1      42.996  27.552  30.956  1.00  0.00    -0.248 NA
ATOM     57  C   UNL A   1      44.254  25.955  29.811  1.00  0.00     0.031 C 
ATOM     58  C   UNL A   1      43.759  28.801  35.145  1.00  0.00     0.029 A 
ATOM     59  C   UNL A   1      43.517  28.365  33.852  1.00  0.00     0.049 A 
ATOM     60  H   UNL A   1      42.098  29.065  32.458  1.00  0.00     0.167 HD
ATOM     61  C   UNL A   1      43.945  27.010  31.822  1.00  0.00     0.074 A 
ATOM     62  C   UNL A   1      44.664  26.004  31.072  1.00  0.00     0.031 C 
ATOM     63  C   UNL A   1      44.196  27.324  33.117  1.00  0.00     0.034 A 
BRANCH  50  64
ATOM     64  C   UNL A   1      40.641  31.864  35.339  1.00  0.00     0.023 A 
ATOM     65  C   UNL A   1      39.507  31.602  36.128  1.00  0.00     0.031 A 
ATOM     66  C   UNL A   1      41.397  33.018  35.618  1.00  0.00     0.131 A 
ATOM     67  C   UNL A   1      39.159  32.490  37.153  1.00  0.00     0.055 A 
ATOM     68  C   UNL A   1      41.069  33.876  36.667  1.00  0.00     0.041 A 
ATOM     69  F   UNL A   1      42.489  33.311  34.892  1.00  0.00    -0.206 F 
ATOM     70  C   UNL A   1      39.939  33.617  37.435  1.00  0.00     0.022 A 
BRANCH  67  71
ATOM     71  S   UNL A   1      37.658  32.244  38.140  1.00  0.00     0.124 S 
ATOM     72  O   UNL A   1      36.722  33.161  37.494  1.00  0.00    -0.237 OA
ATOM     73  O   UNL A   1      37.384  30.824  37.931  1.00  0.00    -0.237 OA
ATOM     74  O   UNL A   1      38.060  32.617  39.492  1.00  0.00    -0.744 OA
ENDBRANCH  67  71
ENDBRANCH  50  64
BRANCH  51  75
ATOM     75  C   UNL A   1      42.617  26.188  27.359  1.00  0.00     0.023 A 
ATOM     76  C   UNL A   1      42.145  24.864  27.317  1.00  0.00     0.031 A 
ATOM     77  C   UNL A   1      43.410  26.641  26.290  1.00  0.00     0.131 A 
ATOM     78  C   UNL A   1      42.500  24.032  26.245  1.00  0.00     0.055 A 
ATOM     79  C   UNL A   1      43.716  25.826  25.199  1.00  0.00     0.041 A 
ATOM     80  F   UNL A   1      43.896  27.892  26.293  1.00  0.00    -0.206 F 
ATOM     81  C   UNL A   1      43.269  24.510  25.179  1.00  0.00     0.022 A 
BRANCH  78  82
ATOM     82  S   UNL A   1      42.055  22.272  26.239  1.00  0.00     0.124 S 
ATOM     83  O   UNL A   1      42.803  21.774  25.089  1.00  0.00    -0.237 OA
ATOM     84  O   UNL A   1      42.541  21.837  27.546  1.00  0.00    -0.237 OA
ATOM     85  O   UNL A   1      40.604  22.285  26.090  1.00  0.00    -0.744 OA
ENDBRANCH  78  82
ENDBRANCH  51  75
BRANCH  63  86
ATOM     86  C   UNL A   1      45.269  26.572  33.865  1.00  0.00     0.023 A 
ATOM     87  C   UNL A   1      44.935  25.396  34.566  1.00  0.00     0.031 A 
ATOM     88  C   UNL A   1      46.551  27.114  34.046  1.00  0.00     0.131 A 
ATOM     89  C   UNL A   1      45.856  24.829  35.456  1.00  0.00     0.055 A 
ATOM     90  C   UNL A   1      47.482  26.521  34.899  1.00  0.00     0.041 A 
ATOM     91  F   UNL A   1      46.909  28.243  33.413  1.00  0.00    -0.206 F 
ATOM     92  C   UNL A   1      47.131  25.383  35.622  1.00  0.00     0.022 A 
BRANCH  89  93
ATOM     93  S   UNL A   1      45.402  23.421  36.505  1.00  0.00     0.124 S 
ATOM     94  O   UNL A   1      45.024  24.082  37.751  1.00  0.00    -0.237 OA
ATOM     95  O   UNL A   1      44.300  22.823  35.757  1.00  0.00    -0.237 OA
ATOM     96  O   UNL A   1      46.620  22.621  36.571  1.00  0.00    -0.744 OA
ENDBRANCH  89  93
ENDBRANCH  63  86
ENDBRANCH  37  38
ENDBRANCH  30  32
ENDBRANCH  29  30
ENDBRANCH  28  29
ENDBRANCH   1  28
TORSDOF 18
ENDMDL
MODEL 2
REMARK VINA RESULT:     -12.5      1.997      2.591
REMARK SMILES Nn1c(S[C@@H](C(=O)OCCOC(=O)c2ccc(-c3c4nc(c(-c5cc(S(=O)(=O)[O-])ccc5F)c5ccc([nH]5)c(-c5cc(S(=O)(=O)[O-])ccc5F)c5nc(c(-c6cc(S(=O)(=O)[O-])ccc6F)c6ccc3[nH]6)C=C5)C=C4)cc2)c2ccccc2)nc2ccc(Br)cc2c1=O
REMARK SMILES IDX 9 1 8 2 6 3 7 4 5 5 4 6 3 7 2 8 91 9 83 10 90 11 92 12 84 13
REMARK SMILES IDX 89 14 85 15 87 16 86 17 88 18 1 19 77 22 78 23 82 24 79 25
REMARK SMILES IDX 81 26 80 27 10 28 11 29 12 30 13 31 14 32 15 33 76 34 16 35
REMARK SMILES IDX 75 36 17 37 18 38 19 39 69 40 20 41 74 42 68 43 70 44 21 45
REMARK SMILES IDX 73 46 67 47 66 48 22 50 54 51 34 52 53 53 35 54 38 55 52 56
REMARK SMILES IDX 71 57 36 58 37 59 51 61 72 62 39 63 23 64 24 65 32 66 25 67
REMARK SMILES IDX 31 68 33 69 30 70 26 71 27 72 28 73 29 74 55 75 56 76 64 77
REMARK SMILES IDX 57 78 63 79 65 80 62 81 58 82 59 83 60 84 61 85 40 86 41 87
REMARK SMILES IDX 49 88 42 89 48 90 50 91 47 92 43 93 44 94 45 95 46 96
REMARK H PARENT 1 20 1 21 70 49 38 60
REMARK Flexibility Score: inf
ROOT
ATOM      1  C   UNL A   1      32.009  27.929  26.819  1.00  0.00     0.274 C 
ENDROOT
BRANCH   1   2
ATOM      2  O   UNL A   1      30.833  27.094  26.700  1.00  0.00    -0.461 OA
BRANCH   2   3
ATOM      3  C   UNL A   1      31.053  25.831  26.220  1.00  0.00     0.324 C 
ATOM      4  O   UNL A   1      31.457  24.931  26.954  1.00  0.00    -0.251 OA
BRANCH   3   5
ATOM      5  C   UNL A   1      30.938  25.692  24.680  1.00  0.00     0.194 C 
BRANCH   5   6
ATOM      6  S   UNL A   1      32.463  25.161  23.847  1.00  0.00    -0.066 SA
BRANCH   6   7
ATOM      7  C   UNL A   1      32.905  23.503  24.213  1.00  0.00     0.191 A 
ATOM      8  N   UNL A   1      33.754  23.113  25.240  1.00  0.00    -0.202 N 
ATOM      9  C   UNL A   1      34.076  21.775  25.490  1.00  0.00     0.280 A 
ATOM     10  N   UNL A   1      32.370  22.633  23.407  1.00  0.00    -0.222 NA
ATOM     11  C   UNL A   1      33.491  20.791  24.582  1.00  0.00     0.069 A 
ATOM     12  O   UNL A   1      34.790  21.417  26.427  1.00  0.00    -0.267 OA
ATOM     13  C   UNL A   1      32.658  21.270  23.574  1.00  0.00     0.079 A 
ATOM     14  C   UNL A   1      33.763  19.427  24.740  1.00  0.00     0.031 A 
ATOM     15  C   UNL A   1      32.092  20.345  22.695  1.00  0.00     0.030 A 
ATOM     16  C   UNL A   1      33.186  18.523  23.857  1.00  0.00     0.018 A 
ATOM     17  C   UNL A   1      32.353  18.975  22.832  1.00  0.00     0.018 A 
ATOM     18  Br  UNL A   1      33.522  16.674  24.050  1.00  0.00    -0.051 Br
BRANCH   8  19
ATOM     19  N   UNL A   1      34.313  24.012  26.149  1.00  0.00    -0.334 N 
ATOM     20  H   UNL A   1      34.518  24.934  25.868  1.00  0.00     0.178 HD
ATOM     21  H   UNL A   1      34.504  23.726  27.072  1.00  0.00     0.178 HD
ENDBRANCH   8  19
ENDBRANCH   6   7
ENDBRANCH   5   6
BRANCH   5  22
ATOM     22  C   UNL A   1      30.018  26.708  23.966  1.00  0.00    -0.023 A 
ATOM     23  C   UNL A   1      28.614  26.579  24.057  1.00  0.00     0.005 A 
ATOM     24  C   UNL A   1      30.500  27.781  23.193  1.00  0.00     0.005 A 
ATOM     25  C   UNL A   1      27.747  27.531  23.511  1.00  0.00     0.000 A 
ATOM     26  C   UNL A   1      29.633  28.734  22.647  1.00  0.00     0.000 A 
ATOM     27  C   UNL A   1      28.258  28.621  22.822  1.00  0.00     0.000 A 
ENDBRANCH   5  22
ENDBRANCH   3   5
ENDBRANCH   2   3
ENDBRANCH   1   2
BRANCH   1  28
ATOM     28  C   UNL A   1      31.785  29.323  26.235  1.00  0.00     0.275 C 
BRANCH  28  29
ATOM     29  O   UNL A   1      33.046  29.993  26.087  1.00  0.00    -0.458 OA
BRANCH  29  30
ATOM     30  C   UNL A   1      33.266  31.034  26.916  1.00  0.00     0.338 C 
ATOM     31  O   UNL A   1      32.497  31.977  27.107  1.00  0.00    -0.246 OA
BRANCH  30  32
ATOM     32  C   UNL A   1      34.531  30.851  27.670  1.00  0.00     0.060 A 
ATOM     33  C   UNL A   1      34.949  29.560  28.000  1.00  0.00     0.016 A 
ATOM     34  C   UNL A   1      35.407  31.924  27.880  1.00  0.00     0.016 A 
ATOM     35  C   UNL A   1      36.209  29.356  28.572  1.00  0.00     0.010 A 
ATOM     36  C   UNL A   1      36.713  31.694  28.313  1.00  0.00     0.010 A 
ATOM     37  C   UNL A   1      37.115  30.420  28.730  1.00  0.00    -0.014 A 
BRANCH  37  38
ATOM     38  C   UNL A   1      38.436  30.208  29.391  1.00  0.00     0.031 A 
ATOM     39  C   UNL A   1      38.681  30.743  30.784  1.00  0.00     0.074 A 
ATOM     40  C   UNL A   1      39.418  29.521  28.769  1.00  0.00     0.049 A 
ATOM     41  N   UNL A   1      39.696  30.527  31.583  1.00  0.00    -0.248 NA
ATOM     42  C   UNL A   1      37.680  31.667  31.344  1.00  0.00     0.031 C 
ATOM     43  C   UNL A   1      39.371  29.042  27.387  1.00  0.00     0.029 A 
ATOM     44  N   UNL A   1      40.641  29.087  29.227  1.00  0.00    -0.354 N 
ATOM     45  C   UNL A   1      39.444  31.277  32.727  1.00  0.00     0.074 A 
ATOM     46  C   UNL A   1      38.249  32.043  32.477  1.00  0.00     0.031 C 
ATOM     47  C   UNL A   1      40.481  28.327  27.132  1.00  0.00     0.029 A 
ATOM     48  C   UNL A   1      41.324  28.301  28.327  1.00  0.00     0.049 A 
ATOM     49  H   UNL A   1      40.994  29.318  30.117  1.00  0.00     0.167 HD
ATOM     50  C   UNL A   1      40.102  31.283  33.910  1.00  0.00     0.034 A 
ATOM     51  C   UNL A   1      42.469  27.599  28.460  1.00  0.00     0.034 A 
ATOM     52  C   UNL A   1      41.268  30.489  34.178  1.00  0.00     0.049 A 
ATOM     53  C   UNL A   1      43.165  27.568  29.802  1.00  0.00     0.074 A 
ATOM     54  C   UNL A   1      41.971  30.374  35.362  1.00  0.00     0.029 A 
ATOM     55  N   UNL A   1      41.891  29.664  33.256  1.00  0.00    -0.354 N 
ATOM     56  N   UNL A   1      42.825  28.162  30.922  1.00  0.00    -0.248 NA
ATOM     57  C   UNL A   1      44.382  26.749  29.911  1.00  0.00     0.031 C 
ATOM     58  C   UNL A   1      43.042  29.505  35.146  1.00  0.00     0.029 A 
ATOM     59  C   UNL A   1      42.976  29.040  33.842  1.00  0.00     0.049 A 
ATOM     60  H   UNL A   1      41.604  29.541  32.321  1.00  0.00     0.167 HD
ATOM     61  C   UNL A   1      43.758  27.754  31.874  1.00  0.00     0.074 A 
ATOM     62  C   UNL A   1      44.670  26.853  31.203  1.00  0.00     0.031 C 
ATOM     63  C   UNL A   1      43.850  28.099  33.183  1.00  0.00     0.034 A 
BRANCH  50  64
ATOM     64  C   UNL A   1      39.536  32.119  35.030  1.00  0.00     0.023 A 
ATOM     65  C   UNL A   1      40.042  33.404  35.291  1.00  0.00     0.031 A 
ATOM     66  C   UNL A   1      38.543  31.605  35.886  1.00  0.00     0.131 A 
ATOM     67  C   UNL A   1      39.557  34.129  36.387  1.00  0.00     0.055 A 
ATOM     68  C   UNL A   1      38.035  32.347  36.951  1.00  0.00     0.041 A 
ATOM     69  F   UNL A   1      38.029  30.382  35.677  1.00  0.00    -0.206 F 
ATOM     70  C   UNL A   1      38.548  33.613  37.210  1.00  0.00     0.022 A 
BRANCH  67  71
ATOM     71  S   UNL A   1      40.239  35.752  36.818  1.00  0.00     0.124 S 
ATOM     72  O   UNL A   1      41.674  35.522  36.671  1.00  0.00    -0.237 OA
ATOM     73  O   UNL A   1      39.639  36.614  35.803  1.00  0.00    -0.237 OA
ATOM     74  O   UNL A   1      39.783  35.974  38.186  1.00  0.00    -0.744 OA
ENDBRANCH  67  71
ENDBRANCH  50  64
BRANCH  51  75
ATOM     75  C   UNL A   1      42.950  26.757  27.324  1.00  0.00     0.023 A 
ATOM     76  C   UNL A   1      42.510  25.432  27.153  1.00  0.00     0.031 A 
ATOM     77  C   UNL A   1      43.918  27.252  26.431  1.00  0.00     0.131 A 
ATOM     78  C   UNL A   1      43.063  24.640  26.136  1.00  0.00     0.055 A 
ATOM     79  C   UNL A   1      44.426  26.477  25.388  1.00  0.00     0.041 A 
ATOM     80  F   UNL A   1      44.379  28.504  26.563  1.00  0.00    -0.206 F 
ATOM     81  C   UNL A   1      44.006  25.159  25.243  1.00  0.00     0.022 A 
BRANCH  78  82
ATOM     82  S   UNL A   1      42.648  22.879  25.992  1.00  0.00     0.124 S 
ATOM     83  O   UNL A   1      42.996  22.598  24.603  1.00  0.00    -0.237 OA
ATOM     84  O   UNL A   1      43.525  22.281  26.996  1.00  0.00    -0.237 OA
ATOM     85  O   UNL A   1      41.224  22.834  26.307  1.00  0.00    -0.744 OA
ENDBRANCH  78  82
ENDBRANCH  51  75
BRANCH  63  86
ATOM     86  C   UNL A   1      44.944  27.499  34.030  1.00  0.00     0.023 A 
ATOM     87  C   UNL A   1      44.704  26.303  34.734  1.00  0.00     0.031 A 
ATOM     88  C   UNL A   1      46.131  28.201  34.295  1.00  0.00     0.131 A 
ATOM     89  C   UNL A   1      45.614  25.870  35.707  1.00  0.00     0.055 A 
ATOM     90  C   UNL A   1      47.058  27.742  35.233  1.00  0.00     0.041 A 
ATOM     91  F   UNL A   1      46.397  29.355  33.663  1.00  0.00    -0.206 F 
ATOM     92  C   UNL A   1      46.793  26.581  35.956  1.00  0.00     0.022 A 
BRANCH  89  93
ATOM     93  S   UNL A   1      45.255  24.433  36.754  1.00  0.00     0.124 S 
ATOM     94  O   UNL A   1      44.753  25.065  37.971  1.00  0.00    -0.237 OA
ATOM     95  O   UNL A   1      44.255  23.719  35.963  1.00  0.00    -0.237 OA
ATOM     96  O   UNL A   1      46.543  23.761  36.887  1.00  0.00    -0.744 OA
ENDBRANCH  89  93
ENDBRANCH  63  86
ENDBRANCH  37  38
ENDBRANCH  30  32
ENDBRANCH  29  30
ENDBRANCH  28  29
ENDBRANCH   1  28
TORSDOF 18
ENDMDL
MODEL 3
REMARK VINA RESULT:     -12.5      4.965     10.229
REMARK SMILES Nn1c(S[C@@H](C(=O)OCCOC(=O)c2ccc(-c3c4nc(c(-c5cc(S(=O)(=O)[O-])ccc5F)c5ccc([nH]5)c(-c5cc(S(=O)(=O)[O-])ccc5F)c5nc(c(-c6cc(S(=O)(=O)[O-])ccc6F)c6ccc3[nH]6)C=C5)C=C4)cc2)c2ccccc2)nc2ccc(Br)cc2c1=O
REMARK SMILES IDX 9 1 8 2 6 3 7 4 5 5 4 6 3 7 2 8 91 9 83 10 90 11 92 12 84 13
REMARK SMILES IDX 89 14 85 15 87 16 86 17 88 18 1 19 77 22 78 23 82 24 79 25
REMARK SMILES IDX 81 26 80 27 10 28 11 29 12 30 13 31 14 32 15 33 76 34 16 35
REMARK SMILES IDX 75 36 17 37 18 38 19 39 69 40 20 41 74 42 68 43 70 44 21 45
REMARK SMILES IDX 73 46 67 47 66 48 22 50 54 51 34 52 53 53 35 54 38 55 52 56
REMARK SMILES IDX 71 57 36 58 37 59 51 61 72 62 39 63 23 64 24 65 32 66 25 67
REMARK SMILES IDX 31 68 33 69 30 70 26 71 27 72 28 73 29 74 55 75 56 76 64 77
REMARK SMILES IDX 57 78 63 79 65 80 62 81 58 82 59 83 60 84 61 85 40 86 41 87
REMARK SMILES IDX 49 88 42 89 48 90 50 91 47 92 43 93 44 94 45 95 46 96
REMARK H PARENT 1 20 1 21 70 49 38 60
REMARK Flexibility Score: inf
ROOT
ATOM      1  C   UNL A   1      36.519  22.861  23.376  1.00  0.00     0.274 C 
ENDROOT
BRANCH   1   2
ATOM      2  O   UNL A   1      35.152  23.209  23.055  1.00  0.00    -0.461 OA
BRANCH   2   3
ATOM      3  C   UNL A   1      34.489  23.934  24.008  1.00  0.00     0.324 C 
ATOM      4  O   UNL A   1      35.058  24.815  24.650  1.00  0.00    -0.251 OA
BRANCH   3   5
ATOM      5  C   UNL A   1      33.059  23.429  24.331  1.00  0.00     0.194 C 
BRANCH   5   6
ATOM      6  S   UNL A   1      32.194  24.365  25.626  1.00  0.00    -0.066 SA
BRANCH   6   7
ATOM      7  C   UNL A   1      31.743  25.983  25.119  1.00  0.00     0.191 A 
ATOM      8  N   UNL A   1      32.511  27.123  25.316  1.00  0.00    -0.202 N 
ATOM      9  C   UNL A   1      32.105  28.394  24.893  1.00  0.00     0.280 A 
ATOM     10  N   UNL A   1      30.581  26.040  24.537  1.00  0.00    -0.222 NA
ATOM     11  C   UNL A   1      30.795  28.470  24.250  1.00  0.00     0.069 A 
ATOM     12  O   UNL A   1      32.801  29.401  25.021  1.00  0.00    -0.267 OA
ATOM     13  C   UNL A   1      30.088  27.279  24.101  1.00  0.00     0.079 A 
ATOM     14  C   UNL A   1      30.294  29.697  23.803  1.00  0.00     0.031 A 
ATOM     15  C   UNL A   1      28.834  27.334  23.492  1.00  0.00     0.030 A 
ATOM     16  C   UNL A   1      29.045  29.728  23.195  1.00  0.00     0.018 A 
ATOM     17  C   UNL A   1      28.310  28.552  23.040  1.00  0.00     0.018 A 
ATOM     18  Br  UNL A   1      28.343  31.366  22.569  1.00  0.00    -0.051 Br
BRANCH   8  19
ATOM     19  N   UNL A   1      33.779  27.096  25.899  1.00  0.00    -0.334 N 
ATOM     20  H   UNL A   1      33.871  27.093  26.879  1.00  0.00     0.178 HD
ATOM     21  H   UNL A   1      34.583  27.080  25.330  1.00  0.00     0.178 HD
ENDBRANCH   8  19
ENDBRANCH   6   7
ENDBRANCH   5   6
BRANCH   5  22
ATOM     22  C   UNL A   1      32.835  21.901  24.246  1.00  0.00    -0.023 A 
ATOM     23  C   UNL A   1      32.287  21.330  23.076  1.00  0.00     0.005 A 
ATOM     24  C   UNL A   1      33.137  21.014  25.295  1.00  0.00     0.005 A 
ATOM     25  C   UNL A   1      32.161  19.946  22.918  1.00  0.00     0.000 A 
ATOM     26  C   UNL A   1      33.011  19.629  25.139  1.00  0.00     0.000 A 
ATOM     27  C   UNL A   1      32.543  19.093  23.943  1.00  0.00     0.000 A 
ENDBRANCH   5  22
ENDBRANCH   3   5
ENDBRANCH   2   3
ENDBRANCH   1   2
BRANCH   1  28
ATOM     28  C   UNL A   1      36.607  21.580  24.203  1.00  0.00     0.275 C 
BRANCH  28  29
ATOM     29  O   UNL A   1      37.035  21.894  25.537  1.00  0.00    -0.458 OA
BRANCH  29  30
ATOM     30  C   UNL A   1      38.336  21.668  25.812  1.00  0.00     0.338 C 
ATOM     31  O   UNL A   1      38.978  20.668  25.485  1.00  0.00    -0.246 OA
BRANCH  30  32
ATOM     32  C   UNL A   1      38.948  22.844  26.480  1.00  0.00     0.060 A 
ATOM     33  C   UNL A   1      40.087  22.665  27.269  1.00  0.00     0.016 A 
ATOM     34  C   UNL A   1      38.527  24.144  26.177  1.00  0.00     0.016 A 
ATOM     35  C   UNL A   1      40.767  23.776  27.779  1.00  0.00     0.010 A 
ATOM     36  C   UNL A   1      39.293  25.243  26.569  1.00  0.00     0.010 A 
ATOM     37  C   UNL A   1      40.385  25.084  27.430  1.00  0.00    -0.014 A 
BRANCH  37  38
ATOM     38  C   UNL A   1      41.076  26.266  28.021  1.00  0.00     0.031 A 
ATOM     39  C   UNL A   1      42.527  26.539  27.693  1.00  0.00     0.074 A 
ATOM     40  C   UNL A   1      40.416  27.119  28.833  1.00  0.00     0.049 A 
ATOM     41  N   UNL A   1      43.253  27.592  27.977  1.00  0.00    -0.248 NA
ATOM     42  C   UNL A   1      43.275  25.484  26.987  1.00  0.00     0.031 C 
ATOM     43  C   UNL A   1      39.051  26.930  29.329  1.00  0.00     0.029 A 
ATOM     44  N   UNL A   1      40.797  28.328  29.369  1.00  0.00    -0.354 N 
ATOM     45  C   UNL A   1      44.523  27.322  27.478  1.00  0.00     0.074 A 
ATOM     46  C   UNL A   1      44.505  25.969  26.982  1.00  0.00     0.031 C 
ATOM     47  C   UNL A   1      38.688  28.011  30.039  1.00  0.00     0.029 A 
ATOM     48  C   UNL A   1      39.792  28.970  30.059  1.00  0.00     0.049 A 
ATOM     49  H   UNL A   1      41.704  28.698  29.269  1.00  0.00     0.167 HD
ATOM     50  C   UNL A   1      45.595  28.142  27.374  1.00  0.00     0.034 A 
ATOM     51  C   UNL A   1      39.746  30.205  30.601  1.00  0.00     0.034 A 
ATOM     52  C   UNL A   1      45.603  29.504  27.828  1.00  0.00     0.049 A 
ATOM     53  C   UNL A   1      40.929  31.133  30.430  1.00  0.00     0.074 A 
ATOM     54  C   UNL A   1      46.615  30.438  27.712  1.00  0.00     0.029 A 
ATOM     55  N   UNL A   1      44.546  30.130  28.468  1.00  0.00    -0.354 N 
ATOM     56  N   UNL A   1      42.068  30.913  29.817  1.00  0.00    -0.248 NA
ATOM     57  C   UNL A   1      40.811  32.485  30.995  1.00  0.00     0.031 C 
ATOM     58  C   UNL A   1      46.182  31.621  28.314  1.00  0.00     0.029 A 
ATOM     59  C   UNL A   1      44.883  31.439  28.759  1.00  0.00     0.049 A 
ATOM     60  H   UNL A   1      43.683  29.707  28.683  1.00  0.00     0.167 HD
ATOM     61  C   UNL A   1      42.781  32.109  29.886  1.00  0.00     0.074 A 
ATOM     62  C   UNL A   1      41.940  33.053  30.589  1.00  0.00     0.031 C 
ATOM     63  C   UNL A   1      44.019  32.394  29.412  1.00  0.00     0.034 A 
BRANCH  50  64
ATOM     64  C   UNL A   1      46.825  27.614  26.680  1.00  0.00     0.023 A 
ATOM     65  C   UNL A   1      47.014  27.817  25.302  1.00  0.00     0.031 A 
ATOM     66  C   UNL A   1      47.774  26.842  27.378  1.00  0.00     0.131 A 
ATOM     67  C   UNL A   1      48.123  27.246  24.665  1.00  0.00     0.055 A 
ATOM     68  C   UNL A   1      48.898  26.312  26.747  1.00  0.00     0.041 A 
ATOM     69  F   UNL A   1      47.637  26.620  28.696  1.00  0.00    -0.206 F 
ATOM     70  C   UNL A   1      49.071  26.507  25.381  1.00  0.00     0.022 A 
BRANCH  67  71
ATOM     71  S   UNL A   1      48.363  27.405  22.876  1.00  0.00     0.124 S 
ATOM     72  O   UNL A   1      49.662  28.072  22.806  1.00  0.00    -0.237 OA
ATOM     73  O   UNL A   1      48.355  26.011  22.441  1.00  0.00    -0.237 OA
ATOM     74  O   UNL A   1      47.228  28.210  22.438  1.00  0.00    -0.744 OA
ENDBRANCH  67  71
ENDBRANCH  50  64
BRANCH  51  75
ATOM     75  C   UNL A   1      38.480  30.681  31.236  1.00  0.00     0.023 A 
ATOM     76  C   UNL A   1      37.488  31.343  30.491  1.00  0.00     0.031 A 
ATOM     77  C   UNL A   1      38.282  30.539  32.621  1.00  0.00     0.131 A 
ATOM     78  C   UNL A   1      36.361  31.866  31.142  1.00  0.00     0.055 A 
ATOM     79  C   UNL A   1      37.134  31.014  33.256  1.00  0.00     0.041 A 
ATOM     80  F   UNL A   1      39.208  29.928  33.376  1.00  0.00    -0.206 F 
ATOM     81  C   UNL A   1      36.171  31.692  32.517  1.00  0.00     0.022 A 
BRANCH  78  82
ATOM     82  S   UNL A   1      35.146  32.872  30.245  1.00  0.00     0.124 S 
ATOM     83  O   UNL A   1      35.982  33.928  29.682  1.00  0.00    -0.237 OA
ATOM     84  O   UNL A   1      34.612  31.910  29.284  1.00  0.00    -0.237 OA
ATOM     85  O   UNL A   1      34.213  33.293  31.284  1.00  0.00    -0.744 OA
ENDBRANCH  78  82
ENDBRANCH  51  75
BRANCH  63  86
ATOM     86  C   UNL A   1      44.575  33.785  29.586  1.00  0.00     0.023 A 
ATOM     87  C   UNL A   1      44.507  34.701  28.516  1.00  0.00     0.031 A 
ATOM     88  C   UNL A   1      45.334  34.134  30.714  1.00  0.00     0.131 A 
ATOM     89  C   UNL A   1      45.229  35.899  28.577  1.00  0.00     0.055 A 
ATOM     90  C   UNL A   1      46.014  35.350  30.790  1.00  0.00     0.041 A 
ATOM     91  F   UNL A   1      45.442  33.288  31.751  1.00  0.00    -0.206 F 
ATOM     92  C   UNL A   1      45.978  36.231  29.711  1.00  0.00     0.022 A 
BRANCH  89  93
ATOM     93  S   UNL A   1      45.308  37.020  27.153  1.00  0.00     0.124 S 
ATOM     94  O   UNL A   1      46.016  36.206  26.168  1.00  0.00    -0.237 OA
ATOM     95  O   UNL A   1      43.894  37.254  26.868  1.00  0.00    -0.237 OA
ATOM     96  O   UNL A   1      46.046  38.175  27.652  1.00  0.00    -0.744 OA
ENDBRANCH  89  93
ENDBRANCH  63  86
ENDBRANCH  37  38
ENDBRANCH  30  32
ENDBRANCH  29  30
ENDBRANCH  28  29
ENDBRANCH   1  28
TORSDOF 18
ENDMDL
