MODEL 1
REMARK VINA RESULT:     -11.5      0.000      0.000
REMARK SMILES CC[NH2+][C@]1(C(=O)OCCOC(=O)c2ccc(-c3c4nc(c(-c5cc(S(=O)(=O)[O-])ccc5F)c5ccc([nH]5)c(-c5cc(S(=O)(=O)[O-])ccc5F)c5nc(c(-c6cc(S(=O)(=O)[O-])ccc6F)c6ccc3[nH]6)C=C5)C=C4)cc2)CCC[C@@H]([N@@H+](C)CC2CCCC2)C1
REMARK SMILES IDX 8 1 7 2 5 3 6 4 4 5 76 6 88 7 77 8 79 9 78 10 3 11 2 14 1 15
REMARK SMILES IDX 80 16 81 17 82 19 83 20 84 21 87 22 85 23 86 24 9 25 10 26
REMARK SMILES IDX 11 27 12 28 13 29 14 30 75 31 15 32 74 33 16 34 17 35 18 36
REMARK SMILES IDX 68 37 19 38 73 39 67 40 69 41 20 42 72 43 66 44 65 45 21 47
REMARK SMILES IDX 53 48 33 49 52 50 34 51 37 52 51 53 70 54 35 55 36 56 50 58
REMARK SMILES IDX 71 59 38 60 22 61 23 62 31 63 24 64 30 65 32 66 29 67 25 68
REMARK SMILES IDX 26 69 27 70 28 71 54 72 55 73 63 74 56 75 62 76 64 77 61 78
REMARK SMILES IDX 57 79 58 80 59 81 60 82 39 83 40 84 48 85 41 86 47 87 49 88
REMARK SMILES IDX 46 89 42 90 43 91 44 92 45 93
REMARK H PARENT 3 12 3 13 80 18 69 46 37 57
REMARK Flexibility Score: inf
ROOT
ATOM      1  C   UNL A   1      35.053  20.635  25.001  1.00  0.00     0.274 C 
ENDROOT
BRANCH   1   2
ATOM      2  O   UNL A   1      34.864  22.031  24.693  1.00  0.00    -0.457 OA
BRANCH   2   3
ATOM      3  C   UNL A   1      33.654  22.372  24.158  1.00  0.00     0.368 C 
ATOM      4  O   UNL A   1      33.074  21.702  23.309  1.00  0.00    -0.245 OA
BRANCH   3   5
ATOM      5  C   UNL A   1      33.129  23.737  24.707  1.00  0.00     0.200 C 
ATOM      6  C   UNL A   1      34.375  24.583  25.089  1.00  0.00     0.081 C 
ATOM      7  C   UNL A   1      32.393  24.543  23.610  1.00  0.00     0.146 C 
ATOM      8  C   UNL A   1      34.033  25.957  25.654  1.00  0.00     0.013 C 
ATOM      9  C   UNL A   1      31.960  25.953  24.073  1.00  0.00     0.190 C 
ATOM     10  C   UNL A   1      33.048  26.757  24.807  1.00  0.00     0.065 C 
BRANCH   5  11
ATOM     11  N   UNL A   1      32.359  23.489  25.962  1.00  0.00    -0.332 N 
ATOM     12  H   UNL A   1      33.004  23.101  26.650  1.00  0.00     0.347 HD
ATOM     13  H   UNL A   1      31.963  24.393  26.218  1.00  0.00     0.347 HD
BRANCH  11  14
ATOM     14  C   UNL A   1      31.220  22.583  25.859  1.00  0.00     0.257 C 
ATOM     15  C   UNL A   1      30.170  23.019  26.873  1.00  0.00     0.071 C 
ENDBRANCH  11  14
ENDBRANCH   5  11
BRANCH   9  16
ATOM     16  N   UNL A   1      31.270  26.716  23.021  1.00  0.00    -0.334 N 
ATOM     17  C   UNL A   1      31.614  26.323  21.661  1.00  0.00     0.332 C 
ATOM     18  H   UNL A   1      31.720  27.609  23.224  1.00  0.00     0.348 HD
BRANCH  16  19
ATOM     19  C   UNL A   1      29.890  27.190  23.186  1.00  0.00     0.265 C 
BRANCH  19  20
ATOM     20  C   UNL A   1      29.441  28.668  23.106  1.00  0.00     0.044 C 
ATOM     21  C   UNL A   1      30.153  29.607  22.134  1.00  0.00     0.009 C 
ATOM     22  C   UNL A   1      27.944  28.923  22.887  1.00  0.00     0.009 C 
ATOM     23  C   UNL A   1      29.202  30.796  22.036  1.00  0.00     0.001 C 
ATOM     24  C   UNL A   1      27.834  30.138  21.969  1.00  0.00     0.001 C 
ENDBRANCH  19  20
ENDBRANCH  16  19
ENDBRANCH   9  16
ENDBRANCH   3   5
ENDBRANCH   2   3
ENDBRANCH   1   2
BRANCH   1  25
ATOM     25  C   UNL A   1      36.535  20.286  25.003  1.00  0.00     0.275 C 
BRANCH  25  26
ATOM     26  O   UNL A   1      37.277  21.408  25.502  1.00  0.00    -0.458 OA
BRANCH  26  27
ATOM     27  C   UNL A   1      38.579  21.167  25.778  1.00  0.00     0.338 C 
ATOM     28  O   UNL A   1      39.219  20.162  25.532  1.00  0.00    -0.246 OA
BRANCH  27  29
ATOM     29  C   UNL A   1      39.151  22.351  26.437  1.00  0.00     0.060 A 
ATOM     30  C   UNL A   1      38.639  23.614  26.147  1.00  0.00     0.016 A 
ATOM     31  C   UNL A   1      40.274  22.213  27.250  1.00  0.00     0.016 A 
ATOM     32  C   UNL A   1      39.307  24.748  26.601  1.00  0.00     0.010 A 
ATOM     33  C   UNL A   1      40.894  23.356  27.768  1.00  0.00     0.010 A 
ATOM     34  C   UNL A   1      40.452  24.642  27.407  1.00  0.00    -0.014 A 
BRANCH  34  35
ATOM     35  C   UNL A   1      41.236  25.857  27.789  1.00  0.00     0.031 A 
ATOM     36  C   UNL A   1      40.592  26.942  28.622  1.00  0.00     0.074 A 
ATOM     37  C   UNL A   1      42.528  25.990  27.429  1.00  0.00     0.049 A 
ATOM     38  N   UNL A   1      41.014  28.154  28.881  1.00  0.00    -0.248 NA
ATOM     39  C   UNL A   1      39.291  26.623  29.232  1.00  0.00     0.031 C 
ATOM     40  C   UNL A   1      43.310  25.001  26.685  1.00  0.00     0.029 A 
ATOM     41  N   UNL A   1      43.418  27.014  27.648  1.00  0.00    -0.354 N 
ATOM     42  C   UNL A   1      40.004  28.764  29.622  1.00  0.00     0.074 A 
ATOM     43  C   UNL A   1      38.950  27.783  29.772  1.00  0.00     0.031 C 
ATOM     44  C   UNL A   1      44.567  25.444  26.548  1.00  0.00     0.029 A 
ATOM     45  C   UNL A   1      44.658  26.794  27.094  1.00  0.00     0.049 A 
ATOM     46  H   UNL A   1      43.190  27.828  28.153  1.00  0.00     0.167 HD
ATOM     47  C   UNL A   1      39.960  30.024  30.123  1.00  0.00     0.034 A 
ATOM     48  C   UNL A   1      45.732  27.600  26.979  1.00  0.00     0.034 A 
ATOM     49  C   UNL A   1      41.042  30.974  30.015  1.00  0.00     0.049 A 
ATOM     50  C   UNL A   1      45.649  29.008  27.507  1.00  0.00     0.074 A 
ATOM     51  C   UNL A   1      41.101  32.274  30.489  1.00  0.00     0.029 A 
ATOM     52  N   UNL A   1      42.263  30.722  29.403  1.00  0.00    -0.354 N 
ATOM     53  N   UNL A   1      44.648  29.606  28.112  1.00  0.00    -0.248 NA
ATOM     54  C   UNL A   1      46.834  29.854  27.319  1.00  0.00     0.031 C 
ATOM     55  C   UNL A   1      42.335  32.823  30.119  1.00  0.00     0.029 A 
ATOM     56  C   UNL A   1      43.074  31.846  29.472  1.00  0.00     0.049 A 
ATOM     57  H   UNL A   1      42.517  29.870  28.980  1.00  0.00     0.167 HD
ATOM     58  C   UNL A   1      45.088  30.899  28.378  1.00  0.00     0.074 A 
ATOM     59  C   UNL A   1      46.451  30.984  27.895  1.00  0.00     0.031 C 
ATOM     60  C   UNL A   1      44.423  31.925  28.965  1.00  0.00     0.034 A 
BRANCH  47  61
ATOM     61  C   UNL A   1      38.669  30.472  30.769  1.00  0.00     0.023 A 
ATOM     62  C   UNL A   1      37.728  31.272  30.099  1.00  0.00     0.031 A 
ATOM     63  C   UNL A   1      38.391  30.106  32.100  1.00  0.00     0.131 A 
ATOM     64  C   UNL A   1      36.591  31.735  30.781  1.00  0.00     0.055 A 
ATOM     65  C   UNL A   1      37.220  30.506  32.747  1.00  0.00     0.041 A 
ATOM     66  F   UNL A   1      39.261  29.360  32.799  1.00  0.00    -0.206 F 
ATOM     67  C   UNL A   1      36.319  31.339  32.092  1.00  0.00     0.022 A 
BRANCH  64  68
ATOM     68  S   UNL A   1      35.542  32.978  29.976  1.00  0.00     0.124 S 
ATOM     69  O   UNL A   1      34.563  32.138  29.289  1.00  0.00    -0.237 OA
ATOM     70  O   UNL A   1      35.041  33.748  31.108  1.00  0.00    -0.237 OA
ATOM     71  O   UNL A   1      36.466  33.690  29.096  1.00  0.00    -0.744 OA
ENDBRANCH  64  68
ENDBRANCH  47  61
BRANCH  48  72
ATOM     72  C   UNL A   1      46.949  27.130  26.256  1.00  0.00     0.023 A 
ATOM     73  C   UNL A   1      47.976  26.452  26.928  1.00  0.00     0.031 A 
ATOM     74  C   UNL A   1      47.111  27.382  24.882  1.00  0.00     0.131 A 
ATOM     75  C   UNL A   1      49.135  26.075  26.230  1.00  0.00     0.055 A 
ATOM     76  C   UNL A   1      48.239  26.955  24.181  1.00  0.00     0.041 A 
ATOM     77  F   UNL A   1      46.159  28.031  24.192  1.00  0.00    -0.206 F 
ATOM     78  C   UNL A   1      49.265  26.306  24.859  1.00  0.00     0.022 A 
BRANCH  75  79
ATOM     79  S   UNL A   1      50.508  25.336  27.158  1.00  0.00     0.124 S 
ATOM     80  O   UNL A   1      50.958  26.461  27.969  1.00  0.00    -0.237 OA
ATOM     81  O   UNL A   1      49.842  24.253  27.876  1.00  0.00    -0.237 OA
ATOM     82  O   UNL A   1      51.435  24.908  26.112  1.00  0.00    -0.744 OA
ENDBRANCH  75  79
ENDBRANCH  48  72
BRANCH  60  83
ATOM     83  C   UNL A   1      45.185  33.215  29.138  1.00  0.00     0.023 A 
ATOM     84  C   UNL A   1      45.117  34.245  28.182  1.00  0.00     0.031 A 
ATOM     85  C   UNL A   1      46.014  33.402  30.257  1.00  0.00     0.131 A 
ATOM     86  C   UNL A   1      45.911  35.390  28.335  1.00  0.00     0.055 A 
ATOM     87  C   UNL A   1      46.762  34.568  30.429  1.00  0.00     0.041 A 
ATOM     88  F   UNL A   1      46.117  32.450  31.198  1.00  0.00    -0.206 F 
ATOM     89  C   UNL A   1      46.723  35.564  29.458  1.00  0.00     0.022 A 
BRANCH  86  90
ATOM     90  S   UNL A   1      45.941  36.614  26.995  1.00  0.00     0.124 S 
ATOM     91  O   UNL A   1      46.308  35.798  25.844  1.00  0.00    -0.237 OA
ATOM     92  O   UNL A   1      44.573  37.123  27.007  1.00  0.00    -0.237 OA
ATOM     93  O   UNL A   1      46.959  37.571  27.427  1.00  0.00    -0.744 OA
ENDBRANCH  86  90
ENDBRANCH  60  83
ENDBRANCH  34  35
ENDBRANCH  27  29
ENDBRANCH  26  27
ENDBRANCH  25  26
ENDBRANCH   1  25
TORSDOF 19
ENDMDL
MODEL 2
REMARK VINA RESULT:     -11.4      1.755      2.390
REMARK SMILES CC[NH2+][C@]1(C(=O)OCCOC(=O)c2ccc(-c3c4nc(c(-c5cc(S(=O)(=O)[O-])ccc5F)c5ccc([nH]5)c(-c5cc(S(=O)(=O)[O-])ccc5F)c5nc(c(-c6cc(S(=O)(=O)[O-])ccc6F)c6ccc3[nH]6)C=C5)C=C4)cc2)CCC[C@@H]([N@@H+](C)CC2CCCC2)C1
REMARK SMILES IDX 8 1 7 2 5 3 6 4 4 5 76 6 88 7 77 8 79 9 78 10 3 11 2 14 1 15
REMARK SMILES IDX 80 16 81 17 82 19 83 20 84 21 87 22 85 23 86 24 9 25 10 26
REMARK SMILES IDX 11 27 12 28 13 29 14 30 75 31 15 32 74 33 16 34 17 35 18 36
REMARK SMILES IDX 68 37 19 38 73 39 67 40 69 41 20 42 72 43 66 44 65 45 21 47
REMARK SMILES IDX 53 48 33 49 52 50 34 51 37 52 51 53 70 54 35 55 36 56 50 58
REMARK SMILES IDX 71 59 38 60 22 61 23 62 31 63 24 64 30 65 32 66 29 67 25 68
REMARK SMILES IDX 26 69 27 70 28 71 54 72 55 73 63 74 56 75 62 76 64 77 61 78
REMARK SMILES IDX 57 79 58 80 59 81 60 82 39 83 40 84 48 85 41 86 47 87 49 88
REMARK SMILES IDX 46 89 42 90 43 91 44 92 45 93
REMARK H PARENT 3 12 3 13 80 18 69 46 37 57
REMARK Flexibility Score: inf
ROOT
ATOM      1  C   UNL A   1      35.389  21.607  24.530  1.00  0.00     0.274 C 
ENDROOT
BRANCH   1   2
ATOM      2  O   UNL A   1      35.007  22.762  25.303  1.00  0.00    -0.457 OA
BRANCH   2   3
ATOM      3  C   UNL A   1      33.844  22.655  26.013  1.00  0.00     0.368 C 
ATOM      4  O   UNL A   1      33.725  21.965  27.020  1.00  0.00    -0.245 OA
BRANCH   3   5
ATOM      5  C   UNL A   1      32.678  23.463  25.361  1.00  0.00     0.200 C 
ATOM      6  C   UNL A   1      31.799  24.009  26.520  1.00  0.00     0.081 C 
ATOM      7  C   UNL A   1      33.204  24.709  24.609  1.00  0.00     0.146 C 
ATOM      8  C   UNL A   1      30.600  24.826  26.049  1.00  0.00     0.013 C 
ATOM      9  C   UNL A   1      32.078  25.607  24.049  1.00  0.00     0.190 C 
ATOM     10  C   UNL A   1      30.941  25.917  25.039  1.00  0.00     0.065 C 
BRANCH   5  11
ATOM     11  N   UNL A   1      31.829  22.530  24.563  1.00  0.00    -0.332 N 
ATOM     12  H   UNL A   1      31.890  21.608  24.996  1.00  0.00     0.347 HD
ATOM     13  H   UNL A   1      30.895  22.939  24.572  1.00  0.00     0.347 HD
BRANCH  11  14
ATOM     14  C   UNL A   1      32.172  22.383  23.153  1.00  0.00     0.257 C 
ATOM     15  C   UNL A   1      32.148  20.900  22.807  1.00  0.00     0.071 C 
ENDBRANCH  11  14
ENDBRANCH   5  11
BRANCH   9  16
ATOM     16  N   UNL A   1      32.586  26.795  23.344  1.00  0.00    -0.334 N 
ATOM     17  C   UNL A   1      31.599  27.483  22.524  1.00  0.00     0.332 C 
ATOM     18  H   UNL A   1      33.224  26.290  22.729  1.00  0.00     0.348 HD
BRANCH  16  19
ATOM     19  C   UNL A   1      33.601  27.674  23.940  1.00  0.00     0.265 C 
BRANCH  19  20
ATOM     20  C   UNL A   1      33.398  28.534  25.210  1.00  0.00     0.044 C 
ATOM     21  C   UNL A   1      32.119  29.357  25.351  1.00  0.00     0.009 C 
ATOM     22  C   UNL A   1      33.569  27.824  26.558  1.00  0.00     0.009 C 
ATOM     23  C   UNL A   1      32.090  29.709  26.834  1.00  0.00     0.001 C 
ATOM     24  C   UNL A   1      32.524  28.415  27.503  1.00  0.00     0.001 C 
ENDBRANCH  19  20
ENDBRANCH  16  19
ENDBRANCH   9  16
ENDBRANCH   3   5
ENDBRANCH   2   3
ENDBRANCH   1   2
BRANCH   1  25
ATOM     25  C   UNL A   1      36.523  20.857  25.216  1.00  0.00     0.275 C 
BRANCH  25  26
ATOM     26  O   UNL A   1      37.758  21.538  24.954  1.00  0.00    -0.458 OA
BRANCH  26  27
ATOM     27  C   UNL A   1      38.798  21.177  25.740  1.00  0.00     0.338 C 
ATOM     28  O   UNL A   1      39.265  20.063  25.893  1.00  0.00    -0.246 OA
BRANCH  27  29
ATOM     29  C   UNL A   1      39.324  22.376  26.409  1.00  0.00     0.060 A 
ATOM     30  C   UNL A   1      38.815  23.629  26.077  1.00  0.00     0.016 A 
ATOM     31  C   UNL A   1      40.407  22.262  27.279  1.00  0.00     0.016 A 
ATOM     32  C   UNL A   1      39.447  24.776  26.547  1.00  0.00     0.010 A 
ATOM     33  C   UNL A   1      40.989  23.418  27.810  1.00  0.00     0.010 A 
ATOM     34  C   UNL A   1      40.552  24.694  27.409  1.00  0.00    -0.014 A 
BRANCH  34  35
ATOM     35  C   UNL A   1      41.304  25.922  27.812  1.00  0.00     0.031 A 
ATOM     36  C   UNL A   1      40.630  26.979  28.658  1.00  0.00     0.074 A 
ATOM     37  C   UNL A   1      42.593  26.093  27.459  1.00  0.00     0.049 A 
ATOM     38  N   UNL A   1      41.020  28.197  28.936  1.00  0.00    -0.248 NA
ATOM     39  C   UNL A   1      39.335  26.618  29.259  1.00  0.00     0.031 C 
ATOM     40  C   UNL A   1      43.403  25.135  26.704  1.00  0.00     0.029 A 
ATOM     41  N   UNL A   1      43.457  27.136  27.696  1.00  0.00    -0.354 N 
ATOM     42  C   UNL A   1      39.993  28.770  29.683  1.00  0.00     0.074 A 
ATOM     43  C   UNL A   1      38.963  27.762  29.814  1.00  0.00     0.031 C 
ATOM     44  C   UNL A   1      44.649  25.612  26.579  1.00  0.00     0.029 A 
ATOM     45  C   UNL A   1      44.704  26.955  27.144  1.00  0.00     0.049 A 
ATOM     46  H   UNL A   1      43.207  27.936  28.212  1.00  0.00     0.167 HD
ATOM     47  C   UNL A   1      39.915  30.022  30.201  1.00  0.00     0.034 A 
ATOM     48  C   UNL A   1      45.757  27.790  27.046  1.00  0.00     0.034 A 
ATOM     49  C   UNL A   1      40.973  31.000  30.111  1.00  0.00     0.049 A 
ATOM     50  C   UNL A   1      45.637  29.187  27.594  1.00  0.00     0.074 A 
ATOM     51  C   UNL A   1      40.998  32.294  30.604  1.00  0.00     0.029 A 
ATOM     52  N   UNL A   1      42.203  30.788  29.501  1.00  0.00    -0.354 N 
ATOM     53  N   UNL A   1      44.620  29.751  28.203  1.00  0.00    -0.248 NA
ATOM     54  C   UNL A   1      46.801  30.066  27.423  1.00  0.00     0.031 C 
ATOM     55  C   UNL A   1      42.219  32.879  30.248  1.00  0.00     0.029 A 
ATOM     56  C   UNL A   1      42.985  31.931  29.590  1.00  0.00     0.049 A 
ATOM     57  H   UNL A   1      42.479  29.949  29.067  1.00  0.00     0.167 HD
ATOM     58  C   UNL A   1      45.025  31.050  28.490  1.00  0.00     0.074 A 
ATOM     59  C   UNL A   1      46.388  31.176  28.013  1.00  0.00     0.031 C 
ATOM     60  C   UNL A   1      44.333  32.051  29.089  1.00  0.00     0.034 A 
BRANCH  47  61
ATOM     61  C   UNL A   1      38.611  30.427  30.849  1.00  0.00     0.023 A 
ATOM     62  C   UNL A   1      37.570  31.037  30.129  1.00  0.00     0.031 A 
ATOM     63  C   UNL A   1      38.422  30.219  32.229  1.00  0.00     0.131 A 
ATOM     64  C   UNL A   1      36.418  31.478  30.802  1.00  0.00     0.055 A 
ATOM     65  C   UNL A   1      37.242  30.589  32.877  1.00  0.00     0.041 A 
ATOM     66  F   UNL A   1      39.388  29.659  32.973  1.00  0.00    -0.206 F 
ATOM     67  C   UNL A   1      36.237  31.236  32.166  1.00  0.00     0.022 A 
BRANCH  64  68
ATOM     68  S   UNL A   1      35.219  32.495  29.897  1.00  0.00     0.124 S 
ATOM     69  O   UNL A   1      34.752  31.562  28.874  1.00  0.00    -0.237 OA
ATOM     70  O   UNL A   1      34.253  32.841  30.933  1.00  0.00    -0.237 OA
ATOM     71  O   UNL A   1      36.022  33.608  29.395  1.00  0.00    -0.744 OA
ENDBRANCH  64  68
ENDBRANCH  47  61
BRANCH  48  72
ATOM     72  C   UNL A   1      46.989  27.361  26.321  1.00  0.00     0.023 A 
ATOM     73  C   UNL A   1      47.194  27.698  24.975  1.00  0.00     0.031 A 
ATOM     74  C   UNL A   1      47.967  26.582  26.964  1.00  0.00     0.131 A 
ATOM     75  C   UNL A   1      48.336  27.230  24.306  1.00  0.00     0.055 A 
ATOM     76  C   UNL A   1      49.127  26.166  26.311  1.00  0.00     0.041 A 
ATOM     77  F   UNL A   1      47.817  26.229  28.252  1.00  0.00    -0.206 F 
ATOM     78  C   UNL A   1      49.311  26.482  24.969  1.00  0.00     0.022 A 
BRANCH  75  79
ATOM     79  S   UNL A   1      48.498  27.554  22.528  1.00  0.00     0.124 S 
ATOM     80  O   UNL A   1      48.567  26.202  21.985  1.00  0.00    -0.237 OA
ATOM     81  O   UNL A   1      47.275  28.299  22.243  1.00  0.00    -0.237 OA
ATOM     82  O   UNL A   1      49.733  28.329  22.434  1.00  0.00    -0.744 OA
ENDBRANCH  75  79
ENDBRANCH  48  72
BRANCH  60  83
ATOM     83  C   UNL A   1      45.061  33.357  29.284  1.00  0.00     0.023 A 
ATOM     84  C   UNL A   1      45.156  34.309  28.253  1.00  0.00     0.031 A 
ATOM     85  C   UNL A   1      45.696  33.637  30.506  1.00  0.00     0.131 A 
ATOM     86  C   UNL A   1      45.919  35.470  28.444  1.00  0.00     0.055 A 
ATOM     87  C   UNL A   1      46.411  34.819  30.707  1.00  0.00     0.041 A 
ATOM     88  F   UNL A   1      45.639  32.762  31.522  1.00  0.00    -0.206 F 
ATOM     89  C   UNL A   1      46.536  35.737  29.668  1.00  0.00     0.022 A 
BRANCH  86  90
ATOM     90  S   UNL A   1      46.173  36.587  27.037  1.00  0.00     0.124 S 
ATOM     91  O   UNL A   1      45.131  37.586  27.248  1.00  0.00    -0.237 OA
ATOM     92  O   UNL A   1      47.545  37.041  27.243  1.00  0.00    -0.237 OA
ATOM     93  O   UNL A   1      45.977  35.723  25.873  1.00  0.00    -0.744 OA
ENDBRANCH  86  90
ENDBRANCH  60  83
ENDBRANCH  34  35
ENDBRANCH  27  29
ENDBRANCH  26  27
ENDBRANCH  25  26
ENDBRANCH   1  25
TORSDOF 19
ENDMDL
MODEL 3
REMARK VINA RESULT:     -11.2      5.060     10.139
REMARK SMILES CC[NH2+][C@]1(C(=O)OCCOC(=O)c2ccc(-c3c4nc(c(-c5cc(S(=O)(=O)[O-])ccc5F)c5ccc([nH]5)c(-c5cc(S(=O)(=O)[O-])ccc5F)c5nc(c(-c6cc(S(=O)(=O)[O-])ccc6F)c6ccc3[nH]6)C=C5)C=C4)cc2)CCC[C@@H]([N@@H+](C)CC2CCCC2)C1
REMARK SMILES IDX 8 1 7 2 5 3 6 4 4 5 76 6 88 7 77 8 79 9 78 10 3 11 2 14 1 15
REMARK SMILES IDX 80 16 81 17 82 19 83 20 84 21 87 22 85 23 86 24 9 25 10 26
REMARK SMILES IDX 11 27 12 28 13 29 14 30 75 31 15 32 74 33 16 34 17 35 18 36
REMARK SMILES IDX 68 37 19 38 73 39 67 40 69 41 20 42 72 43 66 44 65 45 21 47
REMARK SMILES IDX 53 48 33 49 52 50 34 51 37 52 51 53 70 54 35 55 36 56 50 58
REMARK SMILES IDX 71 59 38 60 22 61 23 62 31 63 24 64 30 65 32 66 29 67 25 68
REMARK SMILES IDX 26 69 27 70 28 71 54 72 55 73 63 74 56 75 62 76 64 77 61 78
REMARK SMILES IDX 57 79 58 80 59 81 60 82 39 83 40 84 48 85 41 86 47 87 49 88
REMARK SMILES IDX 46 89 42 90 43 91 44 92 45 93
REMARK H PARENT 3 12 3 13 80 18 69 46 37 57
REMARK Flexibility Score: inf
ROOT
ATOM      1  C   UNL A   1      31.434  29.825  25.278  1.00  0.00     0.274 C 
ENDROOT
BRANCH   1   2
ATOM      2  O   UNL A   1      32.146  28.575  25.384  1.00  0.00    -0.457 OA
BRANCH   2   3
ATOM      3  C   UNL A   1      32.865  28.195  24.286  1.00  0.00     0.368 C 
ATOM      4  O   UNL A   1      33.570  28.961  23.637  1.00  0.00    -0.245 OA
BRANCH   3   5
ATOM      5  C   UNL A   1      32.639  26.692  23.924  1.00  0.00     0.200 C 
ATOM      6  C   UNL A   1      32.973  26.533  22.415  1.00  0.00     0.081 C 
ATOM      7  C   UNL A   1      33.633  25.774  24.674  1.00  0.00     0.146 C 
ATOM      8  C   UNL A   1      32.797  25.111  21.894  1.00  0.00     0.013 C 
ATOM      9  C   UNL A   1      33.529  24.289  24.257  1.00  0.00     0.190 C 
ATOM     10  C   UNL A   1      33.484  24.043  22.739  1.00  0.00     0.065 C 
BRANCH   5  11
ATOM     11  N   UNL A   1      31.192  26.366  24.094  1.00  0.00    -0.332 N 
ATOM     12  H   UNL A   1      31.083  25.361  23.957  1.00  0.00     0.347 HD
ATOM     13  H   UNL A   1      30.950  26.693  25.029  1.00  0.00     0.347 HD
BRANCH  11  14
ATOM     14  C   UNL A   1      30.263  27.042  23.196  1.00  0.00     0.257 C 
ATOM     15  C   UNL A   1      28.852  26.853  23.739  1.00  0.00     0.071 C 
ENDBRANCH  11  14
ENDBRANCH   5  11
BRANCH   9  16
ATOM     16  N   UNL A   1      34.484  23.424  24.968  1.00  0.00    -0.334 N 
ATOM     17  C   UNL A   1      34.445  23.541  26.419  1.00  0.00     0.332 C 
ATOM     18  H   UNL A   1      35.325  23.890  24.627  1.00  0.00     0.348 HD
BRANCH  16  19
ATOM     19  C   UNL A   1      34.831  22.085  24.475  1.00  0.00     0.265 C 
BRANCH  19  20
ATOM     20  C   UNL A   1      34.076  20.783  24.828  1.00  0.00     0.044 C 
ATOM     21  C   UNL A   1      32.761  20.472  24.115  1.00  0.00     0.009 C 
ATOM     22  C   UNL A   1      34.883  19.480  24.768  1.00  0.00     0.009 C 
ATOM     23  C   UNL A   1      32.551  18.989  24.398  1.00  0.00     0.001 C 
ATOM     24  C   UNL A   1      33.943  18.404  24.226  1.00  0.00     0.001 C 
ENDBRANCH  19  20
ENDBRANCH  16  19
ENDBRANCH   9  16
ENDBRANCH   3   5
ENDBRANCH   2   3
ENDBRANCH   1   2
BRANCH   1  25
ATOM     25  C   UNL A   1      31.753  30.722  26.465  1.00  0.00     0.275 C 
BRANCH  25  26
ATOM     26  O   UNL A   1      33.103  30.475  26.886  1.00  0.00    -0.458 OA
BRANCH  26  27
ATOM     27  C   UNL A   1      33.730  31.523  27.467  1.00  0.00     0.338 C 
ATOM     28  O   UNL A   1      33.289  32.640  27.664  1.00  0.00    -0.246 OA
BRANCH  27  29
ATOM     29  C   UNL A   1      35.084  31.106  27.860  1.00  0.00     0.060 A 
ATOM     30  C   UNL A   1      35.334  29.766  28.150  1.00  0.00     0.016 A 
ATOM     31  C   UNL A   1      36.074  32.067  28.054  1.00  0.00     0.016 A 
ATOM     32  C   UNL A   1      36.550  29.401  28.721  1.00  0.00     0.010 A 
ATOM     33  C   UNL A   1      37.322  31.680  28.556  1.00  0.00     0.010 A 
ATOM     34  C   UNL A   1      37.560  30.350  28.947  1.00  0.00    -0.014 A 
BRANCH  34  35
ATOM     35  C   UNL A   1      38.813  29.977  29.673  1.00  0.00     0.031 A 
ATOM     36  C   UNL A   1      39.794  29.014  29.043  1.00  0.00     0.074 A 
ATOM     37  C   UNL A   1      39.105  30.514  30.874  1.00  0.00     0.049 A 
ATOM     38  N   UNL A   1      40.820  28.401  29.579  1.00  0.00    -0.248 NA
ATOM     39  C   UNL A   1      39.582  28.687  27.624  1.00  0.00     0.031 C 
ATOM     40  C   UNL A   1      38.295  31.508  31.581  1.00  0.00     0.029 A 
ATOM     41  N   UNL A   1      40.171  30.302  31.716  1.00  0.00    -0.354 N 
ATOM     42  C   UNL A   1      41.331  27.566  28.588  1.00  0.00     0.074 A 
ATOM     43  C   UNL A   1      40.500  27.756  27.417  1.00  0.00     0.031 C 
ATOM     44  C   UNL A   1      38.911  31.851  32.720  1.00  0.00     0.029 A 
ATOM     45  C   UNL A   1      40.102  31.024  32.885  1.00  0.00     0.049 A 
ATOM     46  H   UNL A   1      40.913  29.692  31.502  1.00  0.00     0.167 HD
ATOM     47  C   UNL A   1      42.387  26.717  28.653  1.00  0.00     0.034 A 
ATOM     48  C   UNL A   1      40.868  30.989  33.993  1.00  0.00     0.034 A 
ATOM     49  C   UNL A   1      43.241  26.579  29.808  1.00  0.00     0.049 A 
ATOM     50  C   UNL A   1      42.013  30.013  34.060  1.00  0.00     0.074 A 
ATOM     51  C   UNL A   1      44.339  25.752  29.977  1.00  0.00     0.029 A 
ATOM     52  N   UNL A   1      43.105  27.297  30.989  1.00  0.00    -0.354 N 
ATOM     53  N   UNL A   1      42.419  29.153  33.154  1.00  0.00    -0.248 NA
ATOM     54  C   UNL A   1      42.789  29.990  35.306  1.00  0.00     0.031 C 
ATOM     55  C   UNL A   1      44.833  25.932  31.275  1.00  0.00     0.029 A 
ATOM     56  C   UNL A   1      44.086  26.921  31.895  1.00  0.00     0.049 A 
ATOM     57  H   UNL A   1      42.412  27.976  31.159  1.00  0.00     0.167 HD
ATOM     58  C   UNL A   1      43.502  28.490  33.724  1.00  0.00     0.074 A 
ATOM     59  C   UNL A   1      43.701  29.069  35.037  1.00  0.00     0.031 C 
ATOM     60  C   UNL A   1      44.259  27.489  33.210  1.00  0.00     0.034 A 
BRANCH  47  61
ATOM     61  C   UNL A   1      42.632  25.818  27.463  1.00  0.00     0.023 A 
ATOM     62  C   UNL A   1      42.108  24.517  27.381  1.00  0.00     0.031 A 
ATOM     63  C   UNL A   1      43.434  26.272  26.397  1.00  0.00     0.131 A 
ATOM     64  C   UNL A   1      42.446  23.693  26.294  1.00  0.00     0.055 A 
ATOM     65  C   UNL A   1      43.702  25.475  25.283  1.00  0.00     0.041 A 
ATOM     66  F   UNL A   1      43.979  27.498  26.428  1.00  0.00    -0.206 F 
ATOM     67  C   UNL A   1      43.220  24.171  25.234  1.00  0.00     0.022 A 
BRANCH  64  68
ATOM     68  S   UNL A   1      41.976  21.942  26.353  1.00  0.00     0.124 S 
ATOM     69  O   UNL A   1      40.544  22.011  26.068  1.00  0.00    -0.237 OA
ATOM     70  O   UNL A   1      42.807  21.357  25.307  1.00  0.00    -0.237 OA
ATOM     71  O   UNL A   1      42.314  21.540  27.717  1.00  0.00    -0.744 OA
ENDBRANCH  64  68
ENDBRANCH  47  61
BRANCH  48  72
ATOM     72  C   UNL A   1      40.527  31.841  35.169  1.00  0.00     0.023 A 
ATOM     73  C   UNL A   1      39.474  31.502  36.031  1.00  0.00     0.031 A 
ATOM     74  C   UNL A   1      41.237  33.027  35.427  1.00  0.00     0.131 A 
ATOM     75  C   UNL A   1      39.141  32.356  37.094  1.00  0.00     0.055 A 
ATOM     76  C   UNL A   1      40.939  33.843  36.519  1.00  0.00     0.041 A 
ATOM     77  F   UNL A   1      42.252  33.400  34.630  1.00  0.00    -0.206 F 
ATOM     78  C   UNL A   1      39.877  33.514  37.354  1.00  0.00     0.022 A 
BRANCH  75  79
ATOM     79  S   UNL A   1      37.681  31.967  38.099  1.00  0.00     0.124 S 
ATOM     80  O   UNL A   1      37.417  30.584  37.717  1.00  0.00    -0.237 OA
ATOM     81  O   UNL A   1      38.181  32.175  39.454  1.00  0.00    -0.237 OA
ATOM     82  O   UNL A   1      36.689  32.940  37.647  1.00  0.00    -0.744 OA
ENDBRANCH  75  79
ENDBRANCH  48  72
BRANCH  60  83
ATOM     83  C   UNL A   1      45.392  26.987  34.070  1.00  0.00     0.023 A 
ATOM     84  C   UNL A   1      45.221  25.908  34.956  1.00  0.00     0.031 A 
ATOM     85  C   UNL A   1      46.647  27.617  34.025  1.00  0.00     0.131 A 
ATOM     86  C   UNL A   1      46.272  25.530  35.804  1.00  0.00     0.055 A 
ATOM     87  C   UNL A   1      47.706  27.201  34.835  1.00  0.00     0.041 A 
ATOM     88  F   UNL A   1      46.863  28.652  33.198  1.00  0.00    -0.206 F 
ATOM     89  C   UNL A   1      47.516  26.161  35.740  1.00  0.00     0.022 A 
BRANCH  86  90
ATOM     90  S   UNL A   1      45.962  24.260  37.063  1.00  0.00     0.124 S 
ATOM     91  O   UNL A   1      45.024  24.936  37.953  1.00  0.00    -0.237 OA
ATOM     92  O   UNL A   1      45.414  23.163  36.272  1.00  0.00    -0.237 OA
ATOM     93  O   UNL A   1      47.286  24.011  37.632  1.00  0.00    -0.744 OA
ENDBRANCH  86  90
ENDBRANCH  60  83
ENDBRANCH  34  35
ENDBRANCH  27  29
ENDBRANCH  26  27
ENDBRANCH  25  26
ENDBRANCH   1  25
TORSDOF 19
ENDMDL
