MODEL 1
REMARK VINA RESULT:     -11.8      0.000      0.000
REMARK SMILES O=C(C[C@@H](C(=O)N(c1ccccc1)c1ccccc1)[NH+]1CCOCC1)OCCOC(=O)c1ccc(-c2c3nc(c(-c4cc(S(=O)(=O)[O-])ccc4F)c4ccc([nH]4)c(-c4cc(S(=O)(=O)[O-])ccc4F)c4nc(c(-c5cc(S(=O)(=O)[O-])ccc5F)c5ccc2[nH]5)C=C4)C=C3)cc1
REMARK SMILES IDX 27 1 26 2 2 3 1 4 3 5 4 6 5 7 6 8 7 9 8 10 9 11 13 12 10 13
REMARK SMILES IDX 12 14 11 15 14 16 15 17 19 18 16 19 18 20 17 21 20 22 21 23
REMARK SMILES IDX 25 24 22 26 24 27 23 28 28 29 29 30 30 31 31 32 32 33 33 34
REMARK SMILES IDX 94 35 34 36 93 37 35 38 36 39 37 40 87 41 38 42 92 43 86 44
REMARK SMILES IDX 88 45 39 46 91 47 85 48 84 49 40 51 72 52 52 53 71 54 53 55
REMARK SMILES IDX 56 56 70 57 89 58 54 59 55 60 69 62 90 63 57 64 41 65 42 66
REMARK SMILES IDX 50 67 43 68 49 69 51 70 48 71 44 72 45 73 46 74 47 75 73 76
REMARK SMILES IDX 74 77 82 78 75 79 81 80 83 81 80 82 76 83 77 84 78 85 79 86
REMARK SMILES IDX 58 87 59 88 67 89 60 90 66 91 68 92 65 93 61 94 62 95 63 96
REMARK SMILES IDX 64 97
REMARK H PARENT 20 25 88 50 56 61
REMARK Flexibility Score: inf
ROOT
ATOM      1  C   UNL A   1      31.611  28.653  27.572  1.00  0.00     0.274 C 
ENDROOT
BRANCH   1   2
ATOM      2  O   UNL A   1      32.100  27.392  27.062  1.00  0.00    -0.462 OA
BRANCH   2   3
ATOM      3  C   UNL A   1      31.325  26.386  26.599  1.00  0.00     0.312 C 
ATOM      4  O   UNL A   1      30.144  26.591  26.326  1.00  0.00    -0.252 OA
BRANCH   3   5
ATOM      5  C   UNL A   1      31.902  24.999  26.481  1.00  0.00     0.198 C 
BRANCH   5   6
ATOM      6  C   UNL A   1      32.583  24.505  25.195  1.00  0.00     0.286 C 
BRANCH   6   7
ATOM      7  C   UNL A   1      32.401  22.996  24.950  1.00  0.00     0.290 C 
ATOM      8  O   UNL A   1      31.258  22.547  25.151  1.00  0.00    -0.267 OA
ATOM      9  N   UNL A   1      33.434  22.100  24.592  1.00  0.00    -0.276 N 
BRANCH   9  10
ATOM     10  C   UNL A   1      34.886  22.261  24.502  1.00  0.00     0.049 A 
ATOM     11  C   UNL A   1      35.688  22.208  25.670  1.00  0.00     0.027 A 
ATOM     12  C   UNL A   1      35.592  22.546  23.336  1.00  0.00     0.027 A 
ATOM     13  C   UNL A   1      37.009  22.680  25.711  1.00  0.00     0.002 A 
ATOM     14  C   UNL A   1      36.913  23.036  23.364  1.00  0.00     0.002 A 
ATOM     15  C   UNL A   1      37.604  23.154  24.558  1.00  0.00     0.000 A 
ENDBRANCH   9  10
BRANCH   9  16
ATOM     16  C   UNL A   1      32.974  20.725  24.526  1.00  0.00     0.049 A 
ATOM     17  C   UNL A   1      32.541  20.177  23.306  1.00  0.00     0.027 A 
ATOM     18  C   UNL A   1      33.099  19.883  25.642  1.00  0.00     0.027 A 
ATOM     19  C   UNL A   1      32.206  18.824  23.216  1.00  0.00     0.002 A 
ATOM     20  C   UNL A   1      32.782  18.526  25.542  1.00  0.00     0.002 A 
ATOM     21  C   UNL A   1      32.332  18.000  24.332  1.00  0.00     0.000 A 
ENDBRANCH   9  16
ENDBRANCH   6   7
BRANCH   6  22
ATOM     22  N   UNL A   1      32.136  25.380  24.041  1.00  0.00    -0.320 N 
ATOM     23  C   UNL A   1      31.691  24.811  22.754  1.00  0.00     0.291 C 
ATOM     24  C   UNL A   1      32.908  26.605  23.783  1.00  0.00     0.291 C 
ATOM     25  H   UNL A   1      31.263  25.600  24.522  1.00  0.00     0.348 HD
ATOM     26  C   UNL A   1      32.777  24.691  21.679  1.00  0.00     0.221 C 
ATOM     27  C   UNL A   1      33.915  26.535  22.610  1.00  0.00     0.221 C 
ATOM     28  O   UNL A   1      33.360  25.969  21.416  1.00  0.00    -0.370 OA
ENDBRANCH   6  22
ENDBRANCH   5   6
ENDBRANCH   3   5
ENDBRANCH   2   3
ENDBRANCH   1   2
BRANCH   1  29
ATOM     29  C   UNL A   1      31.735  29.787  26.554  1.00  0.00     0.275 C 
BRANCH  29  30
ATOM     30  O   UNL A   1      33.116  30.161  26.398  1.00  0.00    -0.458 OA
BRANCH  30  31
ATOM     31  C   UNL A   1      33.504  31.255  27.109  1.00  0.00     0.338 C 
ATOM     32  O   UNL A   1      32.814  32.212  27.384  1.00  0.00    -0.246 OA
BRANCH  31  33
ATOM     33  C   UNL A   1      34.844  30.994  27.691  1.00  0.00     0.060 A 
ATOM     34  C   UNL A   1      35.207  29.659  27.918  1.00  0.00     0.016 A 
ATOM     35  C   UNL A   1      35.745  32.025  27.979  1.00  0.00     0.016 A 
ATOM     36  C   UNL A   1      36.449  29.354  28.474  1.00  0.00     0.010 A 
ATOM     37  C   UNL A   1      36.983  31.722  28.554  1.00  0.00     0.010 A 
ATOM     38  C   UNL A   1      37.320  30.387  28.842  1.00  0.00    -0.014 A 
BRANCH  38  39
ATOM     39  C   UNL A   1      38.432  30.098  29.782  1.00  0.00     0.031 A 
ATOM     40  C   UNL A   1      39.482  29.121  29.323  1.00  0.00     0.074 A 
ATOM     41  C   UNL A   1      38.526  30.692  30.985  1.00  0.00     0.049 A 
ATOM     42  N   UNL A   1      40.527  28.658  29.954  1.00  0.00    -0.248 NA
ATOM     43  C   UNL A   1      39.319  28.593  27.957  1.00  0.00     0.031 C 
ATOM     44  C   UNL A   1      37.600  31.694  31.510  1.00  0.00     0.029 A 
ATOM     45  N   UNL A   1      39.452  30.531  31.986  1.00  0.00    -0.354 N 
ATOM     46  C   UNL A   1      41.150  27.790  29.062  1.00  0.00     0.074 A 
ATOM     47  C   UNL A   1      40.341  27.760  27.864  1.00  0.00     0.031 C 
ATOM     48  C   UNL A   1      38.000  32.050  32.744  1.00  0.00     0.029 A 
ATOM     49  C   UNL A   1      39.187  31.279  33.111  1.00  0.00     0.049 A 
ATOM     50  H   UNL A   1      40.232  29.937  31.907  1.00  0.00     0.167 HD
ATOM     51  C   UNL A   1      42.298  27.087  29.222  1.00  0.00     0.034 A 
ATOM     52  C   UNL A   1      39.821  31.310  34.303  1.00  0.00     0.034 A 
ATOM     53  C   UNL A   1      43.069  27.098  30.439  1.00  0.00     0.049 A 
ATOM     54  C   UNL A   1      41.038  30.433  34.501  1.00  0.00     0.074 A 
ATOM     55  C   UNL A   1      44.230  26.407  30.733  1.00  0.00     0.029 A 
ATOM     56  N   UNL A   1      42.743  27.829  31.575  1.00  0.00    -0.354 N 
ATOM     57  N   UNL A   1      41.619  29.615  33.651  1.00  0.00    -0.248 NA
ATOM     58  C   UNL A   1      41.688  30.487  35.818  1.00  0.00     0.031 C 
ATOM     59  C   UNL A   1      44.565  26.663  32.066  1.00  0.00     0.029 A 
ATOM     60  C   UNL A   1      43.661  27.580  32.581  1.00  0.00     0.049 A 
ATOM     61  H   UNL A   1      41.971  28.435  31.653  1.00  0.00     0.167 HD
ATOM     62  C   UNL A   1      42.720  29.086  34.322  1.00  0.00     0.074 A 
ATOM     63  C   UNL A   1      42.729  29.686  35.640  1.00  0.00     0.031 C 
ATOM     64  C   UNL A   1      43.645  28.189  33.891  1.00  0.00     0.034 A 
BRANCH  51  65
ATOM     65  C   UNL A   1      42.726  26.206  28.075  1.00  0.00     0.023 A 
ATOM     66  C   UNL A   1      42.086  24.982  27.806  1.00  0.00     0.031 A 
ATOM     67  C   UNL A   1      43.831  26.559  27.283  1.00  0.00     0.131 A 
ATOM     68  C   UNL A   1      42.607  24.121  26.827  1.00  0.00     0.055 A 
ATOM     69  C   UNL A   1      44.294  25.735  26.255  1.00  0.00     0.041 A 
ATOM     70  F   UNL A   1      44.500  27.700  27.512  1.00  0.00    -0.206 F 
ATOM     71  C   UNL A   1      43.690  24.500  26.033  1.00  0.00     0.022 A 
BRANCH  68  72
ATOM     72  S   UNL A   1      41.946  22.435  26.714  1.00  0.00     0.124 S 
ATOM     73  O   UNL A   1      42.436  22.015  25.404  1.00  0.00    -0.237 OA
ATOM     74  O   UNL A   1      42.555  21.778  27.865  1.00  0.00    -0.237 OA
ATOM     75  O   UNL A   1      40.500  22.627  26.798  1.00  0.00    -0.744 OA
ENDBRANCH  68  72
ENDBRANCH  51  65
BRANCH  52  76
ATOM     76  C   UNL A   1      39.307  32.155  35.422  1.00  0.00     0.023 A 
ATOM     77  C   UNL A   1      39.738  33.480  35.597  1.00  0.00     0.031 A 
ATOM     78  C   UNL A   1      38.427  31.620  36.382  1.00  0.00     0.131 A 
ATOM     79  C   UNL A   1      39.330  34.209  36.729  1.00  0.00     0.055 A 
ATOM     80  C   UNL A   1      37.981  32.366  37.475  1.00  0.00     0.041 A 
ATOM     81  F   UNL A   1      37.988  30.356  36.271  1.00  0.00    -0.206 F 
ATOM     82  C   UNL A   1      38.445  33.664  37.661  1.00  0.00     0.022 A 
BRANCH  79  83
ATOM     83  S   UNL A   1      40.050  35.850  37.017  1.00  0.00     0.124 S 
ATOM     84  O   UNL A   1      39.662  36.561  35.804  1.00  0.00    -0.237 OA
ATOM     85  O   UNL A   1      39.379  36.263  38.245  1.00  0.00    -0.237 OA
ATOM     86  O   UNL A   1      41.479  35.576  37.151  1.00  0.00    -0.744 OA
ENDBRANCH  79  83
ENDBRANCH  52  76
BRANCH  64  87
ATOM     87  C   UNL A   1      44.769  27.848  34.840  1.00  0.00     0.023 A 
ATOM     88  C   UNL A   1      44.678  26.779  35.748  1.00  0.00     0.031 A 
ATOM     89  C   UNL A   1      45.955  28.606  34.827  1.00  0.00     0.131 A 
ATOM     90  C   UNL A   1      45.730  26.531  36.643  1.00  0.00     0.055 A 
ATOM     91  C   UNL A   1      47.022  28.316  35.677  1.00  0.00     0.041 A 
ATOM     92  F   UNL A   1      46.097  29.638  33.980  1.00  0.00    -0.206 F 
ATOM     93  C   UNL A   1      46.909  27.282  36.601  1.00  0.00     0.022 A 
BRANCH  90  94
ATOM     94  S   UNL A   1      45.504  25.270  37.926  1.00  0.00     0.124 S 
ATOM     95  O   UNL A   1      46.769  25.341  38.649  1.00  0.00    -0.237 OA
ATOM     96  O   UNL A   1      44.332  25.760  38.643  1.00  0.00    -0.237 OA
ATOM     97  O   UNL A   1      45.292  24.039  37.164  1.00  0.00    -0.744 OA
ENDBRANCH  90  94
ENDBRANCH  64  87
ENDBRANCH  38  39
ENDBRANCH  31  33
ENDBRANCH  30  31
ENDBRANCH  29  30
ENDBRANCH   1  29
TORSDOF 19
ENDMDL
MODEL 2
REMARK VINA RESULT:     -11.7      2.644      7.973
REMARK SMILES O=C(C[C@@H](C(=O)N(c1ccccc1)c1ccccc1)[NH+]1CCOCC1)OCCOC(=O)c1ccc(-c2c3nc(c(-c4cc(S(=O)(=O)[O-])ccc4F)c4ccc([nH]4)c(-c4cc(S(=O)(=O)[O-])ccc4F)c4nc(c(-c5cc(S(=O)(=O)[O-])ccc5F)c5ccc2[nH]5)C=C4)C=C3)cc1
REMARK SMILES IDX 27 1 26 2 2 3 1 4 3 5 4 6 5 7 6 8 7 9 8 10 9 11 13 12 10 13
REMARK SMILES IDX 12 14 11 15 14 16 15 17 19 18 16 19 18 20 17 21 20 22 21 23
REMARK SMILES IDX 25 24 22 26 24 27 23 28 28 29 29 30 30 31 31 32 32 33 33 34
REMARK SMILES IDX 94 35 34 36 93 37 35 38 36 39 37 40 87 41 38 42 92 43 86 44
REMARK SMILES IDX 88 45 39 46 91 47 85 48 84 49 40 51 72 52 52 53 71 54 53 55
REMARK SMILES IDX 56 56 70 57 89 58 54 59 55 60 69 62 90 63 57 64 41 65 42 66
REMARK SMILES IDX 50 67 43 68 49 69 51 70 48 71 44 72 45 73 46 74 47 75 73 76
REMARK SMILES IDX 74 77 82 78 75 79 81 80 83 81 80 82 76 83 77 84 78 85 79 86
REMARK SMILES IDX 58 87 59 88 67 89 60 90 66 91 68 92 65 93 61 94 62 95 63 96
REMARK SMILES IDX 64 97
REMARK H PARENT 20 25 88 50 56 61
REMARK Flexibility Score: inf
ROOT
ATOM      1  C   UNL A   1      33.494  28.877  26.354  1.00  0.00     0.274 C 
ENDROOT
BRANCH   1   2
ATOM      2  O   UNL A   1      32.413  28.125  25.759  1.00  0.00    -0.462 OA
BRANCH   2   3
ATOM      3  C   UNL A   1      31.648  27.217  26.405  1.00  0.00     0.312 C 
ATOM      4  O   UNL A   1      31.402  27.356  27.601  1.00  0.00    -0.252 OA
BRANCH   3   5
ATOM      5  C   UNL A   1      31.152  26.003  25.663  1.00  0.00     0.198 C 
BRANCH   5   6
ATOM      6  C   UNL A   1      31.857  25.470  24.406  1.00  0.00     0.286 C 
BRANCH   6   7
ATOM      7  C   UNL A   1      31.888  23.932  24.331  1.00  0.00     0.290 C 
ATOM      8  O   UNL A   1      30.783  23.364  24.379  1.00  0.00    -0.267 OA
ATOM      9  N   UNL A   1      33.062  23.144  24.284  1.00  0.00    -0.276 N 
BRANCH   9  10
ATOM     10  C   UNL A   1      34.477  23.482  24.437  1.00  0.00     0.049 A 
ATOM     11  C   UNL A   1      35.418  23.100  23.448  1.00  0.00     0.027 A 
ATOM     12  C   UNL A   1      35.038  24.114  25.546  1.00  0.00     0.027 A 
ATOM     13  C   UNL A   1      36.802  23.086  23.676  1.00  0.00     0.002 A 
ATOM     14  C   UNL A   1      36.424  24.092  25.794  1.00  0.00     0.002 A 
ATOM     15  C   UNL A   1      37.303  23.531  24.884  1.00  0.00     0.000 A 
ENDBRANCH   9  10
BRANCH   9  16
ATOM     16  C   UNL A   1      32.773  21.722  24.316  1.00  0.00     0.049 A 
ATOM     17  C   UNL A   1      32.393  21.046  23.144  1.00  0.00     0.027 A 
ATOM     18  C   UNL A   1      33.016  20.977  25.480  1.00  0.00     0.027 A 
ATOM     19  C   UNL A   1      32.226  19.661  23.148  1.00  0.00     0.002 A 
ATOM     20  C   UNL A   1      32.867  19.589  25.474  1.00  0.00     0.002 A 
ATOM     21  C   UNL A   1      32.468  18.933  24.311  1.00  0.00     0.000 A 
ENDBRANCH   9  16
ENDBRANCH   6   7
BRANCH   6  22
ATOM     22  N   UNL A   1      31.252  26.139  23.188  1.00  0.00    -0.320 N 
ATOM     23  C   UNL A   1      32.040  27.023  22.308  1.00  0.00     0.291 C 
ATOM     24  C   UNL A   1      29.892  26.684  23.322  1.00  0.00     0.291 C 
ATOM     25  H   UNL A   1      31.235  25.250  22.686  1.00  0.00     0.348 HD
ATOM     26  C   UNL A   1      31.959  28.519  22.635  1.00  0.00     0.221 C 
ATOM     27  C   UNL A   1      29.794  28.216  23.521  1.00  0.00     0.221 C 
ATOM     28  O   UNL A   1      30.601  28.962  22.601  1.00  0.00    -0.370 OA
ENDBRANCH   6  22
ENDBRANCH   5   6
ENDBRANCH   3   5
ENDBRANCH   2   3
ENDBRANCH   1   2
BRANCH   1  29
ATOM     29  C   UNL A   1      33.010  30.143  27.063  1.00  0.00     0.275 C 
BRANCH  29  30
ATOM     30  O   UNL A   1      33.952  31.212  26.859  1.00  0.00    -0.458 OA
BRANCH  30  31
ATOM     31  C   UNL A   1      34.593  31.641  27.980  1.00  0.00     0.338 C 
ATOM     32  O   UNL A   1      34.209  32.501  28.741  1.00  0.00    -0.246 OA
BRANCH  31  33
ATOM     33  C   UNL A   1      35.735  30.731  28.252  1.00  0.00     0.060 A 
ATOM     34  C   UNL A   1      35.636  29.877  29.359  1.00  0.00     0.016 A 
ATOM     35  C   UNL A   1      36.864  30.685  27.428  1.00  0.00     0.016 A 
ATOM     36  C   UNL A   1      36.683  29.009  29.672  1.00  0.00     0.010 A 
ATOM     37  C   UNL A   1      37.921  29.829  27.751  1.00  0.00     0.010 A 
ATOM     38  C   UNL A   1      37.851  29.019  28.899  1.00  0.00    -0.014 A 
BRANCH  38  39
ATOM     39  C   UNL A   1      39.090  28.417  29.449  1.00  0.00     0.031 A 
ATOM     40  C   UNL A   1      39.619  28.992  30.737  1.00  0.00     0.074 A 
ATOM     41  C   UNL A   1      39.712  27.386  28.852  1.00  0.00     0.049 A 
ATOM     42  N   UNL A   1      40.697  28.689  31.408  1.00  0.00    -0.248 NA
ATOM     43  C   UNL A   1      38.813  30.066  31.343  1.00  0.00     0.031 C 
ATOM     44  C   UNL A   1      39.260  26.713  27.636  1.00  0.00     0.029 A 
ATOM     45  N   UNL A   1      40.867  26.726  29.192  1.00  0.00    -0.354 N 
ATOM     46  C   UNL A   1      40.696  29.528  32.519  1.00  0.00     0.074 A 
ATOM     47  C   UNL A   1      39.533  30.380  32.405  1.00  0.00     0.031 C 
ATOM     48  C   UNL A   1      40.138  25.741  27.325  1.00  0.00     0.029 A 
ATOM     49  C   UNL A   1      41.230  25.745  28.297  1.00  0.00     0.049 A 
ATOM     50  H   UNL A   1      41.389  26.935  29.999  1.00  0.00     0.167 HD
ATOM     51  C   UNL A   1      41.579  29.578  33.545  1.00  0.00     0.034 A 
ATOM     52  C   UNL A   1      42.330  24.963  28.262  1.00  0.00     0.034 A 
ATOM     53  C   UNL A   1      42.755  28.750  33.620  1.00  0.00     0.049 A 
ATOM     54  C   UNL A   1      43.362  25.113  29.359  1.00  0.00     0.074 A 
ATOM     55  C   UNL A   1      43.738  28.729  34.592  1.00  0.00     0.029 A 
ATOM     56  N   UNL A   1      43.115  27.801  32.670  1.00  0.00    -0.354 N 
ATOM     57  N   UNL A   1      43.352  25.910  30.405  1.00  0.00    -0.248 NA
ATOM     58  C   UNL A   1      44.551  24.254  29.274  1.00  0.00     0.031 C 
ATOM     59  C   UNL A   1      44.726  27.822  34.194  1.00  0.00     0.029 A 
ATOM     60  C   UNL A   1      44.320  27.214  33.015  1.00  0.00     0.049 A 
ATOM     61  H   UNL A   1      42.589  27.579  31.868  1.00  0.00     0.167 HD
ATOM     62  C   UNL A   1      44.516  25.622  31.116  1.00  0.00     0.074 A 
ATOM     63  C   UNL A   1      45.195  24.570  30.388  1.00  0.00     0.031 C 
ATOM     64  C   UNL A   1      44.982  26.169  32.269  1.00  0.00     0.034 A 
BRANCH  51  65
ATOM     65  C   UNL A   1      41.328  30.614  34.614  1.00  0.00     0.023 A 
ATOM     66  C   UNL A   1      40.184  30.567  35.432  1.00  0.00     0.031 A 
ATOM     67  C   UNL A   1      42.205  31.700  34.770  1.00  0.00     0.131 A 
ATOM     68  C   UNL A   1      39.909  31.627  36.310  1.00  0.00     0.055 A 
ATOM     69  C   UNL A   1      41.968  32.710  35.705  1.00  0.00     0.041 A 
ATOM     70  F   UNL A   1      43.297  31.814  33.996  1.00  0.00    -0.206 F 
ATOM     71  C   UNL A   1      40.806  32.685  36.470  1.00  0.00     0.022 A 
BRANCH  68  72
ATOM     72  S   UNL A   1      38.288  31.682  37.125  1.00  0.00     0.124 S 
ATOM     73  O   UNL A   1      37.884  30.280  37.069  1.00  0.00    -0.237 OA
ATOM     74  O   UNL A   1      38.616  32.202  38.447  1.00  0.00    -0.237 OA
ATOM     75  O   UNL A   1      37.510  32.581  36.276  1.00  0.00    -0.744 OA
ENDBRANCH  68  72
ENDBRANCH  51  65
BRANCH  52  76
ATOM     76  C   UNL A   1      42.553  24.004  27.139  1.00  0.00     0.023 A 
ATOM     77  C   UNL A   1      41.986  22.719  27.151  1.00  0.00     0.031 A 
ATOM     78  C   UNL A   1      43.404  24.335  26.068  1.00  0.00     0.131 A 
ATOM     79  C   UNL A   1      42.314  21.797  26.140  1.00  0.00     0.055 A 
ATOM     80  C   UNL A   1      43.682  23.435  25.037  1.00  0.00     0.041 A 
ATOM     81  F   UNL A   1      43.980  25.546  26.007  1.00  0.00    -0.206 F 
ATOM     82  C   UNL A   1      43.148  22.151  25.078  1.00  0.00     0.022 A 
BRANCH  79  83
ATOM     83  S   UNL A   1      41.709  20.091  26.285  1.00  0.00     0.124 S 
ATOM     84  O   UNL A   1      42.422  19.430  25.199  1.00  0.00    -0.237 OA
ATOM     85  O   UNL A   1      42.126  19.737  27.638  1.00  0.00    -0.237 OA
ATOM     86  O   UNL A   1      40.266  20.225  26.095  1.00  0.00    -0.744 OA
ENDBRANCH  79  83
ENDBRANCH  52  76
BRANCH  64  87
ATOM     87  C   UNL A   1      46.260  25.601  32.835  1.00  0.00     0.023 A 
ATOM     88  C   UNL A   1      47.524  26.017  32.381  1.00  0.00     0.031 A 
ATOM     89  C   UNL A   1      46.209  24.628  33.851  1.00  0.00     0.131 A 
ATOM     90  C   UNL A   1      48.684  25.424  32.904  1.00  0.00     0.055 A 
ATOM     91  C   UNL A   1      47.367  24.087  34.410  1.00  0.00     0.041 A 
ATOM     92  F   UNL A   1      45.029  24.194  34.322  1.00  0.00    -0.206 F 
ATOM     93  C   UNL A   1      48.613  24.475  33.928  1.00  0.00     0.022 A 
BRANCH  90  94
ATOM     94  S   UNL A   1      50.286  25.844  32.166  1.00  0.00     0.124 S 
ATOM     95  O   UNL A   1      50.136  27.271  31.904  1.00  0.00    -0.237 OA
ATOM     96  O   UNL A   1      51.222  25.485  33.226  1.00  0.00    -0.237 OA
ATOM     97  O   UNL A   1      50.347  24.997  30.974  1.00  0.00    -0.744 OA
ENDBRANCH  90  94
ENDBRANCH  64  87
ENDBRANCH  38  39
ENDBRANCH  31  33
ENDBRANCH  30  31
ENDBRANCH  29  30
ENDBRANCH   1  29
TORSDOF 19
ENDMDL
MODEL 3
REMARK VINA RESULT:     -10.8      1.652      2.358
REMARK SMILES O=C(C[C@@H](C(=O)N(c1ccccc1)c1ccccc1)[NH+]1CCOCC1)OCCOC(=O)c1ccc(-c2c3nc(c(-c4cc(S(=O)(=O)[O-])ccc4F)c4ccc([nH]4)c(-c4cc(S(=O)(=O)[O-])ccc4F)c4nc(c(-c5cc(S(=O)(=O)[O-])ccc5F)c5ccc2[nH]5)C=C4)C=C3)cc1
REMARK SMILES IDX 27 1 26 2 2 3 1 4 3 5 4 6 5 7 6 8 7 9 8 10 9 11 13 12 10 13
REMARK SMILES IDX 12 14 11 15 14 16 15 17 19 18 16 19 18 20 17 21 20 22 21 23
REMARK SMILES IDX 25 24 22 26 24 27 23 28 28 29 29 30 30 31 31 32 32 33 33 34
REMARK SMILES IDX 94 35 34 36 93 37 35 38 36 39 37 40 87 41 38 42 92 43 86 44
REMARK SMILES IDX 88 45 39 46 91 47 85 48 84 49 40 51 72 52 52 53 71 54 53 55
REMARK SMILES IDX 56 56 70 57 89 58 54 59 55 60 69 62 90 63 57 64 41 65 42 66
REMARK SMILES IDX 50 67 43 68 49 69 51 70 48 71 44 72 45 73 46 74 47 75 73 76
REMARK SMILES IDX 74 77 82 78 75 79 81 80 83 81 80 82 76 83 77 84 78 85 79 86
REMARK SMILES IDX 58 87 59 88 67 89 60 90 66 91 68 92 65 93 61 94 62 95 63 96
REMARK SMILES IDX 64 97
REMARK H PARENT 20 25 88 50 56 61
REMARK Flexibility Score: inf
ROOT
ATOM      1  C   UNL A   1      32.269  28.387  25.282  1.00  0.00     0.274 C 
ENDROOT
BRANCH   1   2
ATOM      2  O   UNL A   1      33.325  27.559  25.818  1.00  0.00    -0.462 OA
BRANCH   2   3
ATOM      3  C   UNL A   1      33.756  26.398  25.275  1.00  0.00     0.312 C 
ATOM      4  O   UNL A   1      34.803  25.886  25.664  1.00  0.00    -0.252 OA
BRANCH   3   5
ATOM      5  C   UNL A   1      32.977  25.771  24.148  1.00  0.00     0.198 C 
BRANCH   5   6
ATOM      6  C   UNL A   1      31.713  24.933  24.396  1.00  0.00     0.286 C 
BRANCH   6   7
ATOM      7  C   UNL A   1      31.803  23.509  23.818  1.00  0.00     0.290 C 
ATOM      8  O   UNL A   1      30.730  23.010  23.433  1.00  0.00    -0.267 OA
ATOM      9  N   UNL A   1      32.979  22.725  23.766  1.00  0.00    -0.276 N 
BRANCH   9  10
ATOM     10  C   UNL A   1      34.317  22.924  24.326  1.00  0.00     0.049 A 
ATOM     11  C   UNL A   1      35.417  23.204  23.477  1.00  0.00     0.027 A 
ATOM     12  C   UNL A   1      34.652  22.793  25.672  1.00  0.00     0.027 A 
ATOM     13  C   UNL A   1      36.751  23.073  23.889  1.00  0.00     0.002 A 
ATOM     14  C   UNL A   1      35.987  22.644  26.097  1.00  0.00     0.002 A 
ATOM     15  C   UNL A   1      37.036  22.731  25.197  1.00  0.00     0.000 A 
ENDBRANCH   9  10
BRANCH   9  16
ATOM     16  C   UNL A   1      32.730  21.390  23.256  1.00  0.00     0.049 A 
ATOM     17  C   UNL A   1      32.913  20.266  24.081  1.00  0.00     0.027 A 
ATOM     18  C   UNL A   1      32.159  21.213  21.986  1.00  0.00     0.027 A 
ATOM     19  C   UNL A   1      32.566  18.992  23.629  1.00  0.00     0.002 A 
ATOM     20  C   UNL A   1      31.795  19.939  21.546  1.00  0.00     0.002 A 
ATOM     21  C   UNL A   1      32.003  18.830  22.365  1.00  0.00     0.000 A 
ENDBRANCH   9  16
ENDBRANCH   6   7
BRANCH   6  22
ATOM     22  N   UNL A   1      31.379  24.983  25.874  1.00  0.00    -0.320 N 
ATOM     23  C   UNL A   1      31.527  23.805  26.750  1.00  0.00     0.291 C 
ATOM     24  C   UNL A   1      30.173  25.728  26.269  1.00  0.00     0.291 C 
ATOM     25  H   UNL A   1      32.219  25.532  26.064  1.00  0.00     0.348 HD
ATOM     26  C   UNL A   1      30.261  22.960  26.933  1.00  0.00     0.221 C 
ATOM     27  C   UNL A   1      28.923  24.871  26.586  1.00  0.00     0.221 C 
ATOM     28  O   UNL A   1      29.197  23.762  27.451  1.00  0.00    -0.370 OA
ENDBRANCH   6  22
ENDBRANCH   5   6
ENDBRANCH   3   5
ENDBRANCH   2   3
ENDBRANCH   1   2
BRANCH   1  29
ATOM     29  C   UNL A   1      32.557  29.881  25.435  1.00  0.00     0.275 C 
BRANCH  29  30
ATOM     30  O   UNL A   1      32.379  30.279  26.807  1.00  0.00    -0.458 OA
BRANCH  30  31
ATOM     31  C   UNL A   1      33.010  31.431  27.162  1.00  0.00     0.338 C 
ATOM     32  O   UNL A   1      32.506  32.530  27.237  1.00  0.00    -0.246 OA
BRANCH  31  33
ATOM     33  C   UNL A   1      34.366  31.097  27.664  1.00  0.00     0.060 A 
ATOM     34  C   UNL A   1      34.618  29.764  28.020  1.00  0.00     0.016 A 
ATOM     35  C   UNL A   1      35.384  32.052  27.755  1.00  0.00     0.016 A 
ATOM     36  C   UNL A   1      35.870  29.393  28.509  1.00  0.00     0.010 A 
ATOM     37  C   UNL A   1      36.634  31.685  28.263  1.00  0.00     0.010 A 
ATOM     38  C   UNL A   1      36.866  30.362  28.682  1.00  0.00    -0.014 A 
BRANCH  38  39
ATOM     39  C   UNL A   1      38.025  30.064  29.560  1.00  0.00     0.031 A 
ATOM     40  C   UNL A   1      39.046  29.087  29.038  1.00  0.00     0.074 A 
ATOM     41  C   UNL A   1      38.185  30.649  30.760  1.00  0.00     0.049 A 
ATOM     42  N   UNL A   1      40.122  28.616  29.610  1.00  0.00    -0.248 NA
ATOM     43  C   UNL A   1      38.809  28.569  27.680  1.00  0.00     0.031 C 
ATOM     44  C   UNL A   1      37.291  31.650  31.340  1.00  0.00     0.029 A 
ATOM     45  N   UNL A   1      39.162  30.479  31.709  1.00  0.00    -0.354 N 
ATOM     46  C   UNL A   1      40.694  27.753  28.680  1.00  0.00     0.074 A 
ATOM     47  C   UNL A   1      39.822  27.734  27.527  1.00  0.00     0.031 C 
ATOM     48  C   UNL A   1      37.757  31.996  32.554  1.00  0.00     0.029 A 
ATOM     49  C   UNL A   1      38.960  31.219  32.852  1.00  0.00     0.049 A 
ATOM     50  H   UNL A   1      39.935  29.883  31.585  1.00  0.00     0.167 HD
ATOM     51  C   UNL A   1      41.847  27.047  28.775  1.00  0.00     0.034 A 
ATOM     52  C   UNL A   1      39.656  31.240  34.008  1.00  0.00     0.034 A 
ATOM     53  C   UNL A   1      42.681  27.046  29.949  1.00  0.00     0.049 A 
ATOM     54  C   UNL A   1      40.879  30.358  34.136  1.00  0.00     0.074 A 
ATOM     55  C   UNL A   1      43.854  26.350  30.175  1.00  0.00     0.029 A 
ATOM     56  N   UNL A   1      42.418  27.770  31.106  1.00  0.00    -0.354 N 
ATOM     57  N   UNL A   1      41.411  29.544  33.251  1.00  0.00    -0.248 NA
ATOM     58  C   UNL A   1      41.598  30.401  35.416  1.00  0.00     0.031 C 
ATOM     59  C   UNL A   1      44.260  26.596  31.491  1.00  0.00     0.029 A 
ATOM     60  C   UNL A   1      43.387  27.512  32.060  1.00  0.00     0.049 A 
ATOM     61  H   UNL A   1      41.653  28.378  31.228  1.00  0.00     0.167 HD
ATOM     62  C   UNL A   1      42.545  29.007  33.858  1.00  0.00     0.074 A 
ATOM     63  C   UNL A   1      42.625  29.598  35.178  1.00  0.00     0.031 C 
ATOM     64  C   UNL A   1      43.443  28.111  33.373  1.00  0.00     0.034 A 
BRANCH  51  65
ATOM     65  C   UNL A   1      42.211  26.172  27.600  1.00  0.00     0.023 A 
ATOM     66  C   UNL A   1      41.765  24.840  27.505  1.00  0.00     0.031 A 
ATOM     67  C   UNL A   1      43.070  26.651  26.597  1.00  0.00     0.131 A 
ATOM     68  C   UNL A   1      42.245  24.014  26.477  1.00  0.00     0.055 A 
ATOM     69  C   UNL A   1      43.478  25.848  25.531  1.00  0.00     0.041 A 
ATOM     70  F   UNL A   1      43.551  27.904  26.651  1.00  0.00    -0.206 F 
ATOM     71  C   UNL A   1      43.078  24.516  25.476  1.00  0.00     0.022 A 
BRANCH  68  72
ATOM     72  S   UNL A   1      41.892  22.236  26.556  1.00  0.00     0.124 S 
ATOM     73  O   UNL A   1      42.630  21.738  25.399  1.00  0.00    -0.237 OA
ATOM     74  O   UNL A   1      42.424  21.865  27.863  1.00  0.00    -0.237 OA
ATOM     75  O   UNL A   1      40.437  22.170  26.433  1.00  0.00    -0.744 OA
ENDBRANCH  68  72
ENDBRANCH  51  65
BRANCH  52  76
ATOM     76  C   UNL A   1      39.204  32.079  35.159  1.00  0.00     0.023 A 
ATOM     77  C   UNL A   1      39.644  33.403  35.317  1.00  0.00     0.031 A 
ATOM     78  C   UNL A   1      38.381  31.538  36.164  1.00  0.00     0.131 A 
ATOM     79  C   UNL A   1      39.299  34.125  36.473  1.00  0.00     0.055 A 
ATOM     80  C   UNL A   1      37.996  32.277  37.285  1.00  0.00     0.041 A 
ATOM     81  F   UNL A   1      37.937  30.274  36.071  1.00  0.00    -0.206 F 
ATOM     82  C   UNL A   1      38.468  33.575  37.451  1.00  0.00     0.022 A 
BRANCH  79  83
ATOM     83  S   UNL A   1      40.032  35.766  36.729  1.00  0.00     0.124 S 
ATOM     84  O   UNL A   1      39.614  36.470  35.523  1.00  0.00    -0.237 OA
ATOM     85  O   UNL A   1      39.398  36.189  37.973  1.00  0.00    -0.237 OA
ATOM     86  O   UNL A   1      41.464  35.487  36.825  1.00  0.00    -0.744 OA
ENDBRANCH  79  83
ENDBRANCH  52  76
BRANCH  64  87
ATOM     87  C   UNL A   1      44.615  27.760  34.258  1.00  0.00     0.023 A 
ATOM     88  C   UNL A   1      45.819  28.485  34.220  1.00  0.00     0.031 A 
ATOM     89  C   UNL A   1      44.519  26.683  35.158  1.00  0.00     0.131 A 
ATOM     90  C   UNL A   1      46.897  28.090  35.028  1.00  0.00     0.055 A 
ATOM     91  C   UNL A   1      45.572  26.335  36.003  1.00  0.00     0.041 A 
ATOM     92  F   UNL A   1      43.392  25.957  35.237  1.00  0.00    -0.206 F 
ATOM     93  C   UNL A   1      46.775  27.031  35.932  1.00  0.00     0.022 A 
BRANCH  90  94
ATOM     94  S   UNL A   1      48.493  28.925  34.819  1.00  0.00     0.124 S 
ATOM     95  O   UNL A   1      48.799  28.650  33.419  1.00  0.00    -0.237 OA
ATOM     96  O   UNL A   1      48.167  30.310  35.140  1.00  0.00    -0.237 OA
ATOM     97  O   UNL A   1      49.361  28.253  35.787  1.00  0.00    -0.744 OA
ENDBRANCH  90  94
ENDBRANCH  64  87
ENDBRANCH  38  39
ENDBRANCH  31  33
ENDBRANCH  30  31
ENDBRANCH  29  30
ENDBRANCH   1  29
TORSDOF 19
ENDMDL
