MODEL 1
REMARK VINA RESULT:     -11.9      0.000      0.000
REMARK SMILES Cc1cc2nc(SCC(=O)OCCOC(=O)c3ccc(-c4c5nc(c(-c6cc(S(=O)(=O)[O-])ccc6F)c6ccc([nH]6)c(-c6cc(S(=O)(=O)[O-])ccc6F)c6nc(c(-c7cc(S(=O)(=O)[O-])ccc7F)c7ccc4[nH]7)C=C6)C=C5)cc3)n(CC(C)C)c(=O)c2[nH]1
REMARK SMILES IDX 12 1 11 2 9 3 10 4 8 5 7 6 6 7 1 8 2 9 3 10 88 11 4 12 87 13
REMARK SMILES IDX 5 15 85 16 80 17 86 18 81 19 82 20 83 21 84 22 13 23 14 24
REMARK SMILES IDX 15 25 16 26 17 27 18 28 79 29 19 30 78 31 20 32 21 33 22 34
REMARK SMILES IDX 72 35 23 36 77 37 71 38 73 39 24 40 76 41 70 42 69 43 25 45
REMARK SMILES IDX 57 46 37 47 56 48 38 49 41 50 55 51 74 52 39 53 40 54 54 56
REMARK SMILES IDX 75 57 42 58 26 59 27 60 35 61 28 62 34 63 36 64 33 65 29 66
REMARK SMILES IDX 30 67 31 68 32 69 58 70 59 71 67 72 60 73 66 74 68 75 65 76
REMARK SMILES IDX 61 77 62 78 63 79 64 80 43 81 44 82 52 83 45 84 51 85 53 86
REMARK SMILES IDX 50 87 46 88 47 89 48 90 49 91
REMARK H PARENT 88 14 73 44 41 55
REMARK Flexibility Score: inf
ROOT
ATOM      1  C   UNL A   1      33.410  20.738  25.745  1.00  0.00     0.274 C 
ENDROOT
BRANCH   1   2
ATOM      2  O   UNL A   1      33.758  21.419  26.956  1.00  0.00    -0.461 OA
BRANCH   2   3
ATOM      3  C   UNL A   1      33.018  22.522  27.230  1.00  0.00     0.316 C 
ATOM      4  O   UNL A   1      32.443  22.660  28.301  1.00  0.00    -0.251 OA
BRANCH   3   5
ATOM      5  C   UNL A   1      32.991  23.521  26.061  1.00  0.00     0.200 C 
BRANCH   5   6
ATOM      6  S   UNL A   1      31.363  24.348  25.933  1.00  0.00    -0.076 SA
BRANCH   6   7
ATOM      7  C   UNL A   1      31.691  26.026  25.552  1.00  0.00     0.172 A 
ATOM      8  C   UNL A   1      31.315  31.709  26.461  1.00  0.00     0.064 C 
ATOM      9  C   UNL A   1      31.885  30.359  26.236  1.00  0.00     0.014 A 
ATOM     10  C   UNL A   1      32.255  29.278  27.044  1.00  0.00     0.052 A 
ATOM     11  N   UNL A   1      31.961  29.916  24.938  1.00  0.00    -0.353 N 
ATOM     12  C   UNL A   1      32.229  28.134  26.202  1.00  0.00     0.097 A 
ATOM     13  C   UNL A   1      31.711  28.587  25.034  1.00  0.00     0.131 A 
ATOM     14  H   UNL A   1      32.154  30.440  24.127  1.00  0.00     0.166 HD
ATOM     15  N   UNL A   1      32.188  26.765  26.515  1.00  0.00    -0.222 NA
ATOM     16  C   UNL A   1      30.825  27.805  24.273  1.00  0.00     0.278 A 
ATOM     17  N   UNL A   1      31.139  26.474  24.337  1.00  0.00    -0.286 N 
ATOM     18  O   UNL A   1      29.821  28.249  23.751  1.00  0.00    -0.267 OA
BRANCH  17  19
ATOM     19  C   UNL A   1      31.311  25.873  23.012  1.00  0.00     0.131 C 
BRANCH  19  20
ATOM     20  C   UNL A   1      32.240  26.455  21.894  1.00  0.00     0.003 C 
ATOM     21  C   UNL A   1      33.658  26.802  22.363  1.00  0.00     0.009 C 
ATOM     22  C   UNL A   1      32.537  25.477  20.730  1.00  0.00     0.009 C 
ENDBRANCH  19  20
ENDBRANCH  17  19
ENDBRANCH   6   7
ENDBRANCH   5   6
ENDBRANCH   3   5
ENDBRANCH   2   3
ENDBRANCH   1   2
BRANCH   1  23
ATOM     23  C   UNL A   1      34.650  20.253  24.987  1.00  0.00     0.275 C 
BRANCH  23  24
ATOM     24  O   UNL A   1      35.859  21.075  24.815  1.00  0.00    -0.458 OA
BRANCH  24  25
ATOM     25  C   UNL A   1      37.122  20.660  25.155  1.00  0.00     0.338 C 
ATOM     26  O   UNL A   1      37.436  19.478  25.150  1.00  0.00    -0.246 OA
BRANCH  25  27
ATOM     27  C   UNL A   1      38.151  21.703  25.574  1.00  0.00     0.060 A 
ATOM     28  C   UNL A   1      39.416  21.265  26.027  1.00  0.00     0.016 A 
ATOM     29  C   UNL A   1      37.887  23.066  25.690  1.00  0.00     0.016 A 
ATOM     30  C   UNL A   1      40.296  22.120  26.746  1.00  0.00     0.010 A 
ATOM     31  C   UNL A   1      38.748  23.907  26.446  1.00  0.00     0.010 A 
ATOM     32  C   UNL A   1      39.935  23.440  27.054  1.00  0.00    -0.014 A 
BRANCH  32  33
ATOM     33  C   UNL A   1      40.894  24.363  27.754  1.00  0.00     0.031 A 
ATOM     34  C   UNL A   1      40.289  25.698  27.923  1.00  0.00     0.074 A 
ATOM     35  C   UNL A   1      42.073  24.197  28.417  1.00  0.00     0.049 A 
ATOM     36  N   UNL A   1      40.400  26.724  27.146  1.00  0.00    -0.248 NA
ATOM     37  C   UNL A   1      39.261  25.813  28.967  1.00  0.00     0.031 C 
ATOM     38  C   UNL A   1      42.667  22.940  28.832  1.00  0.00     0.029 A 
ATOM     39  N   UNL A   1      42.966  25.113  28.956  1.00  0.00    -0.354 N 
ATOM     40  C   UNL A   1      39.598  27.680  27.753  1.00  0.00     0.074 A 
ATOM     41  C   UNL A   1      38.691  26.961  28.611  1.00  0.00     0.031 C 
ATOM     42  C   UNL A   1      43.725  23.137  29.649  1.00  0.00     0.029 A 
ATOM     43  C   UNL A   1      43.954  24.561  29.790  1.00  0.00     0.049 A 
ATOM     44  H   UNL A   1      42.912  26.077  28.768  1.00  0.00     0.167 HD
ATOM     45  C   UNL A   1      39.958  28.990  27.833  1.00  0.00     0.034 A 
ATOM     46  C   UNL A   1      44.869  25.186  30.587  1.00  0.00     0.034 A 
ATOM     47  C   UNL A   1      41.086  29.298  27.001  1.00  0.00     0.049 A 
ATOM     48  C   UNL A   1      44.967  26.598  30.174  1.00  0.00     0.074 A 
ATOM     49  C   UNL A   1      41.368  29.216  25.654  1.00  0.00     0.029 A 
ATOM     50  N   UNL A   1      42.287  29.437  27.651  1.00  0.00    -0.354 N 
ATOM     51  N   UNL A   1      45.513  27.009  29.067  1.00  0.00    -0.248 NA
ATOM     52  C   UNL A   1      44.144  27.574  30.870  1.00  0.00     0.031 C 
ATOM     53  C   UNL A   1      42.766  28.966  25.569  1.00  0.00     0.029 A 
ATOM     54  C   UNL A   1      43.289  28.938  26.863  1.00  0.00     0.049 A 
ATOM     55  H   UNL A   1      42.408  29.834  28.544  1.00  0.00     0.167 HD
ATOM     56  C   UNL A   1      44.737  28.091  28.698  1.00  0.00     0.074 A 
ATOM     57  C   UNL A   1      44.027  28.488  29.906  1.00  0.00     0.031 C 
ATOM     58  C   UNL A   1      44.509  28.353  27.382  1.00  0.00     0.034 A 
BRANCH  45  59
ATOM     59  C   UNL A   1      39.542  29.862  28.991  1.00  0.00     0.023 A 
ATOM     60  C   UNL A   1      40.372  30.083  30.107  1.00  0.00     0.031 A 
ATOM     61  C   UNL A   1      38.378  30.643  28.927  1.00  0.00     0.131 A 
ATOM     62  C   UNL A   1      40.001  30.925  31.154  1.00  0.00     0.055 A 
ATOM     63  C   UNL A   1      38.051  31.568  29.928  1.00  0.00     0.041 A 
ATOM     64  F   UNL A   1      37.554  30.559  27.872  1.00  0.00    -0.206 F 
ATOM     65  C   UNL A   1      38.851  31.697  31.061  1.00  0.00     0.022 A 
BRANCH  62  66
ATOM     66  S   UNL A   1      41.011  30.993  32.659  1.00  0.00     0.124 S 
ATOM     67  O   UNL A   1      40.544  29.817  33.384  1.00  0.00    -0.237 OA
ATOM     68  O   UNL A   1      42.362  30.912  32.113  1.00  0.00    -0.237 OA
ATOM     69  O   UNL A   1      40.660  32.284  33.245  1.00  0.00    -0.744 OA
ENDBRANCH  62  66
ENDBRANCH  45  59
BRANCH  46  70
ATOM     70  C   UNL A   1      45.497  24.734  31.867  1.00  0.00     0.023 A 
ATOM     71  C   UNL A   1      44.725  24.046  32.815  1.00  0.00     0.031 A 
ATOM     72  C   UNL A   1      46.751  25.214  32.308  1.00  0.00     0.131 A 
ATOM     73  C   UNL A   1      45.162  23.901  34.142  1.00  0.00     0.055 A 
ATOM     74  C   UNL A   1      47.193  25.060  33.634  1.00  0.00     0.041 A 
ATOM     75  F   UNL A   1      47.553  25.902  31.481  1.00  0.00    -0.206 F 
ATOM     76  C   UNL A   1      46.388  24.411  34.564  1.00  0.00     0.022 A 
BRANCH  73  77
ATOM     77  S   UNL A   1      44.085  23.078  35.348  1.00  0.00     0.124 S 
ATOM     78  O   UNL A   1      44.544  23.629  36.621  1.00  0.00    -0.237 OA
ATOM     79  O   UNL A   1      42.764  23.515  34.912  1.00  0.00    -0.237 OA
ATOM     80  O   UNL A   1      44.387  21.663  35.147  1.00  0.00    -0.744 OA
ENDBRANCH  73  77
ENDBRANCH  46  70
BRANCH  58  81
ATOM     81  C   UNL A   1      45.472  27.801  26.364  1.00  0.00     0.023 A 
ATOM     82  C   UNL A   1      45.279  26.457  26.002  1.00  0.00     0.031 A 
ATOM     83  C   UNL A   1      46.637  28.446  25.911  1.00  0.00     0.131 A 
ATOM     84  C   UNL A   1      46.252  25.777  25.268  1.00  0.00     0.055 A 
ATOM     85  C   UNL A   1      47.575  27.780  25.115  1.00  0.00     0.041 A 
ATOM     86  F   UNL A   1      46.940  29.700  26.287  1.00  0.00    -0.206 F 
ATOM     87  C   UNL A   1      47.395  26.434  24.806  1.00  0.00     0.022 A 
BRANCH  84  88
ATOM     88  S   UNL A   1      46.120  23.988  25.028  1.00  0.00     0.124 S 
ATOM     89  O   UNL A   1      46.762  23.465  26.231  1.00  0.00    -0.237 OA
ATOM     90  O   UNL A   1      44.674  23.795  24.955  1.00  0.00    -0.237 OA
ATOM     91  O   UNL A   1      46.841  23.743  23.782  1.00  0.00    -0.744 OA
ENDBRANCH  84  88
ENDBRANCH  58  81
ENDBRANCH  32  33
ENDBRANCH  25  27
ENDBRANCH  24  25
ENDBRANCH  23  24
ENDBRANCH   1  23
TORSDOF 18
ENDMDL
MODEL 2
REMARK VINA RESULT:     -11.9      4.048      9.950
REMARK SMILES Cc1cc2nc(SCC(=O)OCCOC(=O)c3ccc(-c4c5nc(c(-c6cc(S(=O)(=O)[O-])ccc6F)c6ccc([nH]6)c(-c6cc(S(=O)(=O)[O-])ccc6F)c6nc(c(-c7cc(S(=O)(=O)[O-])ccc7F)c7ccc4[nH]7)C=C6)C=C5)cc3)n(CC(C)C)c(=O)c2[nH]1
REMARK SMILES IDX 12 1 11 2 9 3 10 4 8 5 7 6 6 7 1 8 2 9 3 10 88 11 4 12 87 13
REMARK SMILES IDX 5 15 85 16 80 17 86 18 81 19 82 20 83 21 84 22 13 23 14 24
REMARK SMILES IDX 15 25 16 26 17 27 18 28 79 29 19 30 78 31 20 32 21 33 22 34
REMARK SMILES IDX 72 35 23 36 77 37 71 38 73 39 24 40 76 41 70 42 69 43 25 45
REMARK SMILES IDX 57 46 37 47 56 48 38 49 41 50 55 51 74 52 39 53 40 54 54 56
REMARK SMILES IDX 75 57 42 58 26 59 27 60 35 61 28 62 34 63 36 64 33 65 29 66
REMARK SMILES IDX 30 67 31 68 32 69 58 70 59 71 67 72 60 73 66 74 68 75 65 76
REMARK SMILES IDX 61 77 62 78 63 79 64 80 43 81 44 82 52 83 45 84 51 85 53 86
REMARK SMILES IDX 50 87 46 88 47 89 48 90 49 91
REMARK H PARENT 88 14 73 44 41 55
REMARK Flexibility Score: inf
ROOT
ATOM      1  C   UNL A   1      32.508  28.305  23.248  1.00  0.00     0.274 C 
ENDROOT
BRANCH   1   2
ATOM      2  O   UNL A   1      33.705  27.773  22.668  1.00  0.00    -0.461 OA
BRANCH   2   3
ATOM      3  C   UNL A   1      33.625  26.479  22.268  1.00  0.00     0.316 C 
ATOM      4  O   UNL A   1      33.137  26.168  21.190  1.00  0.00    -0.251 OA
BRANCH   3   5
ATOM      5  C   UNL A   1      34.195  25.502  23.311  1.00  0.00     0.200 C 
BRANCH   5   6
ATOM      6  S   UNL A   1      32.856  24.674  24.245  1.00  0.00    -0.076 SA
BRANCH   6   7
ATOM      7  C   UNL A   1      33.375  23.019  24.486  1.00  0.00     0.172 A 
ATOM      8  C   UNL A   1      32.478  17.391  25.369  1.00  0.00     0.064 C 
ATOM      9  C   UNL A   1      32.960  18.656  24.766  1.00  0.00     0.014 A 
ATOM     10  C   UNL A   1      32.468  19.574  23.831  1.00  0.00     0.052 A 
ATOM     11  N   UNL A   1      34.086  19.224  25.311  1.00  0.00    -0.353 N 
ATOM     12  C   UNL A   1      33.148  20.796  24.088  1.00  0.00     0.097 A 
ATOM     13  C   UNL A   1      33.853  20.557  25.221  1.00  0.00     0.131 A 
ATOM     14  H   UNL A   1      34.878  18.771  25.680  1.00  0.00     0.166 HD
ATOM     15  N   UNL A   1      32.845  22.112  23.701  1.00  0.00    -0.222 NA
ATOM     16  C   UNL A   1      34.002  21.542  26.212  1.00  0.00     0.278 A 
ATOM     17  N   UNL A   1      34.101  22.796  25.672  1.00  0.00    -0.286 N 
ATOM     18  O   UNL A   1      33.902  21.313  27.402  1.00  0.00    -0.267 OA
BRANCH  17  19
ATOM     19  C   UNL A   1      35.301  23.508  26.122  1.00  0.00     0.131 C 
BRANCH  19  20
ATOM     20  C   UNL A   1      36.765  23.031  25.842  1.00  0.00     0.003 C 
ATOM     21  C   UNL A   1      37.074  22.761  24.364  1.00  0.00     0.009 C 
ATOM     22  C   UNL A   1      37.859  24.071  26.194  1.00  0.00     0.009 C 
ENDBRANCH  19  20
ENDBRANCH  17  19
ENDBRANCH   6   7
ENDBRANCH   5   6
ENDBRANCH   3   5
ENDBRANCH   2   3
ENDBRANCH   1   2
BRANCH   1  23
ATOM     23  C   UNL A   1      32.806  29.167  24.480  1.00  0.00     0.275 C 
BRANCH  23  24
ATOM     24  O   UNL A   1      31.751  29.747  25.328  1.00  0.00    -0.458 OA
BRANCH  24  25
ATOM     25  C   UNL A   1      31.945  30.817  26.165  1.00  0.00     0.338 C 
ATOM     26  O   UNL A   1      31.180  31.770  26.181  1.00  0.00    -0.246 OA
BRANCH  25  27
ATOM     27  C   UNL A   1      33.162  30.822  27.081  1.00  0.00     0.060 A 
ATOM     28  C   UNL A   1      33.654  32.062  27.549  1.00  0.00     0.016 A 
ATOM     29  C   UNL A   1      33.931  29.698  27.376  1.00  0.00     0.016 A 
ATOM     30  C   UNL A   1      34.954  32.193  28.111  1.00  0.00     0.010 A 
ATOM     31  C   UNL A   1      35.246  29.838  27.897  1.00  0.00     0.010 A 
ATOM     32  C   UNL A   1      35.817  31.092  28.209  1.00  0.00    -0.014 A 
BRANCH  32  33
ATOM     33  C   UNL A   1      37.165  31.218  28.866  1.00  0.00     0.031 A 
ATOM     34  C   UNL A   1      37.903  29.945  28.769  1.00  0.00     0.074 A 
ATOM     35  C   UNL A   1      37.907  32.260  29.337  1.00  0.00     0.049 A 
ATOM     36  N   UNL A   1      37.950  28.987  29.634  1.00  0.00    -0.248 NA
ATOM     37  C   UNL A   1      38.465  29.624  27.450  1.00  0.00     0.031 C 
ATOM     38  C   UNL A   1      37.653  33.672  29.128  1.00  0.00     0.029 A 
ATOM     39  N   UNL A   1      39.109  32.297  30.030  1.00  0.00    -0.354 N 
ATOM     40  C   UNL A   1      38.740  28.029  29.016  1.00  0.00     0.074 A 
ATOM     41  C   UNL A   1      38.707  28.325  27.606  1.00  0.00     0.031 C 
ATOM     42  C   UNL A   1      38.690  34.430  29.547  1.00  0.00     0.029 A 
ATOM     43  C   UNL A   1      39.700  33.568  30.130  1.00  0.00     0.049 A 
ATOM     44  H   UNL A   1      39.518  31.492  30.422  1.00  0.00     0.167 HD
ATOM     45  C   UNL A   1      39.674  27.306  29.692  1.00  0.00     0.034 A 
ATOM     46  C   UNL A   1      40.933  33.921  30.597  1.00  0.00     0.034 A 
ATOM     47  C   UNL A   1      39.548  27.449  31.115  1.00  0.00     0.049 A 
ATOM     48  C   UNL A   1      41.478  32.799  31.383  1.00  0.00     0.074 A 
ATOM     49  C   UNL A   1      38.563  27.205  32.047  1.00  0.00     0.029 A 
ATOM     50  N   UNL A   1      40.467  28.274  31.715  1.00  0.00    -0.354 N 
ATOM     51  N   UNL A   1      41.038  32.432  32.551  1.00  0.00    -0.248 NA
ATOM     52  C   UNL A   1      42.342  31.845  30.706  1.00  0.00     0.031 C 
ATOM     53  C   UNL A   1      38.752  28.175  33.070  1.00  0.00     0.029 A 
ATOM     54  C   UNL A   1      39.865  28.951  32.741  1.00  0.00     0.049 A 
ATOM     55  H   UNL A   1      41.411  28.364  31.448  1.00  0.00     0.167 HD
ATOM     56  C   UNL A   1      41.171  31.056  32.536  1.00  0.00     0.074 A 
ATOM     57  C   UNL A   1      42.115  30.771  31.464  1.00  0.00     0.031 C 
ATOM     58  C   UNL A   1      40.264  30.273  33.181  1.00  0.00     0.034 A 
BRANCH  45  59
ATOM     59  C   UNL A   1      40.942  26.826  29.034  1.00  0.00     0.023 A 
ATOM     60  C   UNL A   1      41.153  25.474  28.695  1.00  0.00     0.031 A 
ATOM     61  C   UNL A   1      41.901  27.733  28.562  1.00  0.00     0.131 A 
ATOM     62  C   UNL A   1      42.309  25.043  28.048  1.00  0.00     0.055 A 
ATOM     63  C   UNL A   1      43.015  27.317  27.819  1.00  0.00     0.041 A 
ATOM     64  F   UNL A   1      41.758  29.051  28.771  1.00  0.00    -0.206 F 
ATOM     65  C   UNL A   1      43.237  25.963  27.578  1.00  0.00     0.022 A 
BRANCH  62  66
ATOM     66  S   UNL A   1      42.619  23.267  27.841  1.00  0.00     0.124 S 
ATOM     67  O   UNL A   1      43.103  22.893  29.165  1.00  0.00    -0.237 OA
ATOM     68  O   UNL A   1      41.292  22.776  27.482  1.00  0.00    -0.237 OA
ATOM     69  O   UNL A   1      43.606  23.218  26.765  1.00  0.00    -0.744 OA
ENDBRANCH  62  66
ENDBRANCH  45  59
BRANCH  46  70
ATOM     70  C   UNL A   1      41.815  35.065  30.211  1.00  0.00     0.023 A 
ATOM     71  C   UNL A   1      41.960  35.405  28.858  1.00  0.00     0.031 A 
ATOM     72  C   UNL A   1      42.745  35.642  31.106  1.00  0.00     0.131 A 
ATOM     73  C   UNL A   1      43.012  36.229  28.423  1.00  0.00     0.055 A 
ATOM     74  C   UNL A   1      43.792  36.475  30.672  1.00  0.00     0.041 A 
ATOM     75  F   UNL A   1      42.702  35.361  32.417  1.00  0.00    -0.206 F 
ATOM     76  C   UNL A   1      43.937  36.761  29.320  1.00  0.00     0.022 A 
BRANCH  73  77
ATOM     77  S   UNL A   1      43.203  36.567  26.651  1.00  0.00     0.124 S 
ATOM     78  O   UNL A   1      44.640  36.790  26.517  1.00  0.00    -0.237 OA
ATOM     79  O   UNL A   1      42.699  35.334  26.058  1.00  0.00    -0.237 OA
ATOM     80  O   UNL A   1      42.376  37.755  26.451  1.00  0.00    -0.744 OA
ENDBRANCH  73  77
ENDBRANCH  46  70
BRANCH  58  81
ATOM     81  C   UNL A   1      39.446  30.886  34.286  1.00  0.00     0.023 A 
ATOM     82  C   UNL A   1      38.347  31.663  33.880  1.00  0.00     0.031 A 
ATOM     83  C   UNL A   1      39.802  30.907  35.647  1.00  0.00     0.131 A 
ATOM     84  C   UNL A   1      37.678  32.474  34.797  1.00  0.00     0.055 A 
ATOM     85  C   UNL A   1      39.082  31.667  36.576  1.00  0.00     0.041 A 
ATOM     86  F   UNL A   1      40.891  30.265  36.101  1.00  0.00    -0.206 F 
ATOM     87  C   UNL A   1      38.027  32.470  36.150  1.00  0.00     0.022 A 
BRANCH  84  88
ATOM     88  S   UNL A   1      36.439  33.661  34.221  1.00  0.00     0.124 S 
ATOM     89  O   UNL A   1      36.014  33.075  32.953  1.00  0.00    -0.237 OA
ATOM     90  O   UNL A   1      35.451  33.616  35.295  1.00  0.00    -0.237 OA
ATOM     91  O   UNL A   1      37.177  34.916  34.110  1.00  0.00    -0.744 OA
ENDBRANCH  84  88
ENDBRANCH  58  81
ENDBRANCH  32  33
ENDBRANCH  25  27
ENDBRANCH  24  25
ENDBRANCH  23  24
ENDBRANCH   1  23
TORSDOF 18
ENDMDL
MODEL 3
REMARK VINA RESULT:     -11.6      4.193      9.801
REMARK SMILES Cc1cc2nc(SCC(=O)OCCOC(=O)c3ccc(-c4c5nc(c(-c6cc(S(=O)(=O)[O-])ccc6F)c6ccc([nH]6)c(-c6cc(S(=O)(=O)[O-])ccc6F)c6nc(c(-c7cc(S(=O)(=O)[O-])ccc7F)c7ccc4[nH]7)C=C6)C=C5)cc3)n(CC(C)C)c(=O)c2[nH]1
REMARK SMILES IDX 12 1 11 2 9 3 10 4 8 5 7 6 6 7 1 8 2 9 3 10 88 11 4 12 87 13
REMARK SMILES IDX 5 15 85 16 80 17 86 18 81 19 82 20 83 21 84 22 13 23 14 24
REMARK SMILES IDX 15 25 16 26 17 27 18 28 79 29 19 30 78 31 20 32 21 33 22 34
REMARK SMILES IDX 72 35 23 36 77 37 71 38 73 39 24 40 76 41 70 42 69 43 25 45
REMARK SMILES IDX 57 46 37 47 56 48 38 49 41 50 55 51 74 52 39 53 40 54 54 56
REMARK SMILES IDX 75 57 42 58 26 59 27 60 35 61 28 62 34 63 36 64 33 65 29 66
REMARK SMILES IDX 30 67 31 68 32 69 58 70 59 71 67 72 60 73 66 74 68 75 65 76
REMARK SMILES IDX 61 77 62 78 63 79 64 80 43 81 44 82 52 83 45 84 51 85 53 86
REMARK SMILES IDX 50 87 46 88 47 89 48 90 49 91
REMARK H PARENT 88 14 73 44 41 55
REMARK Flexibility Score: inf
ROOT
ATOM      1  C   UNL A   1      30.438  28.336  23.714  1.00  0.00     0.274 C 
ENDROOT
BRANCH   1   2
ATOM      2  O   UNL A   1      31.013  27.695  22.570  1.00  0.00    -0.461 OA
BRANCH   2   3
ATOM      3  C   UNL A   1      32.204  27.084  22.790  1.00  0.00     0.316 C 
ATOM      4  O   UNL A   1      33.256  27.566  22.391  1.00  0.00    -0.251 OA
BRANCH   3   5
ATOM      5  C   UNL A   1      32.057  25.762  23.561  1.00  0.00     0.200 C 
BRANCH   5   6
ATOM      6  S   UNL A   1      32.622  24.341  22.554  1.00  0.00    -0.076 SA
BRANCH   6   7
ATOM      7  C   UNL A   1      33.575  23.330  23.621  1.00  0.00     0.172 A 
ATOM      8  C   UNL A   1      37.853  19.650  24.809  1.00  0.00     0.064 C 
ATOM      9  C   UNL A   1      36.977  20.844  24.857  1.00  0.00     0.014 A 
ATOM     10  C   UNL A   1      36.924  22.078  24.199  1.00  0.00     0.052 A 
ATOM     11  N   UNL A   1      35.818  20.745  25.589  1.00  0.00    -0.353 N 
ATOM     12  C   UNL A   1      35.581  22.527  24.317  1.00  0.00     0.097 A 
ATOM     13  C   UNL A   1      34.926  21.483  24.884  1.00  0.00     0.131 A 
ATOM     14  H   UNL A   1      35.670  20.255  26.430  1.00  0.00     0.166 HD
ATOM     15  N   UNL A   1      34.874  23.505  23.599  1.00  0.00    -0.222 NA
ATOM     16  C   UNL A   1      33.618  21.143  24.498  1.00  0.00     0.278 A 
ATOM     17  N   UNL A   1      32.874  22.251  24.193  1.00  0.00    -0.286 N 
ATOM     18  O   UNL A   1      33.251  19.998  24.316  1.00  0.00    -0.267 OA
BRANCH  17  19
ATOM     19  C   UNL A   1      31.620  22.312  24.950  1.00  0.00     0.131 C 
BRANCH  19  20
ATOM     20  C   UNL A   1      31.395  23.216  26.208  1.00  0.00     0.003 C 
ATOM     21  C   UNL A   1      30.049  23.002  26.912  1.00  0.00     0.009 C 
ATOM     22  C   UNL A   1      32.389  22.961  27.370  1.00  0.00     0.009 C 
ENDBRANCH  19  20
ENDBRANCH  17  19
ENDBRANCH   6   7
ENDBRANCH   5   6
ENDBRANCH   3   5
ENDBRANCH   2   3
ENDBRANCH   1   2
BRANCH   1  23
ATOM     23  C   UNL A   1      31.401  29.348  24.345  1.00  0.00     0.275 C 
BRANCH  23  24
ATOM     24  O   UNL A   1      31.368  29.705  25.773  1.00  0.00    -0.458 OA
BRANCH  24  25
ATOM     25  C   UNL A   1      31.832  30.895  26.275  1.00  0.00     0.338 C 
ATOM     26  O   UNL A   1      31.289  31.959  26.017  1.00  0.00    -0.246 OA
BRANCH  25  27
ATOM     27  C   UNL A   1      33.074  30.886  27.157  1.00  0.00     0.060 A 
ATOM     28  C   UNL A   1      33.568  32.117  27.646  1.00  0.00     0.016 A 
ATOM     29  C   UNL A   1      33.859  29.761  27.401  1.00  0.00     0.016 A 
ATOM     30  C   UNL A   1      34.881  32.244  28.177  1.00  0.00     0.010 A 
ATOM     31  C   UNL A   1      35.186  29.898  27.891  1.00  0.00     0.010 A 
ATOM     32  C   UNL A   1      35.755  31.148  28.221  1.00  0.00    -0.014 A 
BRANCH  32  33
ATOM     33  C   UNL A   1      37.119  31.268  28.845  1.00  0.00     0.031 A 
ATOM     34  C   UNL A   1      37.872  30.011  28.675  1.00  0.00     0.074 A 
ATOM     35  C   UNL A   1      37.860  32.300  29.339  1.00  0.00     0.049 A 
ATOM     36  N   UNL A   1      37.957  29.019  29.499  1.00  0.00    -0.248 NA
ATOM     37  C   UNL A   1      38.402  29.753  27.329  1.00  0.00     0.031 C 
ATOM     38  C   UNL A   1      37.580  33.716  29.196  1.00  0.00     0.029 A 
ATOM     39  N   UNL A   1      39.080  32.327  29.999  1.00  0.00    -0.354 N 
ATOM     40  C   UNL A   1      38.743  28.099  28.820  1.00  0.00     0.074 A 
ATOM     41  C   UNL A   1      38.666  28.453  27.425  1.00  0.00     0.031 C 
ATOM     42  C   UNL A   1      38.618  34.472  29.617  1.00  0.00     0.029 A 
ATOM     43  C   UNL A   1      39.655  33.602  30.136  1.00  0.00     0.049 A 
ATOM     44  H   UNL A   1      39.511  31.513  30.347  1.00  0.00     0.167 HD
ATOM     45  C   UNL A   1      39.705  27.363  29.439  1.00  0.00     0.034 A 
ATOM     46  C   UNL A   1      40.896  33.955  30.583  1.00  0.00     0.034 A 
ATOM     47  C   UNL A   1      39.618  27.446  30.870  1.00  0.00     0.049 A 
ATOM     48  C   UNL A   1      41.479  32.810  31.306  1.00  0.00     0.074 A 
ATOM     49  C   UNL A   1      38.663  27.149  31.817  1.00  0.00     0.029 A 
ATOM     50  N   UNL A   1      40.542  28.260  31.478  1.00  0.00    -0.354 N 
ATOM     51  N   UNL A   1      41.077  32.388  32.469  1.00  0.00    -0.248 NA
ATOM     52  C   UNL A   1      42.336  31.897  30.567  1.00  0.00     0.031 C 
ATOM     53  C   UNL A   1      38.867  28.079  32.874  1.00  0.00     0.029 A 
ATOM     54  C   UNL A   1      39.959  28.885  32.548  1.00  0.00     0.049 A 
ATOM     55  H   UNL A   1      41.476  28.375  31.189  1.00  0.00     0.167 HD
ATOM     56  C   UNL A   1      41.230  31.016  32.394  1.00  0.00     0.074 A 
ATOM     57  C   UNL A   1      42.146  30.789  31.285  1.00  0.00     0.031 C 
ATOM     58  C   UNL A   1      40.352  30.193  33.030  1.00  0.00     0.034 A 
BRANCH  45  59
ATOM     59  C   UNL A   1      40.962  26.930  28.727  1.00  0.00     0.023 A 
ATOM     60  C   UNL A   1      42.046  27.803  28.510  1.00  0.00     0.031 A 
ATOM     61  C   UNL A   1      41.184  25.583  28.406  1.00  0.00     0.131 A 
ATOM     62  C   UNL A   1      43.223  27.386  27.890  1.00  0.00     0.055 A 
ATOM     63  C   UNL A   1      42.404  25.139  27.878  1.00  0.00     0.041 A 
ATOM     64  F   UNL A   1      40.241  24.659  28.639  1.00  0.00    -0.206 F 
ATOM     65  C   UNL A   1      43.424  26.044  27.594  1.00  0.00     0.022 A 
BRANCH  62  66
ATOM     66  S   UNL A   1      44.488  28.606  27.440  1.00  0.00     0.124 S 
ATOM     67  O   UNL A   1      43.768  29.445  26.490  1.00  0.00    -0.237 OA
ATOM     68  O   UNL A   1      44.785  29.214  28.733  1.00  0.00    -0.237 OA
ATOM     69  O   UNL A   1      45.563  27.789  26.882  1.00  0.00    -0.744 OA
ENDBRANCH  62  66
ENDBRANCH  45  59
BRANCH  46  70
ATOM     70  C   UNL A   1      41.751  35.126  30.221  1.00  0.00     0.023 A 
ATOM     71  C   UNL A   1      41.887  35.498  28.874  1.00  0.00     0.031 A 
ATOM     72  C   UNL A   1      42.667  35.707  31.127  1.00  0.00     0.131 A 
ATOM     73  C   UNL A   1      42.919  36.355  28.457  1.00  0.00     0.055 A 
ATOM     74  C   UNL A   1      43.693  36.573  30.711  1.00  0.00     0.041 A 
ATOM     75  F   UNL A   1      42.631  35.398  32.433  1.00  0.00    -0.206 F 
ATOM     76  C   UNL A   1      43.831  36.891  29.364  1.00  0.00     0.022 A 
BRANCH  73  77
ATOM     77  S   UNL A   1      43.100  36.734  26.692  1.00  0.00     0.124 S 
ATOM     78  O   UNL A   1      42.696  35.486  26.050  1.00  0.00    -0.237 OA
ATOM     79  O   UNL A   1      42.178  37.852  26.533  1.00  0.00    -0.237 OA
ATOM     80  O   UNL A   1      44.520  37.056  26.569  1.00  0.00    -0.744 OA
ENDBRANCH  73  77
ENDBRANCH  46  70
BRANCH  58  81
ATOM     81  C   UNL A   1      39.557  30.748  34.183  1.00  0.00     0.023 A 
ATOM     82  C   UNL A   1      38.432  31.518  33.840  1.00  0.00     0.031 A 
ATOM     83  C   UNL A   1      39.954  30.724  35.532  1.00  0.00     0.131 A 
ATOM     84  C   UNL A   1      37.776  32.280  34.807  1.00  0.00     0.055 A 
ATOM     85  C   UNL A   1      39.249  31.434  36.510  1.00  0.00     0.041 A 
ATOM     86  F   UNL A   1      41.068  30.087  35.928  1.00  0.00    -0.206 F 
ATOM     87  C   UNL A   1      38.166  32.232  36.147  1.00  0.00     0.022 A 
BRANCH  84  88
ATOM     88  S   UNL A   1      36.498  33.463  34.314  1.00  0.00     0.124 S 
ATOM     89  O   UNL A   1      35.689  33.568  35.525  1.00  0.00    -0.237 OA
ATOM     90  O   UNL A   1      37.289  34.646  33.984  1.00  0.00    -0.237 OA
ATOM     91  O   UNL A   1      35.840  32.822  33.179  1.00  0.00    -0.744 OA
ENDBRANCH  84  88
ENDBRANCH  58  81
ENDBRANCH  32  33
ENDBRANCH  25  27
ENDBRANCH  24  25
ENDBRANCH  23  24
ENDBRANCH   1  23
TORSDOF 18
ENDMDL
