MODEL 1
REMARK VINA RESULT:     -11.5      0.000      0.000
REMARK SMILES O=C(OCCOC(=O)c1ccccc1C[NH2+]C1CCCC1)c1ccc(-c2c3nc(c(-c4cc(S(=O)(=O)[O-])ccc4F)c4ccc([nH]4)c(-c4cc(S(=O)(=O)[O-])ccc4F)c4nc(c(-c5cc(S(=O)(=O)[O-])ccc5F)c5ccc2[nH]5)C=C4)C=C3)cc1
REMARK SMILES IDX 4 1 3 2 2 3 1 4 22 5 23 6 84 7 24 8 83 9 25 10 26 11 27 12
REMARK SMILES IDX 77 13 28 14 82 15 76 16 78 17 29 18 81 19 75 20 74 21 30 23
REMARK SMILES IDX 62 24 42 25 61 26 43 27 46 28 60 29 79 30 44 31 45 32 59 34
REMARK SMILES IDX 80 35 47 36 31 37 32 38 40 39 33 40 39 41 41 42 38 43 34 44
REMARK SMILES IDX 35 45 36 46 37 47 63 48 64 49 72 50 65 51 71 52 73 53 70 54
REMARK SMILES IDX 66 55 67 56 68 57 69 58 48 59 49 60 57 61 50 62 56 63 58 64
REMARK SMILES IDX 55 65 51 66 52 67 53 68 54 69 5 70 6 71 7 72 8 73 9 74 10 75
REMARK SMILES IDX 14 76 11 77 13 78 12 79 15 80 16 81 17 84 18 85 21 86 19 87
REMARK SMILES IDX 20 88
REMARK H PARENT 78 22 46 33 16 82 16 83
REMARK Flexibility Score: inf
ROOT
ATOM      1  C   UNL A   1      31.347  31.979  26.787  1.00  0.00     0.275 C 
ENDROOT
BRANCH   1   2
ATOM      2  O   UNL A   1      32.329  33.030  26.770  1.00  0.00    -0.458 OA
BRANCH   2   3
ATOM      3  C   UNL A   1      33.129  33.520  27.749  1.00  0.00     0.338 C 
ATOM      4  O   UNL A   1      32.866  34.644  28.184  1.00  0.00    -0.246 OA
BRANCH   3   5
ATOM      5  C   UNL A   1      34.345  32.831  28.309  1.00  0.00     0.060 A 
ATOM      6  C   UNL A   1      34.400  31.539  28.836  1.00  0.00     0.016 A 
ATOM      7  C   UNL A   1      35.548  33.568  28.284  1.00  0.00     0.016 A 
ATOM      8  C   UNL A   1      35.604  30.985  29.279  1.00  0.00     0.010 A 
ATOM      9  C   UNL A   1      36.759  33.021  28.730  1.00  0.00     0.010 A 
ATOM     10  C   UNL A   1      36.788  31.722  29.239  1.00  0.00    -0.014 A 
BRANCH  10  11
ATOM     11  C   UNL A   1      37.993  31.157  29.891  1.00  0.00     0.031 A 
ATOM     12  C   UNL A   1      38.275  31.553  31.301  1.00  0.00     0.074 A 
ATOM     13  C   UNL A   1      38.734  30.218  29.274  1.00  0.00     0.049 A 
ATOM     14  N   UNL A   1      39.212  31.125  32.100  1.00  0.00    -0.248 NA
ATOM     15  C   UNL A   1      37.372  32.552  31.892  1.00  0.00     0.031 C 
ATOM     16  C   UNL A   1      38.474  29.748  27.925  1.00  0.00     0.029 A 
ATOM     17  N   UNL A   1      39.814  29.474  29.670  1.00  0.00    -0.354 N 
ATOM     18  C   UNL A   1      38.999  31.783  33.302  1.00  0.00     0.074 A 
ATOM     19  C   UNL A   1      37.881  32.681  33.107  1.00  0.00     0.031 C 
ATOM     20  C   UNL A   1      39.348  28.787  27.594  1.00  0.00     0.029 A 
ATOM     21  C   UNL A   1      40.265  28.595  28.707  1.00  0.00     0.049 A 
ATOM     22  H   UNL A   1      40.229  29.560  30.559  1.00  0.00     0.167 HD
ATOM     23  C   UNL A   1      39.673  31.630  34.466  1.00  0.00     0.034 A 
ATOM     24  C   UNL A   1      41.311  27.743  28.724  1.00  0.00     0.034 A 
ATOM     25  C   UNL A   1      40.820  30.769  34.598  1.00  0.00     0.049 A 
ATOM     26  C   UNL A   1      42.120  27.686  29.995  1.00  0.00     0.074 A 
ATOM     27  C   UNL A   1      41.651  30.594  35.688  1.00  0.00     0.029 A 
ATOM     28  N   UNL A   1      41.309  29.944  33.588  1.00  0.00    -0.354 N 
ATOM     29  N   UNL A   1      41.925  28.337  31.121  1.00  0.00    -0.248 NA
ATOM     30  C   UNL A   1      43.278  26.788  30.008  1.00  0.00     0.031 C 
ATOM     31  C   UNL A   1      42.674  29.713  35.317  1.00  0.00     0.029 A 
ATOM     32  C   UNL A   1      42.439  29.273  34.023  1.00  0.00     0.049 A 
ATOM     33  H   UNL A   1      40.907  29.851  32.693  1.00  0.00     0.167 HD
ATOM     34  C   UNL A   1      42.926  27.912  31.985  1.00  0.00     0.074 A 
ATOM     35  C   UNL A   1      43.700  26.924  31.257  1.00  0.00     0.031 C 
ATOM     36  C   UNL A   1      43.190  28.301  33.260  1.00  0.00     0.034 A 
BRANCH  23  37
ATOM     37  C   UNL A   1      39.206  32.474  35.622  1.00  0.00     0.023 A 
ATOM     38  C   UNL A   1      39.574  33.828  35.732  1.00  0.00     0.031 A 
ATOM     39  C   UNL A   1      38.492  31.895  36.684  1.00  0.00     0.131 A 
ATOM     40  C   UNL A   1      39.312  34.529  36.918  1.00  0.00     0.055 A 
ATOM     41  C   UNL A   1      38.156  32.626  37.826  1.00  0.00     0.041 A 
ATOM     42  F   UNL A   1      38.147  30.599  36.650  1.00  0.00    -0.206 F 
ATOM     43  C   UNL A   1      38.583  33.945  37.956  1.00  0.00     0.022 A 
BRANCH  40  44
ATOM     44  S   UNL A   1      40.092  36.151  37.154  1.00  0.00     0.124 S 
ATOM     45  O   UNL A   1      41.466  35.772  37.477  1.00  0.00    -0.237 OA
ATOM     46  O   UNL A   1      39.895  36.790  35.858  1.00  0.00    -0.237 OA
ATOM     47  O   UNL A   1      39.337  36.736  38.260  1.00  0.00    -0.744 OA
ENDBRANCH  40  44
ENDBRANCH  23  37
BRANCH  24  48
ATOM     48  C   UNL A   1      41.685  26.933  27.520  1.00  0.00     0.023 A 
ATOM     49  C   UNL A   1      41.431  25.552  27.448  1.00  0.00     0.031 A 
ATOM     50  C   UNL A   1      42.380  27.520  26.445  1.00  0.00     0.131 A 
ATOM     51  C   UNL A   1      41.916  24.801  26.361  1.00  0.00     0.055 A 
ATOM     52  C   UNL A   1      42.802  26.782  25.336  1.00  0.00     0.041 A 
ATOM     53  F   UNL A   1      42.665  28.832  26.454  1.00  0.00    -0.206 F 
ATOM     54  C   UNL A   1      42.587  25.409  25.300  1.00  0.00     0.022 A 
BRANCH  51  55
ATOM     55  S   UNL A   1      41.770  22.991  26.414  1.00  0.00     0.124 S 
ATOM     56  O   UNL A   1      42.410  22.603  25.162  1.00  0.00    -0.237 OA
ATOM     57  O   UNL A   1      42.499  22.665  27.635  1.00  0.00    -0.237 OA
ATOM     58  O   UNL A   1      40.327  22.767  26.472  1.00  0.00    -0.744 OA
ENDBRANCH  51  55
ENDBRANCH  24  48
BRANCH  36  59
ATOM     59  C   UNL A   1      44.343  27.611  33.941  1.00  0.00     0.023 A 
ATOM     60  C   UNL A   1      44.169  26.407  34.644  1.00  0.00     0.031 A 
ATOM     61  C   UNL A   1      45.625  28.184  33.907  1.00  0.00     0.131 A 
ATOM     62  C   UNL A   1      45.247  25.850  35.345  1.00  0.00     0.055 A 
ATOM     63  C   UNL A   1      46.711  27.585  34.543  1.00  0.00     0.041 A 
ATOM     64  F   UNL A   1      45.842  29.336  33.253  1.00  0.00    -0.206 F 
ATOM     65  C   UNL A   1      46.521  26.421  35.281  1.00  0.00     0.022 A 
BRANCH  62  66
ATOM     66  S   UNL A   1      44.934  24.436  36.435  1.00  0.00     0.124 S 
ATOM     67  O   UNL A   1      44.225  23.522  35.545  1.00  0.00    -0.237 OA
ATOM     68  O   UNL A   1      46.283  24.034  36.819  1.00  0.00    -0.237 OA
ATOM     69  O   UNL A   1      44.126  25.006  37.511  1.00  0.00    -0.744 OA
ENDBRANCH  62  66
ENDBRANCH  36  59
ENDBRANCH  10  11
ENDBRANCH   3   5
ENDBRANCH   2   3
ENDBRANCH   1   2
BRANCH   1  70
ATOM     70  C   UNL A   1      31.945  30.575  26.725  1.00  0.00     0.275 C 
BRANCH  70  71
ATOM     71  O   UNL A   1      31.947  30.058  25.390  1.00  0.00    -0.458 OA
BRANCH  71  72
ATOM     72  C   UNL A   1      32.590  28.880  25.193  1.00  0.00     0.338 C 
ATOM     73  O   UNL A   1      33.795  28.692  25.231  1.00  0.00    -0.246 OA
BRANCH  72  74
ATOM     74  C   UNL A   1      31.598  27.802  24.976  1.00  0.00     0.068 A 
ATOM     75  C   UNL A   1      31.185  27.095  26.114  1.00  0.00     0.016 A 
ATOM     76  C   UNL A   1      31.081  27.486  23.700  1.00  0.00     0.021 A 
ATOM     77  C   UNL A   1      30.225  26.090  26.005  1.00  0.00     0.001 A 
ATOM     78  C   UNL A   1      30.165  26.423  23.609  1.00  0.00     0.010 A 
ATOM     79  C   UNL A   1      29.723  25.749  24.753  1.00  0.00     0.001 A 
BRANCH  76  80
ATOM     80  C   UNL A   1      31.359  28.390  22.518  1.00  0.00     0.298 C 
BRANCH  80  81
ATOM     81  N   UNL A   1      31.031  29.798  22.684  1.00  0.00    -0.340 N 
ATOM     82  H   UNL A   1      31.353  30.308  21.861  1.00  0.00     0.346 HD
ATOM     83  H   UNL A   1      31.491  30.124  23.533  1.00  0.00     0.346 HD
BRANCH  81  84
ATOM     84  C   UNL A   1      29.584  30.030  22.845  1.00  0.00     0.182 C 
ATOM     85  C   UNL A   1      29.094  31.118  23.819  1.00  0.00     0.065 C 
ATOM     86  C   UNL A   1      28.919  30.466  21.536  1.00  0.00     0.065 C 
ATOM     87  C   UNL A   1      27.634  31.309  23.448  1.00  0.00     0.006 C 
ATOM     88  C   UNL A   1      27.571  31.071  21.941  1.00  0.00     0.006 C 
ENDBRANCH  81  84
ENDBRANCH  80  81
ENDBRANCH  76  80
ENDBRANCH  72  74
ENDBRANCH  71  72
ENDBRANCH  70  71
ENDBRANCH   1  70
TORSDOF 17
ENDMDL
MODEL 2
REMARK VINA RESULT:     -11.4      3.619      5.905
REMARK SMILES O=C(OCCOC(=O)c1ccccc1C[NH2+]C1CCCC1)c1ccc(-c2c3nc(c(-c4cc(S(=O)(=O)[O-])ccc4F)c4ccc([nH]4)c(-c4cc(S(=O)(=O)[O-])ccc4F)c4nc(c(-c5cc(S(=O)(=O)[O-])ccc5F)c5ccc2[nH]5)C=C4)C=C3)cc1
REMARK SMILES IDX 4 1 3 2 2 3 1 4 22 5 23 6 84 7 24 8 83 9 25 10 26 11 27 12
REMARK SMILES IDX 77 13 28 14 82 15 76 16 78 17 29 18 81 19 75 20 74 21 30 23
REMARK SMILES IDX 62 24 42 25 61 26 43 27 46 28 60 29 79 30 44 31 45 32 59 34
REMARK SMILES IDX 80 35 47 36 31 37 32 38 40 39 33 40 39 41 41 42 38 43 34 44
REMARK SMILES IDX 35 45 36 46 37 47 63 48 64 49 72 50 65 51 71 52 73 53 70 54
REMARK SMILES IDX 66 55 67 56 68 57 69 58 48 59 49 60 57 61 50 62 56 63 58 64
REMARK SMILES IDX 55 65 51 66 52 67 53 68 54 69 5 70 6 71 7 72 8 73 9 74 10 75
REMARK SMILES IDX 14 76 11 77 13 78 12 79 15 80 16 81 17 84 18 85 21 86 19 87
REMARK SMILES IDX 20 88
REMARK H PARENT 78 22 46 33 16 82 16 83
REMARK Flexibility Score: inf
ROOT
ATOM      1  C   UNL A   1      33.334  33.437  28.004  1.00  0.00     0.275 C 
ENDROOT
BRANCH   1   2
ATOM      2  O   UNL A   1      34.061  32.450  27.252  1.00  0.00    -0.458 OA
BRANCH   2   3
ATOM      3  C   UNL A   1      34.222  31.118  27.448  1.00  0.00     0.338 C 
ATOM      4  O   UNL A   1      33.259  30.390  27.197  1.00  0.00    -0.246 OA
BRANCH   3   5
ATOM      5  C   UNL A   1      35.458  30.461  28.001  1.00  0.00     0.060 A 
ATOM      6  C   UNL A   1      35.535  29.656  29.140  1.00  0.00     0.016 A 
ATOM      7  C   UNL A   1      36.655  30.674  27.283  1.00  0.00     0.016 A 
ATOM      8  C   UNL A   1      36.735  29.054  29.527  1.00  0.00     0.010 A 
ATOM      9  C   UNL A   1      37.864  30.078  27.666  1.00  0.00     0.010 A 
ATOM     10  C   UNL A   1      37.908  29.267  28.801  1.00  0.00    -0.014 A 
BRANCH  10  11
ATOM     11  C   UNL A   1      39.184  28.759  29.358  1.00  0.00     0.031 A 
ATOM     12  C   UNL A   1      39.667  29.342  30.644  1.00  0.00     0.074 A 
ATOM     13  C   UNL A   1      39.817  27.716  28.790  1.00  0.00     0.049 A 
ATOM     14  N   UNL A   1      40.700  29.000  31.361  1.00  0.00    -0.248 NA
ATOM     15  C   UNL A   1      38.870  30.446  31.200  1.00  0.00     0.031 C 
ATOM     16  C   UNL A   1      39.365  27.067  27.573  1.00  0.00     0.029 A 
ATOM     17  N   UNL A   1      40.931  26.999  29.140  1.00  0.00    -0.354 N 
ATOM     18  C   UNL A   1      40.666  29.830  32.472  1.00  0.00     0.074 A 
ATOM     19  C   UNL A   1      39.546  30.729  32.302  1.00  0.00     0.031 C 
ATOM     20  C   UNL A   1      40.169  26.039  27.270  1.00  0.00     0.029 A 
ATOM     21  C   UNL A   1      41.230  25.975  28.264  1.00  0.00     0.049 A 
ATOM     22  H   UNL A   1      41.468  27.196  29.942  1.00  0.00     0.167 HD
ATOM     23  C   UNL A   1      41.495  29.821  33.543  1.00  0.00     0.034 A 
ATOM     24  C   UNL A   1      42.255  25.099  28.262  1.00  0.00     0.034 A 
ATOM     25  C   UNL A   1      42.636  28.948  33.641  1.00  0.00     0.049 A 
ATOM     26  C   UNL A   1      43.234  25.196  29.406  1.00  0.00     0.074 A 
ATOM     27  C   UNL A   1      43.609  28.902  34.622  1.00  0.00     0.029 A 
ATOM     28  N   UNL A   1      42.966  27.971  32.706  1.00  0.00    -0.354 N 
ATOM     29  N   UNL A   1      43.207  26.008  30.440  1.00  0.00    -0.248 NA
ATOM     30  C   UNL A   1      44.368  24.269  29.392  1.00  0.00     0.031 C 
ATOM     31  C   UNL A   1      44.556  27.942  34.248  1.00  0.00     0.029 A 
ATOM     32  C   UNL A   1      44.136  27.330  33.076  1.00  0.00     0.049 A 
ATOM     33  H   UNL A   1      42.442  27.765  31.898  1.00  0.00     0.167 HD
ATOM     34  C   UNL A   1      44.313  25.675  31.212  1.00  0.00     0.074 A 
ATOM     35  C   UNL A   1      44.963  24.567  30.538  1.00  0.00     0.031 C 
ATOM     36  C   UNL A   1      44.758  26.233  32.369  1.00  0.00     0.034 A 
BRANCH  23  37
ATOM     37  C   UNL A   1      41.206  30.837  34.616  1.00  0.00     0.023 A 
ATOM     38  C   UNL A   1      40.120  30.678  35.498  1.00  0.00     0.031 A 
ATOM     39  C   UNL A   1      41.941  32.032  34.683  1.00  0.00     0.131 A 
ATOM     40  C   UNL A   1      39.743  31.734  36.339  1.00  0.00     0.055 A 
ATOM     41  C   UNL A   1      41.613  33.045  35.586  1.00  0.00     0.041 A 
ATOM     42  F   UNL A   1      42.963  32.254  33.841  1.00  0.00    -0.206 F 
ATOM     43  C   UNL A   1      40.497  32.908  36.407  1.00  0.00     0.022 A 
BRANCH  40  44
ATOM     44  S   UNL A   1      38.153  31.623  37.207  1.00  0.00     0.124 S 
ATOM     45  O   UNL A   1      37.352  32.607  36.481  1.00  0.00    -0.237 OA
ATOM     46  O   UNL A   1      37.780  30.227  37.009  1.00  0.00    -0.237 OA
ATOM     47  O   UNL A   1      38.486  31.992  38.580  1.00  0.00    -0.744 OA
ENDBRANCH  40  44
ENDBRANCH  23  37
BRANCH  24  48
ATOM     48  C   UNL A   1      42.445  24.112  27.151  1.00  0.00     0.023 A 
ATOM     49  C   UNL A   1      41.845  22.841  27.177  1.00  0.00     0.031 A 
ATOM     50  C   UNL A   1      43.301  24.402  26.070  1.00  0.00     0.131 A 
ATOM     51  C   UNL A   1      42.154  21.894  26.183  1.00  0.00     0.055 A 
ATOM     52  C   UNL A   1      43.553  23.481  25.050  1.00  0.00     0.041 A 
ATOM     53  F   UNL A   1      43.915  25.593  25.988  1.00  0.00    -0.206 F 
ATOM     54  C   UNL A   1      42.992  22.211  25.114  1.00  0.00     0.022 A 
BRANCH  51  55
ATOM     55  S   UNL A   1      41.544  20.194  26.375  1.00  0.00     0.124 S 
ATOM     56  O   UNL A   1      40.117  20.359  26.127  1.00  0.00    -0.237 OA
ATOM     57  O   UNL A   1      42.297  19.485  25.345  1.00  0.00    -0.237 OA
ATOM     58  O   UNL A   1      41.903  19.856  27.751  1.00  0.00    -0.744 OA
ENDBRANCH  51  55
ENDBRANCH  24  48
BRANCH  36  59
ATOM     59  C   UNL A   1      45.985  25.608  32.980  1.00  0.00     0.023 A 
ATOM     60  C   UNL A   1      45.892  24.532  33.878  1.00  0.00     0.031 A 
ATOM     61  C   UNL A   1      47.259  26.117  32.678  1.00  0.00     0.131 A 
ATOM     62  C   UNL A   1      47.050  24.044  34.499  1.00  0.00     0.055 A 
ATOM     63  C   UNL A   1      48.415  25.578  33.241  1.00  0.00     0.041 A 
ATOM     64  F   UNL A   1      47.400  27.148  31.830  1.00  0.00    -0.206 F 
ATOM     65  C   UNL A   1      48.312  24.546  34.170  1.00  0.00     0.022 A 
BRANCH  62  66
ATOM     66  S   UNL A   1      46.873  22.824  35.827  1.00  0.00     0.124 S 
ATOM     67  O   UNL A   1      47.601  23.460  36.920  1.00  0.00    -0.237 OA
ATOM     68  O   UNL A   1      45.425  22.745  35.988  1.00  0.00    -0.237 OA
ATOM     69  O   UNL A   1      47.502  21.625  35.277  1.00  0.00    -0.744 OA
ENDBRANCH  62  66
ENDBRANCH  36  59
ENDBRANCH  10  11
ENDBRANCH   3   5
ENDBRANCH   2   3
ENDBRANCH   1   2
BRANCH   1  70
ATOM     70  C   UNL A   1      34.223  34.351  28.844  1.00  0.00     0.275 C 
BRANCH  70  71
ATOM     71  O   UNL A   1      35.375  33.661  29.340  1.00  0.00    -0.458 OA
BRANCH  71  72
ATOM     72  C   UNL A   1      35.271  33.108  30.574  1.00  0.00     0.338 C 
ATOM     73  O   UNL A   1      34.403  32.342  30.959  1.00  0.00    -0.246 OA
BRANCH  72  74
ATOM     74  C   UNL A   1      36.425  33.523  31.404  1.00  0.00     0.068 A 
ATOM     75  C   UNL A   1      37.586  33.904  30.715  1.00  0.00     0.016 A 
ATOM     76  C   UNL A   1      36.381  33.545  32.816  1.00  0.00     0.021 A 
ATOM     77  C   UNL A   1      38.705  34.346  31.419  1.00  0.00     0.001 A 
ATOM     78  C   UNL A   1      37.547  33.930  33.502  1.00  0.00     0.010 A 
ATOM     79  C   UNL A   1      38.688  34.350  32.810  1.00  0.00     0.001 A 
BRANCH  76  80
ATOM     80  C   UNL A   1      35.068  33.349  33.542  1.00  0.00     0.298 C 
BRANCH  80  81
ATOM     81  N   UNL A   1      34.403  34.552  34.022  1.00  0.00    -0.340 N 
ATOM     82  H   UNL A   1      34.974  34.968  34.758  1.00  0.00     0.346 HD
ATOM     83  H   UNL A   1      33.483  34.279  34.366  1.00  0.00     0.346 HD
BRANCH  81  84
ATOM     84  C   UNL A   1      34.202  35.553  32.959  1.00  0.00     0.182 C 
ATOM     85  C   UNL A   1      32.979  35.438  32.030  1.00  0.00     0.065 C 
ATOM     86  C   UNL A   1      34.028  36.967  33.522  1.00  0.00     0.065 C 
ATOM     87  C   UNL A   1      32.911  36.792  31.346  1.00  0.00     0.006 C 
ATOM     88  C   UNL A   1      33.413  37.790  32.386  1.00  0.00     0.006 C 
ENDBRANCH  81  84
ENDBRANCH  80  81
ENDBRANCH  76  80
ENDBRANCH  72  74
ENDBRANCH  71  72
ENDBRANCH  70  71
ENDBRANCH   1  70
TORSDOF 17
ENDMDL
MODEL 3
REMARK VINA RESULT:     -11.1      1.749      2.191
REMARK SMILES O=C(OCCOC(=O)c1ccccc1C[NH2+]C1CCCC1)c1ccc(-c2c3nc(c(-c4cc(S(=O)(=O)[O-])ccc4F)c4ccc([nH]4)c(-c4cc(S(=O)(=O)[O-])ccc4F)c4nc(c(-c5cc(S(=O)(=O)[O-])ccc5F)c5ccc2[nH]5)C=C4)C=C3)cc1
REMARK SMILES IDX 4 1 3 2 2 3 1 4 22 5 23 6 84 7 24 8 83 9 25 10 26 11 27 12
REMARK SMILES IDX 77 13 28 14 82 15 76 16 78 17 29 18 81 19 75 20 74 21 30 23
REMARK SMILES IDX 62 24 42 25 61 26 43 27 46 28 60 29 79 30 44 31 45 32 59 34
REMARK SMILES IDX 80 35 47 36 31 37 32 38 40 39 33 40 39 41 41 42 38 43 34 44
REMARK SMILES IDX 35 45 36 46 37 47 63 48 64 49 72 50 65 51 71 52 73 53 70 54
REMARK SMILES IDX 66 55 67 56 68 57 69 58 48 59 49 60 57 61 50 62 56 63 58 64
REMARK SMILES IDX 55 65 51 66 52 67 53 68 54 69 5 70 6 71 7 72 8 73 9 74 10 75
REMARK SMILES IDX 14 76 11 77 13 78 12 79 15 80 16 81 17 84 18 85 21 86 19 87
REMARK SMILES IDX 20 88
REMARK H PARENT 78 22 46 33 16 82 16 83
REMARK Flexibility Score: inf
ROOT
ATOM      1  C   UNL A   1      31.789  32.493  27.181  1.00  0.00     0.275 C 
ENDROOT
BRANCH   1   2
ATOM      2  O   UNL A   1      32.646  33.638  27.328  1.00  0.00    -0.458 OA
BRANCH   2   3
ATOM      3  C   UNL A   1      33.210  34.196  28.428  1.00  0.00     0.338 C 
ATOM      4  O   UNL A   1      32.678  35.211  28.883  1.00  0.00    -0.246 OA
BRANCH   3   5
ATOM      5  C   UNL A   1      34.464  33.712  29.106  1.00  0.00     0.060 A 
ATOM      6  C   UNL A   1      35.759  34.194  28.903  1.00  0.00     0.016 A 
ATOM      7  C   UNL A   1      34.304  32.674  30.050  1.00  0.00     0.016 A 
ATOM      8  C   UNL A   1      36.842  33.699  29.634  1.00  0.00     0.010 A 
ATOM      9  C   UNL A   1      35.386  32.170  30.784  1.00  0.00     0.010 A 
ATOM     10  C   UNL A   1      36.668  32.680  30.570  1.00  0.00    -0.014 A 
BRANCH  10  11
ATOM     11  C   UNL A   1      37.872  32.067  31.179  1.00  0.00     0.031 A 
ATOM     12  C   UNL A   1      38.283  32.533  32.536  1.00  0.00     0.074 A 
ATOM     13  C   UNL A   1      38.495  31.033  30.584  1.00  0.00     0.049 A 
ATOM     14  N   UNL A   1      39.241  32.088  33.299  1.00  0.00    -0.248 NA
ATOM     15  C   UNL A   1      37.500  33.637  33.112  1.00  0.00     0.031 C 
ATOM     16  C   UNL A   1      38.106  30.496  29.293  1.00  0.00     0.029 A 
ATOM     17  N   UNL A   1      39.543  30.235  30.960  1.00  0.00    -0.354 N 
ATOM     18  C   UNL A   1      39.163  32.839  34.462  1.00  0.00     0.074 A 
ATOM     19  C   UNL A   1      38.103  33.806  34.277  1.00  0.00     0.031 C 
ATOM     20  C   UNL A   1      38.880  29.449  28.974  1.00  0.00     0.029 A 
ATOM     21  C   UNL A   1      39.858  29.260  30.035  1.00  0.00     0.049 A 
ATOM     22  H   UNL A   1      40.026  30.347  31.811  1.00  0.00     0.167 HD
ATOM     23  C   UNL A   1      39.906  32.712  35.586  1.00  0.00     0.034 A 
ATOM     24  C   UNL A   1      40.837  28.332  30.044  1.00  0.00     0.034 A 
ATOM     25  C   UNL A   1      40.993  31.774  35.703  1.00  0.00     0.049 A 
ATOM     26  C   UNL A   1      41.729  28.298  31.259  1.00  0.00     0.074 A 
ATOM     27  C   UNL A   1      41.885  31.608  36.746  1.00  0.00     0.029 A 
ATOM     28  N   UNL A   1      41.346  30.848  34.725  1.00  0.00    -0.354 N 
ATOM     29  N   UNL A   1      41.664  29.036  32.346  1.00  0.00    -0.248 NA
ATOM     30  C   UNL A   1      42.816  27.315  31.261  1.00  0.00     0.031 C 
ATOM     31  C   UNL A   1      42.811  30.627  36.373  1.00  0.00     0.029 A 
ATOM     32  C   UNL A   1      42.452  30.121  35.132  1.00  0.00     0.049 A 
ATOM     33  H   UNL A   1      40.876  30.727  33.869  1.00  0.00     0.167 HD
ATOM     34  C   UNL A   1      42.690  28.592  33.170  1.00  0.00     0.074 A 
ATOM     35  C   UNL A   1      43.336  27.500  32.465  1.00  0.00     0.031 C 
ATOM     36  C   UNL A   1      43.073  29.044  34.393  1.00  0.00     0.034 A 
BRANCH  23  37
ATOM     37  C   UNL A   1      39.586  33.665  36.707  1.00  0.00     0.023 A 
ATOM     38  C   UNL A   1      40.412  34.772  36.981  1.00  0.00     0.031 A 
ATOM     39  C   UNL A   1      38.522  33.403  37.584  1.00  0.00     0.131 A 
ATOM     40  C   UNL A   1      40.219  35.514  38.155  1.00  0.00     0.055 A 
ATOM     41  C   UNL A   1      38.281  34.201  38.705  1.00  0.00     0.041 A 
ATOM     42  F   UNL A   1      37.724  32.340  37.393  1.00  0.00    -0.206 F 
ATOM     43  C   UNL A   1      39.144  35.252  39.007  1.00  0.00     0.022 A 
BRANCH  40  44
ATOM     44  S   UNL A   1      41.496  36.707  38.644  1.00  0.00     0.124 S 
ATOM     45  O   UNL A   1      42.088  37.049  37.352  1.00  0.00    -0.237 OA
ATOM     46  O   UNL A   1      40.718  37.760  39.287  1.00  0.00    -0.237 OA
ATOM     47  O   UNL A   1      42.361  35.938  39.535  1.00  0.00    -0.744 OA
ENDBRANCH  40  44
ENDBRANCH  23  37
BRANCH  24  48
ATOM     48  C   UNL A   1      41.063  27.417  28.880  1.00  0.00     0.023 A 
ATOM     49  C   UNL A   1      42.066  27.663  27.926  1.00  0.00     0.031 A 
ATOM     50  C   UNL A   1      40.218  26.311  28.660  1.00  0.00     0.131 A 
ATOM     51  C   UNL A   1      42.160  26.858  26.776  1.00  0.00     0.055 A 
ATOM     52  C   UNL A   1      40.358  25.474  27.550  1.00  0.00     0.041 A 
ATOM     53  F   UNL A   1      39.233  26.024  29.526  1.00  0.00    -0.206 F 
ATOM     54  C   UNL A   1      41.323  25.757  26.590  1.00  0.00     0.022 A 
BRANCH  51  55
ATOM     55  S   UNL A   1      43.313  27.343  25.460  1.00  0.00     0.124 S 
ATOM     56  O   UNL A   1      43.756  26.048  24.958  1.00  0.00    -0.237 OA
ATOM     57  O   UNL A   1      42.450  28.115  24.572  1.00  0.00    -0.237 OA
ATOM     58  O   UNL A   1      44.331  28.118  26.167  1.00  0.00    -0.744 OA
ENDBRANCH  51  55
ENDBRANCH  24  48
BRANCH  36  59
ATOM     59  C   UNL A   1      44.218  28.314  35.044  1.00  0.00     0.023 A 
ATOM     60  C   UNL A   1      44.000  27.295  35.987  1.00  0.00     0.031 A 
ATOM     61  C   UNL A   1      45.543  28.664  34.734  1.00  0.00     0.131 A 
ATOM     62  C   UNL A   1      45.092  26.709  36.641  1.00  0.00     0.055 A 
ATOM     63  C   UNL A   1      46.627  28.024  35.332  1.00  0.00     0.041 A 
ATOM     64  F   UNL A   1      45.803  29.634  33.844  1.00  0.00    -0.206 F 
ATOM     65  C   UNL A   1      46.405  27.052  36.304  1.00  0.00     0.022 A 
BRANCH  62  66
ATOM     66  S   UNL A   1      44.771  25.576  38.018  1.00  0.00     0.124 S 
ATOM     67  O   UNL A   1      46.120  25.157  38.385  1.00  0.00    -0.237 OA
ATOM     68  O   UNL A   1      44.089  26.437  38.978  1.00  0.00    -0.237 OA
ATOM     69  O   UNL A   1      43.939  24.535  37.418  1.00  0.00    -0.744 OA
ENDBRANCH  62  66
ENDBRANCH  36  59
ENDBRANCH  10  11
ENDBRANCH   3   5
ENDBRANCH   2   3
ENDBRANCH   1   2
BRANCH   1  70
ATOM     70  C   UNL A   1      32.542  31.176  27.010  1.00  0.00     0.275 C 
BRANCH  70  71
ATOM     71  O   UNL A   1      31.718  30.166  26.416  1.00  0.00    -0.458 OA
BRANCH  71  72
ATOM     72  C   UNL A   1      32.328  29.299  25.571  1.00  0.00     0.338 C 
ATOM     73  O   UNL A   1      33.473  29.369  25.155  1.00  0.00    -0.246 OA
BRANCH  72  74
ATOM     74  C   UNL A   1      31.408  28.182  25.255  1.00  0.00     0.068 A 
ATOM     75  C   UNL A   1      31.383  27.116  26.167  1.00  0.00     0.016 A 
ATOM     76  C   UNL A   1      30.590  28.170  24.105  1.00  0.00     0.021 A 
ATOM     77  C   UNL A   1      30.517  26.043  25.966  1.00  0.00     0.001 A 
ATOM     78  C   UNL A   1      29.775  27.043  23.891  1.00  0.00     0.010 A 
ATOM     79  C   UNL A   1      29.722  26.003  24.824  1.00  0.00     0.001 A 
BRANCH  76  80
ATOM     80  C   UNL A   1      30.457  29.412  23.249  1.00  0.00     0.298 C 
BRANCH  80  81
ATOM     81  N   UNL A   1      29.738  30.533  23.836  1.00  0.00    -0.340 N 
ATOM     82  H   UNL A   1      30.411  31.257  24.087  1.00  0.00     0.346 HD
ATOM     83  H   UNL A   1      29.237  30.185  24.653  1.00  0.00     0.346 HD
BRANCH  81  84
ATOM     84  C   UNL A   1      28.741  31.114  22.917  1.00  0.00     0.182 C 
ATOM     85  C   UNL A   1      28.905  32.570  22.444  1.00  0.00     0.065 C 
ATOM     86  C   UNL A   1      28.676  30.362  21.584  1.00  0.00     0.065 C 
ATOM     87  C   UNL A   1      27.946  32.682  21.271  1.00  0.00     0.006 C 
ATOM     88  C   UNL A   1      27.955  31.304  20.615  1.00  0.00     0.006 C 
ENDBRANCH  81  84
ENDBRANCH  80  81
ENDBRANCH  76  80
ENDBRANCH  72  74
ENDBRANCH  71  72
ENDBRANCH  70  71
ENDBRANCH   1  70
TORSDOF 17
ENDMDL
