MODEL 1
REMARK VINA RESULT:     -10.8      0.000      0.000
REMARK SMILES C#CC[N@H+](CC(=O)OCCOC(=O)c1ccc(-c2c3nc(c(-c4cc(S(=O)(=O)[O-])ccc4F)c4ccc([nH]4)c(-c4cc(S(=O)(=O)[O-])ccc4F)c4nc(c(-c5cc(S(=O)(=O)[O-])ccc5F)c5ccc2[nH]5)C=C4)C=C3)cc1)Cc1cccc2ccccc12
REMARK SMILES IDX 9 1 8 2 6 3 7 4 5 5 4 6 3 8 2 9 1 10 77 11 78 12 79 13 87 14
REMARK SMILES IDX 80 15 82 16 86 17 81 18 83 19 85 20 84 21 10 22 11 23 12 24
REMARK SMILES IDX 13 25 14 26 15 27 76 28 16 29 75 30 17 31 18 32 19 33 69 34
REMARK SMILES IDX 20 35 74 36 68 37 70 38 21 39 73 40 67 41 66 42 22 44 54 45
REMARK SMILES IDX 34 46 53 47 35 48 38 49 52 50 71 51 36 52 37 53 51 55 72 56
REMARK SMILES IDX 39 57 23 58 24 59 32 60 25 61 31 62 33 63 30 64 26 65 27 66
REMARK SMILES IDX 28 67 29 68 55 69 56 70 64 71 57 72 63 73 65 74 62 75 58 76
REMARK SMILES IDX 59 77 60 78 61 79 40 80 41 81 49 82 42 83 48 84 50 85 47 86
REMARK SMILES IDX 43 87 44 88 45 89 46 90
REMARK H PARENT 4 7 70 43 38 54
REMARK Flexibility Score: inf
ROOT
ATOM      1  C   UNL A   1      35.999  21.506  25.739  1.00  0.00     0.274 C 
ENDROOT
BRANCH   1   2
ATOM      2  O   UNL A   1      34.728  20.962  25.355  1.00  0.00    -0.458 OA
BRANCH   2   3
ATOM      3  C   UNL A   1      33.661  21.301  26.132  1.00  0.00     0.361 C 
ATOM      4  O   UNL A   1      33.621  21.181  27.352  1.00  0.00    -0.245 OA
BRANCH   3   5
ATOM      5  C   UNL A   1      32.539  21.956  25.326  1.00  0.00     0.387 C 
BRANCH   5   6
ATOM      6  N   UNL A   1      32.420  23.371  25.629  1.00  0.00    -0.312 N 
ATOM      7  H   UNL A   1      32.146  23.862  24.778  1.00  0.00     0.349 HD
BRANCH   6   8
ATOM      8  C   UNL A   1      31.284  23.657  26.465  1.00  0.00     0.354 C 
BRANCH   8   9
ATOM      9  C   UNL A   1      30.543  24.886  25.966  1.00  0.00    -0.047 C 
ATOM     10  C   UNL A   1      29.907  25.941  25.537  1.00  0.00     0.010 C 
ENDBRANCH   8   9
ENDBRANCH   6   8
BRANCH   6  11
ATOM     11  C   UNL A   1      33.636  24.182  25.649  1.00  0.00     0.300 C 
BRANCH  11  12
ATOM     12  C   UNL A   1      33.639  25.341  24.651  1.00  0.00     0.014 A 
ATOM     13  C   UNL A   1      33.744  24.989  23.293  1.00  0.00     0.010 A 
ATOM     14  C   UNL A   1      33.547  26.732  24.996  1.00  0.00    -0.010 A 
ATOM     15  C   UNL A   1      33.629  25.948  22.292  1.00  0.00     0.001 A 
ATOM     16  C   UNL A   1      33.320  27.678  23.968  1.00  0.00    -0.018 A 
ATOM     17  C   UNL A   1      33.683  27.271  26.294  1.00  0.00     0.009 A 
ATOM     18  C   UNL A   1      33.364  27.272  22.630  1.00  0.00     0.009 A 
ATOM     19  C   UNL A   1      33.066  29.029  24.282  1.00  0.00     0.009 A 
ATOM     20  C   UNL A   1      33.476  28.618  26.600  1.00  0.00     0.001 A 
ATOM     21  C   UNL A   1      33.126  29.495  25.593  1.00  0.00     0.001 A 
ENDBRANCH  11  12
ENDBRANCH   6  11
ENDBRANCH   5   6
ENDBRANCH   3   5
ENDBRANCH   2   3
ENDBRANCH   1   2
BRANCH   1  22
ATOM     22  C   UNL A   1      37.110  20.593  25.234  1.00  0.00     0.275 C 
BRANCH  22  23
ATOM     23  O   UNL A   1      38.319  21.365  25.071  1.00  0.00    -0.458 OA
BRANCH  23  24
ATOM     24  C   UNL A   1      39.229  21.165  26.055  1.00  0.00     0.338 C 
ATOM     25  O   UNL A   1      39.556  20.089  26.517  1.00  0.00    -0.246 OA
BRANCH  24  26
ATOM     26  C   UNL A   1      39.792  22.423  26.581  1.00  0.00     0.060 A 
ATOM     27  C   UNL A   1      40.800  22.455  27.543  1.00  0.00     0.016 A 
ATOM     28  C   UNL A   1      39.192  23.614  26.161  1.00  0.00     0.016 A 
ATOM     29  C   UNL A   1      41.137  23.661  28.154  1.00  0.00     0.010 A 
ATOM     30  C   UNL A   1      39.638  24.836  26.660  1.00  0.00     0.010 A 
ATOM     31  C   UNL A   1      40.621  24.870  27.656  1.00  0.00    -0.014 A 
BRANCH  31  32
ATOM     32  C   UNL A   1      41.289  26.145  28.012  1.00  0.00     0.031 A 
ATOM     33  C   UNL A   1      40.591  27.232  28.773  1.00  0.00     0.074 A 
ATOM     34  C   UNL A   1      42.554  26.308  27.573  1.00  0.00     0.049 A 
ATOM     35  N   UNL A   1      41.022  28.431  29.071  1.00  0.00    -0.248 NA
ATOM     36  C   UNL A   1      39.230  26.948  29.249  1.00  0.00     0.031 C 
ATOM     37  C   UNL A   1      43.303  25.312  26.794  1.00  0.00     0.029 A 
ATOM     38  N   UNL A   1      43.439  27.339  27.717  1.00  0.00    -0.354 N 
ATOM     39  C   UNL A   1      39.982  29.059  29.745  1.00  0.00     0.074 A 
ATOM     40  C   UNL A   1      38.892  28.105  29.804  1.00  0.00     0.031 C 
ATOM     41  C   UNL A   1      44.549  25.752  26.592  1.00  0.00     0.029 A 
ATOM     42  C   UNL A   1      44.657  27.100  27.126  1.00  0.00     0.049 A 
ATOM     43  H   UNL A   1      43.226  28.171  28.199  1.00  0.00     0.167 HD
ATOM     44  C   UNL A   1      39.950  30.318  30.253  1.00  0.00     0.034 A 
ATOM     45  C   UNL A   1      45.735  27.890  26.982  1.00  0.00     0.034 A 
ATOM     46  C   UNL A   1      41.060  31.243  30.166  1.00  0.00     0.049 A 
ATOM     47  C   UNL A   1      45.666  29.274  27.548  1.00  0.00     0.074 A 
ATOM     48  C   UNL A   1      41.154  32.536  30.655  1.00  0.00     0.029 A 
ATOM     49  N   UNL A   1      42.274  30.974  29.539  1.00  0.00    -0.354 N 
ATOM     50  N   UNL A   1      44.670  29.856  28.173  1.00  0.00    -0.248 NA
ATOM     51  C   UNL A   1      46.859  30.107  27.383  1.00  0.00     0.031 C 
ATOM     52  C   UNL A   1      42.394  33.065  30.274  1.00  0.00     0.029 A 
ATOM     53  C   UNL A   1      43.107  32.083  29.604  1.00  0.00     0.049 A 
ATOM     54  H   UNL A   1      42.509  30.120  29.110  1.00  0.00     0.167 HD
ATOM     55  C   UNL A   1      45.113  31.137  28.472  1.00  0.00     0.074 A 
ATOM     56  C   UNL A   1      46.481  31.220  27.992  1.00  0.00     0.031 C 
ATOM     57  C   UNL A   1      44.451  32.154  29.079  1.00  0.00     0.034 A 
BRANCH  44  58
ATOM     58  C   UNL A   1      38.659  30.786  30.886  1.00  0.00     0.023 A 
ATOM     59  C   UNL A   1      37.681  31.490  30.161  1.00  0.00     0.031 A 
ATOM     60  C   UNL A   1      38.408  30.532  32.248  1.00  0.00     0.131 A 
ATOM     61  C   UNL A   1      36.530  31.966  30.812  1.00  0.00     0.055 A 
ATOM     62  C   UNL A   1      37.230  30.949  32.874  1.00  0.00     0.041 A 
ATOM     63  F   UNL A   1      39.310  29.882  32.999  1.00  0.00    -0.206 F 
ATOM     64  C   UNL A   1      36.289  31.682  32.159  1.00  0.00     0.022 A 
BRANCH  61  65
ATOM     65  S   UNL A   1      35.407  33.068  29.907  1.00  0.00     0.124 S 
ATOM     66  O   UNL A   1      36.335  33.776  29.027  1.00  0.00    -0.237 OA
ATOM     67  O   UNL A   1      34.500  32.130  29.258  1.00  0.00    -0.237 OA
ATOM     68  O   UNL A   1      34.809  33.889  30.959  1.00  0.00    -0.744 OA
ENDBRANCH  61  65
ENDBRANCH  44  58
BRANCH  45  69
ATOM     69  C   UNL A   1      46.923  27.392  26.239  1.00  0.00     0.023 A 
ATOM     70  C   UNL A   1      47.126  27.729  24.894  1.00  0.00     0.031 A 
ATOM     71  C   UNL A   1      47.895  26.603  26.880  1.00  0.00     0.131 A 
ATOM     72  C   UNL A   1      48.269  27.264  24.225  1.00  0.00     0.055 A 
ATOM     73  C   UNL A   1      49.054  26.184  26.226  1.00  0.00     0.041 A 
ATOM     74  F   UNL A   1      47.753  26.266  28.172  1.00  0.00    -0.206 F 
ATOM     75  C   UNL A   1      49.241  26.508  24.887  1.00  0.00     0.022 A 
BRANCH  72  76
ATOM     76  S   UNL A   1      48.445  27.620  22.457  1.00  0.00     0.124 S 
ATOM     77  O   UNL A   1      49.664  28.420  22.432  1.00  0.00    -0.237 OA
ATOM     78  O   UNL A   1      48.545  26.280  21.888  1.00  0.00    -0.237 OA
ATOM     79  O   UNL A   1      47.217  28.342  22.131  1.00  0.00    -0.744 OA
ENDBRANCH  72  76
ENDBRANCH  45  69
BRANCH  57  80
ATOM     80  C   UNL A   1      45.229  33.431  29.245  1.00  0.00     0.023 A 
ATOM     81  C   UNL A   1      45.276  34.391  28.219  1.00  0.00     0.031 A 
ATOM     82  C   UNL A   1      45.990  33.654  30.403  1.00  0.00     0.131 A 
ATOM     83  C   UNL A   1      46.128  35.498  28.341  1.00  0.00     0.055 A 
ATOM     84  C   UNL A   1      46.790  34.788  30.544  1.00  0.00     0.041 A 
ATOM     85  F   UNL A   1      45.984  32.763  31.408  1.00  0.00    -0.206 F 
ATOM     86  C   UNL A   1      46.875  35.710  29.503  1.00  0.00     0.022 A 
BRANCH  83  87
ATOM     87  S   UNL A   1      46.333  36.597  26.912  1.00  0.00     0.124 S 
ATOM     88  O   UNL A   1      45.180  37.483  27.043  1.00  0.00    -0.237 OA
ATOM     89  O   UNL A   1      47.635  37.202  27.168  1.00  0.00    -0.237 OA
ATOM     90  O   UNL A   1      46.287  35.685  25.770  1.00  0.00    -0.744 OA
ENDBRANCH  83  87
ENDBRANCH  57  80
ENDBRANCH  31  32
ENDBRANCH  24  26
ENDBRANCH  23  24
ENDBRANCH  22  23
ENDBRANCH   1  22
TORSDOF 19
ENDMDL
MODEL 2
REMARK VINA RESULT:     -10.6      5.109     10.260
REMARK SMILES C#CC[N@H+](CC(=O)OCCOC(=O)c1ccc(-c2c3nc(c(-c4cc(S(=O)(=O)[O-])ccc4F)c4ccc([nH]4)c(-c4cc(S(=O)(=O)[O-])ccc4F)c4nc(c(-c5cc(S(=O)(=O)[O-])ccc5F)c5ccc2[nH]5)C=C4)C=C3)cc1)Cc1cccc2ccccc12
REMARK SMILES IDX 9 1 8 2 6 3 7 4 5 5 4 6 3 8 2 9 1 10 77 11 78 12 79 13 87 14
REMARK SMILES IDX 80 15 82 16 86 17 81 18 83 19 85 20 84 21 10 22 11 23 12 24
REMARK SMILES IDX 13 25 14 26 15 27 76 28 16 29 75 30 17 31 18 32 19 33 69 34
REMARK SMILES IDX 20 35 74 36 68 37 70 38 21 39 73 40 67 41 66 42 22 44 54 45
REMARK SMILES IDX 34 46 53 47 35 48 38 49 52 50 71 51 36 52 37 53 51 55 72 56
REMARK SMILES IDX 39 57 23 58 24 59 32 60 25 61 31 62 33 63 30 64 26 65 27 66
REMARK SMILES IDX 28 67 29 68 55 69 56 70 64 71 57 72 63 73 65 74 62 75 58 76
REMARK SMILES IDX 59 77 60 78 61 79 40 80 41 81 49 82 42 83 48 84 50 85 47 86
REMARK SMILES IDX 43 87 44 88 45 89 46 90
REMARK H PARENT 4 7 70 43 38 54
REMARK Flexibility Score: inf
ROOT
ATOM      1  C   UNL A   1      31.340  29.744  25.072  1.00  0.00     0.274 C 
ENDROOT
BRANCH   1   2
ATOM      2  O   UNL A   1      31.855  28.468  25.478  1.00  0.00    -0.458 OA
BRANCH   2   3
ATOM      3  C   UNL A   1      32.583  27.783  24.553  1.00  0.00     0.361 C 
ATOM      4  O   UNL A   1      32.631  28.059  23.359  1.00  0.00    -0.245 OA
BRANCH   3   5
ATOM      5  C   UNL A   1      33.432  26.678  25.183  1.00  0.00     0.387 C 
BRANCH   5   6
ATOM      6  N   UNL A   1      33.089  25.371  24.648  1.00  0.00    -0.312 N 
ATOM      7  H   UNL A   1      33.409  24.659  25.305  1.00  0.00     0.349 HD
BRANCH   6   8
ATOM      8  C   UNL A   1      31.671  25.125  24.678  1.00  0.00     0.354 C 
BRANCH   8   9
ATOM      9  C   UNL A   1      31.326  24.089  25.735  1.00  0.00    -0.047 C 
ATOM     10  C   UNL A   1      31.030  23.200  26.642  1.00  0.00     0.010 C 
ENDBRANCH   8   9
ENDBRANCH   6   8
BRANCH   6  11
ATOM     11  C   UNL A   1      33.971  24.777  23.647  1.00  0.00     0.300 C 
BRANCH  11  12
ATOM     12  C   UNL A   1      34.665  23.491  24.098  1.00  0.00     0.014 A 
ATOM     13  C   UNL A   1      35.978  23.635  24.586  1.00  0.00     0.010 A 
ATOM     14  C   UNL A   1      34.087  22.178  24.057  1.00  0.00    -0.010 A 
ATOM     15  C   UNL A   1      36.658  22.556  25.141  1.00  0.00     0.001 A 
ATOM     16  C   UNL A   1      34.746  21.118  24.725  1.00  0.00    -0.018 A 
ATOM     17  C   UNL A   1      32.900  21.820  23.382  1.00  0.00     0.009 A 
ATOM     18  C   UNL A   1      36.023  21.324  25.259  1.00  0.00     0.009 A 
ATOM     19  C   UNL A   1      34.132  19.855  24.843  1.00  0.00     0.009 A 
ATOM     20  C   UNL A   1      32.313  20.555  23.460  1.00  0.00     0.001 A 
ATOM     21  C   UNL A   1      32.914  19.578  24.229  1.00  0.00     0.001 A 
ENDBRANCH  11  12
ENDBRANCH   6  11
ENDBRANCH   5   6
ENDBRANCH   3   5
ENDBRANCH   2   3
ENDBRANCH   1   2
BRANCH   1  22
ATOM     22  C   UNL A   1      31.713  30.792  26.113  1.00  0.00     0.275 C 
BRANCH  22  23
ATOM     23  O   UNL A   1      33.068  30.562  26.553  1.00  0.00    -0.458 OA
BRANCH  23  24
ATOM     24  C   UNL A   1      33.563  31.552  27.335  1.00  0.00     0.338 C 
ATOM     25  O   UNL A   1      33.050  32.640  27.519  1.00  0.00    -0.246 OA
BRANCH  24  26
ATOM     26  C   UNL A   1      34.861  31.208  27.945  1.00  0.00     0.060 A 
ATOM     27  C   UNL A   1      35.861  32.151  28.172  1.00  0.00     0.016 A 
ATOM     28  C   UNL A   1      35.110  29.855  28.191  1.00  0.00     0.016 A 
ATOM     29  C   UNL A   1      37.136  31.732  28.548  1.00  0.00     0.010 A 
ATOM     30  C   UNL A   1      36.338  29.453  28.715  1.00  0.00     0.010 A 
ATOM     31  C   UNL A   1      37.358  30.391  28.906  1.00  0.00    -0.014 A 
BRANCH  31  32
ATOM     32  C   UNL A   1      38.565  30.041  29.694  1.00  0.00     0.031 A 
ATOM     33  C   UNL A   1      39.608  29.091  29.187  1.00  0.00     0.074 A 
ATOM     34  C   UNL A   1      38.660  30.584  30.926  1.00  0.00     0.049 A 
ATOM     35  N   UNL A   1      40.663  28.625  29.807  1.00  0.00    -0.248 NA
ATOM     36  C   UNL A   1      39.442  28.585  27.818  1.00  0.00     0.031 C 
ATOM     37  C   UNL A   1      37.672  31.498  31.516  1.00  0.00     0.029 A 
ATOM     38  N   UNL A   1      39.618  30.472  31.895  1.00  0.00    -0.354 N 
ATOM     39  C   UNL A   1      41.276  27.750  28.918  1.00  0.00     0.074 A 
ATOM     40  C   UNL A   1      40.465  27.745  27.716  1.00  0.00     0.031 C 
ATOM     41  C   UNL A   1      38.108  31.913  32.709  1.00  0.00     0.029 A 
ATOM     42  C   UNL A   1      39.346  31.216  33.019  1.00  0.00     0.049 A 
ATOM     43  H   UNL A   1      40.424  29.915  31.797  1.00  0.00     0.167 HD
ATOM     44  C   UNL A   1      42.405  27.018  29.106  1.00  0.00     0.034 A 
ATOM     45  C   UNL A   1      39.991  31.300  34.195  1.00  0.00     0.034 A 
ATOM     46  C   UNL A   1      43.182  27.047  30.326  1.00  0.00     0.049 A 
ATOM     47  C   UNL A   1      41.228  30.477  34.373  1.00  0.00     0.074 A 
ATOM     48  C   UNL A   1      44.348  26.365  30.629  1.00  0.00     0.029 A 
ATOM     49  N   UNL A   1      42.864  27.797  31.456  1.00  0.00    -0.354 N 
ATOM     50  N   UNL A   1      41.789  29.645  33.526  1.00  0.00    -0.248 NA
ATOM     51  C   UNL A   1      41.913  30.596  35.661  1.00  0.00     0.031 C 
ATOM     52  C   UNL A   1      44.701  26.655  31.954  1.00  0.00     0.029 A 
ATOM     53  C   UNL A   1      43.794  27.572  32.462  1.00  0.00     0.049 A 
ATOM     54  H   UNL A   1      42.090  28.400  31.531  1.00  0.00     0.167 HD
ATOM     55  C   UNL A   1      42.896  29.130  34.185  1.00  0.00     0.074 A 
ATOM     56  C   UNL A   1      42.941  29.780  35.483  1.00  0.00     0.031 C 
ATOM     57  C   UNL A   1      43.790  28.201  33.763  1.00  0.00     0.034 A 
BRANCH  44  58
ATOM     58  C   UNL A   1      42.826  26.082  27.995  1.00  0.00     0.023 A 
ATOM     59  C   UNL A   1      42.165  24.865  27.751  1.00  0.00     0.031 A 
ATOM     60  C   UNL A   1      43.919  26.411  27.171  1.00  0.00     0.131 A 
ATOM     61  C   UNL A   1      42.639  23.996  26.752  1.00  0.00     0.055 A 
ATOM     62  C   UNL A   1      44.343  25.574  26.136  1.00  0.00     0.041 A 
ATOM     63  F   UNL A   1      44.603  27.549  27.366  1.00  0.00    -0.206 F 
ATOM     64  C   UNL A   1      43.710  24.353  25.930  1.00  0.00     0.022 A 
BRANCH  61  65
ATOM     65  S   UNL A   1      41.913  22.337  26.623  1.00  0.00     0.124 S 
ATOM     66  O   UNL A   1      42.471  21.869  25.355  1.00  0.00    -0.237 OA
ATOM     67  O   UNL A   1      42.413  21.680  27.823  1.00  0.00    -0.237 OA
ATOM     68  O   UNL A   1      40.473  22.593  26.604  1.00  0.00    -0.744 OA
ENDBRANCH  61  65
ENDBRANCH  44  58
BRANCH  45  69
ATOM     69  C   UNL A   1      39.441  32.155  35.281  1.00  0.00     0.023 A 
ATOM     70  C   UNL A   1      38.715  31.597  36.341  1.00  0.00     0.031 A 
ATOM     71  C   UNL A   1      39.672  33.543  35.291  1.00  0.00     0.131 A 
ATOM     72  C   UNL A   1      38.230  32.427  37.364  1.00  0.00     0.055 A 
ATOM     73  C   UNL A   1      39.231  34.356  36.335  1.00  0.00     0.041 A 
ATOM     74  F   UNL A   1      40.376  34.123  34.305  1.00  0.00    -0.206 F 
ATOM     75  C   UNL A   1      38.496  33.798  37.376  1.00  0.00     0.022 A 
BRANCH  72  76
ATOM     76  S   UNL A   1      37.197  31.692  38.660  1.00  0.00     0.124 S 
ATOM     77  O   UNL A   1      38.043  31.841  39.839  1.00  0.00    -0.237 OA
ATOM     78  O   UNL A   1      36.008  32.536  38.613  1.00  0.00    -0.237 OA
ATOM     79  O   UNL A   1      37.002  30.318  38.201  1.00  0.00    -0.744 OA
ENDBRANCH  72  76
ENDBRANCH  45  69
BRANCH  57  80
ATOM     80  C   UNL A   1      44.882  27.856  34.739  1.00  0.00     0.023 A 
ATOM     81  C   UNL A   1      44.702  26.852  35.706  1.00  0.00     0.031 A 
ATOM     82  C   UNL A   1      46.080  28.589  34.753  1.00  0.00     0.131 A 
ATOM     83  C   UNL A   1      45.676  26.656  36.695  1.00  0.00     0.055 A 
ATOM     84  C   UNL A   1      47.071  28.348  35.704  1.00  0.00     0.041 A 
ATOM     85  F   UNL A   1      46.296  29.563  33.854  1.00  0.00    -0.206 F 
ATOM     86  C   UNL A   1      46.866  27.389  36.693  1.00  0.00     0.022 A 
BRANCH  83  87
ATOM     87  S   UNL A   1      45.314  25.510  38.054  1.00  0.00     0.124 S 
ATOM     88  O   UNL A   1      44.644  26.381  39.015  1.00  0.00    -0.237 OA
ATOM     89  O   UNL A   1      44.473  24.511  37.404  1.00  0.00    -0.237 OA
ATOM     90  O   UNL A   1      46.635  25.036  38.463  1.00  0.00    -0.744 OA
ENDBRANCH  83  87
ENDBRANCH  57  80
ENDBRANCH  31  32
ENDBRANCH  24  26
ENDBRANCH  23  24
ENDBRANCH  22  23
ENDBRANCH   1  22
TORSDOF 19
ENDMDL
MODEL 3
REMARK VINA RESULT:     -10.6      5.055     10.247
REMARK SMILES C#CC[N@H+](CC(=O)OCCOC(=O)c1ccc(-c2c3nc(c(-c4cc(S(=O)(=O)[O-])ccc4F)c4ccc([nH]4)c(-c4cc(S(=O)(=O)[O-])ccc4F)c4nc(c(-c5cc(S(=O)(=O)[O-])ccc5F)c5ccc2[nH]5)C=C4)C=C3)cc1)Cc1cccc2ccccc12
REMARK SMILES IDX 9 1 8 2 6 3 7 4 5 5 4 6 3 8 2 9 1 10 77 11 78 12 79 13 87 14
REMARK SMILES IDX 80 15 82 16 86 17 81 18 83 19 85 20 84 21 10 22 11 23 12 24
REMARK SMILES IDX 13 25 14 26 15 27 76 28 16 29 75 30 17 31 18 32 19 33 69 34
REMARK SMILES IDX 20 35 74 36 68 37 70 38 21 39 73 40 67 41 66 42 22 44 54 45
REMARK SMILES IDX 34 46 53 47 35 48 38 49 52 50 71 51 36 52 37 53 51 55 72 56
REMARK SMILES IDX 39 57 23 58 24 59 32 60 25 61 31 62 33 63 30 64 26 65 27 66
REMARK SMILES IDX 28 67 29 68 55 69 56 70 64 71 57 72 63 73 65 74 62 75 58 76
REMARK SMILES IDX 59 77 60 78 61 79 40 80 41 81 49 82 42 83 48 84 50 85 47 86
REMARK SMILES IDX 43 87 44 88 45 89 46 90
REMARK H PARENT 4 7 70 43 38 54
REMARK Flexibility Score: inf
ROOT
ATOM      1  C   UNL A   1      30.783  31.292  25.506  1.00  0.00     0.274 C 
ENDROOT
BRANCH   1   2
ATOM      2  O   UNL A   1      31.415  30.010  25.384  1.00  0.00    -0.458 OA
BRANCH   2   3
ATOM      3  C   UNL A   1      31.088  29.272  24.286  1.00  0.00     0.361 C 
ATOM      4  O   UNL A   1      30.300  29.629  23.417  1.00  0.00    -0.245 OA
BRANCH   3   5
ATOM      5  C   UNL A   1      31.897  27.978  24.192  1.00  0.00     0.387 C 
BRANCH   5   6
ATOM      6  N   UNL A   1      31.125  26.833  24.642  1.00  0.00    -0.312 N 
ATOM      7  H   UNL A   1      30.279  27.173  25.099  1.00  0.00     0.349 HD
BRANCH   6   8
ATOM      8  C   UNL A   1      30.545  26.102  23.546  1.00  0.00     0.354 C 
BRANCH   8   9
ATOM      9  C   UNL A   1      31.584  25.828  22.471  1.00  0.00    -0.047 C 
ATOM     10  C   UNL A   1      32.476  25.592  21.550  1.00  0.00     0.010 C 
ENDBRANCH   8   9
ENDBRANCH   6   8
BRANCH   6  11
ATOM     11  C   UNL A   1      31.495  26.198  25.904  1.00  0.00     0.300 C 
BRANCH  11  12
ATOM     12  C   UNL A   1      31.719  24.688  25.811  1.00  0.00     0.014 A 
ATOM     13  C   UNL A   1      30.668  23.876  26.280  1.00  0.00     0.010 A 
ATOM     14  C   UNL A   1      32.899  24.054  25.294  1.00  0.00    -0.010 A 
ATOM     15  C   UNL A   1      30.707  22.495  26.127  1.00  0.00     0.001 A 
ATOM     16  C   UNL A   1      32.875  22.661  25.045  1.00  0.00    -0.018 A 
ATOM     17  C   UNL A   1      34.126  24.695  25.018  1.00  0.00     0.009 A 
ATOM     18  C   UNL A   1      31.777  21.901  25.465  1.00  0.00     0.009 A 
ATOM     19  C   UNL A   1      33.954  22.032  24.392  1.00  0.00     0.009 A 
ATOM     20  C   UNL A   1      35.214  24.062  24.412  1.00  0.00     0.001 A 
ATOM     21  C   UNL A   1      35.111  22.731  24.060  1.00  0.00     0.001 A 
ENDBRANCH  11  12
ENDBRANCH   6  11
ENDBRANCH   5   6
ENDBRANCH   3   5
ENDBRANCH   2   3
ENDBRANCH   1   2
BRANCH   1  22
ATOM     22  C   UNL A   1      31.301  31.991  26.758  1.00  0.00     0.275 C 
BRANCH  22  23
ATOM     23  O   UNL A   1      32.699  31.679  26.930  1.00  0.00    -0.458 OA
BRANCH  23  24
ATOM     24  C   UNL A   1      33.396  32.642  27.580  1.00  0.00     0.338 C 
ATOM     25  O   UNL A   1      33.070  33.809  27.688  1.00  0.00    -0.246 OA
BRANCH  24  26
ATOM     26  C   UNL A   1      34.669  32.152  28.140  1.00  0.00     0.060 A 
ATOM     27  C   UNL A   1      35.778  32.975  28.327  1.00  0.00     0.016 A 
ATOM     28  C   UNL A   1      34.774  30.779  28.377  1.00  0.00     0.016 A 
ATOM     29  C   UNL A   1      37.011  32.414  28.654  1.00  0.00     0.010 A 
ATOM     30  C   UNL A   1      35.967  30.239  28.854  1.00  0.00     0.010 A 
ATOM     31  C   UNL A   1      37.094  31.055  29.005  1.00  0.00    -0.014 A 
BRANCH  31  32
ATOM     32  C   UNL A   1      38.282  30.568  29.746  1.00  0.00     0.031 A 
ATOM     33  C   UNL A   1      39.234  29.565  29.168  1.00  0.00     0.074 A 
ATOM     34  C   UNL A   1      38.446  31.037  31.000  1.00  0.00     0.049 A 
ATOM     35  N   UNL A   1      40.259  28.983  29.738  1.00  0.00    -0.248 NA
ATOM     36  C   UNL A   1      39.002  29.145  27.779  1.00  0.00     0.031 C 
ATOM     37  C   UNL A   1      37.547  31.995  31.659  1.00  0.00     0.029 A 
ATOM     38  N   UNL A   1      39.409  30.798  31.940  1.00  0.00    -0.354 N 
ATOM     39  C   UNL A   1      40.782  28.109  28.793  1.00  0.00     0.074 A 
ATOM     40  C   UNL A   1      39.950  28.232  27.611  1.00  0.00     0.031 C 
ATOM     41  C   UNL A   1      38.038  32.311  32.861  1.00  0.00     0.029 A 
ATOM     42  C   UNL A   1      39.220  31.502  33.106  1.00  0.00     0.049 A 
ATOM     43  H   UNL A   1      40.165  30.183  31.796  1.00  0.00     0.167 HD
ATOM     44  C   UNL A   1      41.850  27.279  28.917  1.00  0.00     0.034 A 
ATOM     45  C   UNL A   1      39.893  31.472  34.269  1.00  0.00     0.034 A 
ATOM     46  C   UNL A   1      42.650  27.182  30.119  1.00  0.00     0.049 A 
ATOM     47  C   UNL A   1      41.061  30.543  34.377  1.00  0.00     0.074 A 
ATOM     48  C   UNL A   1      43.762  26.393  30.360  1.00  0.00     0.029 A 
ATOM     49  N   UNL A   1      42.416  27.895  31.292  1.00  0.00    -0.354 N 
ATOM     50  N   UNL A   1      41.536  29.714  33.477  1.00  0.00    -0.248 NA
ATOM     51  C   UNL A   1      41.779  30.540  35.654  1.00  0.00     0.031 C 
ATOM     52  C   UNL A   1      44.162  26.584  31.689  1.00  0.00     0.029 A 
ATOM     53  C   UNL A   1      43.343  27.543  32.263  1.00  0.00     0.049 A 
ATOM     54  H   UNL A   1      41.696  28.554  31.415  1.00  0.00     0.167 HD
ATOM     55  C   UNL A   1      42.609  29.078  34.083  1.00  0.00     0.074 A 
ATOM     56  C   UNL A   1      42.732  29.654  35.410  1.00  0.00     0.031 C 
ATOM     57  C   UNL A   1      43.416  28.102  33.594  1.00  0.00     0.034 A 
BRANCH  44  58
ATOM     58  C   UNL A   1      42.171  26.371  27.751  1.00  0.00     0.023 A 
ATOM     59  C   UNL A   1      41.726  25.039  27.694  1.00  0.00     0.031 A 
ATOM     60  C   UNL A   1      42.951  26.847  26.680  1.00  0.00     0.131 A 
ATOM     61  C   UNL A   1      42.111  24.214  26.623  1.00  0.00     0.055 A 
ATOM     62  C   UNL A   1      43.275  26.042  25.585  1.00  0.00     0.041 A 
ATOM     63  F   UNL A   1      43.423  28.104  26.684  1.00  0.00    -0.206 F 
ATOM     64  C   UNL A   1      42.865  24.713  25.558  1.00  0.00     0.022 A 
BRANCH  61  65
ATOM     65  S   UNL A   1      41.717  22.443  26.700  1.00  0.00     0.124 S 
ATOM     66  O   UNL A   1      42.584  21.995  27.788  1.00  0.00    -0.237 OA
ATOM     67  O   UNL A   1      40.287  22.451  26.982  1.00  0.00    -0.237 OA
ATOM     68  O   UNL A   1      42.089  21.951  25.374  1.00  0.00    -0.744 OA
ENDBRANCH  61  65
ENDBRANCH  44  58
BRANCH  45  69
ATOM     69  C   UNL A   1      39.436  32.311  35.409  1.00  0.00     0.023 A 
ATOM     70  C   UNL A   1      39.875  33.633  35.554  1.00  0.00     0.031 A 
ATOM     71  C   UNL A   1      38.517  31.809  36.350  1.00  0.00     0.131 A 
ATOM     72  C   UNL A   1      39.407  34.408  36.627  1.00  0.00     0.055 A 
ATOM     73  C   UNL A   1      38.016  32.598  37.385  1.00  0.00     0.041 A 
ATOM     74  F   UNL A   1      38.054  30.553  36.245  1.00  0.00    -0.206 F 
ATOM     75  C   UNL A   1      38.470  33.905  37.533  1.00  0.00     0.022 A 
BRANCH  72  76
ATOM     76  S   UNL A   1      40.083  36.075  36.853  1.00  0.00     0.124 S 
ATOM     77  O   UNL A   1      41.478  35.792  37.173  1.00  0.00    -0.237 OA
ATOM     78  O   UNL A   1      39.834  36.680  35.550  1.00  0.00    -0.237 OA
ATOM     79  O   UNL A   1      39.288  36.618  37.952  1.00  0.00    -0.744 OA
ENDBRANCH  72  76
ENDBRANCH  45  69
BRANCH  57  80
ATOM     80  C   UNL A   1      44.495  27.620  34.526  1.00  0.00     0.023 A 
ATOM     81  C   UNL A   1      44.222  26.663  35.519  1.00  0.00     0.031 A 
ATOM     82  C   UNL A   1      45.783  28.178  34.471  1.00  0.00     0.131 A 
ATOM     83  C   UNL A   1      45.206  26.345  36.467  1.00  0.00     0.055 A 
ATOM     84  C   UNL A   1      46.775  27.813  35.381  1.00  0.00     0.041 A 
ATOM     85  F   UNL A   1      46.089  29.101  33.545  1.00  0.00    -0.206 F 
ATOM     86  C   UNL A   1      46.485  26.905  36.396  1.00  0.00     0.022 A 
BRANCH  83  87
ATOM     87  S   UNL A   1      44.753  25.279  37.862  1.00  0.00     0.124 S 
ATOM     88  O   UNL A   1      45.631  25.772  38.918  1.00  0.00    -0.237 OA
ATOM     89  O   UNL A   1      43.332  25.568  38.028  1.00  0.00    -0.237 OA
ATOM     90  O   UNL A   1      45.059  23.934  37.378  1.00  0.00    -0.744 OA
ENDBRANCH  83  87
ENDBRANCH  57  80
ENDBRANCH  31  32
ENDBRANCH  24  26
ENDBRANCH  23  24
ENDBRANCH  22  23
ENDBRANCH   1  22
TORSDOF 19
ENDMDL
