MODEL 1
REMARK VINA RESULT:     -11.2      0.000      0.000
REMARK SMILES Cc1cc(OC(F)F)ccc1NC(=O)[C@@H]1CCCC[C@@H]1C(=O)OCCOC(=O)c1ccc(-c2c3nc(c(-c4cc(S(=O)(=O)[O-])ccc4F)c4ccc([nH]4)c(-c4cc(S(=O)(=O)[O-])ccc4F)c4nc(c(-c5cc(S(=O)(=O)[O-])ccc5F)c5ccc2[nH]5)C=C4)C=C3)cc1
REMARK SMILES IDX 24 1 23 2 21 3 22 4 20 5 15 6 16 7 17 8 19 9 18 10 13 11
REMARK SMILES IDX 12 12 14 14 11 15 1 16 2 17 3 18 4 19 10 20 9 21 5 22 6 23
REMARK SMILES IDX 7 24 8 25 25 26 26 27 27 28 28 29 29 30 30 31 91 32 31 33
REMARK SMILES IDX 90 34 32 35 33 36 34 37 84 38 35 39 89 40 83 41 85 42 36 43
REMARK SMILES IDX 88 44 82 45 81 46 37 48 69 49 49 50 68 51 50 52 53 53 67 54
REMARK SMILES IDX 86 55 51 56 52 57 66 59 87 60 54 61 38 62 39 63 47 64 40 65
REMARK SMILES IDX 46 66 48 67 45 68 41 69 42 70 43 71 44 72 70 73 71 74 79 75
REMARK SMILES IDX 72 76 78 77 80 78 77 79 73 80 74 81 75 82 76 83 55 84 56 85
REMARK SMILES IDX 64 86 57 87 63 88 65 89 62 90 58 91 59 92 60 93 61 94
REMARK H PARENT 12 13 85 47 53 58
REMARK Flexibility Score: inf
ROOT
ATOM      1  C   UNL A   1      46.546  37.536  31.757  1.00  0.00     0.274 C 
ENDROOT
BRANCH   1   2
ATOM      2  O   UNL A   1      47.033  38.555  30.877  1.00  0.00    -0.462 OA
BRANCH   2   3
ATOM      3  C   UNL A   1      46.347  39.689  31.065  1.00  0.00     0.309 C 
ATOM      4  O   UNL A   1      46.900  40.742  30.780  1.00  0.00    -0.252 OA
BRANCH   3   5
ATOM      5  C   UNL A   1      44.812  39.510  31.727  1.00  0.00     0.111 C 
ATOM      6  C   UNL A   1      43.988  39.470  29.930  1.00  0.00     0.093 C 
ATOM      7  C   UNL A   1      42.909  40.825  29.472  1.00  0.00     0.014 C 
ATOM      8  C   UNL A   1      41.939  41.758  30.656  1.00  0.00     0.001 C 
ATOM      9  C   UNL A   1      43.645  40.702  33.200  1.00  0.00     0.016 C 
ATOM     10  C   UNL A   1      42.292  41.854  32.418  1.00  0.00     0.001 C 
BRANCH   6  11
ATOM     11  C   UNL A   1      44.736  38.889  28.715  1.00  0.00     0.228 C 
ATOM     12  N   UNL A   1      44.489  37.572  28.378  1.00  0.00    -0.326 N 
ATOM     13  H   UNL A   1      45.163  37.136  27.807  1.00  0.00     0.169 HD
ATOM     14  O   UNL A   1      45.533  39.552  28.051  1.00  0.00    -0.274 OA
BRANCH  12  15
ATOM     15  C   UNL A   1      43.389  36.780  28.754  1.00  0.00     0.044 A 
ATOM     16  C   UNL A   1      41.958  37.730  26.855  1.00  0.00     0.047 C 
ATOM     17  C   UNL A   1      42.189  36.835  28.040  1.00  0.00    -0.024 A 
ATOM     18  C   UNL A   1      41.164  35.937  28.395  1.00  0.00     0.052 A 
ATOM     19  C   UNL A   1      41.345  34.961  29.380  1.00  0.00     0.126 A 
ATOM     20  C   UNL A   1      43.491  35.923  29.860  1.00  0.00     0.030 A 
ATOM     21  C   UNL A   1      42.497  34.987  30.150  1.00  0.00     0.049 A 
BRANCH  19  22
ATOM     22  O   UNL A   1      40.326  34.065  29.534  1.00  0.00    -0.435 OA
BRANCH  22  23
ATOM     23  C   UNL A   1      39.021  34.615  29.727  1.00  0.00     0.542 C 
ATOM     24  F   UNL A   1      38.102  33.936  29.003  1.00  0.00    -0.167 F 
ATOM     25  F   UNL A   1      38.678  34.484  31.035  1.00  0.00    -0.167 F 
ENDBRANCH  22  23
ENDBRANCH  19  22
ENDBRANCH  12  15
ENDBRANCH   6  11
ENDBRANCH   3   5
ENDBRANCH   2   3
ENDBRANCH   1   2
BRANCH   1  26
ATOM     26  C   UNL A   1      46.769  37.592  33.337  1.00  0.00     0.275 C 
BRANCH  26  27
ATOM     27  O   UNL A   1      45.774  37.584  34.509  1.00  0.00    -0.458 OA
BRANCH  27  28
ATOM     28  C   UNL A   1      44.578  37.141  35.042  1.00  0.00     0.338 C 
ATOM     29  O   UNL A   1      43.856  37.922  35.643  1.00  0.00    -0.246 OA
BRANCH  28  30
ATOM     30  C   UNL A   1      44.270  35.656  34.907  1.00  0.00     0.060 A 
ATOM     31  C   UNL A   1      44.737  33.827  35.433  1.00  0.00     0.016 A 
ATOM     32  C   UNL A   1      42.818  35.854  33.976  1.00  0.00     0.016 A 
ATOM     33  C   UNL A   1      43.554  32.525  35.106  1.00  0.00     0.010 A 
ATOM     34  C   UNL A   1      41.793  34.588  33.781  1.00  0.00     0.010 A 
ATOM     35  C   UNL A   1      42.111  32.986  34.259  1.00  0.00    -0.014 A 
BRANCH  35  36
ATOM     36  C   UNL A   1      41.033  32.172  33.690  1.00  0.00     0.031 A 
ATOM     37  C   UNL A   1      41.153  31.497  32.403  1.00  0.00     0.074 A 
ATOM     38  C   UNL A   1      40.103  31.696  34.560  1.00  0.00     0.049 A 
ATOM     39  N   UNL A   1      40.299  31.589  31.441  1.00  0.00    -0.248 NA
ATOM     40  C   UNL A   1      42.242  30.553  32.169  1.00  0.00     0.031 C 
ATOM     41  C   UNL A   1      39.203  30.561  34.425  1.00  0.00     0.029 A 
ATOM     42  N   UNL A   1      39.841  32.132  35.853  1.00  0.00    -0.354 N 
ATOM     43  C   UNL A   1      40.571  30.520  30.613  1.00  0.00     0.074 A 
ATOM     44  C   UNL A   1      41.877  30.021  30.998  1.00  0.00     0.031 C 
ATOM     45  C   UNL A   1      38.348  30.550  35.469  1.00  0.00     0.029 A 
ATOM     46  C   UNL A   1      38.595  31.724  36.293  1.00  0.00     0.049 A 
ATOM     47  H   UNL A   1      40.468  32.667  36.392  1.00  0.00     0.167 HD
ATOM     48  C   UNL A   1      39.586  29.832  29.969  1.00  0.00     0.034 A 
ATOM     49  C   UNL A   1      37.706  32.681  36.690  1.00  0.00     0.034 A 
ATOM     50  C   UNL A   1      38.306  30.022  30.652  1.00  0.00     0.049 A 
ATOM     51  C   UNL A   1      36.835  33.029  35.490  1.00  0.00     0.074 A 
ATOM     52  C   UNL A   1      37.614  29.199  31.529  1.00  0.00     0.029 A 
ATOM     53  N   UNL A   1      37.746  31.286  30.791  1.00  0.00    -0.354 N 
ATOM     54  N   UNL A   1      36.853  32.352  34.372  1.00  0.00    -0.248 NA
ATOM     55  C   UNL A   1      35.897  34.143  35.429  1.00  0.00     0.031 C 
ATOM     56  C   UNL A   1      36.703  30.006  32.265  1.00  0.00     0.029 A 
ATOM     57  C   UNL A   1      36.797  31.308  31.803  1.00  0.00     0.049 A 
ATOM     58  H   UNL A   1      37.990  32.064  30.241  1.00  0.00     0.167 HD
ATOM     59  C   UNL A   1      36.083  32.959  33.426  1.00  0.00     0.074 A 
ATOM     60  C   UNL A   1      35.432  34.030  34.170  1.00  0.00     0.031 C 
ATOM     61  C   UNL A   1      36.081  32.544  32.117  1.00  0.00     0.034 A 
BRANCH  48  62
ATOM     62  C   UNL A   1      39.887  28.706  29.005  1.00  0.00     0.023 A 
ATOM     63  C   UNL A   1      40.772  28.881  27.926  1.00  0.00     0.031 A 
ATOM     64  C   UNL A   1      39.379  27.395  29.177  1.00  0.00     0.131 A 
ATOM     65  C   UNL A   1      41.058  27.824  27.038  1.00  0.00     0.055 A 
ATOM     66  C   UNL A   1      39.633  26.354  28.274  1.00  0.00     0.041 A 
ATOM     67  F   UNL A   1      38.628  27.078  30.245  1.00  0.00    -0.206 F 
ATOM     68  C   UNL A   1      40.471  26.569  27.190  1.00  0.00     0.022 A 
BRANCH  65  69
ATOM     69  S   UNL A   1      42.242  28.100  25.690  1.00  0.00     0.124 S 
ATOM     70  O   UNL A   1      42.119  26.869  24.917  1.00  0.00    -0.237 OA
ATOM     71  O   UNL A   1      41.719  29.311  25.066  1.00  0.00    -0.237 OA
ATOM     72  O   UNL A   1      43.517  28.267  26.387  1.00  0.00    -0.744 OA
ENDBRANCH  65  69
ENDBRANCH  48  62
BRANCH  49  73
ATOM     73  C   UNL A   1      38.349  33.627  37.675  1.00  0.00     0.023 A 
ATOM     74  C   UNL A   1      38.620  33.090  38.961  1.00  0.00     0.031 A 
ATOM     75  C   UNL A   1      39.096  34.747  37.278  1.00  0.00     0.131 A 
ATOM     76  C   UNL A   1      39.738  33.516  39.695  1.00  0.00     0.055 A 
ATOM     77  C   UNL A   1      40.159  35.224  38.058  1.00  0.00     0.041 A 
ATOM     78  F   UNL A   1      38.941  35.276  36.057  1.00  0.00    -0.206 F 
ATOM     79  C   UNL A   1      40.528  34.569  39.236  1.00  0.00     0.022 A 
BRANCH  76  80
ATOM     80  S   UNL A   1      40.350  32.508  41.088  1.00  0.00     0.124 S 
ATOM     81  O   UNL A   1      40.586  33.518  42.112  1.00  0.00    -0.237 OA
ATOM     82  O   UNL A   1      39.245  31.588  41.345  1.00  0.00    -0.237 OA
ATOM     83  O   UNL A   1      41.541  31.873  40.526  1.00  0.00    -0.744 OA
ENDBRANCH  76  80
ENDBRANCH  49  73
BRANCH  61  84
ATOM     84  C   UNL A   1      35.309  33.225  31.015  1.00  0.00     0.023 A 
ATOM     85  C   UNL A   1      34.896  34.554  31.094  1.00  0.00     0.031 A 
ATOM     86  C   UNL A   1      34.949  32.536  29.830  1.00  0.00     0.131 A 
ATOM     87  C   UNL A   1      34.011  35.087  30.148  1.00  0.00     0.055 A 
ATOM     88  C   UNL A   1      34.191  33.120  28.814  1.00  0.00     0.041 A 
ATOM     89  F   UNL A   1      35.300  31.259  29.615  1.00  0.00    -0.206 F 
ATOM     90  C   UNL A   1      33.677  34.392  28.991  1.00  0.00     0.022 A 
BRANCH  87  91
ATOM     91  S   UNL A   1      33.167  36.627  30.583  1.00  0.00     0.124 S 
ATOM     92  O   UNL A   1      33.323  37.405  29.356  1.00  0.00    -0.237 OA
ATOM     93  O   UNL A   1      31.812  36.169  30.872  1.00  0.00    -0.237 OA
ATOM     94  O   UNL A   1      33.921  37.118  31.733  1.00  0.00    -0.744 OA
ENDBRANCH  87  91
ENDBRANCH  61  84
ENDBRANCH  35  36
ENDBRANCH  28  30
ENDBRANCH  27  28
ENDBRANCH  26  27
ENDBRANCH   1  26
TORSDOF 18
ENDMDL
MODEL 2
REMARK VINA RESULT:     -10.4      2.686      3.668
REMARK SMILES Cc1cc(OC(F)F)ccc1NC(=O)[C@@H]1CCCC[C@@H]1C(=O)OCCOC(=O)c1ccc(-c2c3nc(c(-c4cc(S(=O)(=O)[O-])ccc4F)c4ccc([nH]4)c(-c4cc(S(=O)(=O)[O-])ccc4F)c4nc(c(-c5cc(S(=O)(=O)[O-])ccc5F)c5ccc2[nH]5)C=C4)C=C3)cc1
REMARK SMILES IDX 24 1 23 2 21 3 22 4 20 5 15 6 16 7 17 8 19 9 18 10 13 11
REMARK SMILES IDX 12 12 14 14 11 15 1 16 2 17 3 18 4 19 10 20 9 21 5 22 6 23
REMARK SMILES IDX 7 24 8 25 25 26 26 27 27 28 28 29 29 30 30 31 91 32 31 33
REMARK SMILES IDX 90 34 32 35 33 36 34 37 84 38 35 39 89 40 83 41 85 42 36 43
REMARK SMILES IDX 88 44 82 45 81 46 37 48 69 49 49 50 68 51 50 52 53 53 67 54
REMARK SMILES IDX 86 55 51 56 52 57 66 59 87 60 54 61 38 62 39 63 47 64 40 65
REMARK SMILES IDX 46 66 48 67 45 68 41 69 42 70 43 71 44 72 70 73 71 74 79 75
REMARK SMILES IDX 72 76 78 77 80 78 77 79 73 80 74 81 75 82 76 83 55 84 56 85
REMARK SMILES IDX 64 86 57 87 63 88 65 89 62 90 58 91 59 92 60 93 61 94
REMARK H PARENT 12 13 85 47 53 58
REMARK Flexibility Score: inf
ROOT
ATOM      1  C   UNL A   1      46.108  38.168  29.739  1.00  0.00     0.274 C 
ENDROOT
BRANCH   1   2
ATOM      2  O   UNL A   1      46.668  39.477  29.588  1.00  0.00    -0.462 OA
BRANCH   2   3
ATOM      3  C   UNL A   1      46.100  40.323  30.456  1.00  0.00     0.309 C 
ATOM      4  O   UNL A   1      46.725  40.602  31.470  1.00  0.00    -0.252 OA
BRANCH   3   5
ATOM      5  C   UNL A   1      44.558  40.854  30.051  1.00  0.00     0.111 C 
ATOM      6  C   UNL A   1      45.229  42.677  29.683  1.00  0.00     0.093 C 
ATOM      7  C   UNL A   1      44.685  44.004  30.757  1.00  0.00     0.014 C 
ATOM      8  C   UNL A   1      43.101  44.009  31.597  1.00  0.00     0.001 C 
ATOM      9  C   UNL A   1      42.613  40.839  31.134  1.00  0.00     0.016 C 
ATOM     10  C   UNL A   1      42.114  42.540  31.925  1.00  0.00     0.001 C 
BRANCH   6  11
ATOM     11  C   UNL A   1      46.652  42.917  29.142  1.00  0.00     0.228 C 
ATOM     12  N   UNL A   1      46.853  42.781  27.782  1.00  0.00    -0.326 N 
ATOM     13  H   UNL A   1      47.785  42.650  27.493  1.00  0.00     0.169 HD
ATOM     14  O   UNL A   1      47.595  43.217  29.875  1.00  0.00    -0.274 OA
BRANCH  12  15
ATOM     15  C   UNL A   1      45.885  42.810  26.763  1.00  0.00     0.044 A 
ATOM     16  C   UNL A   1      45.896  45.371  26.719  1.00  0.00     0.047 C 
ATOM     17  C   UNL A   1      45.429  44.024  26.242  1.00  0.00    -0.024 A 
ATOM     18  C   UNL A   1      44.544  43.985  25.147  1.00  0.00     0.052 A 
ATOM     19  C   UNL A   1      44.178  42.782  24.535  1.00  0.00     0.126 A 
ATOM     20  C   UNL A   1      45.367  41.608  26.258  1.00  0.00     0.030 A 
ATOM     21  C   UNL A   1      44.553  41.585  25.125  1.00  0.00     0.049 A 
BRANCH  19  22
ATOM     22  O   UNL A   1      43.428  42.889  23.399  1.00  0.00    -0.435 OA
BRANCH  22  23
ATOM     23  C   UNL A   1      42.026  42.648  23.540  1.00  0.00     0.542 C 
ATOM     24  F   UNL A   1      41.311  43.524  22.796  1.00  0.00    -0.167 F 
ATOM     25  F   UNL A   1      41.745  41.403  23.074  1.00  0.00    -0.167 F 
ENDBRANCH  22  23
ENDBRANCH  19  22
ENDBRANCH  12  15
ENDBRANCH   6  11
ENDBRANCH   3   5
ENDBRANCH   2   3
ENDBRANCH   1   2
BRANCH   1  26
ATOM     26  C   UNL A   1      46.567  37.169  30.897  1.00  0.00     0.275 C 
BRANCH  26  27
ATOM     27  O   UNL A   1      46.074  36.983  32.341  1.00  0.00    -0.458 OA
BRANCH  27  28
ATOM     28  C   UNL A   1      45.023  36.976  33.239  1.00  0.00     0.338 C 
ATOM     29  O   UNL A   1      44.637  38.027  33.729  1.00  0.00    -0.246 OA
BRANCH  28  30
ATOM     30  C   UNL A   1      44.455  35.618  33.627  1.00  0.00     0.060 A 
ATOM     31  C   UNL A   1      44.372  34.195  34.972  1.00  0.00     0.016 A 
ATOM     32  C   UNL A   1      43.372  35.481  32.277  1.00  0.00     0.016 A 
ATOM     33  C   UNL A   1      43.069  32.977  34.834  1.00  0.00     0.010 A 
ATOM     34  C   UNL A   1      42.190  34.342  32.290  1.00  0.00     0.010 A 
ATOM     35  C   UNL A   1      42.027  33.111  33.453  1.00  0.00    -0.014 A 
BRANCH  35  36
ATOM     36  C   UNL A   1      40.989  32.210  32.945  1.00  0.00     0.031 A 
ATOM     37  C   UNL A   1      41.156  31.424  31.729  1.00  0.00     0.074 A 
ATOM     38  C   UNL A   1      40.060  31.783  33.842  1.00  0.00     0.049 A 
ATOM     39  N   UNL A   1      40.316  31.396  30.749  1.00  0.00    -0.248 NA
ATOM     40  C   UNL A   1      42.281  30.502  31.600  1.00  0.00     0.031 C 
ATOM     41  C   UNL A   1      39.202  30.609  33.799  1.00  0.00     0.029 A 
ATOM     42  N   UNL A   1      39.759  32.326  35.085  1.00  0.00    -0.354 N 
ATOM     43  C   UNL A   1      40.640  30.266  30.029  1.00  0.00     0.074 A 
ATOM     44  C   UNL A   1      41.955  29.852  30.478  1.00  0.00     0.031 C 
ATOM     45  C   UNL A   1      38.329  30.663  34.827  1.00  0.00     0.029 A 
ATOM     46  C   UNL A   1      38.521  31.916  35.542  1.00  0.00     0.049 A 
ATOM     47  H   UNL A   1      40.357  32.931  35.581  1.00  0.00     0.167 HD
ATOM     48  C   UNL A   1      39.692  29.486  29.436  1.00  0.00     0.034 A 
ATOM     49  C   UNL A   1      37.592  32.873  35.835  1.00  0.00     0.034 A 
ATOM     50  C   UNL A   1      38.393  29.692  30.080  1.00  0.00     0.049 A 
ATOM     51  C   UNL A   1      36.732  33.077  34.595  1.00  0.00     0.074 A 
ATOM     52  C   UNL A   1      37.714  28.929  31.018  1.00  0.00     0.029 A 
ATOM     53  N   UNL A   1      37.788  30.943  30.092  1.00  0.00    -0.354 N 
ATOM     54  N   UNL A   1      36.794  32.301  33.544  1.00  0.00    -0.248 NA
ATOM     55  C   UNL A   1      35.757  34.147  34.417  1.00  0.00     0.031 C 
ATOM     56  C   UNL A   1      36.763  29.767  31.662  1.00  0.00     0.029 A 
ATOM     57  C   UNL A   1      36.821  31.024  31.084  1.00  0.00     0.049 A 
ATOM     58  H   UNL A   1      38.015  31.676  29.476  1.00  0.00     0.167 HD
ATOM     59  C   UNL A   1      36.020  32.791  32.535  1.00  0.00     0.074 A 
ATOM     60  C   UNL A   1      35.320  33.902  33.167  1.00  0.00     0.031 C 
ATOM     61  C   UNL A   1      36.057  32.257  31.271  1.00  0.00     0.034 A 
BRANCH  48  62
ATOM     62  C   UNL A   1      40.048  28.288  28.586  1.00  0.00     0.023 A 
ATOM     63  C   UNL A   1      40.977  28.385  27.534  1.00  0.00     0.031 A 
ATOM     64  C   UNL A   1      39.551  26.988  28.847  1.00  0.00     0.131 A 
ATOM     65  C   UNL A   1      41.315  27.262  26.752  1.00  0.00     0.055 A 
ATOM     66  C   UNL A   1      39.858  25.879  28.049  1.00  0.00     0.041 A 
ATOM     67  F   UNL A   1      38.759  26.750  29.906  1.00  0.00    -0.206 F 
ATOM     68  C   UNL A   1      40.739  26.015  26.986  1.00  0.00     0.022 A 
BRANCH  65  69
ATOM     69  S   UNL A   1      42.552  27.443  25.436  1.00  0.00     0.124 S 
ATOM     70  O   UNL A   1      42.437  26.172  24.730  1.00  0.00    -0.237 OA
ATOM     71  O   UNL A   1      42.074  28.624  24.725  1.00  0.00    -0.237 OA
ATOM     72  O   UNL A   1      43.804  27.631  26.170  1.00  0.00    -0.744 OA
ENDBRANCH  65  69
ENDBRANCH  48  62
BRANCH  49  73
ATOM     73  C   UNL A   1      38.184  33.929  36.737  1.00  0.00     0.023 A 
ATOM     74  C   UNL A   1      38.326  33.565  38.103  1.00  0.00     0.031 A 
ATOM     75  C   UNL A   1      39.000  34.965  36.261  1.00  0.00     0.131 A 
ATOM     76  C   UNL A   1      39.395  34.059  38.868  1.00  0.00     0.055 A 
ATOM     77  C   UNL A   1      40.011  35.518  37.061  1.00  0.00     0.041 A 
ATOM     78  F   UNL A   1      38.967  35.327  34.972  1.00  0.00    -0.206 F 
ATOM     79  C   UNL A   1      40.256  35.020  38.343  1.00  0.00     0.022 A 
BRANCH  76  80
ATOM     80  S   UNL A   1      39.851  33.235  40.431  1.00  0.00     0.124 S 
ATOM     81  O   UNL A   1      38.917  32.116  40.467  1.00  0.00    -0.237 OA
ATOM     82  O   UNL A   1      41.255  32.886  40.227  1.00  0.00    -0.237 OA
ATOM     83  O   UNL A   1      39.632  34.285  41.424  1.00  0.00    -0.744 OA
ENDBRANCH  76  80
ENDBRANCH  49  73
BRANCH  61  84
ATOM     84  C   UNL A   1      35.282  32.805  30.098  1.00  0.00     0.023 A 
ATOM     85  C   UNL A   1      35.005  34.163  29.946  1.00  0.00     0.031 A 
ATOM     86  C   UNL A   1      34.779  31.956  29.083  1.00  0.00     0.131 A 
ATOM     87  C   UNL A   1      34.115  34.608  28.961  1.00  0.00     0.055 A 
ATOM     88  C   UNL A   1      34.014  32.423  28.013  1.00  0.00     0.041 A 
ATOM     89  F   UNL A   1      34.990  30.630  29.094  1.00  0.00    -0.206 F 
ATOM     90  C   UNL A   1      33.638  33.754  27.972  1.00  0.00     0.022 A 
BRANCH  87  91
ATOM     91  S   UNL A   1      33.454  36.282  29.139  1.00  0.00     0.124 S 
ATOM     92  O   UNL A   1      32.073  36.102  28.696  1.00  0.00    -0.237 OA
ATOM     93  O   UNL A   1      33.632  36.538  30.564  1.00  0.00    -0.237 OA
ATOM     94  O   UNL A   1      34.295  37.078  28.249  1.00  0.00    -0.744 OA
ENDBRANCH  87  91
ENDBRANCH  61  84
ENDBRANCH  35  36
ENDBRANCH  28  30
ENDBRANCH  27  28
ENDBRANCH  26  27
ENDBRANCH   1  26
TORSDOF 18
ENDMDL
MODEL 3
REMARK VINA RESULT:     -10.4      5.458     11.681
REMARK SMILES Cc1cc(OC(F)F)ccc1NC(=O)[C@@H]1CCCC[C@@H]1C(=O)OCCOC(=O)c1ccc(-c2c3nc(c(-c4cc(S(=O)(=O)[O-])ccc4F)c4ccc([nH]4)c(-c4cc(S(=O)(=O)[O-])ccc4F)c4nc(c(-c5cc(S(=O)(=O)[O-])ccc5F)c5ccc2[nH]5)C=C4)C=C3)cc1
REMARK SMILES IDX 24 1 23 2 21 3 22 4 20 5 15 6 16 7 17 8 19 9 18 10 13 11
REMARK SMILES IDX 12 12 14 14 11 15 1 16 2 17 3 18 4 19 10 20 9 21 5 22 6 23
REMARK SMILES IDX 7 24 8 25 25 26 26 27 27 28 28 29 29 30 30 31 91 32 31 33
REMARK SMILES IDX 90 34 32 35 33 36 34 37 84 38 35 39 89 40 83 41 85 42 36 43
REMARK SMILES IDX 88 44 82 45 81 46 37 48 69 49 49 50 68 51 50 52 53 53 67 54
REMARK SMILES IDX 86 55 51 56 52 57 66 59 87 60 54 61 38 62 39 63 47 64 40 65
REMARK SMILES IDX 46 66 48 67 45 68 41 69 42 70 43 71 44 72 70 73 71 74 79 75
REMARK SMILES IDX 72 76 78 77 80 78 77 79 73 80 74 81 75 82 76 83 55 84 56 85
REMARK SMILES IDX 64 86 57 87 63 88 65 89 62 90 58 91 59 92 60 93 61 94
REMARK H PARENT 12 13 85 47 53 58
REMARK Flexibility Score: inf
ROOT
ATOM      1  C   UNL A   1      33.544  29.641  27.488  1.00  0.00     0.274 C 
ENDROOT
BRANCH   1   2
ATOM      2  O   UNL A   1      32.623  28.675  26.968  1.00  0.00    -0.462 OA
BRANCH   2   3
ATOM      3  C   UNL A   1      33.204  27.966  25.994  1.00  0.00     0.309 C 
ATOM      4  O   UNL A   1      34.231  27.359  26.266  1.00  0.00    -0.252 OA
BRANCH   3   5
ATOM      5  C   UNL A   1      32.459  28.050  24.489  1.00  0.00     0.111 C 
ATOM      6  C   UNL A   1      31.474  26.369  24.828  1.00  0.00     0.093 C 
ATOM      7  C   UNL A   1      31.871  24.946  23.814  1.00  0.00     0.014 C 
ATOM      8  C   UNL A   1      32.465  25.070  22.127  1.00  0.00     0.001 C 
ATOM      9  C   UNL A   1      33.244  28.202  22.412  1.00  0.00     0.016 C 
ATOM     10  C   UNL A   1      33.239  26.533  21.421  1.00  0.00     0.001 C 
BRANCH   6  11
ATOM     11  C   UNL A   1      31.039  25.964  26.249  1.00  0.00     0.228 C 
ATOM     12  N   UNL A   1      31.501  24.760  26.743  1.00  0.00    -0.326 N 
ATOM     13  H   UNL A   1      31.001  24.383  27.504  1.00  0.00     0.169 HD
ATOM     14  O   UNL A   1      30.303  26.669  26.940  1.00  0.00    -0.274 OA
BRANCH  12  15
ATOM     15  C   UNL A   1      32.600  24.010  26.290  1.00  0.00     0.044 A 
ATOM     16  C   UNL A   1      31.100  22.016  25.711  1.00  0.00     0.047 C 
ATOM     17  C   UNL A   1      32.428  22.716  25.790  1.00  0.00    -0.024 A 
ATOM     18  C   UNL A   1      33.550  22.059  25.248  1.00  0.00     0.052 A 
ATOM     19  C   UNL A   1      34.792  22.691  25.133  1.00  0.00     0.126 A 
ATOM     20  C   UNL A   1      33.889  24.561  26.337  1.00  0.00     0.030 A 
ATOM     21  C   UNL A   1      34.974  23.930  25.726  1.00  0.00     0.049 A 
BRANCH  19  22
ATOM     22  O   UNL A   1      35.759  21.999  24.464  1.00  0.00    -0.435 OA
BRANCH  22  23
ATOM     23  C   UNL A   1      36.269  22.607  23.276  1.00  0.00     0.542 C 
ATOM     24  F   UNL A   1      35.353  23.439  22.731  1.00  0.00    -0.167 F 
ATOM     25  F   UNL A   1      37.354  23.360  23.597  1.00  0.00    -0.167 F 
ENDBRANCH  22  23
ENDBRANCH  19  22
ENDBRANCH  12  15
ENDBRANCH   6  11
ENDBRANCH   3   5
ENDBRANCH   2   3
ENDBRANCH   1   2
BRANCH   1  26
ATOM     26  C   UNL A   1      33.440  31.196  27.142  1.00  0.00     0.275 C 
BRANCH  26  27
ATOM     27  O   UNL A   1      33.555  32.448  28.026  1.00  0.00    -0.458 OA
BRANCH  27  28
ATOM     28  C   UNL A   1      34.333  33.261  28.829  1.00  0.00     0.338 C 
ATOM     29  O   UNL A   1      34.291  34.474  28.686  1.00  0.00    -0.246 OA
BRANCH  28  30
ATOM     30  C   UNL A   1      35.270  32.570  29.810  1.00  0.00     0.060 A 
ATOM     31  C   UNL A   1      35.467  31.679  31.544  1.00  0.00     0.016 A 
ATOM     32  C   UNL A   1      36.646  32.533  28.752  1.00  0.00     0.016 A 
ATOM     33  C   UNL A   1      36.951  30.725  31.840  1.00  0.00     0.010 A 
ATOM     34  C   UNL A   1      37.934  31.584  29.119  1.00  0.00     0.010 A 
ATOM     35  C   UNL A   1      38.146  30.742  30.583  1.00  0.00    -0.014 A 
BRANCH  35  36
ATOM     36  C   UNL A   1      39.517  30.225  30.557  1.00  0.00     0.031 A 
ATOM     37  C   UNL A   1      39.942  29.169  29.645  1.00  0.00     0.074 A 
ATOM     38  C   UNL A   1      40.483  31.031  31.071  1.00  0.00     0.049 A 
ATOM     39  N   UNL A   1      40.560  28.094  30.000  1.00  0.00    -0.248 NA
ATOM     40  C   UNL A   1      39.778  29.336  28.203  1.00  0.00     0.031 C 
ATOM     41  C   UNL A   1      41.917  31.034  30.824  1.00  0.00     0.029 A 
ATOM     42  N   UNL A   1      40.324  32.128  31.910  1.00  0.00    -0.354 N 
ATOM     43  C   UNL A   1      41.114  27.595  28.840  1.00  0.00     0.074 A 
ATOM     44  C   UNL A   1      40.462  28.282  27.742  1.00  0.00     0.031 C 
ATOM     45  C   UNL A   1      42.508  31.907  31.666  1.00  0.00     0.029 A 
ATOM     46  C   UNL A   1      41.499  32.456  32.559  1.00  0.00     0.049 A 
ATOM     47  H   UNL A   1      39.475  32.613  32.026  1.00  0.00     0.167 HD
ATOM     48  C   UNL A   1      42.335  26.990  28.820  1.00  0.00     0.034 A 
ATOM     49  C   UNL A   1      41.498  32.474  33.925  1.00  0.00     0.034 A 
ATOM     50  C   UNL A   1      43.124  27.406  29.981  1.00  0.00     0.049 A 
ATOM     51  C   UNL A   1      41.968  31.107  34.405  1.00  0.00     0.074 A 
ATOM     52  C   UNL A   1      44.146  28.336  30.099  1.00  0.00     0.029 A 
ATOM     53  N   UNL A   1      42.686  27.153  31.276  1.00  0.00    -0.354 N 
ATOM     54  N   UNL A   1      42.462  30.198  33.605  1.00  0.00    -0.248 NA
ATOM     55  C   UNL A   1      41.920  30.641  35.786  1.00  0.00     0.031 C 
ATOM     56  C   UNL A   1      44.245  28.712  31.467  1.00  0.00     0.029 A 
ATOM     57  C   UNL A   1      43.325  27.974  32.193  1.00  0.00     0.049 A 
ATOM     58  H   UNL A   1      42.010  26.478  31.511  1.00  0.00     0.167 HD
ATOM     59  C   UNL A   1      42.671  29.029  34.274  1.00  0.00     0.074 A 
ATOM     60  C   UNL A   1      42.400  29.389  35.659  1.00  0.00     0.031 C 
ATOM     61  C   UNL A   1      43.013  27.872  33.618  1.00  0.00     0.034 A 
BRANCH  48  62
ATOM     62  C   UNL A   1      42.913  26.380  27.563  1.00  0.00     0.023 A 
ATOM     63  C   UNL A   1      42.711  25.024  27.247  1.00  0.00     0.031 A 
ATOM     64  C   UNL A   1      43.604  27.141  26.590  1.00  0.00     0.131 A 
ATOM     65  C   UNL A   1      43.242  24.463  26.068  1.00  0.00     0.055 A 
ATOM     66  C   UNL A   1      44.163  26.577  25.436  1.00  0.00     0.041 A 
ATOM     67  F   UNL A   1      43.744  28.471  26.722  1.00  0.00    -0.206 F 
ATOM     68  C   UNL A   1      43.991  25.226  25.174  1.00  0.00     0.022 A 
BRANCH  65  69
ATOM     69  S   UNL A   1      42.910  22.717  25.695  1.00  0.00     0.124 S 
ATOM     70  O   UNL A   1      43.801  22.031  26.624  1.00  0.00    -0.237 OA
ATOM     71  O   UNL A   1      41.481  22.610  25.970  1.00  0.00    -0.237 OA
ATOM     72  O   UNL A   1      43.277  22.596  24.284  1.00  0.00    -0.744 OA
ENDBRANCH  65  69
ENDBRANCH  48  62
BRANCH  49  73
ATOM     73  C   UNL A   1      40.340  33.292  34.444  1.00  0.00     0.023 A 
ATOM     74  C   UNL A   1      39.385  32.587  35.224  1.00  0.00     0.031 A 
ATOM     75  C   UNL A   1      40.409  34.682  34.619  1.00  0.00     0.131 A 
ATOM     76  C   UNL A   1      38.714  33.221  36.281  1.00  0.00     0.055 A 
ATOM     77  C   UNL A   1      39.668  35.325  35.621  1.00  0.00     0.041 A 
ATOM     78  F   UNL A   1      41.323  35.411  33.963  1.00  0.00    -0.206 F 
ATOM     79  C   UNL A   1      38.870  34.588  36.500  1.00  0.00     0.022 A 
BRANCH  76  80
ATOM     80  S   UNL A   1      37.879  32.221  37.559  1.00  0.00     0.124 S 
ATOM     81  O   UNL A   1      36.585  32.885  37.665  1.00  0.00    -0.237 OA
ATOM     82  O   UNL A   1      37.861  30.882  36.976  1.00  0.00    -0.237 OA
ATOM     83  O   UNL A   1      38.769  32.363  38.709  1.00  0.00    -0.744 OA
ENDBRANCH  76  80
ENDBRANCH  49  73
BRANCH  61  84
ATOM     84  C   UNL A   1      43.182  26.535  34.295  1.00  0.00     0.023 A 
ATOM     85  C   UNL A   1      44.419  25.902  34.413  1.00  0.00     0.031 A 
ATOM     86  C   UNL A   1      42.078  25.838  34.843  1.00  0.00     0.131 A 
ATOM     87  C   UNL A   1      44.507  24.578  34.861  1.00  0.00     0.055 A 
ATOM     88  C   UNL A   1      42.192  24.576  35.429  1.00  0.00     0.041 A 
ATOM     89  F   UNL A   1      40.834  26.341  34.816  1.00  0.00    -0.206 F 
ATOM     90  C   UNL A   1      43.408  23.917  35.399  1.00  0.00     0.022 A 
BRANCH  87  91
ATOM     91  S   UNL A   1      46.051  23.695  34.533  1.00  0.00     0.124 S 
ATOM     92  O   UNL A   1      46.725  24.613  33.616  1.00  0.00    -0.237 OA
ATOM     93  O   UNL A   1      46.639  23.588  35.864  1.00  0.00    -0.237 OA
ATOM     94  O   UNL A   1      45.607  22.438  33.939  1.00  0.00    -0.744 OA
ENDBRANCH  87  91
ENDBRANCH  61  84
ENDBRANCH  35  36
ENDBRANCH  28  30
ENDBRANCH  27  28
ENDBRANCH  26  27
ENDBRANCH   1  26
TORSDOF 18
ENDMDL
