MODEL 1
REMARK VINA RESULT:     -12.2      0.000      0.000
REMARK SMILES O=C(COc1ccccc1/C=C1/SC(=S)N(c2ccc(F)c(Cl)c2)C1=O)OCCOC(=O)c1ccc(-c2c3nc(c(-c4cc(S(=O)(=O)[O-])ccc4F)c4ccc([nH]4)c(-c4cc(S(=O)(=O)[O-])ccc4F)c4nc(c(-c5cc(S(=O)(=O)[O-])ccc5F)c5ccc2[nH]5)C=C4)C=C3)cc1
REMARK SMILES IDX 28 1 27 2 2 3 1 4 3 5 4 6 5 7 6 8 10 9 7 10 9 11 8 12 11 13
REMARK SMILES IDX 12 14 13 15 25 16 14 17 16 18 26 19 15 20 17 21 18 22 24 23
REMARK SMILES IDX 19 24 22 25 20 26 23 27 21 28 29 29 30 30 31 31 32 32 33 33
REMARK SMILES IDX 34 34 95 35 35 36 94 37 36 38 37 39 38 40 88 41 39 42 93 43
REMARK SMILES IDX 87 44 89 45 40 46 92 47 86 48 85 49 41 51 73 52 53 53 72 54
REMARK SMILES IDX 54 55 57 56 71 57 90 58 55 59 56 60 70 62 91 63 58 64 42 65
REMARK SMILES IDX 43 66 51 67 44 68 50 69 52 70 49 71 45 72 46 73 47 74 48 75
REMARK SMILES IDX 74 76 75 77 83 78 76 79 82 80 84 81 81 82 77 83 78 84 79 85
REMARK SMILES IDX 80 86 59 87 60 88 68 89 61 90 67 91 69 92 66 93 62 94 63 95
REMARK SMILES IDX 64 96 65 97
REMARK H PARENT 89 50 57 61
REMARK Flexibility Score: inf
ROOT
ATOM      1  C   UNL A   1      31.586  29.354  24.309  1.00  0.00     0.274 C 
ENDROOT
BRANCH   1   2
ATOM      2  O   UNL A   1      32.873  28.987  23.766  1.00  0.00    -0.460 OA
BRANCH   2   3
ATOM      3  C   UNL A   1      33.016  28.275  22.618  1.00  0.00     0.344 C 
ATOM      4  O   UNL A   1      34.110  28.196  22.065  1.00  0.00    -0.248 OA
BRANCH   3   5
ATOM      5  C   UNL A   1      31.825  27.479  22.136  1.00  0.00     0.352 C 
BRANCH   5   6
ATOM      6  O   UNL A   1      32.015  26.116  22.520  1.00  0.00    -0.481 OA
BRANCH   6   7
ATOM      7  C   UNL A   1      31.489  25.879  23.766  1.00  0.00     0.127 A 
ATOM      8  C   UNL A   1      30.136  26.194  23.926  1.00  0.00     0.047 A 
ATOM      9  C   UNL A   1      32.247  25.369  24.837  1.00  0.00     0.018 A 
ATOM     10  C   UNL A   1      29.504  25.951  25.141  1.00  0.00     0.004 A 
ATOM     11  C   UNL A   1      31.587  25.124  26.051  1.00  0.00     0.012 A 
ATOM     12  C   UNL A   1      30.228  25.412  26.202  1.00  0.00     0.001 A 
BRANCH   9  13
ATOM     13  C   UNL A   1      33.661  24.960  24.762  1.00  0.00     0.033 C 
ATOM     14  C   UNL A   1      34.173  23.733  24.581  1.00  0.00     0.081 C 
ATOM     15  S   UNL A   1      35.863  23.413  24.682  1.00  0.00    -0.054 SA
ATOM     16  C   UNL A   1      33.436  22.455  24.386  1.00  0.00     0.270 C 
ATOM     17  C   UNL A   1      35.622  21.673  24.832  1.00  0.00     0.152 C 
ATOM     18  N   UNL A   1      34.276  21.368  24.662  1.00  0.00    -0.261 N 
ATOM     19  O   UNL A   1      32.264  22.416  24.037  1.00  0.00    -0.268 OA
ATOM     20  S   UNL A   1      36.940  20.653  25.001  1.00  0.00    -0.051 S 
BRANCH  18  21
ATOM     21  C   UNL A   1      33.704  20.054  24.779  1.00  0.00     0.052 A 
ATOM     22  C   UNL A   1      32.955  19.702  25.915  1.00  0.00     0.030 A 
ATOM     23  C   UNL A   1      33.986  19.047  23.839  1.00  0.00     0.050 A 
ATOM     24  C   UNL A   1      32.529  18.388  26.126  1.00  0.00     0.043 A 
ATOM     25  C   UNL A   1      33.576  17.727  24.062  1.00  0.00     0.078 A 
ATOM     26  C   UNL A   1      32.855  17.403  25.205  1.00  0.00     0.141 A 
ATOM     27  Cl  UNL A   1      34.038  16.501  22.943  1.00  0.00    -0.081 Cl
ATOM     28  F   UNL A   1      32.481  16.139  25.450  1.00  0.00    -0.205 F 
ENDBRANCH  18  21
ENDBRANCH   9  13
ENDBRANCH   6   7
ENDBRANCH   5   6
ENDBRANCH   3   5
ENDBRANCH   2   3
ENDBRANCH   1   2
BRANCH   1  29
ATOM     29  C   UNL A   1      31.755  29.590  25.812  1.00  0.00     0.275 C 
BRANCH  29  30
ATOM     30  O   UNL A   1      33.092  30.067  26.028  1.00  0.00    -0.458 OA
BRANCH  30  31
ATOM     31  C   UNL A   1      33.218  31.121  26.879  1.00  0.00     0.338 C 
ATOM     32  O   UNL A   1      32.359  31.928  27.163  1.00  0.00    -0.246 OA
BRANCH  31  33
ATOM     33  C   UNL A   1      34.491  30.916  27.617  1.00  0.00     0.060 A 
ATOM     34  C   UNL A   1      34.866  29.614  27.976  1.00  0.00     0.016 A 
ATOM     35  C   UNL A   1      35.367  31.983  27.836  1.00  0.00     0.016 A 
ATOM     36  C   UNL A   1      36.130  29.372  28.522  1.00  0.00     0.010 A 
ATOM     37  C   UNL A   1      36.619  31.746  28.396  1.00  0.00     0.010 A 
ATOM     38  C   UNL A   1      37.005  30.443  28.746  1.00  0.00    -0.014 A 
BRANCH  38  39
ATOM     39  C   UNL A   1      38.260  30.280  29.510  1.00  0.00     0.031 A 
ATOM     40  C   UNL A   1      39.271  29.308  28.976  1.00  0.00     0.074 A 
ATOM     41  C   UNL A   1      38.425  30.876  30.705  1.00  0.00     0.049 A 
ATOM     42  N   UNL A   1      40.325  28.807  29.558  1.00  0.00    -0.248 NA
ATOM     43  C   UNL A   1      39.040  28.815  27.608  1.00  0.00     0.031 C 
ATOM     44  C   UNL A   1      37.511  31.852  31.298  1.00  0.00     0.029 A 
ATOM     45  N   UNL A   1      39.400  30.708  31.656  1.00  0.00    -0.354 N 
ATOM     46  C   UNL A   1      40.875  27.924  28.635  1.00  0.00     0.074 A 
ATOM     47  C   UNL A   1      40.031  27.949  27.462  1.00  0.00     0.031 C 
ATOM     48  C   UNL A   1      37.947  32.163  32.532  1.00  0.00     0.029 A 
ATOM     49  C   UNL A   1      39.140  31.373  32.833  1.00  0.00     0.049 A 
ATOM     50  H   UNL A   1      40.208  30.164  31.511  1.00  0.00     0.167 HD
ATOM     51  C   UNL A   1      41.981  27.156  28.767  1.00  0.00     0.034 A 
ATOM     52  C   UNL A   1      39.767  31.305  34.027  1.00  0.00     0.034 A 
ATOM     53  C   UNL A   1      42.797  27.134  29.951  1.00  0.00     0.049 A 
ATOM     54  C   UNL A   1      40.956  30.379  34.170  1.00  0.00     0.074 A 
ATOM     55  C   UNL A   1      43.970  26.438  30.175  1.00  0.00     0.029 A 
ATOM     56  N   UNL A   1      42.509  27.823  31.121  1.00  0.00    -0.354 N 
ATOM     57  N   UNL A   1      41.504  29.591  33.271  1.00  0.00    -0.248 NA
ATOM     58  C   UNL A   1      41.609  30.328  35.486  1.00  0.00     0.031 C 
ATOM     59  C   UNL A   1      44.351  26.646  31.506  1.00  0.00     0.029 A 
ATOM     60  C   UNL A   1      43.456  27.530  32.088  1.00  0.00     0.049 A 
ATOM     61  H   UNL A   1      41.744  28.430  31.246  1.00  0.00     0.167 HD
ATOM     62  C   UNL A   1      42.577  28.973  33.909  1.00  0.00     0.074 A 
ATOM     63  C   UNL A   1      42.612  29.492  35.260  1.00  0.00     0.031 C 
ATOM     64  C   UNL A   1      43.460  28.060  33.430  1.00  0.00     0.034 A 
BRANCH  51  65
ATOM     65  C   UNL A   1      42.329  26.237  27.626  1.00  0.00     0.023 A 
ATOM     66  C   UNL A   1      41.839  24.922  27.558  1.00  0.00     0.031 A 
ATOM     67  C   UNL A   1      43.175  26.685  26.597  1.00  0.00     0.131 A 
ATOM     68  C   UNL A   1      42.238  24.084  26.506  1.00  0.00     0.055 A 
ATOM     69  C   UNL A   1      43.516  25.868  25.519  1.00  0.00     0.041 A 
ATOM     70  F   UNL A   1      43.693  27.923  26.629  1.00  0.00    -0.206 F 
ATOM     71  C   UNL A   1      43.054  24.555  25.474  1.00  0.00     0.022 A 
BRANCH  68  72
ATOM     72  S   UNL A   1      41.754  22.338  26.556  1.00  0.00     0.124 S 
ATOM     73  O   UNL A   1      42.439  21.810  25.380  1.00  0.00    -0.237 OA
ATOM     74  O   UNL A   1      42.274  21.902  27.847  1.00  0.00    -0.237 OA
ATOM     75  O   UNL A   1      40.297  22.384  26.454  1.00  0.00    -0.744 OA
ENDBRANCH  68  72
ENDBRANCH  51  65
BRANCH  52  76
ATOM     76  C   UNL A   1      39.258  32.061  35.212  1.00  0.00     0.023 A 
ATOM     77  C   UNL A   1      39.656  33.385  35.452  1.00  0.00     0.031 A 
ATOM     78  C   UNL A   1      38.446  31.435  36.176  1.00  0.00     0.131 A 
ATOM     79  C   UNL A   1      39.300  34.019  36.653  1.00  0.00     0.055 A 
ATOM     80  C   UNL A   1      38.044  32.091  37.342  1.00  0.00     0.041 A 
ATOM     81  F   UNL A   1      38.037  30.168  36.003  1.00  0.00    -0.206 F 
ATOM     82  C   UNL A   1      38.487  33.385  37.595  1.00  0.00     0.022 A 
BRANCH  79  83
ATOM     83  S   UNL A   1      40.019  35.643  37.024  1.00  0.00     0.124 S 
ATOM     84  O   UNL A   1      39.335  35.993  38.265  1.00  0.00    -0.237 OA
ATOM     85  O   UNL A   1      41.437  35.324  37.140  1.00  0.00    -0.237 OA
ATOM     86  O   UNL A   1      39.654  36.450  35.861  1.00  0.00    -0.744 OA
ENDBRANCH  79  83
ENDBRANCH  52  76
BRANCH  64  87
ATOM     87  C   UNL A   1      44.551  27.600  34.362  1.00  0.00     0.023 A 
ATOM     88  C   UNL A   1      44.417  26.433  35.132  1.00  0.00     0.031 A 
ATOM     89  C   UNL A   1      45.748  28.331  34.464  1.00  0.00     0.131 A 
ATOM     90  C   UNL A   1      45.447  26.052  36.005  1.00  0.00     0.055 A 
ATOM     91  C   UNL A   1      46.792  27.917  35.291  1.00  0.00     0.041 A 
ATOM     92  F   UNL A   1      45.926  29.453  33.748  1.00  0.00    -0.206 F 
ATOM     93  C   UNL A   1      46.641  26.776  36.074  1.00  0.00     0.022 A 
BRANCH  90  94
ATOM     94  S   UNL A   1      45.184  24.628  37.095  1.00  0.00     0.124 S 
ATOM     95  O   UNL A   1      44.692  23.620  36.162  1.00  0.00    -0.237 OA
ATOM     96  O   UNL A   1      46.518  24.397  37.637  1.00  0.00    -0.237 OA
ATOM     97  O   UNL A   1      44.200  25.113  38.062  1.00  0.00    -0.744 OA
ENDBRANCH  90  94
ENDBRANCH  64  87
ENDBRANCH  38  39
ENDBRANCH  31  33
ENDBRANCH  30  31
ENDBRANCH  29  30
ENDBRANCH   1  29
TORSDOF 18
ENDMDL
MODEL 2
REMARK VINA RESULT:     -11.7      5.445     10.267
REMARK SMILES O=C(COc1ccccc1/C=C1/SC(=S)N(c2ccc(F)c(Cl)c2)C1=O)OCCOC(=O)c1ccc(-c2c3nc(c(-c4cc(S(=O)(=O)[O-])ccc4F)c4ccc([nH]4)c(-c4cc(S(=O)(=O)[O-])ccc4F)c4nc(c(-c5cc(S(=O)(=O)[O-])ccc5F)c5ccc2[nH]5)C=C4)C=C3)cc1
REMARK SMILES IDX 28 1 27 2 2 3 1 4 3 5 4 6 5 7 6 8 10 9 7 10 9 11 8 12 11 13
REMARK SMILES IDX 12 14 13 15 25 16 14 17 16 18 26 19 15 20 17 21 18 22 24 23
REMARK SMILES IDX 19 24 22 25 20 26 23 27 21 28 29 29 30 30 31 31 32 32 33 33
REMARK SMILES IDX 34 34 95 35 35 36 94 37 36 38 37 39 38 40 88 41 39 42 93 43
REMARK SMILES IDX 87 44 89 45 40 46 92 47 86 48 85 49 41 51 73 52 53 53 72 54
REMARK SMILES IDX 54 55 57 56 71 57 90 58 55 59 56 60 70 62 91 63 58 64 42 65
REMARK SMILES IDX 43 66 51 67 44 68 50 69 52 70 49 71 45 72 46 73 47 74 48 75
REMARK SMILES IDX 74 76 75 77 83 78 76 79 82 80 84 81 81 82 77 83 78 84 79 85
REMARK SMILES IDX 80 86 59 87 60 88 68 89 61 90 67 91 69 92 66 93 62 94 63 95
REMARK SMILES IDX 64 96 65 97
REMARK H PARENT 89 50 57 61
REMARK Flexibility Score: inf
ROOT
ATOM      1  C   UNL A   1      35.736  21.222  24.902  1.00  0.00     0.274 C 
ENDROOT
BRANCH   1   2
ATOM      2  O   UNL A   1      35.164  21.227  26.228  1.00  0.00    -0.460 OA
BRANCH   2   3
ATOM      3  C   UNL A   1      33.841  21.028  26.465  1.00  0.00     0.344 C 
ATOM      4  O   UNL A   1      33.383  19.891  26.527  1.00  0.00    -0.248 OA
BRANCH   3   5
ATOM      5  C   UNL A   1      32.999  22.242  26.788  1.00  0.00     0.352 C 
BRANCH   5   6
ATOM      6  O   UNL A   1      31.909  22.285  25.867  1.00  0.00    -0.481 OA
BRANCH   6   7
ATOM      7  C   UNL A   1      32.356  22.482  24.585  1.00  0.00     0.127 A 
ATOM      8  C   UNL A   1      32.104  21.442  23.685  1.00  0.00     0.047 A 
ATOM      9  C   UNL A   1      33.045  23.641  24.180  1.00  0.00     0.018 A 
ATOM     10  C   UNL A   1      32.485  21.568  22.352  1.00  0.00     0.004 A 
ATOM     11  C   UNL A   1      33.413  23.750  22.830  1.00  0.00     0.012 A 
ATOM     12  C   UNL A   1      33.135  22.722  21.924  1.00  0.00     0.001 A 
BRANCH   9  13
ATOM     13  C   UNL A   1      33.318  24.812  25.032  1.00  0.00     0.033 C 
ATOM     14  C   UNL A   1      32.654  25.976  25.101  1.00  0.00     0.081 C 
ATOM     15  S   UNL A   1      33.213  27.305  26.045  1.00  0.00    -0.054 SA
ATOM     16  C   UNL A   1      31.443  26.383  24.338  1.00  0.00     0.270 C 
ATOM     17  C   UNL A   1      32.156  28.454  25.227  1.00  0.00     0.152 C 
ATOM     18  N   UNL A   1      31.308  27.777  24.356  1.00  0.00    -0.261 N 
ATOM     19  O   UNL A   1      30.706  25.574  23.790  1.00  0.00    -0.268 OA
ATOM     20  S   UNL A   1      32.184  30.074  25.654  1.00  0.00    -0.051 S 
BRANCH  18  21
ATOM     21  C   UNL A   1      30.355  28.400  23.479  1.00  0.00     0.052 A 
ATOM     22  C   UNL A   1      30.774  29.345  22.526  1.00  0.00     0.030 A 
ATOM     23  C   UNL A   1      28.973  28.191  23.633  1.00  0.00     0.050 A 
ATOM     24  C   UNL A   1      29.853  30.081  21.776  1.00  0.00     0.043 A 
ATOM     25  C   UNL A   1      28.050  28.942  22.896  1.00  0.00     0.078 A 
ATOM     26  C   UNL A   1      28.494  29.885  21.976  1.00  0.00     0.141 A 
ATOM     27  Cl  UNL A   1      26.366  28.738  23.194  1.00  0.00    -0.081 Cl
ATOM     28  F   UNL A   1      27.625  30.637  21.284  1.00  0.00    -0.205 F 
ENDBRANCH  18  21
ENDBRANCH   9  13
ENDBRANCH   6   7
ENDBRANCH   5   6
ENDBRANCH   3   5
ENDBRANCH   2   3
ENDBRANCH   1   2
BRANCH   1  29
ATOM     29  C   UNL A   1      37.169  20.694  25.005  1.00  0.00     0.275 C 
BRANCH  29  30
ATOM     30  O   UNL A   1      37.966  21.722  25.614  1.00  0.00    -0.458 OA
BRANCH  30  31
ATOM     31  C   UNL A   1      39.159  21.322  26.132  1.00  0.00     0.338 C 
ATOM     32  O   UNL A   1      39.679  20.236  25.994  1.00  0.00    -0.246 OA
BRANCH  31  33
ATOM     33  C   UNL A   1      39.833  22.549  26.629  1.00  0.00     0.060 A 
ATOM     34  C   UNL A   1      39.412  23.797  26.151  1.00  0.00     0.016 A 
ATOM     35  C   UNL A   1      40.782  22.474  27.653  1.00  0.00     0.016 A 
ATOM     36  C   UNL A   1      39.912  24.973  26.719  1.00  0.00     0.010 A 
ATOM     37  C   UNL A   1      41.294  23.644  28.207  1.00  0.00     0.010 A 
ATOM     38  C   UNL A   1      40.866  24.897  27.741  1.00  0.00    -0.014 A 
BRANCH  38  39
ATOM     39  C   UNL A   1      41.584  26.093  28.231  1.00  0.00     0.031 A 
ATOM     40  C   UNL A   1      40.768  27.160  28.900  1.00  0.00     0.074 A 
ATOM     41  C   UNL A   1      42.890  26.275  27.963  1.00  0.00     0.049 A 
ATOM     42  N   UNL A   1      41.096  28.386  29.202  1.00  0.00    -0.248 NA
ATOM     43  C   UNL A   1      39.384  26.798  29.249  1.00  0.00     0.031 C 
ATOM     44  C   UNL A   1      43.771  25.289  27.338  1.00  0.00     0.029 A 
ATOM     45  N   UNL A   1      43.690  27.376  28.141  1.00  0.00    -0.354 N 
ATOM     46  C   UNL A   1      39.954  28.951  29.759  1.00  0.00     0.074 A 
ATOM     47  C   UNL A   1      38.923  27.937  29.741  1.00  0.00     0.031 C 
ATOM     48  C   UNL A   1      44.980  25.847  27.145  1.00  0.00     0.029 A 
ATOM     49  C   UNL A   1      44.943  27.241  27.586  1.00  0.00     0.049 A 
ATOM     50  H   UNL A   1      43.396  28.185  28.619  1.00  0.00     0.167 HD
ATOM     51  C   UNL A   1      39.785  30.207  30.231  1.00  0.00     0.034 A 
ATOM     52  C   UNL A   1      45.920  28.156  27.411  1.00  0.00     0.034 A 
ATOM     53  C   UNL A   1      40.822  31.205  30.222  1.00  0.00     0.049 A 
ATOM     54  C   UNL A   1      45.676  29.574  27.880  1.00  0.00     0.074 A 
ATOM     55  C   UNL A   1      40.781  32.492  30.725  1.00  0.00     0.029 A 
ATOM     56  N   UNL A   1      42.079  31.033  29.659  1.00  0.00    -0.354 N 
ATOM     57  N   UNL A   1      44.612  30.084  28.459  1.00  0.00    -0.248 NA
ATOM     58  C   UNL A   1      46.761  30.543  27.667  1.00  0.00     0.031 C 
ATOM     59  C   UNL A   1      41.987  33.123  30.400  1.00  0.00     0.029 A 
ATOM     60  C   UNL A   1      42.806  32.206  29.759  1.00  0.00     0.049 A 
ATOM     61  H   UNL A   1      42.405  30.199  29.249  1.00  0.00     0.167 HD
ATOM     62  C   UNL A   1      44.912  31.422  28.701  1.00  0.00     0.074 A 
ATOM     63  C   UNL A   1      46.262  31.638  28.222  1.00  0.00     0.031 C 
ATOM     64  C   UNL A   1      44.150  32.392  29.267  1.00  0.00     0.034 A 
BRANCH  51  65
ATOM     65  C   UNL A   1      38.417  30.583  30.734  1.00  0.00     0.023 A 
ATOM     66  C   UNL A   1      37.466  31.199  29.905  1.00  0.00     0.031 A 
ATOM     67  C   UNL A   1      38.067  30.328  32.072  1.00  0.00     0.131 A 
ATOM     68  C   UNL A   1      36.226  31.584  30.435  1.00  0.00     0.055 A 
ATOM     69  C   UNL A   1      36.808  30.654  32.576  1.00  0.00     0.041 A 
ATOM     70  F   UNL A   1      38.950  29.767  32.914  1.00  0.00    -0.206 F 
ATOM     71  C   UNL A   1      35.881  31.295  31.758  1.00  0.00     0.022 A 
BRANCH  68  72
ATOM     72  S   UNL A   1      35.101  32.556  29.396  1.00  0.00     0.124 S 
ATOM     73  O   UNL A   1      34.209  33.139  30.395  1.00  0.00    -0.237 OA
ATOM     74  O   UNL A   1      36.009  33.485  28.732  1.00  0.00    -0.237 OA
ATOM     75  O   UNL A   1      34.487  31.555  28.527  1.00  0.00    -0.744 OA
ENDBRANCH  68  72
ENDBRANCH  51  65
BRANCH  52  76
ATOM     76  C   UNL A   1      47.187  27.808  26.699  1.00  0.00     0.023 A 
ATOM     77  C   UNL A   1      47.304  27.970  25.310  1.00  0.00     0.031 A 
ATOM     78  C   UNL A   1      48.263  27.212  27.383  1.00  0.00     0.131 A 
ATOM     79  C   UNL A   1      48.439  27.485  24.640  1.00  0.00     0.055 A 
ATOM     80  C   UNL A   1      49.415  26.785  26.719  1.00  0.00     0.041 A 
ATOM     81  F   UNL A   1      48.206  27.027  28.712  1.00  0.00    -0.206 F 
ATOM     82  C   UNL A   1      49.500  26.904  25.336  1.00  0.00     0.022 A 
BRANCH  79  83
ATOM     83  S   UNL A   1      48.453  27.512  22.825  1.00  0.00     0.124 S 
ATOM     84  O   UNL A   1      48.477  26.087  22.508  1.00  0.00    -0.237 OA
ATOM     85  O   UNL A   1      47.210  28.216  22.525  1.00  0.00    -0.237 OA
ATOM     86  O   UNL A   1      49.677  28.244  22.505  1.00  0.00    -0.744 OA
ENDBRANCH  79  83
ENDBRANCH  52  76
BRANCH  64  87
ATOM     87  C   UNL A   1      44.774  33.754  29.429  1.00  0.00     0.023 A 
ATOM     88  C   UNL A   1      44.696  34.725  28.417  1.00  0.00     0.031 A 
ATOM     89  C   UNL A   1      45.439  34.088  30.622  1.00  0.00     0.131 A 
ATOM     90  C   UNL A   1      45.310  35.972  28.599  1.00  0.00     0.055 A 
ATOM     91  C   UNL A   1      46.000  35.350  30.820  1.00  0.00     0.041 A 
ATOM     92  F   UNL A   1      45.540  33.196  31.620  1.00  0.00    -0.206 F 
ATOM     93  C   UNL A   1      45.945  36.297  29.801  1.00  0.00     0.022 A 
BRANCH  90  94
ATOM     94  S   UNL A   1      45.322  37.148  27.219  1.00  0.00     0.124 S 
ATOM     95  O   UNL A   1      46.073  36.415  26.204  1.00  0.00    -0.237 OA
ATOM     96  O   UNL A   1      43.901  37.331  26.950  1.00  0.00    -0.237 OA
ATOM     97  O   UNL A   1      46.003  38.318  27.771  1.00  0.00    -0.744 OA
ENDBRANCH  90  94
ENDBRANCH  64  87
ENDBRANCH  38  39
ENDBRANCH  31  33
ENDBRANCH  30  31
ENDBRANCH  29  30
ENDBRANCH   1  29
TORSDOF 18
ENDMDL
MODEL 3
REMARK VINA RESULT:     -11.5      6.021     10.578
REMARK SMILES O=C(COc1ccccc1/C=C1/SC(=S)N(c2ccc(F)c(Cl)c2)C1=O)OCCOC(=O)c1ccc(-c2c3nc(c(-c4cc(S(=O)(=O)[O-])ccc4F)c4ccc([nH]4)c(-c4cc(S(=O)(=O)[O-])ccc4F)c4nc(c(-c5cc(S(=O)(=O)[O-])ccc5F)c5ccc2[nH]5)C=C4)C=C3)cc1
REMARK SMILES IDX 28 1 27 2 2 3 1 4 3 5 4 6 5 7 6 8 10 9 7 10 9 11 8 12 11 13
REMARK SMILES IDX 12 14 13 15 25 16 14 17 16 18 26 19 15 20 17 21 18 22 24 23
REMARK SMILES IDX 19 24 22 25 20 26 23 27 21 28 29 29 30 30 31 31 32 32 33 33
REMARK SMILES IDX 34 34 95 35 35 36 94 37 36 38 37 39 38 40 88 41 39 42 93 43
REMARK SMILES IDX 87 44 89 45 40 46 92 47 86 48 85 49 41 51 73 52 53 53 72 54
REMARK SMILES IDX 54 55 57 56 71 57 90 58 55 59 56 60 70 62 91 63 58 64 42 65
REMARK SMILES IDX 43 66 51 67 44 68 50 69 52 70 49 71 45 72 46 73 47 74 48 75
REMARK SMILES IDX 74 76 75 77 83 78 76 79 82 80 84 81 81 82 77 83 78 84 79 85
REMARK SMILES IDX 80 86 59 87 60 88 68 89 61 90 67 91 69 92 66 93 62 94 63 95
REMARK SMILES IDX 64 96 65 97
REMARK H PARENT 89 50 57 61
REMARK Flexibility Score: inf
ROOT
ATOM      1  C   UNL A   1      38.593  21.448  25.709  1.00  0.00     0.274 C 
ENDROOT
BRANCH   1   2
ATOM      2  O   UNL A   1      37.719  21.736  24.596  1.00  0.00    -0.460 OA
BRANCH   2   3
ATOM      3  C   UNL A   1      36.988  22.878  24.505  1.00  0.00     0.344 C 
ATOM      4  O   UNL A   1      37.206  23.819  25.263  1.00  0.00    -0.248 OA
BRANCH   3   5
ATOM      5  C   UNL A   1      36.010  22.993  23.358  1.00  0.00     0.352 C 
BRANCH   5   6
ATOM      6  O   UNL A   1      34.959  23.873  23.755  1.00  0.00    -0.481 OA
BRANCH   6   7
ATOM      7  C   UNL A   1      33.903  23.172  24.282  1.00  0.00     0.127 A 
ATOM      8  C   UNL A   1      33.647  21.927  23.699  1.00  0.00     0.047 A 
ATOM      9  C   UNL A   1      33.100  23.660  25.330  1.00  0.00     0.018 A 
ATOM     10  C   UNL A   1      32.622  21.125  24.192  1.00  0.00     0.004 A 
ATOM     11  C   UNL A   1      32.078  22.832  25.817  1.00  0.00     0.012 A 
ATOM     12  C   UNL A   1      31.841  21.575  25.253  1.00  0.00     0.001 A 
BRANCH   9  13
ATOM     13  C   UNL A   1      33.313  24.931  26.045  1.00  0.00     0.033 C 
ATOM     14  C   UNL A   1      32.656  26.094  25.910  1.00  0.00     0.081 C 
ATOM     15  S   UNL A   1      33.148  27.533  26.719  1.00  0.00    -0.054 SA
ATOM     16  C   UNL A   1      31.515  26.397  25.004  1.00  0.00     0.270 C 
ATOM     17  C   UNL A   1      32.171  28.566  25.676  1.00  0.00     0.152 C 
ATOM     18  N   UNL A   1      31.391  27.782  24.833  1.00  0.00    -0.261 N 
ATOM     19  O   UNL A   1      30.819  25.524  24.505  1.00  0.00    -0.268 OA
ATOM     20  S   UNL A   1      32.178  30.228  25.894  1.00  0.00    -0.051 S 
BRANCH  18  21
ATOM     21  C   UNL A   1      30.518  28.286  23.807  1.00  0.00     0.052 A 
ATOM     22  C   UNL A   1      31.028  29.078  22.764  1.00  0.00     0.030 A 
ATOM     23  C   UNL A   1      29.125  28.120  23.887  1.00  0.00     0.050 A 
ATOM     24  C   UNL A   1      30.180  29.711  21.851  1.00  0.00     0.043 A 
ATOM     25  C   UNL A   1      28.275  28.771  22.984  1.00  0.00     0.078 A 
ATOM     26  C   UNL A   1      28.806  29.565  21.975  1.00  0.00     0.141 A 
ATOM     27  Cl  UNL A   1      26.570  28.635  23.184  1.00  0.00    -0.081 Cl
ATOM     28  F   UNL A   1      28.008  30.222  21.121  1.00  0.00    -0.205 F 
ENDBRANCH  18  21
ENDBRANCH   9  13
ENDBRANCH   6   7
ENDBRANCH   5   6
ENDBRANCH   3   5
ENDBRANCH   2   3
ENDBRANCH   1   2
BRANCH   1  29
ATOM     29  C   UNL A   1      39.249  20.088  25.457  1.00  0.00     0.275 C 
BRANCH  29  30
ATOM     30  O   UNL A   1      40.247  19.893  26.471  1.00  0.00    -0.458 OA
BRANCH  30  31
ATOM     31  C   UNL A   1      41.539  19.899  26.045  1.00  0.00     0.338 C 
ATOM     32  O   UNL A   1      42.036  19.148  25.234  1.00  0.00    -0.246 OA
BRANCH  31  33
ATOM     33  C   UNL A   1      42.132  21.175  26.521  1.00  0.00     0.060 A 
ATOM     34  C   UNL A   1      42.231  21.405  27.900  1.00  0.00     0.016 A 
ATOM     35  C   UNL A   1      42.701  22.077  25.617  1.00  0.00     0.016 A 
ATOM     36  C   UNL A   1      42.930  22.517  28.379  1.00  0.00     0.010 A 
ATOM     37  C   UNL A   1      43.382  23.194  26.092  1.00  0.00     0.010 A 
ATOM     38  C   UNL A   1      43.496  23.423  27.472  1.00  0.00    -0.014 A 
BRANCH  38  39
ATOM     39  C   UNL A   1      44.058  24.718  27.909  1.00  0.00     0.031 A 
ATOM     40  C   UNL A   1      43.087  25.803  28.274  1.00  0.00     0.074 A 
ATOM     41  C   UNL A   1      45.381  24.955  27.847  1.00  0.00     0.049 A 
ATOM     42  N   UNL A   1      43.299  27.077  28.456  1.00  0.00    -0.248 NA
ATOM     43  C   UNL A   1      41.681  25.393  28.426  1.00  0.00     0.031 C 
ATOM     44  C   UNL A   1      46.405  23.961  27.525  1.00  0.00     0.029 A 
ATOM     45  N   UNL A   1      46.085  26.122  28.007  1.00  0.00    -0.354 N 
ATOM     46  C   UNL A   1      42.051  27.627  28.725  1.00  0.00     0.074 A 
ATOM     47  C   UNL A   1      41.087  26.551  28.670  1.00  0.00     0.031 C 
ATOM     48  C   UNL A   1      47.602  24.572  27.468  1.00  0.00     0.029 A 
ATOM     49  C   UNL A   1      47.422  26.005  27.700  1.00  0.00     0.049 A 
ATOM     50  H   UNL A   1      45.673  26.964  28.312  1.00  0.00     0.167 HD
ATOM     51  C   UNL A   1      41.743  28.919  28.984  1.00  0.00     0.034 A 
ATOM     52  C   UNL A   1      48.372  26.956  27.572  1.00  0.00     0.034 A 
ATOM     53  C   UNL A   1      42.717  29.977  29.017  1.00  0.00     0.049 A 
ATOM     54  C   UNL A   1      47.983  28.402  27.792  1.00  0.00     0.074 A 
ATOM     55  C   UNL A   1      42.528  31.311  29.324  1.00  0.00     0.029 A 
ATOM     56  N   UNL A   1      44.062  29.822  28.708  1.00  0.00    -0.354 N 
ATOM     57  N   UNL A   1      46.810  28.906  28.104  1.00  0.00    -0.248 NA
ATOM     58  C   UNL A   1      49.044  29.409  27.638  1.00  0.00     0.031 C 
ATOM     59  C   UNL A   1      43.742  31.978  29.127  1.00  0.00     0.029 A 
ATOM     60  C   UNL A   1      44.704  31.046  28.769  1.00  0.00     0.049 A 
ATOM     61  H   UNL A   1      44.494  28.968  28.479  1.00  0.00     0.167 HD
ATOM     62  C   UNL A   1      47.001  30.282  28.207  1.00  0.00     0.074 A 
ATOM     63  C   UNL A   1      48.403  30.528  27.943  1.00  0.00     0.031 C 
ATOM     64  C   UNL A   1      46.105  31.261  28.494  1.00  0.00     0.034 A 
BRANCH  51  65
ATOM     65  C   UNL A   1      40.291  29.260  29.188  1.00  0.00     0.023 A 
ATOM     66  C   UNL A   1      39.732  29.382  30.471  1.00  0.00     0.031 A 
ATOM     67  C   UNL A   1      39.452  29.453  28.076  1.00  0.00     0.131 A 
ATOM     68  C   UNL A   1      38.361  29.643  30.610  1.00  0.00     0.055 A 
ATOM     69  C   UNL A   1      38.104  29.777  28.221  1.00  0.00     0.041 A 
ATOM     70  F   UNL A   1      39.931  29.319  26.829  1.00  0.00    -0.206 F 
ATOM     71  C   UNL A   1      37.547  29.864  29.495  1.00  0.00     0.022 A 
BRANCH  68  72
ATOM     72  S   UNL A   1      37.631  29.594  32.269  1.00  0.00     0.124 S 
ATOM     73  O   UNL A   1      38.278  30.736  32.908  1.00  0.00    -0.237 OA
ATOM     74  O   UNL A   1      36.207  29.738  31.993  1.00  0.00    -0.237 OA
ATOM     75  O   UNL A   1      38.038  28.287  32.783  1.00  0.00    -0.744 OA
ENDBRANCH  68  72
ENDBRANCH  51  65
BRANCH  52  76
ATOM     76  C   UNL A   1      49.761  26.608  27.143  1.00  0.00     0.023 A 
ATOM     77  C   UNL A   1      50.825  26.622  28.058  1.00  0.00     0.031 A 
ATOM     78  C   UNL A   1      50.060  26.357  25.792  1.00  0.00     0.131 A 
ATOM     79  C   UNL A   1      52.143  26.455  27.603  1.00  0.00     0.055 A 
ATOM     80  C   UNL A   1      51.368  26.133  25.353  1.00  0.00     0.041 A 
ATOM     81  F   UNL A   1      49.084  26.336  24.870  1.00  0.00    -0.206 F 
ATOM     82  C   UNL A   1      52.421  26.199  26.259  1.00  0.00     0.022 A 
BRANCH  79  83
ATOM     83  S   UNL A   1      53.505  26.702  28.778  1.00  0.00     0.124 S 
ATOM     84  O   UNL A   1      52.954  26.120  29.997  1.00  0.00    -0.237 OA
ATOM     85  O   UNL A   1      54.588  25.959  28.143  1.00  0.00    -0.237 OA
ATOM     86  O   UNL A   1      53.675  28.154  28.801  1.00  0.00    -0.744 OA
ENDBRANCH  79  83
ENDBRANCH  52  76
BRANCH  64  87
ATOM     87  C   UNL A   1      46.627  32.673  28.573  1.00  0.00     0.023 A 
ATOM     88  C   UNL A   1      46.698  33.495  27.436  1.00  0.00     0.031 A 
ATOM     89  C   UNL A   1      47.040  33.205  29.807  1.00  0.00     0.131 A 
ATOM     90  C   UNL A   1      47.212  34.795  27.548  1.00  0.00     0.055 A 
ATOM     91  C   UNL A   1      47.497  34.518  29.923  1.00  0.00     0.041 A 
ATOM     92  F   UNL A   1      46.991  32.460  30.923  1.00  0.00    -0.206 F 
ATOM     93  C   UNL A   1      47.594  35.318  28.788  1.00  0.00     0.022 A 
BRANCH  90  94
ATOM     94  S   UNL A   1      47.432  35.779  26.041  1.00  0.00     0.124 S 
ATOM     95  O   UNL A   1      46.077  36.264  25.797  1.00  0.00    -0.237 OA
ATOM     96  O   UNL A   1      48.402  36.783  26.461  1.00  0.00    -0.237 OA
ATOM     97  O   UNL A   1      47.928  34.808  25.067  1.00  0.00    -0.744 OA
ENDBRANCH  90  94
ENDBRANCH  64  87
ENDBRANCH  38  39
ENDBRANCH  31  33
ENDBRANCH  30  31
ENDBRANCH  29  30
ENDBRANCH   1  29
TORSDOF 18
ENDMDL
