MODEL 1
REMARK VINA RESULT:     -11.5      0.000      0.000
REMARK SMILES O=C(OCCOC(=O)c1cc(NC(=S)NC(=O)c2ccccc2F)ccc1Cl)c1ccc(-c2c3nc(c(-c4cc(S(=O)(=O)[O-])ccc4F)c4ccc([nH]4)c(-c4cc(S(=O)(=O)[O-])ccc4F)c4nc(c(-c5cc(S(=O)(=O)[O-])ccc5F)c5ccc2[nH]5)C=C4)C=C3)cc1
REMARK SMILES IDX 5 1 4 2 3 3 2 4 1 5 29 6 30 7 91 8 31 9 90 10 32 11 33 12
REMARK SMILES IDX 34 13 84 14 35 15 89 16 83 17 85 18 36 19 88 20 82 21 81 22
REMARK SMILES IDX 37 24 69 25 49 26 68 27 50 28 53 29 67 30 86 31 51 32 52 33
REMARK SMILES IDX 66 35 87 36 54 37 38 38 39 39 47 40 40 41 46 42 48 43 45 44
REMARK SMILES IDX 41 45 42 46 43 47 44 48 70 49 71 50 79 51 72 52 78 53 80 54
REMARK SMILES IDX 77 55 73 56 74 57 75 58 76 59 55 60 56 61 64 62 57 63 63 64
REMARK SMILES IDX 65 65 62 66 58 67 59 68 60 69 61 70 6 71 7 72 8 73 9 74
REMARK SMILES IDX 10 75 27 76 11 77 26 78 28 79 25 80 12 81 13 83 14 84 15 85
REMARK SMILES IDX 16 86 17 88 18 89 19 90 23 91 20 92 22 93 24 94 21 95
REMARK H PARENT 85 23 53 34 12 82 15 87
REMARK Flexibility Score: inf
ROOT
ATOM      1  C   UNL A   1      42.511  18.643  26.132  1.00  0.00     0.275 C 
ENDROOT
BRANCH   1   2
ATOM      2  C   UNL A   1      43.678  18.811  25.156  1.00  0.00     0.275 C 
BRANCH   2   3
ATOM      3  O   UNL A   1      43.821  20.165  24.673  1.00  0.00    -0.458 OA
BRANCH   3   4
ATOM      4  C   UNL A   1      45.008  20.817  24.712  1.00  0.00     0.338 C 
ATOM      5  O   UNL A   1      46.008  20.359  24.174  1.00  0.00    -0.246 OA
BRANCH   4   6
ATOM      6  C   UNL A   1      45.039  22.147  25.369  1.00  0.00     0.060 A 
ATOM      7  C   UNL A   1      45.094  22.302  26.760  1.00  0.00     0.016 A 
ATOM      8  C   UNL A   1      44.940  23.274  24.552  1.00  0.00     0.016 A 
ATOM      9  C   UNL A   1      45.140  23.583  27.323  1.00  0.00     0.010 A 
ATOM     10  C   UNL A   1      44.976  24.546  25.120  1.00  0.00     0.010 A 
ATOM     11  C   UNL A   1      45.094  24.715  26.504  1.00  0.00    -0.014 A 
BRANCH  11  12
ATOM     12  C   UNL A   1      45.111  26.085  27.069  1.00  0.00     0.031 A 
ATOM     13  C   UNL A   1      46.418  26.776  27.307  1.00  0.00     0.074 A 
ATOM     14  C   UNL A   1      43.966  26.684  27.442  1.00  0.00     0.049 A 
ATOM     15  N   UNL A   1      46.633  28.006  27.696  1.00  0.00    -0.248 NA
ATOM     16  C   UNL A   1      47.635  25.984  27.084  1.00  0.00     0.031 C 
ATOM     17  C   UNL A   1      42.634  26.100  27.321  1.00  0.00     0.029 A 
ATOM     18  N   UNL A   1      43.740  27.904  28.027  1.00  0.00    -0.354 N 
ATOM     19  C   UNL A   1      48.012  28.161  27.674  1.00  0.00     0.074 A 
ATOM     20  C   UNL A   1      48.580  26.863  27.381  1.00  0.00     0.031 C 
ATOM     21  C   UNL A   1      41.734  26.928  27.877  1.00  0.00     0.029 A 
ATOM     22  C   UNL A   1      42.423  28.127  28.346  1.00  0.00     0.049 A 
ATOM     23  H   UNL A   1      44.455  28.557  28.202  1.00  0.00     0.167 HD
ATOM     24  C   UNL A   1      48.731  29.302  27.801  1.00  0.00     0.034 A 
ATOM     25  C   UNL A   1      41.833  29.190  28.926  1.00  0.00     0.034 A 
ATOM     26  C   UNL A   1      48.159  30.576  28.135  1.00  0.00     0.049 A 
ATOM     27  C   UNL A   1      42.651  30.424  29.188  1.00  0.00     0.074 A 
ATOM     28  C   UNL A   1      48.775  31.812  28.225  1.00  0.00     0.029 A 
ATOM     29  N   UNL A   1      46.824  30.771  28.466  1.00  0.00    -0.354 N 
ATOM     30  N   UNL A   1      43.939  30.606  29.015  1.00  0.00    -0.248 NA
ATOM     31  C   UNL A   1      41.930  31.613  29.663  1.00  0.00     0.031 C 
ATOM     32  C   UNL A   1      47.820  32.745  28.652  1.00  0.00     0.029 A 
ATOM     33  C   UNL A   1      46.601  32.098  28.789  1.00  0.00     0.049 A 
ATOM     34  H   UNL A   1      46.136  30.067  28.470  1.00  0.00     0.167 HD
ATOM     35  C   UNL A   1      44.173  31.948  29.294  1.00  0.00     0.074 A 
ATOM     36  C   UNL A   1      42.901  32.519  29.692  1.00  0.00     0.031 C 
ATOM     37  C   UNL A   1      45.328  32.650  29.185  1.00  0.00     0.034 A 
BRANCH  24  38
ATOM     38  C   UNL A   1      50.204  29.185  27.520  1.00  0.00     0.023 A 
ATOM     39  C   UNL A   1      50.680  29.304  26.200  1.00  0.00     0.031 A 
ATOM     40  C   UNL A   1      51.123  28.874  28.532  1.00  0.00     0.131 A 
ATOM     41  C   UNL A   1      52.019  29.016  25.912  1.00  0.00     0.055 A 
ATOM     42  C   UNL A   1      52.474  28.661  28.247  1.00  0.00     0.041 A 
ATOM     43  F   UNL A   1      50.718  28.733  29.804  1.00  0.00    -0.206 F 
ATOM     44  C   UNL A   1      52.925  28.713  26.929  1.00  0.00     0.022 A 
BRANCH  41  45
ATOM     45  S   UNL A   1      52.518  28.903  24.172  1.00  0.00     0.124 S 
ATOM     46  O   UNL A   1      53.687  29.777  24.144  1.00  0.00    -0.237 OA
ATOM     47  O   UNL A   1      52.783  27.478  24.009  1.00  0.00    -0.237 OA
ATOM     48  O   UNL A   1      51.351  29.406  23.450  1.00  0.00    -0.744 OA
ENDBRANCH  41  45
ENDBRANCH  24  38
BRANCH  25  49
ATOM     49  C   UNL A   1      40.386  29.138  29.250  1.00  0.00     0.023 A 
ATOM     50  C   UNL A   1      39.938  28.997  30.570  1.00  0.00     0.031 A 
ATOM     51  C   UNL A   1      39.429  29.268  28.228  1.00  0.00     0.131 A 
ATOM     52  C   UNL A   1      38.561  28.972  30.836  1.00  0.00     0.055 A 
ATOM     53  C   UNL A   1      38.060  29.251  28.499  1.00  0.00     0.041 A 
ATOM     54  F   UNL A   1      39.817  29.438  26.953  1.00  0.00    -0.206 F 
ATOM     55  C   UNL A   1      37.619  29.100  29.810  1.00  0.00     0.022 A 
BRANCH  52  56
ATOM     56  S   UNL A   1      38.008  28.788  32.555  1.00  0.00     0.124 S 
ATOM     57  O   UNL A   1      38.980  29.608  33.268  1.00  0.00    -0.237 OA
ATOM     58  O   UNL A   1      36.648  29.310  32.492  1.00  0.00    -0.237 OA
ATOM     59  O   UNL A   1      38.108  27.349  32.790  1.00  0.00    -0.744 OA
ENDBRANCH  52  56
ENDBRANCH  25  49
BRANCH  37  60
ATOM     60  C   UNL A   1      45.260  34.130  29.432  1.00  0.00     0.023 A 
ATOM     61  C   UNL A   1      44.902  35.031  28.418  1.00  0.00     0.031 A 
ATOM     62  C   UNL A   1      45.511  34.632  30.722  1.00  0.00     0.131 A 
ATOM     63  C   UNL A   1      44.824  36.402  28.709  1.00  0.00     0.055 A 
ATOM     64  C   UNL A   1      45.397  35.991  31.012  1.00  0.00     0.041 A 
ATOM     65  F   UNL A   1      45.853  33.803  31.722  1.00  0.00    -0.206 F 
ATOM     66  C   UNL A   1      45.053  36.884  30.002  1.00  0.00     0.022 A 
BRANCH  63  67
ATOM     67  S   UNL A   1      44.410  37.559  27.376  1.00  0.00     0.124 S 
ATOM     68  O   UNL A   1      45.632  37.549  26.580  1.00  0.00    -0.237 OA
ATOM     69  O   UNL A   1      43.243  36.936  26.759  1.00  0.00    -0.237 OA
ATOM     70  O   UNL A   1      44.138  38.810  28.083  1.00  0.00    -0.744 OA
ENDBRANCH  63  67
ENDBRANCH  37  60
ENDBRANCH  11  12
ENDBRANCH   4   6
ENDBRANCH   3   4
ENDBRANCH   2   3
ENDBRANCH   1   2
BRANCH   1  71
ATOM     71  O   UNL A   1      41.368  19.424  25.724  1.00  0.00    -0.458 OA
BRANCH  71  72
ATOM     72  C   UNL A   1      40.781  20.112  26.768  1.00  0.00     0.339 C 
ATOM     73  O   UNL A   1      41.053  19.906  27.944  1.00  0.00    -0.246 OA
BRANCH  72  74
ATOM     74  C   UNL A   1      39.462  21.151  26.133  1.00  0.00     0.080 A 
ATOM     75  C   UNL A   1      37.758  20.508  25.163  1.00  0.00     0.043 A 
ATOM     76  C   UNL A   1      40.054  22.156  26.665  1.00  0.00     0.055 A 
ATOM     77  C   UNL A   1      36.583  20.540  24.597  1.00  0.00     0.041 A 
ATOM     78  C   UNL A   1      38.992  22.241  25.963  1.00  0.00     0.023 A 
ATOM     79  Cl  UNL A   1      41.546  22.916  26.373  1.00  0.00    -0.083 Cl
ATOM     80  C   UNL A   1      37.346  21.478  25.022  1.00  0.00     0.028 A 
BRANCH  77  81
ATOM     81  N   UNL A   1      35.516  19.839  25.192  1.00  0.00    -0.332 N 
ATOM     82  H   UNL A   1      35.633  19.775  26.168  1.00  0.00     0.169 HD
BRANCH  81  83
ATOM     83  C   UNL A   1      34.370  19.227  24.795  1.00  0.00     0.177 C 
ATOM     84  S   UNL A   1      34.514  17.631  24.289  1.00  0.00    -0.040 S 
BRANCH  83  85
ATOM     85  N   UNL A   1      33.094  19.735  24.875  1.00  0.00    -0.299 N 
ATOM     86  C   UNL A   1      32.453  20.976  24.892  1.00  0.00     0.260 C 
ATOM     87  H   UNL A   1      32.436  19.006  24.939  1.00  0.00     0.172 HD
ATOM     88  O   UNL A   1      31.391  21.178  25.461  1.00  0.00    -0.269 OA
BRANCH  86  89
ATOM     89  C   UNL A   1      33.173  22.077  24.258  1.00  0.00     0.075 A 
ATOM     90  C   UNL A   1      32.446  22.917  22.582  1.00  0.00     0.017 A 
ATOM     91  C   UNL A   1      34.101  23.266  25.522  1.00  0.00     0.135 A 
ATOM     92  C   UNL A   1      32.780  24.854  22.448  1.00  0.00     0.001 A 
ATOM     93  C   UNL A   1      34.409  25.206  25.393  1.00  0.00     0.040 A 
ATOM     94  F   UNL A   1      34.275  22.758  26.759  1.00  0.00    -0.206 F 
ATOM     95  C   UNL A   1      33.678  26.043  23.728  1.00  0.00     0.003 A 
ENDBRANCH  86  89
ENDBRANCH  83  85
ENDBRANCH  81  83
ENDBRANCH  77  81
ENDBRANCH  72  74
ENDBRANCH  71  72
ENDBRANCH   1  71
TORSDOF 18
ENDMDL
MODEL 2
REMARK VINA RESULT:     -11.5      3.776      5.648
REMARK SMILES O=C(OCCOC(=O)c1cc(NC(=S)NC(=O)c2ccccc2F)ccc1Cl)c1ccc(-c2c3nc(c(-c4cc(S(=O)(=O)[O-])ccc4F)c4ccc([nH]4)c(-c4cc(S(=O)(=O)[O-])ccc4F)c4nc(c(-c5cc(S(=O)(=O)[O-])ccc5F)c5ccc2[nH]5)C=C4)C=C3)cc1
REMARK SMILES IDX 5 1 4 2 3 3 2 4 1 5 29 6 30 7 91 8 31 9 90 10 32 11 33 12
REMARK SMILES IDX 34 13 84 14 35 15 89 16 83 17 85 18 36 19 88 20 82 21 81 22
REMARK SMILES IDX 37 24 69 25 49 26 68 27 50 28 53 29 67 30 86 31 51 32 52 33
REMARK SMILES IDX 66 35 87 36 54 37 38 38 39 39 47 40 40 41 46 42 48 43 45 44
REMARK SMILES IDX 41 45 42 46 43 47 44 48 70 49 71 50 79 51 72 52 78 53 80 54
REMARK SMILES IDX 77 55 73 56 74 57 75 58 76 59 55 60 56 61 64 62 57 63 63 64
REMARK SMILES IDX 65 65 62 66 58 67 59 68 60 69 61 70 6 71 7 72 8 73 9 74
REMARK SMILES IDX 10 75 27 76 11 77 26 78 28 79 25 80 12 81 13 83 14 84 15 85
REMARK SMILES IDX 16 86 17 88 18 89 19 90 23 91 20 92 22 93 24 94 21 95
REMARK H PARENT 85 23 53 34 12 82 15 87
REMARK Flexibility Score: inf
ROOT
ATOM      1  C   UNL A   1      36.254  20.771  25.075  1.00  0.00     0.275 C 
ENDROOT
BRANCH   1   2
ATOM      2  C   UNL A   1      37.681  21.318  24.981  1.00  0.00     0.275 C 
BRANCH   2   3
ATOM      3  O   UNL A   1      37.948  22.368  25.936  1.00  0.00    -0.458 OA
BRANCH   3   4
ATOM      4  C   UNL A   1      39.162  22.511  26.520  1.00  0.00     0.338 C 
ATOM      5  O   UNL A   1      39.902  21.554  26.705  1.00  0.00    -0.246 OA
BRANCH   4   6
ATOM      6  C   UNL A   1      39.599  23.887  26.864  1.00  0.00     0.060 A 
ATOM      7  C   UNL A   1      40.019  24.811  25.899  1.00  0.00     0.016 A 
ATOM      8  C   UNL A   1      39.649  24.231  28.216  1.00  0.00     0.016 A 
ATOM      9  C   UNL A   1      40.403  26.102  26.281  1.00  0.00     0.010 A 
ATOM     10  C   UNL A   1      40.041  25.515  28.591  1.00  0.00     0.010 A 
ATOM     11  C   UNL A   1      40.404  26.466  27.631  1.00  0.00    -0.014 A 
BRANCH  11  12
ATOM     12  C   UNL A   1      40.832  27.815  28.072  1.00  0.00     0.031 A 
ATOM     13  C   UNL A   1      42.290  28.150  28.133  1.00  0.00     0.074 A 
ATOM     14  C   UNL A   1      39.926  28.716  28.493  1.00  0.00     0.049 A 
ATOM     15  N   UNL A   1      42.855  29.300  28.394  1.00  0.00    -0.248 NA
ATOM     16  C   UNL A   1      43.232  27.053  27.872  1.00  0.00     0.031 C 
ATOM     17  C   UNL A   1      38.484  28.498  28.542  1.00  0.00     0.029 A 
ATOM     18  N   UNL A   1      40.085  29.984  28.989  1.00  0.00    -0.354 N 
ATOM     19  C   UNL A   1      44.216  29.085  28.237  1.00  0.00     0.074 A 
ATOM     20  C   UNL A   1      44.397  27.667  28.008  1.00  0.00     0.031 C 
ATOM     21  C   UNL A   1      37.892  29.566  29.102  1.00  0.00     0.029 A 
ATOM     22  C   UNL A   1      38.912  30.566  29.403  1.00  0.00     0.049 A 
ATOM     23  H   UNL A   1      40.959  30.436  29.043  1.00  0.00     0.167 HD
ATOM     24  C   UNL A   1      45.213  30.001  28.201  1.00  0.00     0.034 A 
ATOM     25  C   UNL A   1      38.681  31.779  29.940  1.00  0.00     0.034 A 
ATOM     26  C   UNL A   1      45.026  31.399  28.474  1.00  0.00     0.049 A 
ATOM     27  C   UNL A   1      39.810  32.767  30.021  1.00  0.00     0.074 A 
ATOM     28  C   UNL A   1      45.945  32.431  28.404  1.00  0.00     0.029 A 
ATOM     29  N   UNL A   1      43.830  31.958  28.905  1.00  0.00    -0.354 N 
ATOM     30  N   UNL A   1      41.076  32.592  29.720  1.00  0.00    -0.248 NA
ATOM     31  C   UNL A   1      39.475  34.130  30.454  1.00  0.00     0.031 C 
ATOM     32  C   UNL A   1      45.313  33.607  28.831  1.00  0.00     0.029 A 
ATOM     33  C   UNL A   1      43.991  33.313  29.131  1.00  0.00     0.049 A 
ATOM     34  H   UNL A   1      42.989  31.461  29.031  1.00  0.00     0.167 HD
ATOM     35  C   UNL A   1      41.675  33.839  29.861  1.00  0.00     0.074 A 
ATOM     36  C   UNL A   1      40.642  34.748  30.320  1.00  0.00     0.031 C 
ATOM     37  C   UNL A   1      42.952  34.204  29.590  1.00  0.00     0.034 A 
BRANCH  24  38
ATOM     38  C   UNL A   1      46.568  29.483  27.802  1.00  0.00     0.023 A 
ATOM     39  C   UNL A   1      46.801  29.075  26.475  1.00  0.00     0.031 A 
ATOM     40  C   UNL A   1      47.595  29.312  28.741  1.00  0.00     0.131 A 
ATOM     41  C   UNL A   1      47.996  28.426  26.143  1.00  0.00     0.055 A 
ATOM     42  C   UNL A   1      48.815  28.731  28.385  1.00  0.00     0.041 A 
ATOM     43  F   UNL A   1      47.418  29.669  30.022  1.00  0.00    -0.206 F 
ATOM     44  C   UNL A   1      49.014  28.267  27.085  1.00  0.00     0.022 A 
BRANCH  41  45
ATOM     45  S   UNL A   1      48.135  27.667  24.502  1.00  0.00     0.124 S 
ATOM     46  O   UNL A   1      49.505  28.012  24.134  1.00  0.00    -0.237 OA
ATOM     47  O   UNL A   1      47.886  26.258  24.781  1.00  0.00    -0.237 OA
ATOM     48  O   UNL A   1      47.096  28.342  23.726  1.00  0.00    -0.744 OA
ENDBRANCH  41  45
ENDBRANCH  24  38
BRANCH  25  49
ATOM     49  C   UNL A   1      37.312  32.130  30.394  1.00  0.00     0.023 A 
ATOM     50  C   UNL A   1      36.430  32.843  29.571  1.00  0.00     0.031 A 
ATOM     51  C   UNL A   1      36.860  31.714  31.659  1.00  0.00     0.131 A 
ATOM     52  C   UNL A   1      35.138  33.137  30.030  1.00  0.00     0.055 A 
ATOM     53  C   UNL A   1      35.570  32.001  32.107  1.00  0.00     0.041 A 
ATOM     54  F   UNL A   1      37.662  31.000  32.465  1.00  0.00    -0.206 F 
ATOM     55  C   UNL A   1      34.701  32.719  31.292  1.00  0.00     0.022 A 
BRANCH  52  56
ATOM     56  S   UNL A   1      34.016  34.062  28.944  1.00  0.00     0.124 S 
ATOM     57  O   UNL A   1      33.561  33.020  28.032  1.00  0.00    -0.237 OA
ATOM     58  O   UNL A   1      33.027  34.567  29.890  1.00  0.00    -0.237 OA
ATOM     59  O   UNL A   1      34.882  35.080  28.352  1.00  0.00    -0.744 OA
ENDBRANCH  52  56
ENDBRANCH  25  49
BRANCH  37  60
ATOM     60  C   UNL A   1      43.293  35.662  29.714  1.00  0.00     0.023 A 
ATOM     61  C   UNL A   1      43.159  36.546  28.633  1.00  0.00     0.031 A 
ATOM     62  C   UNL A   1      43.712  36.175  30.955  1.00  0.00     0.131 A 
ATOM     63  C   UNL A   1      43.462  37.904  28.810  1.00  0.00     0.055 A 
ATOM     64  C   UNL A   1      43.978  37.531  31.134  1.00  0.00     0.041 A 
ATOM     65  F   UNL A   1      43.851  35.363  32.017  1.00  0.00    -0.206 F 
ATOM     66  C   UNL A   1      43.853  38.404  30.056  1.00  0.00     0.022 A 
BRANCH  63  67
ATOM     67  S   UNL A   1      43.331  39.024  27.390  1.00  0.00     0.124 S 
ATOM     68  O   UNL A   1      44.455  38.595  26.565  1.00  0.00    -0.237 OA
ATOM     69  O   UNL A   1      42.004  38.723  26.863  1.00  0.00    -0.237 OA
ATOM     70  O   UNL A   1      43.469  40.351  27.989  1.00  0.00    -0.744 OA
ENDBRANCH  63  67
ENDBRANCH  37  60
ENDBRANCH  11  12
ENDBRANCH   4   6
ENDBRANCH   3   4
ENDBRANCH   2   3
ENDBRANCH   1   2
BRANCH   1  71
ATOM     71  O   UNL A   1      35.298  21.701  24.523  1.00  0.00    -0.458 OA
BRANCH  71  72
ATOM     72  C   UNL A   1      34.088  21.691  25.188  1.00  0.00     0.339 C 
ATOM     73  O   UNL A   1      33.715  20.758  25.888  1.00  0.00    -0.246 OA
BRANCH  72  74
ATOM     74  C   UNL A   1      33.120  23.118  24.690  1.00  0.00     0.080 A 
ATOM     75  C   UNL A   1      32.782  24.818  25.811  1.00  0.00     0.043 A 
ATOM     76  C   UNL A   1      32.993  22.578  23.535  1.00  0.00     0.055 A 
ATOM     77  C   UNL A   1      32.388  26.021  26.127  1.00  0.00     0.041 A 
ATOM     78  C   UNL A   1      32.445  23.680  23.873  1.00  0.00     0.023 A 
ATOM     79  Cl  UNL A   1      32.218  21.167  22.990  1.00  0.00    -0.083 Cl
ATOM     80  C   UNL A   1      32.191  25.310  25.078  1.00  0.00     0.028 A 
BRANCH  77  81
ATOM     81  N   UNL A   1      33.352  26.997  26.446  1.00  0.00    -0.332 N 
ATOM     82  H   UNL A   1      33.951  26.685  27.162  1.00  0.00     0.169 HD
BRANCH  81  83
ATOM     83  C   UNL A   1      33.684  28.251  26.041  1.00  0.00     0.177 C 
ATOM     84  S   UNL A   1      34.331  29.267  27.212  1.00  0.00    -0.040 S 
BRANCH  83  85
ATOM     85  N   UNL A   1      33.656  28.735  24.753  1.00  0.00    -0.299 N 
ATOM     86  C   UNL A   1      32.731  28.957  23.731  1.00  0.00     0.260 C 
ATOM     87  H   UNL A   1      34.558  29.005  24.467  1.00  0.00     0.172 HD
ATOM     88  O   UNL A   1      33.017  28.921  22.544  1.00  0.00    -0.269 OA
BRANCH  86  89
ATOM     89  C   UNL A   1      31.346  29.151  24.151  1.00  0.00     0.075 A 
ATOM     90  C   UNL A   1      30.695  30.989  24.642  1.00  0.00     0.017 A 
ATOM     91  C   UNL A   1      30.059  27.957  23.262  1.00  0.00     0.135 A 
ATOM     92  C   UNL A   1      28.818  31.332  24.150  1.00  0.00     0.001 A 
ATOM     93  C   UNL A   1      28.192  28.315  22.751  1.00  0.00     0.040 A 
ATOM     94  F   UNL A   1      30.604  26.884  22.655  1.00  0.00    -0.206 F 
ATOM     95  C   UNL A   1      27.547  30.148  23.232  1.00  0.00     0.003 A 
ENDBRANCH  86  89
ENDBRANCH  83  85
ENDBRANCH  81  83
ENDBRANCH  77  81
ENDBRANCH  72  74
ENDBRANCH  71  72
ENDBRANCH   1  71
TORSDOF 18
ENDMDL
MODEL 3
REMARK VINA RESULT:     -11.5      6.623     12.161
REMARK SMILES O=C(OCCOC(=O)c1cc(NC(=S)NC(=O)c2ccccc2F)ccc1Cl)c1ccc(-c2c3nc(c(-c4cc(S(=O)(=O)[O-])ccc4F)c4ccc([nH]4)c(-c4cc(S(=O)(=O)[O-])ccc4F)c4nc(c(-c5cc(S(=O)(=O)[O-])ccc5F)c5ccc2[nH]5)C=C4)C=C3)cc1
REMARK SMILES IDX 5 1 4 2 3 3 2 4 1 5 29 6 30 7 91 8 31 9 90 10 32 11 33 12
REMARK SMILES IDX 34 13 84 14 35 15 89 16 83 17 85 18 36 19 88 20 82 21 81 22
REMARK SMILES IDX 37 24 69 25 49 26 68 27 50 28 53 29 67 30 86 31 51 32 52 33
REMARK SMILES IDX 66 35 87 36 54 37 38 38 39 39 47 40 40 41 46 42 48 43 45 44
REMARK SMILES IDX 41 45 42 46 43 47 44 48 70 49 71 50 79 51 72 52 78 53 80 54
REMARK SMILES IDX 77 55 73 56 74 57 75 58 76 59 55 60 56 61 64 62 57 63 63 64
REMARK SMILES IDX 65 65 62 66 58 67 59 68 60 69 61 70 6 71 7 72 8 73 9 74
REMARK SMILES IDX 10 75 27 76 11 77 26 78 28 79 25 80 12 81 13 83 14 84 15 85
REMARK SMILES IDX 16 86 17 88 18 89 19 90 23 91 20 92 22 93 24 94 21 95
REMARK H PARENT 85 23 53 34 12 82 15 87
REMARK Flexibility Score: inf
ROOT
ATOM      1  C   UNL A   1      32.947  35.335  29.001  1.00  0.00     0.275 C 
ENDROOT
BRANCH   1   2
ATOM      2  C   UNL A   1      32.939  35.945  30.405  1.00  0.00     0.275 C 
BRANCH   2   3
ATOM      3  O   UNL A   1      33.187  34.974  31.445  1.00  0.00    -0.458 OA
BRANCH   3   4
ATOM      4  C   UNL A   1      33.994  35.245  32.499  1.00  0.00     0.338 C 
ATOM      5  O   UNL A   1      33.667  36.044  33.367  1.00  0.00    -0.246 OA
BRANCH   4   6
ATOM      6  C   UNL A   1      35.262  34.483  32.605  1.00  0.00     0.060 A 
ATOM      7  C   UNL A   1      36.401  34.801  31.855  1.00  0.00     0.016 A 
ATOM      8  C   UNL A   1      35.278  33.367  33.443  1.00  0.00     0.016 A 
ATOM      9  C   UNL A   1      37.577  34.058  32.011  1.00  0.00     0.010 A 
ATOM     10  C   UNL A   1      36.448  32.624  33.586  1.00  0.00     0.010 A 
ATOM     11  C   UNL A   1      37.611  32.970  32.889  1.00  0.00    -0.014 A 
BRANCH  11  12
ATOM     12  C   UNL A   1      38.830  32.144  33.056  1.00  0.00     0.031 A 
ATOM     13  C   UNL A   1      39.792  32.451  34.161  1.00  0.00     0.074 A 
ATOM     14  C   UNL A   1      39.120  31.168  32.177  1.00  0.00     0.049 A 
ATOM     15  N   UNL A   1      40.854  31.783  34.530  1.00  0.00    -0.248 NA
ATOM     16  C   UNL A   1      39.529  33.662  34.950  1.00  0.00     0.031 C 
ATOM     17  C   UNL A   1      38.301  30.806  31.023  1.00  0.00     0.029 A 
ATOM     18  N   UNL A   1      40.196  30.323  32.095  1.00  0.00    -0.354 N 
ATOM     19  C   UNL A   1      41.333  32.445  35.651  1.00  0.00     0.074 A 
ATOM     20  C   UNL A   1      40.536  33.643  35.809  1.00  0.00     0.031 C 
ATOM     21  C   UNL A   1      38.934  29.860  30.309  1.00  0.00     0.029 A 
ATOM     22  C   UNL A   1      40.179  29.512  30.987  1.00  0.00     0.049 A 
ATOM     23  H   UNL A   1      40.914  30.299  32.769  1.00  0.00     0.167 HD
ATOM     24  C   UNL A   1      42.292  32.043  36.519  1.00  0.00     0.034 A 
ATOM     25  C   UNL A   1      41.056  28.576  30.577  1.00  0.00     0.034 A 
ATOM     26  C   UNL A   1      43.106  30.874  36.328  1.00  0.00     0.049 A 
ATOM     27  C   UNL A   1      42.201  28.205  31.477  1.00  0.00     0.074 A 
ATOM     28  C   UNL A   1      44.061  30.330  37.168  1.00  0.00     0.029 A 
ATOM     29  N   UNL A   1      43.077  30.080  35.190  1.00  0.00    -0.354 N 
ATOM     30  N   UNL A   1      42.552  28.745  32.621  1.00  0.00    -0.248 NA
ATOM     31  C   UNL A   1      43.030  27.064  31.067  1.00  0.00     0.031 C 
ATOM     32  C   UNL A   1      44.637  29.230  36.518  1.00  0.00     0.029 A 
ATOM     33  C   UNL A   1      44.014  29.067  35.290  1.00  0.00     0.049 A 
ATOM     34  H   UNL A   1      42.476  30.217  34.422  1.00  0.00     0.167 HD
ATOM     35  C   UNL A   1      43.599  27.966  33.101  1.00  0.00     0.074 A 
ATOM     36  C   UNL A   1      43.855  26.947  32.101  1.00  0.00     0.031 C 
ATOM     37  C   UNL A   1      44.257  28.062  34.284  1.00  0.00     0.034 A 
BRANCH  24  38
ATOM     38  C   UNL A   1      42.445  32.875  37.763  1.00  0.00     0.023 A 
ATOM     39  C   UNL A   1      41.622  32.629  38.878  1.00  0.00     0.031 A 
ATOM     40  C   UNL A   1      43.335  33.957  37.818  1.00  0.00     0.131 A 
ATOM     41  C   UNL A   1      41.634  33.513  39.964  1.00  0.00     0.055 A 
ATOM     42  C   UNL A   1      43.395  34.791  38.937  1.00  0.00     0.041 A 
ATOM     43  F   UNL A   1      44.129  34.243  36.775  1.00  0.00    -0.206 F 
ATOM     44  C   UNL A   1      42.529  34.584  40.010  1.00  0.00     0.022 A 
BRANCH  41  45
ATOM     45  S   UNL A   1      40.363  33.322  41.242  1.00  0.00     0.124 S 
ATOM     46  O   UNL A   1      40.285  31.869  41.364  1.00  0.00    -0.237 OA
ATOM     47  O   UNL A   1      40.946  34.027  42.378  1.00  0.00    -0.237 OA
ATOM     48  O   UNL A   1      39.187  33.958  40.651  1.00  0.00    -0.744 OA
ENDBRANCH  41  45
ENDBRANCH  24  38
BRANCH  25  49
ATOM     49  C   UNL A   1      40.848  27.899  29.272  1.00  0.00     0.023 A 
ATOM     50  C   UNL A   1      41.673  28.166  28.172  1.00  0.00     0.031 A 
ATOM     51  C   UNL A   1      39.829  26.940  29.130  1.00  0.00     0.131 A 
ATOM     52  C   UNL A   1      41.455  27.491  26.961  1.00  0.00     0.055 A 
ATOM     53  C   UNL A   1      39.623  26.264  27.926  1.00  0.00     0.041 A 
ATOM     54  F   UNL A   1      39.038  26.631  30.169  1.00  0.00    -0.206 F 
ATOM     55  C   UNL A   1      40.437  26.540  26.832  1.00  0.00     0.022 A 
BRANCH  52  56
ATOM     56  S   UNL A   1      42.538  27.855  25.552  1.00  0.00     0.124 S 
ATOM     57  O   UNL A   1      41.946  29.082  25.033  1.00  0.00    -0.237 OA
ATOM     58  O   UNL A   1      43.839  27.990  26.197  1.00  0.00    -0.237 OA
ATOM     59  O   UNL A   1      42.389  26.678  24.699  1.00  0.00    -0.744 OA
ENDBRANCH  52  56
ENDBRANCH  25  49
BRANCH  37  60
ATOM     60  C   UNL A   1      45.270  26.997  34.596  1.00  0.00     0.023 A 
ATOM     61  C   UNL A   1      44.908  25.797  35.227  1.00  0.00     0.031 A 
ATOM     62  C   UNL A   1      46.609  27.175  34.206  1.00  0.00     0.131 A 
ATOM     63  C   UNL A   1      45.887  24.822  35.470  1.00  0.00     0.055 A 
ATOM     64  C   UNL A   1      47.570  26.188  34.419  1.00  0.00     0.041 A 
ATOM     65  F   UNL A   1      46.997  28.308  33.597  1.00  0.00    -0.206 F 
ATOM     66  C   UNL A   1      47.210  25.003  35.054  1.00  0.00     0.022 A 
BRANCH  63  67
ATOM     67  S   UNL A   1      45.413  23.298  36.331  1.00  0.00     0.124 S 
ATOM     68  O   UNL A   1      46.614  22.484  36.181  1.00  0.00    -0.237 OA
ATOM     69  O   UNL A   1      45.127  23.768  37.683  1.00  0.00    -0.237 OA
ATOM     70  O   UNL A   1      44.247  22.831  35.582  1.00  0.00    -0.744 OA
ENDBRANCH  63  67
ENDBRANCH  37  60
ENDBRANCH  11  12
ENDBRANCH   4   6
ENDBRANCH   3   4
ENDBRANCH   2   3
ENDBRANCH   1   2
BRANCH   1  71
ATOM     71  O   UNL A   1      33.220  33.918  29.045  1.00  0.00    -0.458 OA
BRANCH  71  72
ATOM     72  C   UNL A   1      34.101  33.506  28.065  1.00  0.00     0.339 C 
ATOM     73  O   UNL A   1      34.804  34.279  27.427  1.00  0.00    -0.246 OA
BRANCH  72  74
ATOM     74  C   UNL A   1      33.879  31.751  27.762  1.00  0.00     0.080 A 
ATOM     75  C   UNL A   1      32.398  30.886  26.613  1.00  0.00     0.043 A 
ATOM     76  C   UNL A   1      34.974  31.545  28.395  1.00  0.00     0.055 A 
ATOM     77  C   UNL A   1      31.718  29.977  25.971  1.00  0.00     0.041 A 
ATOM     78  C   UNL A   1      34.233  30.617  27.927  1.00  0.00     0.023 A 
ATOM     79  Cl  UNL A   1      35.441  31.772  30.013  1.00  0.00    -0.083 Cl
ATOM     80  C   UNL A   1      32.724  29.885  26.760  1.00  0.00     0.028 A 
BRANCH  77  81
ATOM     81  N   UNL A   1      31.615  30.060  24.568  1.00  0.00    -0.332 N 
ATOM     82  H   UNL A   1      31.681  30.993  24.262  1.00  0.00     0.169 HD
BRANCH  81  83
ATOM     83  C   UNL A   1      31.449  29.210  23.521  1.00  0.00     0.177 C 
ATOM     84  S   UNL A   1      29.908  28.571  23.317  1.00  0.00    -0.040 S 
BRANCH  83  85
ATOM     85  N   UNL A   1      32.373  28.914  22.546  1.00  0.00    -0.299 N 
ATOM     86  C   UNL A   1      33.402  27.997  22.313  1.00  0.00     0.260 C 
ATOM     87  H   UNL A   1      32.283  29.531  21.786  1.00  0.00     0.172 HD
ATOM     88  O   UNL A   1      34.379  28.243  21.623  1.00  0.00    -0.269 OA
BRANCH  86  89
ATOM     89  C   UNL A   1      33.299  26.726  23.023  1.00  0.00     0.075 A 
ATOM     90  C   UNL A   1      33.657  26.650  25.001  1.00  0.00     0.017 A 
ATOM     91  C   UNL A   1      31.912  25.520  22.321  1.00  0.00     0.135 A 
ATOM     92  C   UNL A   1      32.540  25.347  25.967  1.00  0.00     0.001 A 
ATOM     93  C   UNL A   1      30.782  24.237  23.297  1.00  0.00     0.040 A 
ATOM     94  F   UNL A   1      31.467  25.823  21.085  1.00  0.00    -0.206 F 
ATOM     95  C   UNL A   1      31.133  24.169  25.267  1.00  0.00     0.003 A 
ENDBRANCH  86  89
ENDBRANCH  83  85
ENDBRANCH  81  83
ENDBRANCH  77  81
ENDBRANCH  72  74
ENDBRANCH  71  72
ENDBRANCH   1  71
TORSDOF 18
ENDMDL
