MODEL 1
REMARK VINA RESULT:     -11.2      0.000      0.000
REMARK SMILES CCc1ccccc1NC(=O)CCCC(=O)OCCOC(=O)c1ccc(-c2c3nc(c(-c4cc(S(=O)(=O)[O-])ccc4F)c4ccc([nH]4)c(-c4cc(S(=O)(=O)[O-])ccc4F)c4nc(c(-c5cc(S(=O)(=O)[O-])ccc5F)c5ccc2[nH]5)C=C4)C=C3)cc1
REMARK SMILES IDX 18 1 17 2 15 3 16 4 14 5 13 6 12 7 10 8 9 9 11 11 8 12 3 13
REMARK SMILES IDX 4 14 5 15 7 16 6 17 2 18 1 19 19 20 20 21 21 22 22 23 23 24
REMARK SMILES IDX 24 25 85 26 25 27 84 28 26 29 27 30 28 31 78 32 29 33 83 34
REMARK SMILES IDX 77 35 79 36 30 37 82 38 76 39 75 40 31 42 63 43 43 44 62 45
REMARK SMILES IDX 44 46 47 47 61 48 80 49 45 50 46 51 60 53 81 54 48 55 32 56
REMARK SMILES IDX 33 57 41 58 34 59 40 60 42 61 39 62 35 63 36 64 37 65 38 66
REMARK SMILES IDX 64 67 65 68 73 69 66 70 72 71 74 72 71 73 67 74 68 75 69 76
REMARK SMILES IDX 70 77 49 78 50 79 58 80 51 81 57 82 59 83 56 84 52 85 53 86
REMARK SMILES IDX 54 87 55 88
REMARK H PARENT 9 10 79 41 47 52
REMARK Flexibility Score: inf
ROOT
ATOM      1  C   UNL A   1      35.727  21.308  25.407  1.00  0.00     0.274 C 
ENDROOT
BRANCH   1   2
ATOM      2  O   UNL A   1      34.939  21.803  24.307  1.00  0.00    -0.462 OA
BRANCH   2   3
ATOM      3  C   UNL A   1      35.179  23.084  23.918  1.00  0.00     0.305 C 
ATOM      4  O   UNL A   1      35.413  23.419  22.763  1.00  0.00    -0.252 OA
BRANCH   3   5
ATOM      5  C   UNL A   1      35.143  24.084  25.057  1.00  0.00     0.123 C 
BRANCH   5   6
ATOM      6  C   UNL A   1      33.879  24.923  25.204  1.00  0.00     0.022 C 
BRANCH   6   7
ATOM      7  C   UNL A   1      32.572  24.147  25.376  1.00  0.00     0.101 C 
BRANCH   7   8
ATOM      8  C   UNL A   1      31.690  24.649  26.501  1.00  0.00     0.224 C 
ATOM      9  N   UNL A   1      31.058  25.855  26.508  1.00  0.00    -0.326 N 
ATOM     10  H   UNL A   1      30.462  25.968  27.284  1.00  0.00     0.169 HD
ATOM     11  O   UNL A   1      31.455  23.897  27.456  1.00  0.00    -0.275 OA
BRANCH   9  12
ATOM     12  C   UNL A   1      31.061  26.979  25.659  1.00  0.00     0.044 A 
ATOM     13  C   UNL A   1      31.770  28.135  26.047  1.00  0.00    -0.025 A 
ATOM     14  C   UNL A   1      31.518  29.358  25.392  1.00  0.00     0.006 A 
ATOM     15  C   UNL A   1      30.752  29.396  24.239  1.00  0.00     0.000 A 
ATOM     16  C   UNL A   1      30.402  27.011  24.434  1.00  0.00     0.026 A 
ATOM     17  C   UNL A   1      30.275  28.205  23.714  1.00  0.00     0.002 A 
BRANCH  13  18
ATOM     18  C   UNL A   1      32.947  28.125  26.998  1.00  0.00     0.034 C 
ATOM     19  C   UNL A   1      33.924  29.212  26.543  1.00  0.00     0.009 C 
ENDBRANCH  13  18
ENDBRANCH   9  12
ENDBRANCH   7   8
ENDBRANCH   6   7
ENDBRANCH   5   6
ENDBRANCH   3   5
ENDBRANCH   2   3
ENDBRANCH   1   2
BRANCH   1  20
ATOM     20  C   UNL A   1      36.972  20.531  24.977  1.00  0.00     0.275 C 
BRANCH  20  21
ATOM     21  O   UNL A   1      38.142  21.360  24.992  1.00  0.00    -0.458 OA
BRANCH  21  22
ATOM     22  C   UNL A   1      39.072  20.982  25.904  1.00  0.00     0.338 C 
ATOM     23  O   UNL A   1      39.537  19.864  26.049  1.00  0.00    -0.246 OA
BRANCH  22  24
ATOM     24  C   UNL A   1      39.604  22.171  26.588  1.00  0.00     0.060 A 
ATOM     25  C   UNL A   1      39.091  23.412  26.196  1.00  0.00     0.016 A 
ATOM     26  C   UNL A   1      40.620  22.087  27.540  1.00  0.00     0.016 A 
ATOM     27  C   UNL A   1      39.592  24.583  26.740  1.00  0.00     0.010 A 
ATOM     28  C   UNL A   1      41.158  23.267  28.057  1.00  0.00     0.010 A 
ATOM     29  C   UNL A   1      40.663  24.513  27.631  1.00  0.00    -0.014 A 
BRANCH  29  30
ATOM     30  C   UNL A   1      41.411  25.752  27.912  1.00  0.00     0.031 A 
ATOM     31  C   UNL A   1      40.697  26.833  28.670  1.00  0.00     0.074 A 
ATOM     32  C   UNL A   1      42.704  25.864  27.571  1.00  0.00     0.049 A 
ATOM     33  N   UNL A   1      41.083  28.048  28.947  1.00  0.00    -0.248 NA
ATOM     34  C   UNL A   1      39.361  26.488  29.186  1.00  0.00     0.031 C 
ATOM     35  C   UNL A   1      43.505  24.811  26.948  1.00  0.00     0.029 A 
ATOM     36  N   UNL A   1      43.570  26.914  27.706  1.00  0.00    -0.354 N 
ATOM     37  C   UNL A   1      40.030  28.621  29.655  1.00  0.00     0.074 A 
ATOM     38  C   UNL A   1      38.986  27.625  29.747  1.00  0.00     0.031 C 
ATOM     39  C   UNL A   1      44.747  25.279  26.736  1.00  0.00     0.029 A 
ATOM     40  C   UNL A   1      44.807  26.676  27.157  1.00  0.00     0.049 A 
ATOM     41  H   UNL A   1      43.331  27.759  28.152  1.00  0.00     0.167 HD
ATOM     42  C   UNL A   1      39.950  29.871  30.171  1.00  0.00     0.034 A 
ATOM     43  C   UNL A   1      45.846  27.517  26.979  1.00  0.00     0.034 A 
ATOM     44  C   UNL A   1      41.008  30.840  30.034  1.00  0.00     0.049 A 
ATOM     45  C   UNL A   1      45.692  28.941  27.457  1.00  0.00     0.074 A 
ATOM     46  C   UNL A   1      41.040  32.157  30.454  1.00  0.00     0.029 A 
ATOM     47  N   UNL A   1      42.230  30.589  29.418  1.00  0.00    -0.354 N 
ATOM     48  N   UNL A   1      44.669  29.506  28.062  1.00  0.00    -0.248 NA
ATOM     49  C   UNL A   1      46.827  29.840  27.228  1.00  0.00     0.031 C 
ATOM     50  C   UNL A   1      42.254  32.717  30.038  1.00  0.00     0.029 A 
ATOM     51  C   UNL A   1      43.013  31.731  29.424  1.00  0.00     0.049 A 
ATOM     52  H   UNL A   1      42.499  29.723  29.032  1.00  0.00     0.167 HD
ATOM     53  C   UNL A   1      45.050  30.821  28.307  1.00  0.00     0.074 A 
ATOM     54  C   UNL A   1      46.402  30.957  27.799  1.00  0.00     0.031 C 
ATOM     55  C   UNL A   1      44.356  31.829  28.898  1.00  0.00     0.034 A 
BRANCH  42  56
ATOM     56  C   UNL A   1      38.648  30.259  30.829  1.00  0.00     0.023 A 
ATOM     57  C   UNL A   1      37.627  30.925  30.127  1.00  0.00     0.031 A 
ATOM     58  C   UNL A   1      38.460  30.033  32.205  1.00  0.00     0.131 A 
ATOM     59  C   UNL A   1      36.505  31.412  30.817  1.00  0.00     0.055 A 
ATOM     60  C   UNL A   1      37.304  30.449  32.868  1.00  0.00     0.041 A 
ATOM     61  F   UNL A   1      39.412  29.432  32.935  1.00  0.00    -0.206 F 
ATOM     62  C   UNL A   1      36.326  31.157  32.179  1.00  0.00     0.022 A 
BRANCH  59  63
ATOM     63  S   UNL A   1      35.359  32.518  29.946  1.00  0.00     0.124 S 
ATOM     64  O   UNL A   1      34.295  32.677  30.934  1.00  0.00    -0.237 OA
ATOM     65  O   UNL A   1      36.183  33.695  29.698  1.00  0.00    -0.237 OA
ATOM     66  O   UNL A   1      34.986  31.756  28.756  1.00  0.00    -0.744 OA
ENDBRANCH  59  63
ENDBRANCH  42  56
BRANCH  43  67
ATOM     67  C   UNL A   1      47.075  27.066  26.267  1.00  0.00     0.023 A 
ATOM     68  C   UNL A   1      48.107  26.398  26.945  1.00  0.00     0.031 A 
ATOM     69  C   UNL A   1      47.258  27.339  24.899  1.00  0.00     0.131 A 
ATOM     70  C   UNL A   1      49.289  26.060  26.263  1.00  0.00     0.055 A 
ATOM     71  C   UNL A   1      48.412  26.955  24.213  1.00  0.00     0.041 A 
ATOM     72  F   UNL A   1      46.306  27.980  24.201  1.00  0.00    -0.206 F 
ATOM     73  C   UNL A   1      49.441  26.322  24.900  1.00  0.00     0.022 A 
BRANCH  70  74
ATOM     74  S   UNL A   1      50.663  25.343  27.206  1.00  0.00     0.124 S 
ATOM     75  O   UNL A   1      49.992  24.284  27.952  1.00  0.00    -0.237 OA
ATOM     76  O   UNL A   1      51.563  24.908  26.143  1.00  0.00    -0.237 OA
ATOM     77  O   UNL A   1      51.146  26.464  28.009  1.00  0.00    -0.744 OA
ENDBRANCH  70  74
ENDBRANCH  43  67
BRANCH  55  78
ATOM     78  C   UNL A   1      45.078  33.142  29.060  1.00  0.00     0.023 A 
ATOM     79  C   UNL A   1      45.102  34.103  28.036  1.00  0.00     0.031 A 
ATOM     80  C   UNL A   1      45.761  33.425  30.256  1.00  0.00     0.131 A 
ATOM     81  C   UNL A   1      45.846  35.278  28.204  1.00  0.00     0.055 A 
ATOM     82  C   UNL A   1      46.449  34.624  30.441  1.00  0.00     0.041 A 
ATOM     83  F   UNL A   1      45.768  32.540  31.266  1.00  0.00    -0.206 F 
ATOM     84  C   UNL A   1      46.505  35.553  29.405  1.00  0.00     0.022 A 
BRANCH  81  85
ATOM     85  S   UNL A   1      46.022  36.404  26.792  1.00  0.00     0.124 S 
ATOM     86  O   UNL A   1      44.785  37.176  26.865  1.00  0.00    -0.237 OA
ATOM     87  O   UNL A   1      47.245  37.127  27.120  1.00  0.00    -0.237 OA
ATOM     88  O   UNL A   1      46.123  35.502  25.646  1.00  0.00    -0.744 OA
ENDBRANCH  81  85
ENDBRANCH  55  78
ENDBRANCH  29  30
ENDBRANCH  22  24
ENDBRANCH  21  22
ENDBRANCH  20  21
ENDBRANCH   1  20
TORSDOF 19
ENDMDL
MODEL 2
REMARK VINA RESULT:     -11.2      3.771     10.198
REMARK SMILES CCc1ccccc1NC(=O)CCCC(=O)OCCOC(=O)c1ccc(-c2c3nc(c(-c4cc(S(=O)(=O)[O-])ccc4F)c4ccc([nH]4)c(-c4cc(S(=O)(=O)[O-])ccc4F)c4nc(c(-c5cc(S(=O)(=O)[O-])ccc5F)c5ccc2[nH]5)C=C4)C=C3)cc1
REMARK SMILES IDX 18 1 17 2 15 3 16 4 14 5 13 6 12 7 10 8 9 9 11 11 8 12 3 13
REMARK SMILES IDX 4 14 5 15 7 16 6 17 2 18 1 19 19 20 20 21 21 22 22 23 23 24
REMARK SMILES IDX 24 25 85 26 25 27 84 28 26 29 27 30 28 31 78 32 29 33 83 34
REMARK SMILES IDX 77 35 79 36 30 37 82 38 76 39 75 40 31 42 63 43 43 44 62 45
REMARK SMILES IDX 44 46 47 47 61 48 80 49 45 50 46 51 60 53 81 54 48 55 32 56
REMARK SMILES IDX 33 57 41 58 34 59 40 60 42 61 39 62 35 63 36 64 37 65 38 66
REMARK SMILES IDX 64 67 65 68 73 69 66 70 72 71 74 72 71 73 67 74 68 75 69 76
REMARK SMILES IDX 70 77 49 78 50 79 58 80 51 81 57 82 59 83 56 84 52 85 53 86
REMARK SMILES IDX 54 87 55 88
REMARK H PARENT 9 10 79 41 47 52
REMARK Flexibility Score: inf
ROOT
ATOM      1  C   UNL A   1      42.147  19.768  26.184  1.00  0.00     0.274 C 
ENDROOT
BRANCH   1   2
ATOM      2  O   UNL A   1      42.746  19.202  25.001  1.00  0.00    -0.462 OA
BRANCH   2   3
ATOM      3  C   UNL A   1      44.070  18.901  25.078  1.00  0.00     0.305 C 
ATOM      4  O   UNL A   1      44.530  17.996  25.765  1.00  0.00    -0.252 OA
BRANCH   3   5
ATOM      5  C   UNL A   1      44.951  19.802  24.236  1.00  0.00     0.123 C 
BRANCH   5   6
ATOM      6  C   UNL A   1      45.882  20.753  24.979  1.00  0.00     0.022 C 
BRANCH   6   7
ATOM      7  C   UNL A   1      45.941  22.187  24.451  1.00  0.00     0.101 C 
BRANCH   7   8
ATOM      8  C   UNL A   1      44.686  22.999  24.702  1.00  0.00     0.224 C 
ATOM      9  N   UNL A   1      44.516  23.855  25.747  1.00  0.00    -0.326 N 
ATOM     10  H   UNL A   1      43.670  24.356  25.695  1.00  0.00     0.169 HD
ATOM     11  O   UNL A   1      43.769  22.952  23.871  1.00  0.00    -0.275 OA
BRANCH   9  12
ATOM     12  C   UNL A   1      45.273  24.188  26.887  1.00  0.00     0.044 A 
ATOM     13  C   UNL A   1      44.665  24.139  28.159  1.00  0.00    -0.025 A 
ATOM     14  C   UNL A   1      45.288  24.776  29.252  1.00  0.00     0.006 A 
ATOM     15  C   UNL A   1      46.582  25.255  29.146  1.00  0.00     0.000 A 
ATOM     16  C   UNL A   1      46.614  24.557  26.830  1.00  0.00     0.026 A 
ATOM     17  C   UNL A   1      47.272  25.059  27.960  1.00  0.00     0.002 A 
BRANCH  13  18
ATOM     18  C   UNL A   1      43.470  23.272  28.492  1.00  0.00     0.034 C 
ATOM     19  C   UNL A   1      43.258  23.331  30.006  1.00  0.00     0.009 C 
ENDBRANCH  13  18
ENDBRANCH   9  12
ENDBRANCH   7   8
ENDBRANCH   6   7
ENDBRANCH   5   6
ENDBRANCH   3   5
ENDBRANCH   2   3
ENDBRANCH   1   2
BRANCH   1  20
ATOM     20  C   UNL A   1      41.820  21.258  26.060  1.00  0.00     0.275 C 
BRANCH  20  21
ATOM     21  O   UNL A   1      40.924  21.688  27.095  1.00  0.00    -0.458 OA
BRANCH  21  22
ATOM     22  C   UNL A   1      39.785  22.259  26.632  1.00  0.00     0.338 C 
ATOM     23  O   UNL A   1      38.840  21.685  26.117  1.00  0.00    -0.246 OA
BRANCH  22  24
ATOM     24  C   UNL A   1      39.754  23.679  27.018  1.00  0.00     0.060 A 
ATOM     25  C   UNL A   1      40.067  24.614  26.027  1.00  0.00     0.016 A 
ATOM     26  C   UNL A   1      39.489  24.085  28.326  1.00  0.00     0.016 A 
ATOM     27  C   UNL A   1      40.131  25.964  26.329  1.00  0.00     0.010 A 
ATOM     28  C   UNL A   1      39.596  25.440  28.644  1.00  0.00     0.010 A 
ATOM     29  C   UNL A   1      39.947  26.372  27.651  1.00  0.00    -0.014 A 
BRANCH  29  30
ATOM     30  C   UNL A   1      40.372  27.735  28.018  1.00  0.00     0.031 A 
ATOM     31  C   UNL A   1      41.820  28.082  27.829  1.00  0.00     0.074 A 
ATOM     32  C   UNL A   1      39.475  28.646  28.426  1.00  0.00     0.049 A 
ATOM     33  N   UNL A   1      42.468  29.160  28.172  1.00  0.00    -0.248 NA
ATOM     34  C   UNL A   1      42.647  27.066  27.155  1.00  0.00     0.031 C 
ATOM     35  C   UNL A   1      38.031  28.426  28.513  1.00  0.00     0.029 A 
ATOM     36  N   UNL A   1      39.647  29.939  28.838  1.00  0.00    -0.354 N 
ATOM     37  C   UNL A   1      43.785  28.947  27.775  1.00  0.00     0.074 A 
ATOM     38  C   UNL A   1      43.842  27.629  27.180  1.00  0.00     0.031 C 
ATOM     39  C   UNL A   1      37.449  29.547  28.972  1.00  0.00     0.029 A 
ATOM     40  C   UNL A   1      38.483  30.537  29.262  1.00  0.00     0.049 A 
ATOM     41  H   UNL A   1      40.518  30.397  28.832  1.00  0.00     0.167 HD
ATOM     42  C   UNL A   1      44.845  29.780  27.904  1.00  0.00     0.034 A 
ATOM     43  C   UNL A   1      38.298  31.731  29.857  1.00  0.00     0.034 A 
ATOM     44  C   UNL A   1      44.746  31.077  28.525  1.00  0.00     0.049 A 
ATOM     45  C   UNL A   1      39.512  32.597  30.100  1.00  0.00     0.074 A 
ATOM     46  C   UNL A   1      45.745  31.998  28.777  1.00  0.00     0.029 A 
ATOM     47  N   UNL A   1      43.563  31.632  29.002  1.00  0.00    -0.354 N 
ATOM     48  N   UNL A   1      40.769  32.365  29.790  1.00  0.00    -0.248 NA
ATOM     49  C   UNL A   1      39.284  33.879  30.773  1.00  0.00     0.031 C 
ATOM     50  C   UNL A   1      45.176  33.081  29.458  1.00  0.00     0.029 A 
ATOM     51  C   UNL A   1      43.809  32.872  29.567  1.00  0.00     0.049 A 
ATOM     52  H   UNL A   1      42.677  31.205  28.946  1.00  0.00     0.167 HD
ATOM     53  C   UNL A   1      41.478  33.486  30.209  1.00  0.00     0.074 A 
ATOM     54  C   UNL A   1      40.504  34.398  30.778  1.00  0.00     0.031 C 
ATOM     55  C   UNL A   1      42.809  33.749  30.133  1.00  0.00     0.034 A 
BRANCH  42  56
ATOM     56  C   UNL A   1      46.187  29.257  27.452  1.00  0.00     0.023 A 
ATOM     57  C   UNL A   1      46.464  28.981  26.101  1.00  0.00     0.031 A 
ATOM     58  C   UNL A   1      47.179  28.950  28.402  1.00  0.00     0.131 A 
ATOM     59  C   UNL A   1      47.664  28.343  25.747  1.00  0.00     0.055 A 
ATOM     60  C   UNL A   1      48.403  28.390  28.033  1.00  0.00     0.041 A 
ATOM     61  F   UNL A   1      46.961  29.159  29.709  1.00  0.00    -0.206 F 
ATOM     62  C   UNL A   1      48.646  28.068  26.702  1.00  0.00     0.022 A 
BRANCH  59  63
ATOM     63  S   UNL A   1      47.859  27.735  24.048  1.00  0.00     0.124 S 
ATOM     64  O   UNL A   1      46.885  28.553  23.329  1.00  0.00    -0.237 OA
ATOM     65  O   UNL A   1      49.262  28.018  23.770  1.00  0.00    -0.237 OA
ATOM     66  O   UNL A   1      47.516  26.318  24.150  1.00  0.00    -0.744 OA
ENDBRANCH  59  63
ENDBRANCH  42  56
BRANCH  43  67
ATOM     67  C   UNL A   1      36.944  32.145  30.325  1.00  0.00     0.023 A 
ATOM     68  C   UNL A   1      36.081  32.882  29.498  1.00  0.00     0.031 A 
ATOM     69  C   UNL A   1      36.509  31.848  31.630  1.00  0.00     0.131 A 
ATOM     70  C   UNL A   1      34.846  33.328  29.997  1.00  0.00     0.055 A 
ATOM     71  C   UNL A   1      35.259  32.249  32.104  1.00  0.00     0.041 A 
ATOM     72  F   UNL A   1      37.295  31.150  32.466  1.00  0.00    -0.206 F 
ATOM     73  C   UNL A   1      34.424  33.005  31.289  1.00  0.00     0.022 A 
BRANCH  70  74
ATOM     74  S   UNL A   1      33.828  34.412  28.959  1.00  0.00     0.124 S 
ATOM     75  O   UNL A   1      32.883  34.954  29.929  1.00  0.00    -0.237 OA
ATOM     76  O   UNL A   1      34.818  35.348  28.436  1.00  0.00    -0.237 OA
ATOM     77  O   UNL A   1      33.255  33.499  27.972  1.00  0.00    -0.744 OA
ENDBRANCH  70  74
ENDBRANCH  43  67
BRANCH  55  78
ATOM     78  C   UNL A   1      43.262  35.094  30.639  1.00  0.00     0.023 A 
ATOM     79  C   UNL A   1      43.319  36.219  29.798  1.00  0.00     0.031 A 
ATOM     80  C   UNL A   1      43.655  35.245  31.980  1.00  0.00     0.131 A 
ATOM     81  C   UNL A   1      43.815  37.432  30.293  1.00  0.00     0.055 A 
ATOM     82  C   UNL A   1      44.089  36.471  32.483  1.00  0.00     0.041 A 
ATOM     83  F   UNL A   1      43.618  34.202  32.825  1.00  0.00    -0.206 F 
ATOM     84  C   UNL A   1      44.184  37.570  31.634  1.00  0.00     0.022 A 
BRANCH  81  85
ATOM     85  S   UNL A   1      44.064  38.805  29.135  1.00  0.00     0.124 S 
ATOM     86  O   UNL A   1      44.948  39.686  29.893  1.00  0.00    -0.237 OA
ATOM     87  O   UNL A   1      44.661  38.139  27.983  1.00  0.00    -0.237 OA
ATOM     88  O   UNL A   1      42.713  39.321  28.921  1.00  0.00    -0.744 OA
ENDBRANCH  81  85
ENDBRANCH  55  78
ENDBRANCH  29  30
ENDBRANCH  22  24
ENDBRANCH  21  22
ENDBRANCH  20  21
ENDBRANCH   1  20
TORSDOF 19
ENDMDL
MODEL 3
REMARK VINA RESULT:     -10.9      3.739     10.342
REMARK SMILES CCc1ccccc1NC(=O)CCCC(=O)OCCOC(=O)c1ccc(-c2c3nc(c(-c4cc(S(=O)(=O)[O-])ccc4F)c4ccc([nH]4)c(-c4cc(S(=O)(=O)[O-])ccc4F)c4nc(c(-c5cc(S(=O)(=O)[O-])ccc5F)c5ccc2[nH]5)C=C4)C=C3)cc1
REMARK SMILES IDX 18 1 17 2 15 3 16 4 14 5 13 6 12 7 10 8 9 9 11 11 8 12 3 13
REMARK SMILES IDX 4 14 5 15 7 16 6 17 2 18 1 19 19 20 20 21 21 22 22 23 23 24
REMARK SMILES IDX 24 25 85 26 25 27 84 28 26 29 27 30 28 31 78 32 29 33 83 34
REMARK SMILES IDX 77 35 79 36 30 37 82 38 76 39 75 40 31 42 63 43 43 44 62 45
REMARK SMILES IDX 44 46 47 47 61 48 80 49 45 50 46 51 60 53 81 54 48 55 32 56
REMARK SMILES IDX 33 57 41 58 34 59 40 60 42 61 39 62 35 63 36 64 37 65 38 66
REMARK SMILES IDX 64 67 65 68 73 69 66 70 72 71 74 72 71 73 67 74 68 75 69 76
REMARK SMILES IDX 70 77 49 78 50 79 58 80 51 81 57 82 59 83 56 84 52 85 53 86
REMARK SMILES IDX 54 87 55 88
REMARK H PARENT 9 10 79 41 47 52
REMARK Flexibility Score: inf
ROOT
ATOM      1  C   UNL A   1      42.253  19.859  26.339  1.00  0.00     0.274 C 
ENDROOT
BRANCH   1   2
ATOM      2  O   UNL A   1      42.795  19.214  25.169  1.00  0.00    -0.462 OA
BRANCH   2   3
ATOM      3  C   UNL A   1      44.084  18.789  25.254  1.00  0.00     0.305 C 
ATOM      4  O   UNL A   1      44.460  17.878  25.981  1.00  0.00    -0.252 OA
BRANCH   3   5
ATOM      5  C   UNL A   1      45.039  19.559  24.364  1.00  0.00     0.123 C 
BRANCH   5   6
ATOM      6  C   UNL A   1      46.004  20.520  25.050  1.00  0.00     0.022 C 
BRANCH   6   7
ATOM      7  C   UNL A   1      46.215  21.869  24.360  1.00  0.00     0.101 C 
BRANCH   7   8
ATOM      8  C   UNL A   1      44.957  22.703  24.217  1.00  0.00     0.224 C 
ATOM      9  N   UNL A   1      44.583  23.690  25.077  1.00  0.00    -0.326 N 
ATOM     10  H   UNL A   1      43.782  24.176  24.773  1.00  0.00     0.169 HD
ATOM     11  O   UNL A   1      44.245  22.542  23.217  1.00  0.00    -0.275 OA
BRANCH   9  12
ATOM     12  C   UNL A   1      45.079  24.174  26.303  1.00  0.00     0.044 A 
ATOM     13  C   UNL A   1      46.154  25.087  26.301  1.00  0.00    -0.025 A 
ATOM     14  C   UNL A   1      46.870  25.320  27.493  1.00  0.00     0.006 A 
ATOM     15  C   UNL A   1      46.401  24.839  28.704  1.00  0.00     0.000 A 
ATOM     16  C   UNL A   1      44.551  23.806  27.538  1.00  0.00     0.026 A 
ATOM     17  C   UNL A   1      45.192  24.162  28.731  1.00  0.00     0.002 A 
BRANCH  13  18
ATOM     18  C   UNL A   1      46.483  26.002  25.142  1.00  0.00     0.034 C 
ATOM     19  C   UNL A   1      47.909  25.684  24.685  1.00  0.00     0.009 C 
ENDBRANCH  13  18
ENDBRANCH   9  12
ENDBRANCH   7   8
ENDBRANCH   6   7
ENDBRANCH   5   6
ENDBRANCH   3   5
ENDBRANCH   2   3
ENDBRANCH   1   2
BRANCH   1  20
ATOM     20  C   UNL A   1      41.975  21.351  26.150  1.00  0.00     0.275 C 
BRANCH  20  21
ATOM     21  O   UNL A   1      41.013  21.831  27.100  1.00  0.00    -0.458 OA
BRANCH  21  22
ATOM     22  C   UNL A   1      39.945  22.448  26.535  1.00  0.00     0.338 C 
ATOM     23  O   UNL A   1      39.045  21.915  25.908  1.00  0.00    -0.246 OA
BRANCH  22  24
ATOM     24  C   UNL A   1      39.910  23.857  26.956  1.00  0.00     0.060 A 
ATOM     25  C   UNL A   1      40.349  24.808  26.029  1.00  0.00     0.016 A 
ATOM     26  C   UNL A   1      39.521  24.238  28.241  1.00  0.00     0.016 A 
ATOM     27  C   UNL A   1      40.416  26.147  26.374  1.00  0.00     0.010 A 
ATOM     28  C   UNL A   1      39.629  25.581  28.606  1.00  0.00     0.010 A 
ATOM     29  C   UNL A   1      40.106  26.527  27.681  1.00  0.00    -0.014 A 
BRANCH  29  30
ATOM     30  C   UNL A   1      40.525  27.868  28.128  1.00  0.00     0.031 A 
ATOM     31  C   UNL A   1      41.995  28.173  28.113  1.00  0.00     0.074 A 
ATOM     32  C   UNL A   1      39.614  28.797  28.454  1.00  0.00     0.049 A 
ATOM     33  N   UNL A   1      42.631  29.223  28.555  1.00  0.00    -0.248 NA
ATOM     34  C   UNL A   1      42.863  27.146  27.512  1.00  0.00     0.031 C 
ATOM     35  C   UNL A   1      38.164  28.622  28.372  1.00  0.00     0.029 A 
ATOM     36  N   UNL A   1      39.775  30.076  28.916  1.00  0.00    -0.354 N 
ATOM     37  C   UNL A   1      43.978  28.976  28.304  1.00  0.00     0.074 A 
ATOM     38  C   UNL A   1      44.064  27.671  27.686  1.00  0.00     0.031 C 
ATOM     39  C   UNL A   1      37.566  29.750  28.791  1.00  0.00     0.029 A 
ATOM     40  C   UNL A   1      38.589  30.700  29.220  1.00  0.00     0.049 A 
ATOM     41  H   UNL A   1      40.655  30.506  29.020  1.00  0.00     0.167 HD
ATOM     42  C   UNL A   1      45.039  29.772  28.574  1.00  0.00     0.034 A 
ATOM     43  C   UNL A   1      38.372  31.887  29.821  1.00  0.00     0.034 A 
ATOM     44  C   UNL A   1      44.908  31.058  29.212  1.00  0.00     0.049 A 
ATOM     45  C   UNL A   1      39.575  32.707  30.222  1.00  0.00     0.074 A 
ATOM     46  C   UNL A   1      45.898  31.941  29.598  1.00  0.00     0.029 A 
ATOM     47  N   UNL A   1      43.694  31.640  29.566  1.00  0.00    -0.354 N 
ATOM     48  N   UNL A   1      40.851  32.443  30.050  1.00  0.00    -0.248 NA
ATOM     49  C   UNL A   1      39.309  33.982  30.897  1.00  0.00     0.031 C 
ATOM     50  C   UNL A   1      45.287  33.027  30.238  1.00  0.00     0.029 A 
ATOM     51  C   UNL A   1      43.911  32.859  30.185  1.00  0.00     0.049 A 
ATOM     52  H   UNL A   1      42.809  31.242  29.399  1.00  0.00     0.167 HD
ATOM     53  C   UNL A   1      41.540  33.532  30.575  1.00  0.00     0.074 A 
ATOM     54  C   UNL A   1      40.534  34.461  31.052  1.00  0.00     0.031 C 
ATOM     55  C   UNL A   1      42.878  33.754  30.657  1.00  0.00     0.034 A 
BRANCH  42  56
ATOM     56  C   UNL A   1      46.409  29.217  28.263  1.00  0.00     0.023 A 
ATOM     57  C   UNL A   1      47.184  28.558  29.234  1.00  0.00     0.031 A 
ATOM     58  C   UNL A   1      46.983  29.428  26.996  1.00  0.00     0.131 A 
ATOM     59  C   UNL A   1      48.513  28.205  28.949  1.00  0.00     0.055 A 
ATOM     60  C   UNL A   1      48.277  29.002  26.694  1.00  0.00     0.041 A 
ATOM     61  F   UNL A   1      46.305  30.080  26.039  1.00  0.00    -0.206 F 
ATOM     62  C   UNL A   1      49.057  28.402  27.677  1.00  0.00     0.022 A 
BRANCH  59  63
ATOM     63  S   UNL A   1      49.573  27.632  30.306  1.00  0.00     0.124 S 
ATOM     64  O   UNL A   1      50.676  28.588  30.243  1.00  0.00    -0.237 OA
ATOM     65  O   UNL A   1      48.693  27.746  31.464  1.00  0.00    -0.237 OA
ATOM     66  O   UNL A   1      49.918  26.266  29.918  1.00  0.00    -0.744 OA
ENDBRANCH  59  63
ENDBRANCH  42  56
BRANCH  43  67
ATOM     67  C   UNL A   1      36.986  32.333  30.143  1.00  0.00     0.023 A 
ATOM     68  C   UNL A   1      36.188  32.980  29.186  1.00  0.00     0.031 A 
ATOM     69  C   UNL A   1      36.453  32.159  31.433  1.00  0.00     0.131 A 
ATOM     70  C   UNL A   1      34.918  33.462  29.544  1.00  0.00     0.055 A 
ATOM     71  C   UNL A   1      35.170  32.593  31.770  1.00  0.00     0.041 A 
ATOM     72  F   UNL A   1      37.173  31.551  32.390  1.00  0.00    -0.206 F 
ATOM     73  C   UNL A   1      34.399  33.261  30.825  1.00  0.00     0.022 A 
BRANCH  70  74
ATOM     74  S   UNL A   1      33.981  34.433  28.332  1.00  0.00     0.124 S 
ATOM     75  O   UNL A   1      35.000  34.718  27.327  1.00  0.00    -0.237 OA
ATOM     76  O   UNL A   1      32.936  33.495  27.936  1.00  0.00    -0.237 OA
ATOM     77  O   UNL A   1      33.521  35.587  29.101  1.00  0.00    -0.744 OA
ENDBRANCH  70  74
ENDBRANCH  43  67
BRANCH  55  78
ATOM     78  C   UNL A   1      43.309  35.073  31.244  1.00  0.00     0.023 A 
ATOM     79  C   UNL A   1      43.503  36.211  30.443  1.00  0.00     0.031 A 
ATOM     80  C   UNL A   1      43.541  35.185  32.627  1.00  0.00     0.131 A 
ATOM     81  C   UNL A   1      43.975  37.397  31.022  1.00  0.00     0.055 A 
ATOM     82  C   UNL A   1      43.950  36.385  33.206  1.00  0.00     0.041 A 
ATOM     83  F   UNL A   1      43.369  34.128  33.436  1.00  0.00    -0.206 F 
ATOM     84  C   UNL A   1      44.183  37.496  32.400  1.00  0.00     0.022 A 
BRANCH  81  85
ATOM     85  S   UNL A   1      44.405  38.783  29.934  1.00  0.00     0.124 S 
ATOM     86  O   UNL A   1      44.983  39.738  30.875  1.00  0.00    -0.237 OA
ATOM     87  O   UNL A   1      45.339  38.167  28.998  1.00  0.00    -0.237 OA
ATOM     88  O   UNL A   1      43.121  39.179  29.359  1.00  0.00    -0.744 OA
ENDBRANCH  81  85
ENDBRANCH  55  78
ENDBRANCH  29  30
ENDBRANCH  22  24
ENDBRANCH  21  22
ENDBRANCH  20  21
ENDBRANCH   1  20
TORSDOF 19
ENDMDL
