MODEL 1
REMARK VINA RESULT:     -12.6      0.000      0.000
REMARK SMILES O=C(OCCOC(=O)c1ccc(-c2ccn(C(F)F)c(=O)c2)cc1O)c1ccc(-c2c3nc(c(-c4cc(S(=O)(=O)[O-])ccc4F)c4ccc([nH]4)c(-c4cc(S(=O)(=O)[O-])ccc4F)c4nc(c(-c5cc(S(=O)(=O)[O-])ccc5F)c5ccc2[nH]5)C=C4)C=C3)cc1
REMARK SMILES IDX 4 1 3 2 2 3 1 4 26 5 27 6 88 7 28 8 87 9 29 10 30 11 31 12
REMARK SMILES IDX 81 13 32 14 86 15 80 16 82 17 33 18 85 19 79 20 78 21 34 23
REMARK SMILES IDX 66 24 46 25 65 26 47 27 50 28 64 29 83 30 48 31 49 32 63 34
REMARK SMILES IDX 84 35 51 36 35 37 36 38 44 39 37 40 43 41 45 42 42 43 38 44
REMARK SMILES IDX 39 45 40 46 41 47 67 48 68 49 76 50 69 51 75 52 77 53 74 54
REMARK SMILES IDX 70 55 71 56 72 57 73 58 52 59 53 60 61 61 54 62 60 63 62 64
REMARK SMILES IDX 59 65 55 66 56 67 57 68 58 69 5 70 6 71 7 72 8 73 9 74 10 75
REMARK SMILES IDX 24 76 11 77 23 78 12 79 25 80 13 82 14 83 22 84 15 85 20 86
REMARK SMILES IDX 16 87 21 88 17 89 18 90 19 91
REMARK H PARENT 82 22 50 33 25 81
REMARK Flexibility Score: inf
ROOT
ATOM      1  C   UNL A   1      43.670  21.776  25.278  1.00  0.00     0.275 C 
ENDROOT
BRANCH   1   2
ATOM      2  O   UNL A   1      43.253  23.058  24.787  1.00  0.00    -0.458 OA
BRANCH   2   3
ATOM      3  C   UNL A   1      43.819  24.270  25.006  1.00  0.00     0.338 C 
ATOM      4  O   UNL A   1      44.880  24.541  24.449  1.00  0.00    -0.246 OA
BRANCH   3   5
ATOM      5  C   UNL A   1      43.312  25.199  26.060  1.00  0.00     0.060 A 
ATOM      6  C   UNL A   1      42.280  24.699  26.861  1.00  0.00     0.016 A 
ATOM      7  C   UNL A   1      43.775  26.492  26.324  1.00  0.00     0.016 A 
ATOM      8  C   UNL A   1      41.648  25.517  27.799  1.00  0.00     0.010 A 
ATOM      9  C   UNL A   1      43.134  27.317  27.261  1.00  0.00     0.010 A 
ATOM     10  C   UNL A   1      42.041  26.848  27.989  1.00  0.00    -0.014 A 
BRANCH  10  11
ATOM     11  C   UNL A   1      41.482  27.635  29.115  1.00  0.00     0.031 A 
ATOM     12  C   UNL A   1      40.284  28.531  28.996  1.00  0.00     0.074 A 
ATOM     13  C   UNL A   1      42.136  27.559  30.288  1.00  0.00     0.049 A 
ATOM     14  N   UNL A   1      39.556  29.047  29.952  1.00  0.00    -0.248 NA
ATOM     15  C   UNL A   1      39.815  28.876  27.650  1.00  0.00     0.031 C 
ATOM     16  C   UNL A   1      43.342  26.760  30.511  1.00  0.00     0.029 A 
ATOM     17  N   UNL A   1      41.911  28.179  31.486  1.00  0.00    -0.354 N 
ATOM     18  C   UNL A   1      38.488  29.679  29.327  1.00  0.00     0.074 A 
ATOM     19  C   UNL A   1      38.686  29.530  27.904  1.00  0.00     0.031 C 
ATOM     20  C   UNL A   1      43.762  26.952  31.764  1.00  0.00     0.029 A 
ATOM     21  C   UNL A   1      42.899  27.937  32.407  1.00  0.00     0.049 A 
ATOM     22  H   UNL A   1      41.123  28.739  31.669  1.00  0.00     0.167 HD
ATOM     23  C   UNL A   1      37.454  30.340  29.898  1.00  0.00     0.034 A 
ATOM     24  C   UNL A   1      43.125  28.486  33.615  1.00  0.00     0.034 A 
ATOM     25  C   UNL A   1      37.435  30.706  31.291  1.00  0.00     0.049 A 
ATOM     26  C   UNL A   1      42.104  29.436  34.166  1.00  0.00     0.074 A 
ATOM     27  C   UNL A   1      36.461  31.408  31.977  1.00  0.00     0.029 A 
ATOM     28  N   UNL A   1      38.493  30.520  32.171  1.00  0.00    -0.354 N 
ATOM     29  N   UNL A   1      40.967  29.814  33.627  1.00  0.00    -0.248 NA
ATOM     30  C   UNL A   1      42.378  30.033  35.475  1.00  0.00     0.031 C 
ATOM     31  C   UNL A   1      36.999  31.783  33.212  1.00  0.00     0.029 A 
ATOM     32  C   UNL A   1      38.260  31.217  33.344  1.00  0.00     0.049 A 
ATOM     33  H   UNL A   1      39.290  29.971  31.988  1.00  0.00     0.167 HD
ATOM     34  C   UNL A   1      40.380  30.683  34.536  1.00  0.00     0.074 A 
ATOM     35  C   UNL A   1      41.288  30.769  35.665  1.00  0.00     0.031 C 
ATOM     36  C   UNL A   1      39.195  31.338  34.444  1.00  0.00     0.034 A 
BRANCH  23  37
ATOM     37  C   UNL A   1      36.298  30.778  29.035  1.00  0.00     0.023 A 
ATOM     38  C   UNL A   1      35.775  32.079  29.143  1.00  0.00     0.031 A 
ATOM     39  C   UNL A   1      35.623  29.856  28.213  1.00  0.00     0.131 A 
ATOM     40  C   UNL A   1      34.599  32.417  28.459  1.00  0.00     0.055 A 
ATOM     41  C   UNL A   1      34.461  30.203  27.520  1.00  0.00     0.041 A 
ATOM     42  F   UNL A   1      36.071  28.596  28.089  1.00  0.00    -0.206 F 
ATOM     43  C   UNL A   1      33.938  31.486  27.649  1.00  0.00     0.022 A 
BRANCH  40  44
ATOM     44  S   UNL A   1      33.854  34.063  28.622  1.00  0.00     0.124 S 
ATOM     45  O   UNL A   1      33.823  34.233  30.074  1.00  0.00    -0.237 OA
ATOM     46  O   UNL A   1      34.817  34.905  27.916  1.00  0.00    -0.237 OA
ATOM     47  O   UNL A   1      32.549  33.921  27.987  1.00  0.00    -0.744 OA
ENDBRANCH  40  44
ENDBRANCH  23  37
BRANCH  24  48
ATOM     48  C   UNL A   1      44.381  28.096  34.314  1.00  0.00     0.023 A 
ATOM     49  C   UNL A   1      44.379  26.978  35.176  1.00  0.00     0.031 A 
ATOM     50  C   UNL A   1      45.480  28.963  34.351  1.00  0.00     0.131 A 
ATOM     51  C   UNL A   1      45.386  26.841  36.137  1.00  0.00     0.055 A 
ATOM     52  C   UNL A   1      46.526  28.774  35.256  1.00  0.00     0.041 A 
ATOM     53  F   UNL A   1      45.518  30.043  33.555  1.00  0.00    -0.206 F 
ATOM     54  C   UNL A   1      46.466  27.728  36.177  1.00  0.00     0.022 A 
BRANCH  51  55
ATOM     55  S   UNL A   1      45.209  25.651  37.500  1.00  0.00     0.124 S 
ATOM     56  O   UNL A   1      43.944  25.001  37.175  1.00  0.00    -0.237 OA
ATOM     57  O   UNL A   1      46.403  24.825  37.335  1.00  0.00    -0.237 OA
ATOM     58  O   UNL A   1      45.199  26.489  38.695  1.00  0.00    -0.744 OA
ENDBRANCH  51  55
ENDBRANCH  24  48
BRANCH  36  59
ATOM     59  C   UNL A   1      38.806  32.279  35.556  1.00  0.00     0.023 A 
ATOM     60  C   UNL A   1      39.299  33.596  35.562  1.00  0.00     0.031 A 
ATOM     61  C   UNL A   1      38.117  31.817  36.690  1.00  0.00     0.131 A 
ATOM     62  C   UNL A   1      39.166  34.382  36.712  1.00  0.00     0.055 A 
ATOM     63  C   UNL A   1      37.932  32.627  37.811  1.00  0.00     0.041 A 
ATOM     64  F   UNL A   1      37.634  30.565  36.734  1.00  0.00    -0.206 F 
ATOM     65  C   UNL A   1      38.478  33.909  37.834  1.00  0.00     0.022 A 
BRANCH  62  66
ATOM     66  S   UNL A   1      39.993  35.991  36.837  1.00  0.00     0.124 S 
ATOM     67  O   UNL A   1      41.380  35.600  37.082  1.00  0.00    -0.237 OA
ATOM     68  O   UNL A   1      39.732  36.575  35.525  1.00  0.00    -0.237 OA
ATOM     69  O   UNL A   1      39.325  36.646  37.958  1.00  0.00    -0.744 OA
ENDBRANCH  62  66
ENDBRANCH  36  59
ENDBRANCH  10  11
ENDBRANCH   3   5
ENDBRANCH   2   3
ENDBRANCH   1   2
BRANCH   1  70
ATOM     70  C   UNL A   1      42.539  20.874  25.783  1.00  0.00     0.275 C 
BRANCH  70  71
ATOM     71  O   UNL A   1      41.211  21.377  25.553  1.00  0.00    -0.458 OA
BRANCH  71  72
ATOM     72  C   UNL A   1      40.407  21.468  26.651  1.00  0.00     0.342 C 
ATOM     73  O   UNL A   1      40.727  21.219  27.802  1.00  0.00    -0.246 OA
BRANCH  72  74
ATOM     74  C   UNL A   1      39.086  22.007  26.253  1.00  0.00     0.101 A 
ATOM     75  C   UNL A   1      38.758  23.319  26.624  1.00  0.00     0.020 A 
ATOM     76  C   UNL A   1      38.178  21.277  25.486  1.00  0.00     0.130 A 
ATOM     77  C   UNL A   1      37.594  23.931  26.124  1.00  0.00     0.010 A 
ATOM     78  C   UNL A   1      36.991  21.868  25.047  1.00  0.00     0.055 A 
ATOM     79  C   UNL A   1      36.715  23.222  25.293  1.00  0.00    -0.014 A 
BRANCH  76  80
ATOM     80  O   UNL A   1      38.396  19.985  25.093  1.00  0.00    -0.507 OA
ATOM     81  H   UNL A   1      37.874  19.292  25.449  1.00  0.00     0.293 HD
ENDBRANCH  76  80
BRANCH  79  82
ATOM     82  C   UNL A   1      35.568  23.855  24.587  1.00  0.00    -0.011 A 
ATOM     83  C   UNL A   1      34.784  24.929  25.172  1.00  0.00     0.027 A 
ATOM     84  C   UNL A   1      35.140  23.334  23.421  1.00  0.00     0.080 A 
ATOM     85  C   UNL A   1      33.627  25.319  24.623  1.00  0.00     0.095 A 
ATOM     86  C   UNL A   1      33.890  23.807  22.755  1.00  0.00     0.255 A 
ATOM     87  N   UNL A   1      33.165  24.755  23.449  1.00  0.00    -0.258 N 
ATOM     88  O   UNL A   1      33.610  23.343  21.654  1.00  0.00    -0.269 OA
BRANCH  87  89
ATOM     89  C   UNL A   1      31.903  25.164  22.885  1.00  0.00     0.451 C 
ATOM     90  F   UNL A   1      32.077  25.600  21.609  1.00  0.00    -0.185 F 
ATOM     91  F   UNL A   1      31.014  24.145  22.855  1.00  0.00    -0.185 F 
ENDBRANCH  87  89
ENDBRANCH  79  82
ENDBRANCH  72  74
ENDBRANCH  71  72
ENDBRANCH  70  71
ENDBRANCH   1  70
TORSDOF 17
ENDMDL
MODEL 2
REMARK VINA RESULT:     -12.6      4.692      6.663
REMARK SMILES O=C(OCCOC(=O)c1ccc(-c2ccn(C(F)F)c(=O)c2)cc1O)c1ccc(-c2c3nc(c(-c4cc(S(=O)(=O)[O-])ccc4F)c4ccc([nH]4)c(-c4cc(S(=O)(=O)[O-])ccc4F)c4nc(c(-c5cc(S(=O)(=O)[O-])ccc5F)c5ccc2[nH]5)C=C4)C=C3)cc1
REMARK SMILES IDX 4 1 3 2 2 3 1 4 26 5 27 6 88 7 28 8 87 9 29 10 30 11 31 12
REMARK SMILES IDX 81 13 32 14 86 15 80 16 82 17 33 18 85 19 79 20 78 21 34 23
REMARK SMILES IDX 66 24 46 25 65 26 47 27 50 28 64 29 83 30 48 31 49 32 63 34
REMARK SMILES IDX 84 35 51 36 35 37 36 38 44 39 37 40 43 41 45 42 42 43 38 44
REMARK SMILES IDX 39 45 40 46 41 47 67 48 68 49 76 50 69 51 75 52 77 53 74 54
REMARK SMILES IDX 70 55 71 56 72 57 73 58 52 59 53 60 61 61 54 62 60 63 62 64
REMARK SMILES IDX 59 65 55 66 56 67 57 68 58 69 5 70 6 71 7 72 8 73 9 74 10 75
REMARK SMILES IDX 24 76 11 77 23 78 12 79 25 80 13 82 14 83 22 84 15 85 20 86
REMARK SMILES IDX 16 87 21 88 17 89 18 90 19 91
REMARK H PARENT 82 22 50 33 25 81
REMARK Flexibility Score: inf
ROOT
ATOM      1  C   UNL A   1      36.419  22.943  25.665  1.00  0.00     0.275 C 
ENDROOT
BRANCH   1   2
ATOM      2  O   UNL A   1      37.750  22.456  25.435  1.00  0.00    -0.458 OA
BRANCH   2   3
ATOM      3  C   UNL A   1      38.843  22.584  26.225  1.00  0.00     0.338 C 
ATOM      4  O   UNL A   1      39.409  21.569  26.627  1.00  0.00    -0.246 OA
BRANCH   3   5
ATOM      5  C   UNL A   1      39.255  23.900  26.797  1.00  0.00     0.060 A 
ATOM      6  C   UNL A   1      39.908  24.765  25.912  1.00  0.00     0.016 A 
ATOM      7  C   UNL A   1      39.041  24.346  28.105  1.00  0.00     0.016 A 
ATOM      8  C   UNL A   1      40.443  25.973  26.362  1.00  0.00     0.010 A 
ATOM      9  C   UNL A   1      39.587  25.556  28.560  1.00  0.00     0.010 A 
ATOM     10  C   UNL A   1      40.322  26.371  27.700  1.00  0.00    -0.014 A 
BRANCH  10  11
ATOM     11  C   UNL A   1      40.734  27.735  28.111  1.00  0.00     0.031 A 
ATOM     12  C   UNL A   1      39.771  28.813  28.515  1.00  0.00     0.074 A 
ATOM     13  C   UNL A   1      42.049  28.008  28.065  1.00  0.00     0.049 A 
ATOM     14  N   UNL A   1      40.020  29.934  29.140  1.00  0.00    -0.248 NA
ATOM     15  C   UNL A   1      38.350  28.612  28.214  1.00  0.00     0.031 C 
ATOM     16  C   UNL A   1      43.076  27.056  27.641  1.00  0.00     0.029 A 
ATOM     17  N   UNL A   1      42.740  29.157  28.334  1.00  0.00    -0.354 N 
ATOM     18  C   UNL A   1      38.785  30.514  29.403  1.00  0.00     0.074 A 
ATOM     19  C   UNL A   1      37.783  29.649  28.826  1.00  0.00     0.031 C 
ATOM     20  C   UNL A   1      44.265  27.664  27.661  1.00  0.00     0.029 A 
ATOM     21  C   UNL A   1      44.075  29.062  28.030  1.00  0.00     0.049 A 
ATOM     22  H   UNL A   1      42.325  29.967  28.708  1.00  0.00     0.167 HD
ATOM     23  C   UNL A   1      38.524  31.674  30.050  1.00  0.00     0.034 A 
ATOM     24  C   UNL A   1      45.035  30.006  27.993  1.00  0.00     0.034 A 
ATOM     25  C   UNL A   1      39.545  32.639  30.365  1.00  0.00     0.049 A 
ATOM     26  C   UNL A   1      44.693  31.386  28.469  1.00  0.00     0.074 A 
ATOM     27  C   UNL A   1      39.399  33.867  30.985  1.00  0.00     0.029 A 
ATOM     28  N   UNL A   1      40.871  32.547  29.963  1.00  0.00    -0.354 N 
ATOM     29  N   UNL A   1      43.553  31.823  28.952  1.00  0.00    -0.248 NA
ATOM     30  C   UNL A   1      45.750  32.399  28.406  1.00  0.00     0.031 C 
ATOM     31  C   UNL A   1      40.592  34.575  30.810  1.00  0.00     0.029 A 
ATOM     32  C   UNL A   1      41.518  33.748  30.188  1.00  0.00     0.049 A 
ATOM     33  H   UNL A   1      41.288  31.743  29.576  1.00  0.00     0.167 HD
ATOM     34  C   UNL A   1      43.755  33.161  29.264  1.00  0.00     0.074 A 
ATOM     35  C   UNL A   1      45.133  33.457  28.921  1.00  0.00     0.031 C 
ATOM     36  C   UNL A   1      42.879  34.052  29.795  1.00  0.00     0.034 A 
BRANCH  23  37
ATOM     37  C   UNL A   1      37.097  32.013  30.400  1.00  0.00     0.023 A 
ATOM     38  C   UNL A   1      36.282  32.712  29.492  1.00  0.00     0.031 A 
ATOM     39  C   UNL A   1      36.595  31.769  31.693  1.00  0.00     0.131 A 
ATOM     40  C   UNL A   1      35.018  33.166  29.895  1.00  0.00     0.055 A 
ATOM     41  C   UNL A   1      35.328  32.209  32.084  1.00  0.00     0.041 A 
ATOM     42  F   UNL A   1      37.339  31.121  32.604  1.00  0.00    -0.206 F 
ATOM     43  C   UNL A   1      34.537  32.919  31.186  1.00  0.00     0.022 A 
BRANCH  40  44
ATOM     44  S   UNL A   1      33.963  34.129  28.778  1.00  0.00     0.124 S 
ATOM     45  O   UNL A   1      34.883  35.168  28.321  1.00  0.00    -0.237 OA
ATOM     46  O   UNL A   1      33.596  33.134  27.772  1.00  0.00    -0.237 OA
ATOM     47  O   UNL A   1      32.879  34.595  29.635  1.00  0.00    -0.744 OA
ENDBRANCH  40  44
ENDBRANCH  23  37
BRANCH  24  48
ATOM     48  C   UNL A   1      46.372  29.593  27.482  1.00  0.00     0.023 A 
ATOM     49  C   UNL A   1      46.522  29.256  26.119  1.00  0.00     0.031 A 
ATOM     50  C   UNL A   1      47.409  29.270  28.366  1.00  0.00     0.131 A 
ATOM     51  C   UNL A   1      47.618  28.487  25.711  1.00  0.00     0.055 A 
ATOM     52  C   UNL A   1      48.542  28.576  27.936  1.00  0.00     0.041 A 
ATOM     53  F   UNL A   1      47.303  29.565  29.671  1.00  0.00    -0.206 F 
ATOM     54  C   UNL A   1      48.635  28.153  26.611  1.00  0.00     0.022 A 
BRANCH  51  55
ATOM     55  S   UNL A   1      47.643  27.711  24.068  1.00  0.00     0.124 S 
ATOM     56  O   UNL A   1      46.762  28.588  23.303  1.00  0.00    -0.237 OA
ATOM     57  O   UNL A   1      49.060  27.784  23.723  1.00  0.00    -0.237 OA
ATOM     58  O   UNL A   1      47.135  26.364  24.311  1.00  0.00    -0.744 OA
ENDBRANCH  51  55
ENDBRANCH  24  48
BRANCH  36  59
ATOM     59  C   UNL A   1      43.333  35.476  29.989  1.00  0.00     0.023 A 
ATOM     60  C   UNL A   1      43.703  35.924  31.270  1.00  0.00     0.031 A 
ATOM     61  C   UNL A   1      43.214  36.424  28.958  1.00  0.00     0.131 A 
ATOM     62  C   UNL A   1      43.863  37.293  31.508  1.00  0.00     0.055 A 
ATOM     63  C   UNL A   1      43.437  37.782  29.186  1.00  0.00     0.041 A 
ATOM     64  F   UNL A   1      42.856  36.045  27.721  1.00  0.00    -0.206 F 
ATOM     65  C   UNL A   1      43.741  38.224  30.471  1.00  0.00     0.022 A 
BRANCH  62  66
ATOM     66  S   UNL A   1      44.106  37.921  33.192  1.00  0.00     0.124 S 
ATOM     67  O   UNL A   1      45.489  38.390  33.143  1.00  0.00    -0.237 OA
ATOM     68  O   UNL A   1      43.093  38.968  33.279  1.00  0.00    -0.237 OA
ATOM     69  O   UNL A   1      43.875  36.755  34.040  1.00  0.00    -0.744 OA
ENDBRANCH  62  66
ENDBRANCH  36  59
ENDBRANCH  10  11
ENDBRANCH   3   5
ENDBRANCH   2   3
ENDBRANCH   1   2
BRANCH   1  70
ATOM     70  C   UNL A   1      35.297  21.986  25.251  1.00  0.00     0.275 C 
BRANCH  70  71
ATOM     71  O   UNL A   1      33.974  22.552  25.277  1.00  0.00    -0.458 OA
BRANCH  71  72
ATOM     72  C   UNL A   1      33.606  23.159  26.441  1.00  0.00     0.342 C 
ATOM     73  O   UNL A   1      33.762  22.716  27.567  1.00  0.00    -0.246 OA
BRANCH  72  74
ATOM     74  C   UNL A   1      33.055  24.502  26.144  1.00  0.00     0.101 A 
ATOM     75  C   UNL A   1      33.870  25.427  25.475  1.00  0.00     0.020 A 
ATOM     76  C   UNL A   1      31.747  24.864  26.464  1.00  0.00     0.130 A 
ATOM     77  C   UNL A   1      33.337  26.647  25.021  1.00  0.00     0.010 A 
ATOM     78  C   UNL A   1      31.242  26.105  26.069  1.00  0.00     0.055 A 
ATOM     79  C   UNL A   1      32.000  26.983  25.277  1.00  0.00    -0.014 A 
BRANCH  76  80
ATOM     80  O   UNL A   1      30.883  24.042  27.133  1.00  0.00    -0.507 OA
ATOM     81  H   UNL A   1      30.229  23.564  26.661  1.00  0.00     0.293 HD
ENDBRANCH  76  80
BRANCH  79  82
ATOM     82  C   UNL A   1      31.324  28.165  24.678  1.00  0.00    -0.011 A 
ATOM     83  C   UNL A   1      31.460  29.505  25.221  1.00  0.00     0.027 A 
ATOM     84  C   UNL A   1      30.440  27.985  23.678  1.00  0.00     0.080 A 
ATOM     85  C   UNL A   1      30.667  30.503  24.810  1.00  0.00     0.095 A 
ATOM     86  C   UNL A   1      29.598  29.102  23.155  1.00  0.00     0.255 A 
ATOM     87  N   UNL A   1      29.730  30.308  23.814  1.00  0.00    -0.258 N 
ATOM     88  O   UNL A   1      28.876  28.880  22.187  1.00  0.00    -0.269 OA
BRANCH  87  89
ATOM     89  C   UNL A   1      28.862  31.384  23.402  1.00  0.00     0.451 C 
ATOM     90  F   UNL A   1      27.605  31.183  23.880  1.00  0.00    -0.185 F 
ATOM     91  F   UNL A   1      29.292  32.579  23.864  1.00  0.00    -0.185 F 
ENDBRANCH  87  89
ENDBRANCH  79  82
ENDBRANCH  72  74
ENDBRANCH  71  72
ENDBRANCH  70  71
ENDBRANCH   1  70
TORSDOF 17
ENDMDL
MODEL 3
REMARK VINA RESULT:     -12.6      5.072      6.919
REMARK SMILES O=C(OCCOC(=O)c1ccc(-c2ccn(C(F)F)c(=O)c2)cc1O)c1ccc(-c2c3nc(c(-c4cc(S(=O)(=O)[O-])ccc4F)c4ccc([nH]4)c(-c4cc(S(=O)(=O)[O-])ccc4F)c4nc(c(-c5cc(S(=O)(=O)[O-])ccc5F)c5ccc2[nH]5)C=C4)C=C3)cc1
REMARK SMILES IDX 4 1 3 2 2 3 1 4 26 5 27 6 88 7 28 8 87 9 29 10 30 11 31 12
REMARK SMILES IDX 81 13 32 14 86 15 80 16 82 17 33 18 85 19 79 20 78 21 34 23
REMARK SMILES IDX 66 24 46 25 65 26 47 27 50 28 64 29 83 30 48 31 49 32 63 34
REMARK SMILES IDX 84 35 51 36 35 37 36 38 44 39 37 40 43 41 45 42 42 43 38 44
REMARK SMILES IDX 39 45 40 46 41 47 67 48 68 49 76 50 69 51 75 52 77 53 74 54
REMARK SMILES IDX 70 55 71 56 72 57 73 58 52 59 53 60 61 61 54 62 60 63 62 64
REMARK SMILES IDX 59 65 55 66 56 67 57 68 58 69 5 70 6 71 7 72 8 73 9 74 10 75
REMARK SMILES IDX 24 76 11 77 23 78 12 79 25 80 13 82 14 83 22 84 15 85 20 86
REMARK SMILES IDX 16 87 21 88 17 89 18 90 19 91
REMARK H PARENT 82 22 50 33 25 81
REMARK Flexibility Score: inf
ROOT
ATOM      1  C   UNL A   1      36.843  22.736  25.830  1.00  0.00     0.275 C 
ENDROOT
BRANCH   1   2
ATOM      2  O   UNL A   1      38.121  22.085  25.782  1.00  0.00    -0.458 OA
BRANCH   2   3
ATOM      3  C   UNL A   1      39.239  22.368  26.492  1.00  0.00     0.338 C 
ATOM      4  O   UNL A   1      39.837  21.452  27.052  1.00  0.00    -0.246 OA
BRANCH   3   5
ATOM      5  C   UNL A   1      39.649  23.772  26.794  1.00  0.00     0.060 A 
ATOM      6  C   UNL A   1      39.493  24.173  28.126  1.00  0.00     0.016 A 
ATOM      7  C   UNL A   1      40.176  24.700  25.891  1.00  0.00     0.016 A 
ATOM      8  C   UNL A   1      39.732  25.496  28.502  1.00  0.00     0.010 A 
ATOM      9  C   UNL A   1      40.406  26.033  26.267  1.00  0.00     0.010 A 
ATOM     10  C   UNL A   1      40.157  26.454  27.573  1.00  0.00    -0.014 A 
BRANCH  10  11
ATOM     11  C   UNL A   1      40.580  27.800  28.032  1.00  0.00     0.031 A 
ATOM     12  C   UNL A   1      39.625  28.877  28.455  1.00  0.00     0.074 A 
ATOM     13  C   UNL A   1      41.900  28.057  28.013  1.00  0.00     0.049 A 
ATOM     14  N   UNL A   1      39.880  29.975  29.119  1.00  0.00    -0.248 NA
ATOM     15  C   UNL A   1      38.206  28.705  28.129  1.00  0.00     0.031 C 
ATOM     16  C   UNL A   1      42.921  27.104  27.574  1.00  0.00     0.029 A 
ATOM     17  N   UNL A   1      42.601  29.188  28.327  1.00  0.00    -0.354 N 
ATOM     18  C   UNL A   1      38.648  30.562  29.383  1.00  0.00     0.074 A 
ATOM     19  C   UNL A   1      37.644  29.729  28.765  1.00  0.00     0.031 C 
ATOM     20  C   UNL A   1      44.116  27.696  27.629  1.00  0.00     0.029 A 
ATOM     21  C   UNL A   1      43.939  29.085  28.038  1.00  0.00     0.049 A 
ATOM     22  H   UNL A   1      42.191  29.991  28.720  1.00  0.00     0.167 HD
ATOM     23  C   UNL A   1      38.393  31.705  30.062  1.00  0.00     0.034 A 
ATOM     24  C   UNL A   1      44.911  30.016  28.044  1.00  0.00     0.034 A 
ATOM     25  C   UNL A   1      39.422  32.648  30.420  1.00  0.00     0.049 A 
ATOM     26  C   UNL A   1      44.580  31.385  28.558  1.00  0.00     0.074 A 
ATOM     27  C   UNL A   1      39.283  33.857  31.075  1.00  0.00     0.029 A 
ATOM     28  N   UNL A   1      40.752  32.550  30.034  1.00  0.00    -0.354 N 
ATOM     29  N   UNL A   1      43.439  31.823  29.038  1.00  0.00    -0.248 NA
ATOM     30  C   UNL A   1      45.650  32.386  28.540  1.00  0.00     0.031 C 
ATOM     31  C   UNL A   1      40.487  34.554  30.939  1.00  0.00     0.029 A 
ATOM     32  C   UNL A   1      41.412  33.735  30.305  1.00  0.00     0.049 A 
ATOM     33  H   UNL A   1      41.165  31.753  29.628  1.00  0.00     0.167 HD
ATOM     34  C   UNL A   1      43.653  33.147  29.394  1.00  0.00     0.074 A 
ATOM     35  C   UNL A   1      45.040  33.436  29.079  1.00  0.00     0.031 C 
ATOM     36  C   UNL A   1      42.782  34.033  29.940  1.00  0.00     0.034 A 
BRANCH  23  37
ATOM     37  C   UNL A   1      36.966  32.052  30.402  1.00  0.00     0.023 A 
ATOM     38  C   UNL A   1      36.164  32.763  29.492  1.00  0.00     0.031 A 
ATOM     39  C   UNL A   1      36.452  31.804  31.690  1.00  0.00     0.131 A 
ATOM     40  C   UNL A   1      34.899  33.223  29.888  1.00  0.00     0.055 A 
ATOM     41  C   UNL A   1      35.185  32.250  32.073  1.00  0.00     0.041 A 
ATOM     42  F   UNL A   1      37.184  31.145  32.602  1.00  0.00    -0.206 F 
ATOM     43  C   UNL A   1      34.406  32.972  31.173  1.00  0.00     0.022 A 
BRANCH  40  44
ATOM     44  S   UNL A   1      33.860  34.201  28.768  1.00  0.00     0.124 S 
ATOM     45  O   UNL A   1      32.836  34.707  29.679  1.00  0.00    -0.237 OA
ATOM     46  O   UNL A   1      34.803  35.200  28.272  1.00  0.00    -0.237 OA
ATOM     47  O   UNL A   1      33.391  33.229  27.788  1.00  0.00    -0.744 OA
ENDBRANCH  40  44
ENDBRANCH  23  37
BRANCH  24  48
ATOM     48  C   UNL A   1      46.250  29.602  27.539  1.00  0.00     0.023 A 
ATOM     49  C   UNL A   1      46.409  29.280  26.174  1.00  0.00     0.031 A 
ATOM     50  C   UNL A   1      47.278  29.262  28.427  1.00  0.00     0.131 A 
ATOM     51  C   UNL A   1      47.504  28.510  25.765  1.00  0.00     0.055 A 
ATOM     52  C   UNL A   1      48.410  28.567  27.998  1.00  0.00     0.041 A 
ATOM     53  F   UNL A   1      47.163  29.542  29.735  1.00  0.00    -0.206 F 
ATOM     54  C   UNL A   1      48.512  28.159  26.669  1.00  0.00     0.022 A 
BRANCH  51  55
ATOM     55  S   UNL A   1      47.538  27.753  24.113  1.00  0.00     0.124 S 
ATOM     56  O   UNL A   1      46.852  26.486  24.343  1.00  0.00    -0.237 OA
ATOM     57  O   UNL A   1      46.803  28.734  23.318  1.00  0.00    -0.237 OA
ATOM     58  O   UNL A   1      48.962  27.653  23.806  1.00  0.00    -0.744 OA
ENDBRANCH  51  55
ENDBRANCH  24  48
BRANCH  36  59
ATOM     59  C   UNL A   1      43.251  35.444  30.185  1.00  0.00     0.023 A 
ATOM     60  C   UNL A   1      43.202  36.388  29.143  1.00  0.00     0.031 A 
ATOM     61  C   UNL A   1      43.916  35.793  31.372  1.00  0.00     0.131 A 
ATOM     62  C   UNL A   1      43.876  37.607  29.277  1.00  0.00     0.055 A 
ATOM     63  C   UNL A   1      44.533  37.035  31.525  1.00  0.00     0.041 A 
ATOM     64  F   UNL A   1      43.995  34.923  32.392  1.00  0.00    -0.206 F 
ATOM     65  C   UNL A   1      44.534  37.940  30.466  1.00  0.00     0.022 A 
BRANCH  62  66
ATOM     66  S   UNL A   1      44.031  38.741  27.871  1.00  0.00     0.124 S 
ATOM     67  O   UNL A   1      42.751  38.559  27.192  1.00  0.00    -0.237 OA
ATOM     68  O   UNL A   1      44.209  40.030  28.534  1.00  0.00    -0.237 OA
ATOM     69  O   UNL A   1      45.197  38.245  27.144  1.00  0.00    -0.744 OA
ENDBRANCH  62  66
ENDBRANCH  36  59
ENDBRANCH  10  11
ENDBRANCH   3   5
ENDBRANCH   2   3
ENDBRANCH   1   2
BRANCH   1  70
ATOM     70  C   UNL A   1      36.493  23.575  24.597  1.00  0.00     0.275 C 
BRANCH  70  71
ATOM     71  O   UNL A   1      35.115  23.977  24.505  1.00  0.00    -0.458 OA
BRANCH  71  72
ATOM     72  C   UNL A   1      34.546  23.883  23.269  1.00  0.00     0.342 C 
ATOM     73  O   UNL A   1      34.894  23.135  22.370  1.00  0.00    -0.246 OA
BRANCH  72  74
ATOM     74  C   UNL A   1      33.365  24.775  23.199  1.00  0.00     0.101 A 
ATOM     75  C   UNL A   1      32.974  25.459  24.359  1.00  0.00     0.020 A 
ATOM     76  C   UNL A   1      32.658  24.993  22.017  1.00  0.00     0.130 A 
ATOM     77  C   UNL A   1      31.970  26.444  24.300  1.00  0.00     0.010 A 
ATOM     78  C   UNL A   1      31.617  25.924  21.980  1.00  0.00     0.055 A 
ATOM     79  C   UNL A   1      31.307  26.717  23.095  1.00  0.00    -0.014 A 
BRANCH  76  80
ATOM     80  O   UNL A   1      32.948  24.358  20.841  1.00  0.00    -0.507 OA
ATOM     81  H   UNL A   1      33.668  24.650  20.316  1.00  0.00     0.293 HD
ENDBRANCH  76  80
BRANCH  79  82
ATOM     82  C   UNL A   1      30.370  27.859  22.919  1.00  0.00    -0.011 A 
ATOM     83  C   UNL A   1      30.826  29.218  22.682  1.00  0.00     0.027 A 
ATOM     84  C   UNL A   1      29.052  27.670  23.120  1.00  0.00     0.080 A 
ATOM     85  C   UNL A   1      29.982  30.255  22.757  1.00  0.00     0.095 A 
ATOM     86  C   UNL A   1      28.083  28.806  23.135  1.00  0.00     0.255 A 
ATOM     87  N   UNL A   1      28.636  30.065  23.007  1.00  0.00    -0.258 N 
ATOM     88  O   UNL A   1      26.888  28.548  23.241  1.00  0.00    -0.269 OA
BRANCH  87  89
ATOM     89  C   UNL A   1      27.744  31.193  23.115  1.00  0.00     0.451 C 
ATOM     90  F   UNL A   1      27.044  31.129  24.280  1.00  0.00    -0.185 F 
ATOM     91  F   UNL A   1      28.415  32.366  23.101  1.00  0.00    -0.185 F 
ENDBRANCH  87  89
ENDBRANCH  79  82
ENDBRANCH  72  74
ENDBRANCH  71  72
ENDBRANCH  70  71
ENDBRANCH   1  70
TORSDOF 17
ENDMDL
