MODEL 1
REMARK VINA RESULT:      -9.6      0.000      0.000
REMARK SMILES C=Cc1cncc(-c2ccc([C@@H](C)C(=O)OCCOC(=O)c3ccc(-c4c5nc(c(-c6cc(S(=O)(=O)[O-])ccc6F)c6ccc([nH]6)c(-c6cc(S(=O)(=O)[O-])ccc6F)c6nc(c(-c7cc(S(=O)(=O)[O-])ccc7F)c7ccc4[nH]7)C=C6)C=C5)cc3)cc2)c1
REMARK SMILES IDX 17 1 16 2 14 3 15 4 12 5 13 6 11 7 8 8 9 9 86 10 10 11 85 12
REMARK SMILES IDX 7 13 3 14 4 15 87 16 5 17 6 18 2 19 1 20 18 21 19 22 20 23
REMARK SMILES IDX 21 24 22 25 23 26 84 27 24 28 83 29 25 30 26 31 27 32 77 33
REMARK SMILES IDX 28 34 82 35 76 36 78 37 29 38 81 39 75 40 74 41 30 43 62 44
REMARK SMILES IDX 42 45 61 46 43 47 46 48 60 49 79 50 44 51 45 52 59 54 80 55
REMARK SMILES IDX 47 56 31 57 32 58 40 59 33 60 39 61 41 62 38 63 34 64 35 65
REMARK SMILES IDX 36 66 37 67 63 68 64 69 72 70 65 71 71 72 73 73 70 74 66 75
REMARK SMILES IDX 67 76 68 77 69 78 48 79 49 80 57 81 50 82 56 83 58 84 55 85
REMARK SMILES IDX 51 86 52 87 53 88 54 89
REMARK H PARENT 78 42 46 53
REMARK Flexibility Score: inf
ROOT
ATOM      1  C   UNL A   1      33.782  34.726  29.209  1.00  0.00     0.274 C 
ENDROOT
BRANCH   1   2
ATOM      2  O   UNL A   1      33.510  34.229  30.533  1.00  0.00    -0.462 OA
BRANCH   2   3
ATOM      3  C   UNL A   1      34.407  34.552  31.502  1.00  0.00     0.313 C 
ATOM      4  O   UNL A   1      34.425  35.631  32.087  1.00  0.00    -0.252 OA
BRANCH   3   5
ATOM      5  C   UNL A   1      35.452  33.474  31.759  1.00  0.00     0.126 C 
ATOM      6  C   UNL A   1      35.457  33.111  33.244  1.00  0.00     0.025 C 
BRANCH   5   7
ATOM      7  C   UNL A   1      36.851  33.750  31.226  1.00  0.00    -0.034 A 
ATOM      8  C   UNL A   1      39.473  34.174  30.206  1.00  0.00    -0.017 A 
ATOM      9  C   UNL A   1      39.134  34.541  31.517  1.00  0.00     0.009 A 
ATOM     10  C   UNL A   1      38.469  33.614  29.404  1.00  0.00     0.009 A 
ATOM     11  C   UNL A   1      37.845  34.331  32.021  1.00  0.00     0.005 A 
ATOM     12  C   UNL A   1      37.182  33.399  29.908  1.00  0.00     0.005 A 
BRANCH   8  13
ATOM     13  C   UNL A   1      40.846  34.335  29.709  1.00  0.00     0.001 A 
ATOM     14  C   UNL A   1      43.138  33.566  29.427  1.00  0.00    -0.007 A 
ATOM     15  C   UNL A   1      43.394  34.764  28.763  1.00  0.00     0.119 A 
ATOM     16  C   UNL A   1      41.841  33.367  29.913  1.00  0.00     0.020 A 
ATOM     17  N   UNL A   1      42.473  35.727  28.534  1.00  0.00    -0.263 NA
ATOM     18  C   UNL A   1      41.232  35.486  29.018  1.00  0.00     0.119 A 
BRANCH  14  19
ATOM     19  C   UNL A   1      44.226  32.606  29.640  1.00  0.00     0.002 C 
ATOM     20  C   UNL A   1      44.043  31.360  30.097  1.00  0.00     0.009 C 
ENDBRANCH  14  19
ENDBRANCH   8  13
ENDBRANCH   5   7
ENDBRANCH   3   5
ENDBRANCH   2   3
ENDBRANCH   1   2
BRANCH   1  21
ATOM     21  C   UNL A   1      33.885  33.584  28.196  1.00  0.00     0.275 C 
BRANCH  21  22
ATOM     22  O   UNL A   1      34.116  32.326  28.855  1.00  0.00    -0.458 OA
BRANCH  22  23
ATOM     23  C   UNL A   1      34.278  31.269  28.023  1.00  0.00     0.338 C 
ATOM     24  O   UNL A   1      33.568  30.952  27.086  1.00  0.00    -0.246 OA
BRANCH  23  25
ATOM     25  C   UNL A   1      35.538  30.583  28.342  1.00  0.00     0.060 A 
ATOM     26  C   UNL A   1      35.627  29.905  29.558  1.00  0.00     0.016 A 
ATOM     27  C   UNL A   1      36.649  30.687  27.503  1.00  0.00     0.016 A 
ATOM     28  C   UNL A   1      36.836  29.348  29.961  1.00  0.00     0.010 A 
ATOM     29  C   UNL A   1      37.862  30.114  27.903  1.00  0.00     0.010 A 
ATOM     30  C   UNL A   1      37.967  29.459  29.144  1.00  0.00    -0.014 A 
BRANCH  30  31
ATOM     31  C   UNL A   1      39.271  28.946  29.631  1.00  0.00     0.031 A 
ATOM     32  C   UNL A   1      39.943  29.611  30.799  1.00  0.00     0.074 A 
ATOM     33  C   UNL A   1      39.825  27.864  29.053  1.00  0.00     0.049 A 
ATOM     34  N   UNL A   1      41.101  29.351  31.349  1.00  0.00    -0.248 NA
ATOM     35  C   UNL A   1      39.212  30.721  31.428  1.00  0.00     0.031 C 
ATOM     36  C   UNL A   1      39.240  27.110  27.942  1.00  0.00     0.029 A 
ATOM     37  N   UNL A   1      41.000  27.209  29.321  1.00  0.00    -0.354 N 
ATOM     38  C   UNL A   1      41.248  30.272  32.380  1.00  0.00     0.074 A 
ATOM     39  C   UNL A   1      40.069  31.115  32.358  1.00  0.00     0.031 C 
ATOM     40  C   UNL A   1      40.060  26.093  27.627  1.00  0.00     0.029 A 
ATOM     41  C   UNL A   1      41.244  26.150  28.478  1.00  0.00     0.049 A 
ATOM     42  H   UNL A   1      41.611  27.472  30.047  1.00  0.00     0.167 HD
ATOM     43  C   UNL A   1      42.268  30.399  33.264  1.00  0.00     0.034 A 
ATOM     44  C   UNL A   1      42.314  25.335  28.387  1.00  0.00     0.034 A 
ATOM     45  C   UNL A   1      43.437  29.550  33.270  1.00  0.00     0.049 A 
ATOM     46  C   UNL A   1      43.464  25.533  29.342  1.00  0.00     0.074 A 
ATOM     47  C   UNL A   1      44.528  29.588  34.121  1.00  0.00     0.029 A 
ATOM     48  N   UNL A   1      43.669  28.511  32.377  1.00  0.00    -0.354 N 
ATOM     49  N   UNL A   1      43.598  26.420  30.300  1.00  0.00    -0.248 NA
ATOM     50  C   UNL A   1      44.602  24.617  29.203  1.00  0.00     0.031 C 
ATOM     51  C   UNL A   1      45.444  28.612  33.707  1.00  0.00     0.029 A 
ATOM     52  C   UNL A   1      44.895  27.920  32.639  1.00  0.00     0.049 A 
ATOM     53  H   UNL A   1      43.051  28.235  31.662  1.00  0.00     0.167 HD
ATOM     54  C   UNL A   1      44.830  26.156  30.891  1.00  0.00     0.074 A 
ATOM     55  C   UNL A   1      45.388  25.015  30.193  1.00  0.00     0.031 C 
ATOM     56  C   UNL A   1      45.445  26.795  31.919  1.00  0.00     0.034 A 
BRANCH  43  57
ATOM     57  C   UNL A   1      42.185  31.535  34.255  1.00  0.00     0.023 A 
ATOM     58  C   UNL A   1      41.314  31.498  35.357  1.00  0.00     0.031 A 
ATOM     59  C   UNL A   1      42.961  32.693  34.066  1.00  0.00     0.131 A 
ATOM     60  C   UNL A   1      41.188  32.622  36.188  1.00  0.00     0.055 A 
ATOM     61  C   UNL A   1      42.885  33.780  34.939  1.00  0.00     0.041 A 
ATOM     62  F   UNL A   1      43.793  32.795  33.018  1.00  0.00    -0.206 F 
ATOM     63  C   UNL A   1      41.985  33.754  36.000  1.00  0.00     0.022 A 
BRANCH  60  64
ATOM     64  S   UNL A   1      39.870  32.639  37.434  1.00  0.00     0.124 S 
ATOM     65  O   UNL A   1      40.622  32.404  38.664  1.00  0.00    -0.237 OA
ATOM     66  O   UNL A   1      39.304  33.973  37.276  1.00  0.00    -0.237 OA
ATOM     67  O   UNL A   1      38.997  31.539  37.027  1.00  0.00    -0.744 OA
ENDBRANCH  60  64
ENDBRANCH  43  57
BRANCH  44  68
ATOM     68  C   UNL A   1      42.375  24.290  27.326  1.00  0.00     0.023 A 
ATOM     69  C   UNL A   1      41.625  23.108  27.425  1.00  0.00     0.031 A 
ATOM     70  C   UNL A   1      43.222  24.446  26.215  1.00  0.00     0.131 A 
ATOM     71  C   UNL A   1      41.766  22.110  26.447  1.00  0.00     0.055 A 
ATOM     72  C   UNL A   1      43.323  23.472  25.222  1.00  0.00     0.041 A 
ATOM     73  F   UNL A   1      43.961  25.560  26.075  1.00  0.00    -0.206 F 
ATOM     74  C   UNL A   1      42.600  22.290  25.341  1.00  0.00     0.022 A 
BRANCH  71  75
ATOM     75  S   UNL A   1      40.894  20.536  26.680  1.00  0.00     0.124 S 
ATOM     76  O   UNL A   1      41.762  19.607  25.965  1.00  0.00    -0.237 OA
ATOM     77  O   UNL A   1      40.879  20.411  28.134  1.00  0.00    -0.237 OA
ATOM     78  O   UNL A   1      39.591  20.774  26.064  1.00  0.00    -0.744 OA
ENDBRANCH  71  75
ENDBRANCH  44  68
BRANCH  56  79
ATOM     79  C   UNL A   1      46.776  26.241  32.362  1.00  0.00     0.023 A 
ATOM     80  C   UNL A   1      47.970  26.561  31.689  1.00  0.00     0.031 A 
ATOM     81  C   UNL A   1      46.848  25.359  33.454  1.00  0.00     0.131 A 
ATOM     82  C   UNL A   1      49.174  25.959  32.079  1.00  0.00     0.055 A 
ATOM     83  C   UNL A   1      48.058  24.804  33.872  1.00  0.00     0.041 A 
ATOM     84  F   UNL A   1      45.738  25.019  34.131  1.00  0.00    -0.206 F 
ATOM     85  C   UNL A   1      49.228  25.093  33.175  1.00  0.00     0.022 A 
BRANCH  82  86
ATOM     86  S   UNL A   1      50.659  26.249  31.079  1.00  0.00     0.124 S 
ATOM     87  O   UNL A   1      51.720  26.166  32.076  1.00  0.00    -0.237 OA
ATOM     88  O   UNL A   1      50.603  25.155  30.113  1.00  0.00    -0.237 OA
ATOM     89  O   UNL A   1      50.440  27.581  30.517  1.00  0.00    -0.744 OA
ENDBRANCH  82  86
ENDBRANCH  56  79
ENDBRANCH  30  31
ENDBRANCH  23  25
ENDBRANCH  22  23
ENDBRANCH  21  22
ENDBRANCH   1  21
TORSDOF 17
ENDMDL
MODEL 2
REMARK VINA RESULT:      -9.6      4.309     10.382
REMARK SMILES C=Cc1cncc(-c2ccc([C@@H](C)C(=O)OCCOC(=O)c3ccc(-c4c5nc(c(-c6cc(S(=O)(=O)[O-])ccc6F)c6ccc([nH]6)c(-c6cc(S(=O)(=O)[O-])ccc6F)c6nc(c(-c7cc(S(=O)(=O)[O-])ccc7F)c7ccc4[nH]7)C=C6)C=C5)cc3)cc2)c1
REMARK SMILES IDX 17 1 16 2 14 3 15 4 12 5 13 6 11 7 8 8 9 9 86 10 10 11 85 12
REMARK SMILES IDX 7 13 3 14 4 15 87 16 5 17 6 18 2 19 1 20 18 21 19 22 20 23
REMARK SMILES IDX 21 24 22 25 23 26 84 27 24 28 83 29 25 30 26 31 27 32 77 33
REMARK SMILES IDX 28 34 82 35 76 36 78 37 29 38 81 39 75 40 74 41 30 43 62 44
REMARK SMILES IDX 42 45 61 46 43 47 46 48 60 49 79 50 44 51 45 52 59 54 80 55
REMARK SMILES IDX 47 56 31 57 32 58 40 59 33 60 39 61 41 62 38 63 34 64 35 65
REMARK SMILES IDX 36 66 37 67 63 68 64 69 72 70 65 71 71 72 73 73 70 74 66 75
REMARK SMILES IDX 67 76 68 77 69 78 48 79 49 80 57 81 50 82 56 83 58 84 55 85
REMARK SMILES IDX 51 86 52 87 53 88 54 89
REMARK H PARENT 78 42 46 53
REMARK Flexibility Score: inf
ROOT
ATOM      1  C   UNL A   1      31.753  28.741  26.646  1.00  0.00     0.274 C 
ENDROOT
BRANCH   1   2
ATOM      2  O   UNL A   1      31.121  28.070  25.540  1.00  0.00    -0.462 OA
BRANCH   2   3
ATOM      3  C   UNL A   1      31.781  28.097  24.352  1.00  0.00     0.313 C 
ATOM      4  O   UNL A   1      31.243  28.335  23.274  1.00  0.00    -0.252 OA
BRANCH   3   5
ATOM      5  C   UNL A   1      33.256  27.732  24.457  1.00  0.00     0.126 C 
ATOM      6  C   UNL A   1      34.043  28.470  23.374  1.00  0.00     0.025 C 
BRANCH   5   7
ATOM      7  C   UNL A   1      33.582  26.246  24.498  1.00  0.00    -0.034 A 
ATOM      8  C   UNL A   1      34.111  23.451  24.523  1.00  0.00    -0.017 A 
ATOM      9  C   UNL A   1      34.051  24.191  25.714  1.00  0.00     0.009 A 
ATOM     10  C   UNL A   1      33.927  24.138  23.316  1.00  0.00     0.009 A 
ATOM     11  C   UNL A   1      33.789  25.565  25.703  1.00  0.00     0.005 A 
ATOM     12  C   UNL A   1      33.660  25.511  23.304  1.00  0.00     0.005 A 
BRANCH   8  13
ATOM     13  C   UNL A   1      34.318  21.996  24.550  1.00  0.00     0.001 A 
ATOM     14  C   UNL A   1      33.548  19.705  24.259  1.00  0.00    -0.007 A 
ATOM     15  C   UNL A   1      34.812  19.292  24.672  1.00  0.00     0.119 A 
ATOM     16  C   UNL A   1      33.307  21.084  24.212  1.00  0.00     0.020 A 
ATOM     17  N   UNL A   1      35.824  20.127  25.002  1.00  0.00    -0.263 NA
ATOM     18  C   UNL A   1      35.545  21.450  24.936  1.00  0.00     0.119 A 
BRANCH  14  19
ATOM     19  C   UNL A   1      32.520  18.706  23.951  1.00  0.00     0.002 C 
ATOM     20  C   UNL A   1      32.328  18.183  22.733  1.00  0.00     0.009 C 
ENDBRANCH  14  19
ENDBRANCH   8  13
ENDBRANCH   5   7
ENDBRANCH   3   5
ENDBRANCH   2   3
ENDBRANCH   1   2
BRANCH   1  21
ATOM     21  C   UNL A   1      31.669  30.261  26.496  1.00  0.00     0.275 C 
BRANCH  21  22
ATOM     22  O   UNL A   1      32.966  30.830  26.246  1.00  0.00    -0.458 OA
BRANCH  22  23
ATOM     23  C   UNL A   1      33.351  31.782  27.128  1.00  0.00     0.338 C 
ATOM     24  O   UNL A   1      32.724  32.769  27.469  1.00  0.00    -0.246 OA
BRANCH  23  25
ATOM     25  C   UNL A   1      34.634  31.399  27.734  1.00  0.00     0.060 A 
ATOM     26  C   UNL A   1      34.802  30.071  28.129  1.00  0.00     0.016 A 
ATOM     27  C   UNL A   1      35.620  32.350  28.000  1.00  0.00     0.016 A 
ATOM     28  C   UNL A   1      35.947  29.687  28.819  1.00  0.00     0.010 A 
ATOM     29  C   UNL A   1      36.778  31.959  28.682  1.00  0.00     0.010 A 
ATOM     30  C   UNL A   1      36.939  30.629  29.113  1.00  0.00    -0.014 A 
BRANCH  30  31
ATOM     31  C   UNL A   1      38.107  30.227  29.934  1.00  0.00     0.031 A 
ATOM     32  C   UNL A   1      39.120  29.271  29.368  1.00  0.00     0.074 A 
ATOM     33  C   UNL A   1      38.277  30.750  31.162  1.00  0.00     0.049 A 
ATOM     34  N   UNL A   1      40.182  28.757  29.933  1.00  0.00    -0.248 NA
ATOM     35  C   UNL A   1      38.902  28.834  27.982  1.00  0.00     0.031 C 
ATOM     36  C   UNL A   1      37.383  31.721  31.795  1.00  0.00     0.029 A 
ATOM     37  N   UNL A   1      39.261  30.542  32.096  1.00  0.00    -0.354 N 
ATOM     38  C   UNL A   1      40.755  27.924  28.978  1.00  0.00     0.074 A 
ATOM     39  C   UNL A   1      39.902  27.982  27.808  1.00  0.00     0.031 C 
ATOM     40  C   UNL A   1      37.862  32.026  33.013  1.00  0.00     0.029 A 
ATOM     41  C   UNL A   1      39.068  31.241  33.264  1.00  0.00     0.049 A 
ATOM     42  H   UNL A   1      40.031  29.948  31.944  1.00  0.00     0.167 HD
ATOM     43  C   UNL A   1      41.888  27.184  29.070  1.00  0.00     0.034 A 
ATOM     44  C   UNL A   1      39.769  31.230  34.415  1.00  0.00     0.034 A 
ATOM     45  C   UNL A   1      42.725  27.137  30.245  1.00  0.00     0.049 A 
ATOM     46  C   UNL A   1      40.992  30.353  34.513  1.00  0.00     0.074 A 
ATOM     47  C   UNL A   1      43.895  26.424  30.446  1.00  0.00     0.029 A 
ATOM     48  N   UNL A   1      42.478  27.829  31.425  1.00  0.00    -0.354 N 
ATOM     49  N   UNL A   1      41.511  29.556  33.609  1.00  0.00    -0.248 NA
ATOM     50  C   UNL A   1      41.721  30.380  35.787  1.00  0.00     0.031 C 
ATOM     51  C   UNL A   1      44.322  26.640  31.762  1.00  0.00     0.029 A 
ATOM     52  C   UNL A   1      43.456  27.540  32.364  1.00  0.00     0.049 A 
ATOM     53  H   UNL A   1      41.717  28.438  31.572  1.00  0.00     0.167 HD
ATOM     54  C   UNL A   1      42.642  29.000  34.201  1.00  0.00     0.074 A 
ATOM     55  C   UNL A   1      42.736  29.569  35.530  1.00  0.00     0.031 C 
ATOM     56  C   UNL A   1      43.524  28.101  33.693  1.00  0.00     0.034 A 
BRANCH  43  57
ATOM     57  C   UNL A   1      42.246  26.322  27.883  1.00  0.00     0.023 A 
ATOM     58  C   UNL A   1      41.779  25.002  27.756  1.00  0.00     0.031 A 
ATOM     59  C   UNL A   1      43.103  26.817  26.884  1.00  0.00     0.131 A 
ATOM     60  C   UNL A   1      42.227  24.201  26.694  1.00  0.00     0.055 A 
ATOM     61  C   UNL A   1      43.487  26.039  25.790  1.00  0.00     0.041 A 
ATOM     62  F   UNL A   1      43.599  28.063  26.965  1.00  0.00    -0.206 F 
ATOM     63  C   UNL A   1      43.060  24.718  25.698  1.00  0.00     0.022 A 
BRANCH  60  64
ATOM     64  S   UNL A   1      41.820  22.433  26.706  1.00  0.00     0.124 S 
ATOM     65  O   UNL A   1      40.377  22.464  26.931  1.00  0.00    -0.237 OA
ATOM     66  O   UNL A   1      42.251  22.001  25.382  1.00  0.00    -0.237 OA
ATOM     67  O   UNL A   1      42.605  21.907  27.821  1.00  0.00    -0.744 OA
ENDBRANCH  60  64
ENDBRANCH  43  57
BRANCH  44  68
ATOM     68  C   UNL A   1      39.310  32.034  35.582  1.00  0.00     0.023 A 
ATOM     69  C   UNL A   1      38.563  31.452  36.618  1.00  0.00     0.031 A 
ATOM     70  C   UNL A   1      39.579  33.412  35.654  1.00  0.00     0.131 A 
ATOM     71  C   UNL A   1      38.079  32.255  37.664  1.00  0.00     0.055 A 
ATOM     72  C   UNL A   1      39.137  34.195  36.719  1.00  0.00     0.041 A 
ATOM     73  F   UNL A   1      40.291  34.016  34.687  1.00  0.00    -0.206 F 
ATOM     74  C   UNL A   1      38.372  33.619  37.727  1.00  0.00     0.022 A 
BRANCH  71  75
ATOM     75  S   UNL A   1      36.996  31.501  38.910  1.00  0.00     0.124 S 
ATOM     76  O   UNL A   1      36.817  30.157  38.373  1.00  0.00    -0.237 OA
ATOM     77  O   UNL A   1      37.806  31.606  40.119  1.00  0.00    -0.237 OA
ATOM     78  O   UNL A   1      35.807  32.349  38.884  1.00  0.00    -0.744 OA
ENDBRANCH  71  75
ENDBRANCH  44  68
BRANCH  56  79
ATOM     79  C   UNL A   1      44.683  27.715  34.576  1.00  0.00     0.023 A 
ATOM     80  C   UNL A   1      44.599  26.635  35.473  1.00  0.00     0.031 A 
ATOM     81  C   UNL A   1      45.878  28.456  34.541  1.00  0.00     0.131 A 
ATOM     82  C   UNL A   1      45.669  26.361  36.338  1.00  0.00     0.055 A 
ATOM     83  C   UNL A   1      46.959  28.145  35.366  1.00  0.00     0.041 A 
ATOM     84  F   UNL A   1      46.010  29.498  33.704  1.00  0.00    -0.206 F 
ATOM     85  C   UNL A   1      46.853  27.101  36.281  1.00  0.00     0.022 A 
BRANCH  82  86
ATOM     86  S   UNL A   1      45.459  25.081  37.606  1.00  0.00     0.124 S 
ATOM     87  O   UNL A   1      44.023  24.830  37.550  1.00  0.00    -0.237 OA
ATOM     88  O   UNL A   1      46.315  24.007  37.110  1.00  0.00    -0.237 OA
ATOM     89  O   UNL A   1      45.927  25.730  38.830  1.00  0.00    -0.744 OA
ENDBRANCH  82  86
ENDBRANCH  56  79
ENDBRANCH  30  31
ENDBRANCH  23  25
ENDBRANCH  22  23
ENDBRANCH  21  22
ENDBRANCH   1  21
TORSDOF 17
ENDMDL
MODEL 3
REMARK VINA RESULT:      -9.6      5.020     11.159
REMARK SMILES C=Cc1cncc(-c2ccc([C@@H](C)C(=O)OCCOC(=O)c3ccc(-c4c5nc(c(-c6cc(S(=O)(=O)[O-])ccc6F)c6ccc([nH]6)c(-c6cc(S(=O)(=O)[O-])ccc6F)c6nc(c(-c7cc(S(=O)(=O)[O-])ccc7F)c7ccc4[nH]7)C=C6)C=C5)cc3)cc2)c1
REMARK SMILES IDX 17 1 16 2 14 3 15 4 12 5 13 6 11 7 8 8 9 9 86 10 10 11 85 12
REMARK SMILES IDX 7 13 3 14 4 15 87 16 5 17 6 18 2 19 1 20 18 21 19 22 20 23
REMARK SMILES IDX 21 24 22 25 23 26 84 27 24 28 83 29 25 30 26 31 27 32 77 33
REMARK SMILES IDX 28 34 82 35 76 36 78 37 29 38 81 39 75 40 74 41 30 43 62 44
REMARK SMILES IDX 42 45 61 46 43 47 46 48 60 49 79 50 44 51 45 52 59 54 80 55
REMARK SMILES IDX 47 56 31 57 32 58 40 59 33 60 39 61 41 62 38 63 34 64 35 65
REMARK SMILES IDX 36 66 37 67 63 68 64 69 72 70 65 71 71 72 73 73 70 74 66 75
REMARK SMILES IDX 67 76 68 77 69 78 48 79 49 80 57 81 50 82 56 83 58 84 55 85
REMARK SMILES IDX 51 86 52 87 53 88 54 89
REMARK H PARENT 78 42 46 53
REMARK Flexibility Score: inf
ROOT
ATOM      1  C   UNL A   1      36.210  20.212  25.004  1.00  0.00     0.274 C 
ENDROOT
BRANCH   1   2
ATOM      2  O   UNL A   1      35.916  21.615  25.138  1.00  0.00    -0.462 OA
BRANCH   2   3
ATOM      3  C   UNL A   1      34.606  21.953  25.279  1.00  0.00     0.313 C 
ATOM      4  O   UNL A   1      33.718  21.588  24.515  1.00  0.00    -0.252 OA
BRANCH   3   5
ATOM      5  C   UNL A   1      34.336  22.898  26.444  1.00  0.00     0.126 C 
ATOM      6  C   UNL A   1      33.610  22.140  27.557  1.00  0.00     0.025 C 
BRANCH   5   7
ATOM      7  C   UNL A   1      33.653  24.214  26.100  1.00  0.00    -0.034 A 
ATOM      8  C   UNL A   1      32.452  26.722  25.497  1.00  0.00    -0.017 A 
ATOM      9  C   UNL A   1      31.754  25.731  26.205  1.00  0.00     0.009 A 
ATOM     10  C   UNL A   1      33.755  26.426  25.073  1.00  0.00     0.009 A 
ATOM     11  C   UNL A   1      32.344  24.499  26.504  1.00  0.00     0.005 A 
ATOM     12  C   UNL A   1      34.348  25.196  25.375  1.00  0.00     0.005 A 
BRANCH   8  13
ATOM     13  C   UNL A   1      31.848  28.038  25.249  1.00  0.00     0.001 A 
ATOM     14  C   UNL A   1      30.313  29.516  24.073  1.00  0.00    -0.007 A 
ATOM     15  C   UNL A   1      30.817  30.557  24.849  1.00  0.00     0.119 A 
ATOM     16  C   UNL A   1      30.855  28.242  24.279  1.00  0.00     0.020 A 
ATOM     17  N   UNL A   1      31.768  30.416  25.801  1.00  0.00    -0.263 NA
ATOM     18  C   UNL A   1      32.257  29.165  25.967  1.00  0.00     0.119 A 
BRANCH  14  19
ATOM     19  C   UNL A   1      29.300  29.796  23.051  1.00  0.00     0.002 C 
ATOM     20  C   UNL A   1      28.294  28.964  22.749  1.00  0.00     0.009 C 
ENDBRANCH  14  19
ENDBRANCH   8  13
ENDBRANCH   5   7
ENDBRANCH   3   5
ENDBRANCH   2   3
ENDBRANCH   1   2
BRANCH   1  21
ATOM     21  C   UNL A   1      37.718  19.957  25.007  1.00  0.00     0.275 C 
BRANCH  21  22
ATOM     22  O   UNL A   1      38.447  21.157  25.321  1.00  0.00    -0.458 OA
BRANCH  22  23
ATOM     23  C   UNL A   1      39.520  20.978  26.128  1.00  0.00     0.338 C 
ATOM     24  O   UNL A   1      40.124  19.941  26.332  1.00  0.00    -0.246 OA
BRANCH  23  25
ATOM     25  C   UNL A   1      39.949  22.276  26.667  1.00  0.00     0.060 A 
ATOM     26  C   UNL A   1      39.370  23.430  26.138  1.00  0.00     0.016 A 
ATOM     27  C   UNL A   1      40.976  22.364  27.607  1.00  0.00     0.016 A 
ATOM     28  C   UNL A   1      39.832  24.684  26.524  1.00  0.00     0.010 A 
ATOM     29  C   UNL A   1      41.431  23.626  28.006  1.00  0.00     0.010 A 
ATOM     30  C   UNL A   1      40.874  24.793  27.451  1.00  0.00    -0.014 A 
BRANCH  30  31
ATOM     31  C   UNL A   1      41.421  26.133  27.779  1.00  0.00     0.031 A 
ATOM     32  C   UNL A   1      42.817  26.491  27.352  1.00  0.00     0.074 A 
ATOM     33  C   UNL A   1      40.652  27.034  28.417  1.00  0.00     0.049 A 
ATOM     34  N   UNL A   1      43.499  27.585  27.577  1.00  0.00    -0.248 NA
ATOM     35  C   UNL A   1      43.541  25.478  26.571  1.00  0.00     0.031 C 
ATOM     36  C   UNL A   1      39.268  26.812  28.839  1.00  0.00     0.029 A 
ATOM     37  N   UNL A   1      40.924  28.317  28.821  1.00  0.00    -0.354 N 
ATOM     38  C   UNL A   1      44.739  27.389  26.979  1.00  0.00     0.074 A 
ATOM     39  C   UNL A   1      44.721  26.059  26.406  1.00  0.00     0.031 C 
ATOM     40  C   UNL A   1      38.812  27.924  29.439  1.00  0.00     0.029 A 
ATOM     41  C   UNL A   1      39.881  28.917  29.485  1.00  0.00     0.049 A 
ATOM     42  H   UNL A   1      41.785  28.765  28.650  1.00  0.00     0.167 HD
ATOM     43  C   UNL A   1      45.791  28.243  26.911  1.00  0.00     0.034 A 
ATOM     44  C   UNL A   1      39.806  30.122  30.086  1.00  0.00     0.034 A 
ATOM     45  C   UNL A   1      45.791  29.565  27.490  1.00  0.00     0.049 A 
ATOM     46  C   UNL A   1      41.009  31.030  30.050  1.00  0.00     0.074 A 
ATOM     47  C   UNL A   1      46.800  30.514  27.479  1.00  0.00     0.029 A 
ATOM     48  N   UNL A   1      44.730  30.127  28.190  1.00  0.00    -0.354 N 
ATOM     49  N   UNL A   1      42.182  30.825  29.497  1.00  0.00    -0.248 NA
ATOM     50  C   UNL A   1      40.874  32.331  30.716  1.00  0.00     0.031 C 
ATOM     51  C   UNL A   1      46.371  31.622  28.220  1.00  0.00     0.029 A 
ATOM     52  C   UNL A   1      45.069  31.395  28.637  1.00  0.00     0.049 A 
ATOM     53  H   UNL A   1      43.863  29.688  28.345  1.00  0.00     0.167 HD
ATOM     54  C   UNL A   1      42.919  31.982  29.733  1.00  0.00     0.074 A 
ATOM     55  C   UNL A   1      42.050  32.885  30.462  1.00  0.00     0.031 C 
ATOM     56  C   UNL A   1      44.196  32.274  29.380  1.00  0.00     0.034 A 
BRANCH  43  57
ATOM     57  C   UNL A   1      47.045  27.740  26.237  1.00  0.00     0.023 A 
ATOM     58  C   UNL A   1      47.296  27.966  24.872  1.00  0.00     0.031 A 
ATOM     59  C   UNL A   1      47.981  26.984  26.964  1.00  0.00     0.131 A 
ATOM     60  C   UNL A   1      48.419  27.385  24.262  1.00  0.00     0.055 A 
ATOM     61  C   UNL A   1      49.135  26.470  26.367  1.00  0.00     0.041 A 
ATOM     62  F   UNL A   1      47.782  26.715  28.264  1.00  0.00    -0.206 F 
ATOM     63  C   UNL A   1      49.352  26.657  25.006  1.00  0.00     0.022 A 
BRANCH  60  64
ATOM     64  S   UNL A   1      48.571  27.474  22.457  1.00  0.00     0.124 S 
ATOM     65  O   UNL A   1      48.639  26.060  22.095  1.00  0.00    -0.237 OA
ATOM     66  O   UNL A   1      47.351  28.174  22.072  1.00  0.00    -0.237 OA
ATOM     67  O   UNL A   1      49.810  28.222  22.253  1.00  0.00    -0.744 OA
ENDBRANCH  60  64
ENDBRANCH  43  57
BRANCH  44  68
ATOM     68  C   UNL A   1      38.570  30.522  30.815  1.00  0.00     0.023 A 
ATOM     69  C   UNL A   1      37.536  31.216  30.168  1.00  0.00     0.031 A 
ATOM     70  C   UNL A   1      38.427  30.250  32.187  1.00  0.00     0.131 A 
ATOM     71  C   UNL A   1      36.419  31.647  30.903  1.00  0.00     0.055 A 
ATOM     72  C   UNL A   1      37.295  30.639  32.902  1.00  0.00     0.041 A 
ATOM     73  F   UNL A   1      39.389  29.588  32.852  1.00  0.00    -0.206 F 
ATOM     74  C   UNL A   1      36.287  31.353  32.263  1.00  0.00     0.022 A 
BRANCH  71  75
ATOM     75  S   UNL A   1      35.171  32.666  30.070  1.00  0.00     0.124 S 
ATOM     76  O   UNL A   1      34.749  31.791  28.983  1.00  0.00    -0.237 OA
ATOM     77  O   UNL A   1      34.197  32.882  31.136  1.00  0.00    -0.237 OA
ATOM     78  O   UNL A   1      35.917  33.854  29.663  1.00  0.00    -0.744 OA
ENDBRANCH  71  75
ENDBRANCH  44  68
BRANCH  56  79
ATOM     79  C   UNL A   1      44.707  33.644  29.752  1.00  0.00     0.023 A 
ATOM     80  C   UNL A   1      44.463  34.768  28.942  1.00  0.00     0.031 A 
ATOM     81  C   UNL A   1      45.473  33.821  30.918  1.00  0.00     0.131 A 
ATOM     82  C   UNL A   1      45.027  36.007  29.278  1.00  0.00     0.055 A 
ATOM     83  C   UNL A   1      45.986  35.068  31.276  1.00  0.00     0.041 A 
ATOM     84  F   UNL A   1      45.737  32.781  31.726  1.00  0.00    -0.206 F 
ATOM     85  C   UNL A   1      45.776  36.167  30.447  1.00  0.00     0.022 A 
BRANCH  82  86
ATOM     86  S   UNL A   1      44.847  37.390  28.119  1.00  0.00     0.124 S 
ATOM     87  O   UNL A   1      43.785  38.173  28.743  1.00  0.00    -0.237 OA
ATOM     88  O   UNL A   1      46.178  37.989  28.139  1.00  0.00    -0.237 OA
ATOM     89  O   UNL A   1      44.480  36.740  26.862  1.00  0.00    -0.744 OA
ENDBRANCH  82  86
ENDBRANCH  56  79
ENDBRANCH  30  31
ENDBRANCH  23  25
ENDBRANCH  22  23
ENDBRANCH  21  22
ENDBRANCH   1  21
TORSDOF 17
ENDMDL
