MODEL 1
REMARK VINA RESULT:     -11.2      0.000      0.000
REMARK SMILES CCC[C@@H](C(=O)N1CC[C@@](C)(C(=O)OCCOC(=O)c2ccc(-c3c4nc(c(-c5cc(S(=O)(=O)[O-])ccc5F)c5ccc([nH]5)c(-c5cc(S(=O)(=O)[O-])ccc5F)c5nc(c(-c6cc(S(=O)(=O)[O-])ccc6F)c6ccc3[nH]6)C=C5)C=C4)cc2)C1)c1ccccc1
REMARK SMILES IDX 15 1 14 2 12 3 13 4 10 5 7 6 8 7 83 8 9 9 11 10 5 11 6 12
REMARK SMILES IDX 4 13 3 14 2 15 1 16 84 17 85 18 89 19 86 20 88 21 87 22
REMARK SMILES IDX 16 23 17 24 18 25 19 26 20 27 21 28 82 29 22 30 81 31 23 32
REMARK SMILES IDX 24 33 25 34 75 35 26 36 80 37 74 38 76 39 27 40 79 41 73 42
REMARK SMILES IDX 72 43 28 45 60 46 40 47 59 48 41 49 44 50 58 51 77 52 42 53
REMARK SMILES IDX 43 54 57 56 78 57 45 58 29 59 30 60 38 61 31 62 37 63 39 64
REMARK SMILES IDX 36 65 32 66 33 67 34 68 35 69 61 70 62 71 70 72 63 73 69 74
REMARK SMILES IDX 71 75 68 76 64 77 65 78 66 79 67 80 46 81 47 82 55 83 48 84
REMARK SMILES IDX 54 85 56 86 53 87 49 88 50 89 51 90 52 91
REMARK H PARENT 76 44 44 55
REMARK Flexibility Score: inf
ROOT
ATOM      1  C   UNL A   1      36.198  19.879  24.985  1.00  0.00     0.274 C 
ENDROOT
BRANCH   1   2
ATOM      2  O   UNL A   1      35.682  21.147  25.440  1.00  0.00    -0.462 OA
BRANCH   2   3
ATOM      3  C   UNL A   1      34.905  21.841  24.560  1.00  0.00     0.313 C 
ATOM      4  O   UNL A   1      33.894  21.382  24.040  1.00  0.00    -0.252 OA
BRANCH   3   5
ATOM      5  C   UNL A   1      35.569  23.148  24.105  1.00  0.00     0.084 C 
ATOM      6  N   UNL A   1      33.969  24.883  24.516  1.00  0.00    -0.341 N 
ATOM      7  C   UNL A   1      34.793  24.775  25.713  1.00  0.00     0.120 C 
ATOM      8  C   UNL A   1      34.422  23.963  23.493  1.00  0.00     0.138 C 
ATOM      9  C   UNL A   1      36.040  24.041  25.262  1.00  0.00     0.042 C 
ATOM     10  C   UNL A   1      36.728  22.929  23.130  1.00  0.00     0.026 C 
BRANCH   6  11
ATOM     11  C   UNL A   1      32.952  25.805  24.487  1.00  0.00     0.230 C 
ATOM     12  O   UNL A   1      32.756  26.414  23.426  1.00  0.00    -0.274 OA
BRANCH  11  13
ATOM     13  C   UNL A   1      32.168  26.241  25.769  1.00  0.00     0.108 C 
BRANCH  13  14
ATOM     14  C   UNL A   1      30.629  26.139  25.898  1.00  0.00     0.018 C 
BRANCH  14  15
ATOM     15  C   UNL A   1      29.952  24.816  26.319  1.00  0.00    -0.002 C 
ATOM     16  C   UNL A   1      30.806  23.558  26.343  1.00  0.00     0.004 C 
ENDBRANCH  14  15
ENDBRANCH  13  14
BRANCH  13  17
ATOM     17  C   UNL A   1      32.552  27.706  26.078  1.00  0.00    -0.036 A 
ATOM     18  C   UNL A   1      33.785  28.018  26.678  1.00  0.00     0.004 A 
ATOM     19  C   UNL A   1      31.639  28.742  25.830  1.00  0.00     0.004 A 
ATOM     20  C   UNL A   1      34.101  29.337  27.005  1.00  0.00     0.000 A 
ATOM     21  C   UNL A   1      31.957  30.060  26.166  1.00  0.00     0.000 A 
ATOM     22  C   UNL A   1      33.187  30.356  26.750  1.00  0.00     0.000 A 
ENDBRANCH  13  17
ENDBRANCH  11  13
ENDBRANCH   6  11
ENDBRANCH   3   5
ENDBRANCH   2   3
ENDBRANCH   1   2
BRANCH   1  23
ATOM     23  C   UNL A   1      37.728  19.788  24.973  1.00  0.00     0.275 C 
BRANCH  23  24
ATOM     24  O   UNL A   1      38.343  20.983  25.477  1.00  0.00    -0.458 OA
BRANCH  24  25
ATOM     25  C   UNL A   1      39.497  20.773  26.158  1.00  0.00     0.338 C 
ATOM     26  O   UNL A   1      40.135  19.733  26.190  1.00  0.00    -0.246 OA
BRANCH  25  27
ATOM     27  C   UNL A   1      39.997  22.048  26.712  1.00  0.00     0.060 A 
ATOM     28  C   UNL A   1      39.430  23.217  26.199  1.00  0.00     0.016 A 
ATOM     29  C   UNL A   1      40.998  22.119  27.681  1.00  0.00     0.016 A 
ATOM     30  C   UNL A   1      39.848  24.464  26.647  1.00  0.00     0.010 A 
ATOM     31  C   UNL A   1      41.440  23.374  28.117  1.00  0.00     0.010 A 
ATOM     32  C   UNL A   1      40.875  24.553  27.591  1.00  0.00    -0.014 A 
BRANCH  32  33
ATOM     33  C   UNL A   1      41.441  25.886  27.910  1.00  0.00     0.031 A 
ATOM     34  C   UNL A   1      42.812  26.229  27.400  1.00  0.00     0.074 A 
ATOM     35  C   UNL A   1      40.713  26.798  28.578  1.00  0.00     0.049 A 
ATOM     36  N   UNL A   1      43.519  27.313  27.582  1.00  0.00    -0.248 NA
ATOM     37  C   UNL A   1      43.472  25.207  26.575  1.00  0.00     0.031 C 
ATOM     38  C   UNL A   1      39.341  26.602  29.047  1.00  0.00     0.029 A 
ATOM     39  N   UNL A   1      41.022  28.076  28.968  1.00  0.00    -0.354 N 
ATOM     40  C   UNL A   1      44.712  27.104  26.898  1.00  0.00     0.074 A 
ATOM     41  C   UNL A   1      44.646  25.772  26.335  1.00  0.00     0.031 C 
ATOM     42  C   UNL A   1      38.927  27.723  29.661  1.00  0.00     0.029 A 
ATOM     43  C   UNL A   1      40.017  28.696  29.673  1.00  0.00     0.049 A 
ATOM     44  H   UNL A   1      41.883  28.508  28.764  1.00  0.00     0.167 HD
ATOM     45  C   UNL A   1      45.760  27.952  26.745  1.00  0.00     0.034 A 
ATOM     46  C   UNL A   1      39.993  29.899  30.281  1.00  0.00     0.034 A 
ATOM     47  C   UNL A   1      45.811  29.272  27.327  1.00  0.00     0.049 A 
ATOM     48  C   UNL A   1      41.219  30.779  30.197  1.00  0.00     0.074 A 
ATOM     49  C   UNL A   1      46.826  30.209  27.255  1.00  0.00     0.029 A 
ATOM     50  N   UNL A   1      44.804  29.841  28.100  1.00  0.00    -0.354 N 
ATOM     51  N   UNL A   1      42.354  30.565  29.571  1.00  0.00    -0.248 NA
ATOM     52  C   UNL A   1      41.155  32.069  30.897  1.00  0.00     0.031 C 
ATOM     53  C   UNL A   1      46.468  31.308  28.043  1.00  0.00     0.029 A 
ATOM     54  C   UNL A   1      45.190  31.100  28.536  1.00  0.00     0.049 A 
ATOM     55  H   UNL A   1      43.943  29.412  28.308  1.00  0.00     0.167 HD
ATOM     56  C   UNL A   1      43.123  31.709  29.772  1.00  0.00     0.074 A 
ATOM     57  C   UNL A   1      42.317  32.613  30.566  1.00  0.00     0.031 C 
ATOM     58  C   UNL A   1      44.378  31.990  29.336  1.00  0.00     0.034 A 
BRANCH  45  59
ATOM     59  C   UNL A   1      46.953  27.440  25.972  1.00  0.00     0.023 A 
ATOM     60  C   UNL A   1      47.215  27.851  24.653  1.00  0.00     0.031 A 
ATOM     61  C   UNL A   1      47.812  26.486  26.546  1.00  0.00     0.131 A 
ATOM     62  C   UNL A   1      48.254  27.250  23.926  1.00  0.00     0.055 A 
ATOM     63  C   UNL A   1      48.899  25.958  25.847  1.00  0.00     0.041 A 
ATOM     64  F   UNL A   1      47.598  26.034  27.791  1.00  0.00    -0.206 F 
ATOM     65  C   UNL A   1      49.114  26.326  24.522  1.00  0.00     0.022 A 
BRANCH  62  66
ATOM     66  S   UNL A   1      48.361  27.570  22.143  1.00  0.00     0.124 S 
ATOM     67  O   UNL A   1      49.493  28.491  22.076  1.00  0.00    -0.237 OA
ATOM     68  O   UNL A   1      48.587  26.238  21.595  1.00  0.00    -0.237 OA
ATOM     69  O   UNL A   1      47.065  28.165  21.823  1.00  0.00    -0.744 OA
ENDBRANCH  62  66
ENDBRANCH  45  59
BRANCH  46  70
ATOM     70  C   UNL A   1      38.797  30.336  31.058  1.00  0.00     0.023 A 
ATOM     71  C   UNL A   1      37.750  31.044  30.448  1.00  0.00     0.031 A 
ATOM     72  C   UNL A   1      38.716  30.107  32.445  1.00  0.00     0.131 A 
ATOM     73  C   UNL A   1      36.694  31.543  31.227  1.00  0.00     0.055 A 
ATOM     74  C   UNL A   1      37.633  30.552  33.205  1.00  0.00     0.041 A 
ATOM     75  F   UNL A   1      39.694  29.444  33.084  1.00  0.00    -0.206 F 
ATOM     76  C   UNL A   1      36.620  31.288  32.599  1.00  0.00     0.022 A 
BRANCH  73  77
ATOM     77  S   UNL A   1      35.469  32.625  30.442  1.00  0.00     0.124 S 
ATOM     78  O   UNL A   1      35.309  31.993  29.137  1.00  0.00    -0.237 OA
ATOM     79  O   UNL A   1      34.334  32.512  31.352  1.00  0.00    -0.237 OA
ATOM     80  O   UNL A   1      36.126  33.930  30.426  1.00  0.00    -0.744 OA
ENDBRANCH  73  77
ENDBRANCH  46  70
BRANCH  58  81
ATOM     81  C   UNL A   1      44.930  33.359  29.662  1.00  0.00     0.023 A 
ATOM     82  C   UNL A   1      44.837  34.435  28.760  1.00  0.00     0.031 A 
ATOM     83  C   UNL A   1      45.576  33.583  30.891  1.00  0.00     0.131 A 
ATOM     84  C   UNL A   1      45.437  35.665  29.075  1.00  0.00     0.055 A 
ATOM     85  C   UNL A   1      46.109  34.829  31.227  1.00  0.00     0.041 A 
ATOM     86  F   UNL A   1      45.698  32.594  31.791  1.00  0.00    -0.206 F 
ATOM     87  C   UNL A   1      46.056  35.873  30.310  1.00  0.00     0.022 A 
BRANCH  84  88
ATOM     88  S   UNL A   1      45.492  36.958  27.805  1.00  0.00     0.124 S 
ATOM     89  O   UNL A   1      45.285  38.168  28.594  1.00  0.00    -0.237 OA
ATOM     90  O   UNL A   1      46.827  36.787  27.241  1.00  0.00    -0.237 OA
ATOM     91  O   UNL A   1      44.392  36.607  26.909  1.00  0.00    -0.744 OA
ENDBRANCH  84  88
ENDBRANCH  58  81
ENDBRANCH  32  33
ENDBRANCH  25  27
ENDBRANCH  24  25
ENDBRANCH  23  24
ENDBRANCH   1  23
TORSDOF 19
ENDMDL
MODEL 2
REMARK VINA RESULT:     -11.1      5.104     10.933
REMARK SMILES CCC[C@@H](C(=O)N1CC[C@@](C)(C(=O)OCCOC(=O)c2ccc(-c3c4nc(c(-c5cc(S(=O)(=O)[O-])ccc5F)c5ccc([nH]5)c(-c5cc(S(=O)(=O)[O-])ccc5F)c5nc(c(-c6cc(S(=O)(=O)[O-])ccc6F)c6ccc3[nH]6)C=C5)C=C4)cc2)C1)c1ccccc1
REMARK SMILES IDX 15 1 14 2 12 3 13 4 10 5 7 6 8 7 83 8 9 9 11 10 5 11 6 12
REMARK SMILES IDX 4 13 3 14 2 15 1 16 84 17 85 18 89 19 86 20 88 21 87 22
REMARK SMILES IDX 16 23 17 24 18 25 19 26 20 27 21 28 82 29 22 30 81 31 23 32
REMARK SMILES IDX 24 33 25 34 75 35 26 36 80 37 74 38 76 39 27 40 79 41 73 42
REMARK SMILES IDX 72 43 28 45 60 46 40 47 59 48 41 49 44 50 58 51 77 52 42 53
REMARK SMILES IDX 43 54 57 56 78 57 45 58 29 59 30 60 38 61 31 62 37 63 39 64
REMARK SMILES IDX 36 65 32 66 33 67 34 68 35 69 61 70 62 71 70 72 63 73 69 74
REMARK SMILES IDX 71 75 68 76 64 77 65 78 66 79 67 80 46 81 47 82 55 83 48 84
REMARK SMILES IDX 54 85 56 86 53 87 49 88 50 89 51 90 52 91
REMARK H PARENT 76 44 44 55
REMARK Flexibility Score: inf
ROOT
ATOM      1  C   UNL A   1      33.985  34.360  28.942  1.00  0.00     0.274 C 
ENDROOT
BRANCH   1   2
ATOM      2  O   UNL A   1      33.215  34.431  30.160  1.00  0.00    -0.462 OA
BRANCH   2   3
ATOM      3  C   UNL A   1      32.907  35.679  30.617  1.00  0.00     0.313 C 
ATOM      4  O   UNL A   1      32.961  36.686  29.921  1.00  0.00    -0.252 OA
BRANCH   3   5
ATOM      5  C   UNL A   1      32.736  35.713  32.141  1.00  0.00     0.084 C 
ATOM      6  N   UNL A   1      34.696  34.678  33.052  1.00  0.00    -0.341 N 
ATOM      7  C   UNL A   1      34.975  36.104  32.961  1.00  0.00     0.120 C 
ATOM      8  C   UNL A   1      33.344  34.387  32.621  1.00  0.00     0.138 C 
ATOM      9  C   UNL A   1      33.614  36.760  32.842  1.00  0.00     0.042 C 
ATOM     10  C   UNL A   1      31.282  35.893  32.583  1.00  0.00     0.026 C 
BRANCH   6  11
ATOM     11  C   UNL A   1      35.668  33.837  33.535  1.00  0.00     0.230 C 
ATOM     12  O   UNL A   1      36.201  34.132  34.614  1.00  0.00    -0.274 OA
BRANCH  11  13
ATOM     13  C   UNL A   1      36.247  32.645  32.703  1.00  0.00     0.108 C 
BRANCH  13  14
ATOM     14  C   UNL A   1      36.969  31.435  33.343  1.00  0.00     0.018 C 
BRANCH  14  15
ATOM     15  C   UNL A   1      36.872  30.027  32.714  1.00  0.00    -0.002 C 
ATOM     16  C   UNL A   1      37.847  28.965  33.197  1.00  0.00     0.004 C 
ENDBRANCH  14  15
ENDBRANCH  13  14
BRANCH  13  17
ATOM     17  C   UNL A   1      37.204  33.235  31.643  1.00  0.00    -0.036 A 
ATOM     18  C   UNL A   1      38.295  34.039  32.020  1.00  0.00     0.004 A 
ATOM     19  C   UNL A   1      36.954  33.036  30.277  1.00  0.00     0.004 A 
ATOM     20  C   UNL A   1      39.121  34.614  31.055  1.00  0.00     0.000 A 
ATOM     21  C   UNL A   1      37.779  33.618  29.313  1.00  0.00     0.000 A 
ATOM     22  C   UNL A   1      38.863  34.404  29.702  1.00  0.00     0.000 A 
ENDBRANCH  13  17
ENDBRANCH  11  13
ENDBRANCH   6  11
ENDBRANCH   3   5
ENDBRANCH   2   3
ENDBRANCH   1   2
BRANCH   1  23
ATOM     23  C   UNL A   1      33.628  33.177  28.037  1.00  0.00     0.275 C 
BRANCH  23  24
ATOM     24  O   UNL A   1      34.787  32.417  27.660  1.00  0.00    -0.458 OA
BRANCH  24  25
ATOM     25  C   UNL A   1      34.644  31.075  27.798  1.00  0.00     0.338 C 
ATOM     26  O   UNL A   1      33.627  30.435  27.592  1.00  0.00    -0.246 OA
BRANCH  25  27
ATOM     27  C   UNL A   1      35.959  30.450  28.049  1.00  0.00     0.060 A 
ATOM     28  C   UNL A   1      36.059  29.642  29.186  1.00  0.00     0.016 A 
ATOM     29  C   UNL A   1      37.070  30.652  27.230  1.00  0.00     0.016 A 
ATOM     30  C   UNL A   1      37.260  29.025  29.513  1.00  0.00     0.010 A 
ATOM     31  C   UNL A   1      38.288  30.052  27.571  1.00  0.00     0.010 A 
ATOM     32  C   UNL A   1      38.392  29.247  28.722  1.00  0.00    -0.014 A 
BRANCH  32  33
ATOM     33  C   UNL A   1      39.704  28.744  29.194  1.00  0.00     0.031 A 
ATOM     34  C   UNL A   1      40.398  29.471  30.311  1.00  0.00     0.074 A 
ATOM     35  C   UNL A   1      40.229  27.615  28.685  1.00  0.00     0.049 A 
ATOM     36  N   UNL A   1      41.560  29.236  30.861  1.00  0.00    -0.248 NA
ATOM     37  C   UNL A   1      39.680  30.620  30.881  1.00  0.00     0.031 C 
ATOM     38  C   UNL A   1      39.603  26.784  27.656  1.00  0.00     0.029 A 
ATOM     39  N   UNL A   1      41.404  26.969  28.970  1.00  0.00    -0.354 N 
ATOM     40  C   UNL A   1      41.717  30.210  31.841  1.00  0.00     0.074 A 
ATOM     41  C   UNL A   1      40.549  31.063  31.777  1.00  0.00     0.031 C 
ATOM     42  C   UNL A   1      40.402  25.734  27.399  1.00  0.00     0.029 A 
ATOM     43  C   UNL A   1      41.616  25.845  28.206  1.00  0.00     0.049 A 
ATOM     44  H   UNL A   1      42.037  27.280  29.658  1.00  0.00     0.167 HD
ATOM     45  C   UNL A   1      42.739  30.370  32.718  1.00  0.00     0.034 A 
ATOM     46  C   UNL A   1      42.680  25.019  28.146  1.00  0.00     0.034 A 
ATOM     47  C   UNL A   1      43.902  29.516  32.755  1.00  0.00     0.049 A 
ATOM     48  C   UNL A   1      43.859  25.287  29.053  1.00  0.00     0.074 A 
ATOM     49  C   UNL A   1      45.005  29.594  33.587  1.00  0.00     0.029 A 
ATOM     50  N   UNL A   1      44.119  28.430  31.914  1.00  0.00    -0.354 N 
ATOM     51  N   UNL A   1      44.013  26.227  29.958  1.00  0.00    -0.248 NA
ATOM     52  C   UNL A   1      45.006  24.377  28.932  1.00  0.00     0.031 C 
ATOM     53  C   UNL A   1      45.919  28.608  33.200  1.00  0.00     0.029 A 
ATOM     54  C   UNL A   1      45.351  27.853  32.187  1.00  0.00     0.049 A 
ATOM     55  H   UNL A   1      43.490  28.116  31.225  1.00  0.00     0.167 HD
ATOM     56  C   UNL A   1      45.258  25.996  30.540  1.00  0.00     0.074 A 
ATOM     57  C   UNL A   1      45.804  24.822  29.891  1.00  0.00     0.031 C 
ATOM     58  C   UNL A   1      45.889  26.686  31.525  1.00  0.00     0.034 A 
BRANCH  45  59
ATOM     59  C   UNL A   1      42.661  31.551  33.658  1.00  0.00     0.023 A 
ATOM     60  C   UNL A   1      42.044  31.458  34.918  1.00  0.00     0.031 A 
ATOM     61  C   UNL A   1      43.166  32.804  33.265  1.00  0.00     0.131 A 
ATOM     62  C   UNL A   1      41.874  32.610  35.701  1.00  0.00     0.055 A 
ATOM     63  C   UNL A   1      43.073  33.927  34.088  1.00  0.00     0.041 A 
ATOM     64  F   UNL A   1      43.742  32.962  32.063  1.00  0.00    -0.206 F 
ATOM     65  C   UNL A   1      42.408  33.838  35.307  1.00  0.00     0.022 A 
BRANCH  62  66
ATOM     66  S   UNL A   1      40.802  32.514  37.162  1.00  0.00     0.124 S 
ATOM     67  O   UNL A   1      41.726  32.009  38.174  1.00  0.00    -0.237 OA
ATOM     68  O   UNL A   1      40.366  33.896  37.326  1.00  0.00    -0.237 OA
ATOM     69  O   UNL A   1      39.757  31.574  36.759  1.00  0.00    -0.744 OA
ENDBRANCH  62  66
ENDBRANCH  45  59
BRANCH  46  70
ATOM     70  C   UNL A   1      42.712  23.888  27.173  1.00  0.00     0.023 A 
ATOM     71  C   UNL A   1      42.095  22.661  27.462  1.00  0.00     0.031 A 
ATOM     72  C   UNL A   1      43.423  23.999  25.963  1.00  0.00     0.131 A 
ATOM     73  C   UNL A   1      42.241  21.579  26.579  1.00  0.00     0.055 A 
ATOM     74  C   UNL A   1      43.513  22.939  25.060  1.00  0.00     0.041 A 
ATOM     75  F   UNL A   1      44.042  25.146  25.639  1.00  0.00    -0.206 F 
ATOM     76  C   UNL A   1      42.932  21.714  25.373  1.00  0.00     0.022 A 
BRANCH  73  77
ATOM     77  S   UNL A   1      41.606  19.956  27.081  1.00  0.00     0.124 S 
ATOM     78  O   UNL A   1      41.242  19.370  25.796  1.00  0.00    -0.237 OA
ATOM     79  O   UNL A   1      42.763  19.369  27.749  1.00  0.00    -0.237 OA
ATOM     80  O   UNL A   1      40.483  20.284  27.956  1.00  0.00    -0.744 OA
ENDBRANCH  73  77
ENDBRANCH  46  70
BRANCH  58  81
ATOM     81  C   UNL A   1      47.220  26.147  31.998  1.00  0.00     0.023 A 
ATOM     82  C   UNL A   1      48.427  26.465  31.350  1.00  0.00     0.031 A 
ATOM     83  C   UNL A   1      47.275  25.283  33.108  1.00  0.00     0.131 A 
ATOM     84  C   UNL A   1      49.627  25.874  31.778  1.00  0.00     0.055 A 
ATOM     85  C   UNL A   1      48.481  24.754  33.571  1.00  0.00     0.041 A 
ATOM     86  F   UNL A   1      46.155  24.940  33.765  1.00  0.00    -0.206 F 
ATOM     87  C   UNL A   1      49.664  25.036  32.895  1.00  0.00     0.022 A 
BRANCH  84  88
ATOM     88  S   UNL A   1      51.125  26.131  30.789  1.00  0.00     0.124 S 
ATOM     89  O   UNL A   1      52.079  25.244  31.445  1.00  0.00    -0.237 OA
ATOM     90  O   UNL A   1      50.693  25.726  29.455  1.00  0.00    -0.237 OA
ATOM     91  O   UNL A   1      51.399  27.558  30.943  1.00  0.00    -0.744 OA
ENDBRANCH  84  88
ENDBRANCH  58  81
ENDBRANCH  32  33
ENDBRANCH  25  27
ENDBRANCH  24  25
ENDBRANCH  23  24
ENDBRANCH   1  23
TORSDOF 19
ENDMDL
MODEL 3
REMARK VINA RESULT:     -11.1      4.554      7.429
REMARK SMILES CCC[C@@H](C(=O)N1CC[C@@](C)(C(=O)OCCOC(=O)c2ccc(-c3c4nc(c(-c5cc(S(=O)(=O)[O-])ccc5F)c5ccc([nH]5)c(-c5cc(S(=O)(=O)[O-])ccc5F)c5nc(c(-c6cc(S(=O)(=O)[O-])ccc6F)c6ccc3[nH]6)C=C5)C=C4)cc2)C1)c1ccccc1
REMARK SMILES IDX 15 1 14 2 12 3 13 4 10 5 7 6 8 7 83 8 9 9 11 10 5 11 6 12
REMARK SMILES IDX 4 13 3 14 2 15 1 16 84 17 85 18 89 19 86 20 88 21 87 22
REMARK SMILES IDX 16 23 17 24 18 25 19 26 20 27 21 28 82 29 22 30 81 31 23 32
REMARK SMILES IDX 24 33 25 34 75 35 26 36 80 37 74 38 76 39 27 40 79 41 73 42
REMARK SMILES IDX 72 43 28 45 60 46 40 47 59 48 41 49 44 50 58 51 77 52 42 53
REMARK SMILES IDX 43 54 57 56 78 57 45 58 29 59 30 60 38 61 31 62 37 63 39 64
REMARK SMILES IDX 36 65 32 66 33 67 34 68 35 69 61 70 62 71 70 72 63 73 69 74
REMARK SMILES IDX 71 75 68 76 64 77 65 78 66 79 67 80 46 81 47 82 55 83 48 84
REMARK SMILES IDX 54 85 56 86 53 87 49 88 50 89 51 90 52 91
REMARK H PARENT 76 44 44 55
REMARK Flexibility Score: inf
ROOT
ATOM      1  C   UNL A   1      31.876  29.813  25.051  1.00  0.00     0.274 C 
ENDROOT
BRANCH   1   2
ATOM      2  O   UNL A   1      30.626  29.144  24.787  1.00  0.00    -0.462 OA
BRANCH   2   3
ATOM      3  C   UNL A   1      30.523  28.490  23.594  1.00  0.00     0.313 C 
ATOM      4  O   UNL A   1      30.493  29.060  22.510  1.00  0.00    -0.252 OA
BRANCH   3   5
ATOM      5  C   UNL A   1      30.195  27.001  23.775  1.00  0.00     0.084 C 
ATOM      6  N   UNL A   1      32.193  25.809  23.205  1.00  0.00    -0.341 N 
ATOM      7  C   UNL A   1      32.247  26.063  24.638  1.00  0.00     0.120 C 
ATOM      8  C   UNL A   1      30.956  26.305  22.638  1.00  0.00     0.138 C 
ATOM      9  C   UNL A   1      30.817  26.377  25.032  1.00  0.00     0.042 C 
ATOM     10  C   UNL A   1      28.694  26.706  23.753  1.00  0.00     0.026 C 
BRANCH   6  11
ATOM     11  C   UNL A   1      33.234  25.142  22.606  1.00  0.00     0.230 C 
ATOM     12  O   UNL A   1      33.912  25.762  21.775  1.00  0.00    -0.274 OA
BRANCH  11  13
ATOM     13  C   UNL A   1      33.475  23.607  22.790  1.00  0.00     0.108 C 
BRANCH  13  14
ATOM     14  C   UNL A   1      32.382  22.630  23.287  1.00  0.00     0.018 C 
BRANCH  14  15
ATOM     15  C   UNL A   1      32.700  21.139  23.531  1.00  0.00    -0.002 C 
ATOM     16  C   UNL A   1      32.692  20.636  24.966  1.00  0.00     0.004 C 
ENDBRANCH  14  15
ENDBRANCH  13  14
BRANCH  13  17
ATOM     17  C   UNL A   1      34.696  23.433  23.722  1.00  0.00    -0.036 A 
ATOM     18  C   UNL A   1      34.653  23.867  25.058  1.00  0.00     0.004 A 
ATOM     19  C   UNL A   1      35.895  22.903  23.222  1.00  0.00     0.004 A 
ATOM     20  C   UNL A   1      35.777  23.758  25.877  1.00  0.00     0.000 A 
ATOM     21  C   UNL A   1      37.020  22.801  24.042  1.00  0.00     0.000 A 
ATOM     22  C   UNL A   1      36.960  23.225  25.368  1.00  0.00     0.000 A 
ENDBRANCH  13  17
ENDBRANCH  11  13
ENDBRANCH   6  11
ENDBRANCH   3   5
ENDBRANCH   2   3
ENDBRANCH   1   2
BRANCH   1  23
ATOM     23  C   UNL A   1      31.816  30.840  26.186  1.00  0.00     0.275 C 
BRANCH  23  24
ATOM     24  O   UNL A   1      32.848  30.626  27.161  1.00  0.00    -0.458 OA
BRANCH  24  25
ATOM     25  C   UNL A   1      33.548  31.742  27.486  1.00  0.00     0.338 C 
ATOM     26  O   UNL A   1      33.117  32.883  27.503  1.00  0.00    -0.246 OA
BRANCH  25  27
ATOM     27  C   UNL A   1      34.876  31.370  28.016  1.00  0.00     0.060 A 
ATOM     28  C   UNL A   1      35.015  30.064  28.494  1.00  0.00     0.016 A 
ATOM     29  C   UNL A   1      35.952  32.257  28.072  1.00  0.00     0.016 A 
ATOM     30  C   UNL A   1      36.222  29.628  29.025  1.00  0.00     0.010 A 
ATOM     31  C   UNL A   1      37.162  31.828  28.630  1.00  0.00     0.010 A 
ATOM     32  C   UNL A   1      37.298  30.515  29.122  1.00  0.00    -0.014 A 
BRANCH  32  33
ATOM     33  C   UNL A   1      38.508  30.094  29.868  1.00  0.00     0.031 A 
ATOM     34  C   UNL A   1      39.445  29.110  29.229  1.00  0.00     0.074 A 
ATOM     35  C   UNL A   1      38.801  30.638  31.063  1.00  0.00     0.049 A 
ATOM     36  N   UNL A   1      40.539  28.574  29.702  1.00  0.00    -0.248 NA
ATOM     37  C   UNL A   1      39.096  28.671  27.870  1.00  0.00     0.031 C 
ATOM     38  C   UNL A   1      38.006  31.663  31.740  1.00  0.00     0.029 A 
ATOM     39  N   UNL A   1      39.852  30.412  31.914  1.00  0.00    -0.354 N 
ATOM     40  C   UNL A   1      41.009  27.730  28.702  1.00  0.00     0.074 A 
ATOM     41  C   UNL A   1      40.056  27.795  27.615  1.00  0.00     0.031 C 
ATOM     42  C   UNL A   1      38.602  31.978  32.903  1.00  0.00     0.029 A 
ATOM     43  C   UNL A   1      39.790  31.144  33.076  1.00  0.00     0.049 A 
ATOM     44  H   UNL A   1      40.583  29.783  31.711  1.00  0.00     0.167 HD
ATOM     45  C   UNL A   1      42.139  26.980  28.691  1.00  0.00     0.034 A 
ATOM     46  C   UNL A   1      40.585  31.122  34.164  1.00  0.00     0.034 A 
ATOM     47  C   UNL A   1      43.069  26.918  29.792  1.00  0.00     0.049 A 
ATOM     48  C   UNL A   1      41.774  30.189  34.176  1.00  0.00     0.074 A 
ATOM     49  C   UNL A   1      44.235  26.180  29.899  1.00  0.00     0.029 A 
ATOM     50  N   UNL A   1      42.935  27.617  30.987  1.00  0.00    -0.354 N 
ATOM     51  N   UNL A   1      42.198  29.373  33.237  1.00  0.00    -0.248 NA
ATOM     52  C   UNL A   1      42.595  30.180  35.394  1.00  0.00     0.031 C 
ATOM     53  C   UNL A   1      44.762  26.372  31.180  1.00  0.00     0.029 A 
ATOM     54  C   UNL A   1      43.978  27.301  31.845  1.00  0.00     0.049 A 
ATOM     55  H   UNL A   1      42.206  28.246  31.193  1.00  0.00     0.167 HD
ATOM     56  C   UNL A   1      43.356  28.783  33.739  1.00  0.00     0.074 A 
ATOM     57  C   UNL A   1      43.569  29.347  35.056  1.00  0.00     0.031 C 
ATOM     58  C   UNL A   1      44.174  27.865  33.162  1.00  0.00     0.034 A 
BRANCH  45  59
ATOM     59  C   UNL A   1      42.383  26.121  27.471  1.00  0.00     0.023 A 
ATOM     60  C   UNL A   1      41.898  24.804  27.381  1.00  0.00     0.031 A 
ATOM     61  C   UNL A   1      43.157  26.611  26.403  1.00  0.00     0.131 A 
ATOM     62  C   UNL A   1      42.261  23.998  26.291  1.00  0.00     0.055 A 
ATOM     63  C   UNL A   1      43.439  25.832  25.279  1.00  0.00     0.041 A 
ATOM     64  F   UNL A   1      43.669  27.850  26.442  1.00  0.00    -0.206 F 
ATOM     65  C   UNL A   1      43.005  24.511  25.227  1.00  0.00     0.022 A 
BRANCH  62  66
ATOM     66  S   UNL A   1      41.887  22.224  26.363  1.00  0.00     0.124 S 
ATOM     67  O   UNL A   1      42.687  21.708  25.255  1.00  0.00    -0.237 OA
ATOM     68  O   UNL A   1      42.336  21.860  27.701  1.00  0.00    -0.237 OA
ATOM     69  O   UNL A   1      40.441  22.170  26.154  1.00  0.00    -0.744 OA
ENDBRANCH  62  66
ENDBRANCH  45  59
BRANCH  46  70
ATOM     70  C   UNL A   1      40.274  31.969  35.352  1.00  0.00     0.023 A 
ATOM     71  C   UNL A   1      39.313  31.575  36.297  1.00  0.00     0.031 A 
ATOM     72  C   UNL A   1      40.888  33.224  35.523  1.00  0.00     0.131 A 
ATOM     73  C   UNL A   1      38.957  32.445  37.339  1.00  0.00     0.055 A 
ATOM     74  C   UNL A   1      40.575  34.060  36.597  1.00  0.00     0.041 A 
ATOM     75  F   UNL A   1      41.806  33.659  34.645  1.00  0.00    -0.206 F 
ATOM     76  C   UNL A   1      39.593  33.678  37.505  1.00  0.00     0.022 A 
BRANCH  73  77
ATOM     77  S   UNL A   1      37.571  31.990  38.418  1.00  0.00     0.124 S 
ATOM     78  O   UNL A   1      38.167  32.132  39.741  1.00  0.00    -0.237 OA
ATOM     79  O   UNL A   1      36.565  32.983  38.056  1.00  0.00    -0.237 OA
ATOM     80  O   UNL A   1      37.263  30.619  38.016  1.00  0.00    -0.744 OA
ENDBRANCH  73  77
ENDBRANCH  46  70
BRANCH  58  81
ATOM     81  C   UNL A   1      45.408  27.460  33.936  1.00  0.00     0.023 A 
ATOM     82  C   UNL A   1      46.632  28.137  33.796  1.00  0.00     0.031 A 
ATOM     83  C   UNL A   1      45.358  26.362  34.815  1.00  0.00     0.131 A 
ATOM     84  C   UNL A   1      47.770  27.672  34.474  1.00  0.00     0.055 A 
ATOM     85  C   UNL A   1      46.477  25.948  35.540  1.00  0.00     0.041 A 
ATOM     86  F   UNL A   1      44.218  25.675  34.988  1.00  0.00    -0.206 F 
ATOM     87  C   UNL A   1      47.696  26.594  35.359  1.00  0.00     0.022 A 
BRANCH  84  88
ATOM     88  S   UNL A   1      49.376  28.429  34.102  1.00  0.00     0.124 S 
ATOM     89  O   UNL A   1      48.988  29.591  33.310  1.00  0.00    -0.237 OA
ATOM     90  O   UNL A   1      49.904  28.713  35.433  1.00  0.00    -0.237 OA
ATOM     91  O   UNL A   1      50.086  27.385  33.365  1.00  0.00    -0.744 OA
ENDBRANCH  84  88
ENDBRANCH  58  81
ENDBRANCH  32  33
ENDBRANCH  25  27
ENDBRANCH  24  25
ENDBRANCH  23  24
ENDBRANCH   1  23
TORSDOF 19
ENDMDL
