MODEL 1
REMARK VINA RESULT:     -12.7      0.000      0.000
REMARK SMILES O=C(OCCOC(=O)[C@H](c1c[nH]c2ccc(Br)cc12)[N@H+]1CCC[C@H](c2nc3ccccc3s2)C1)c1ccc(-c2c3nc(c(-c4cc(S(=O)(=O)[O-])ccc4F)c4ccc([nH]4)c(-c4cc(S(=O)(=O)[O-])ccc4F)c4nc(c(-c5cc(S(=O)(=O)[O-])ccc5F)c5ccc2[nH]5)C=C4)C=C3)cc1
REMARK SMILES IDX 4 1 3 2 2 3 1 4 35 5 36 6 97 7 37 8 96 9 38 10 39 11 40 12
REMARK SMILES IDX 90 13 41 14 95 15 89 16 91 17 42 18 94 19 88 20 87 21 43 23
REMARK SMILES IDX 75 24 55 25 74 26 56 27 59 28 73 29 92 30 57 31 58 32 72 34
REMARK SMILES IDX 93 35 60 36 44 37 45 38 53 39 46 40 52 41 54 42 51 43 47 44
REMARK SMILES IDX 48 45 49 46 50 47 76 48 77 49 85 50 78 51 84 52 86 53 83 54
REMARK SMILES IDX 79 55 80 56 81 57 82 58 61 59 62 60 70 61 63 62 69 63 71 64
REMARK SMILES IDX 68 65 64 66 65 67 66 68 67 69 5 70 6 71 7 72 8 73 9 74 20 75
REMARK SMILES IDX 21 76 34 77 22 79 24 80 23 81 25 82 26 83 33 84 27 85 32 86
REMARK SMILES IDX 28 87 31 88 29 89 30 90 10 91 11 92 19 93 12 94 13 95 18 96
REMARK SMILES IDX 14 98 16 99 15 100 17 101
REMARK H PARENT 91 22 59 33 20 78 12 97
REMARK Flexibility Score: inf
ROOT
ATOM      1  C   UNL A   1      32.066  29.589  27.219  1.00  0.00     0.275 C 
ENDROOT
BRANCH   1   2
ATOM      2  O   UNL A   1      33.251  30.286  26.814  1.00  0.00    -0.458 OA
BRANCH   2   3
ATOM      3  C   UNL A   1      34.144  30.965  27.570  1.00  0.00     0.338 C 
ATOM      4  O   UNL A   1      33.911  32.143  27.843  1.00  0.00    -0.246 OA
BRANCH   3   5
ATOM      5  C   UNL A   1      35.469  30.395  27.969  1.00  0.00     0.060 A 
ATOM      6  C   UNL A   1      36.669  30.461  27.251  1.00  0.00     0.016 A 
ATOM      7  C   UNL A   1      35.487  29.721  29.191  1.00  0.00     0.016 A 
ATOM      8  C   UNL A   1      37.873  29.970  27.785  1.00  0.00     0.010 A 
ATOM      9  C   UNL A   1      36.683  29.234  29.721  1.00  0.00     0.010 A 
ATOM     10  C   UNL A   1      37.898  29.367  29.040  1.00  0.00    -0.014 A 
BRANCH  10  11
ATOM     11  C   UNL A   1      39.136  28.743  29.587  1.00  0.00     0.031 A 
ATOM     12  C   UNL A   1      39.718  29.316  30.855  1.00  0.00     0.074 A 
ATOM     13  C   UNL A   1      39.773  27.741  28.946  1.00  0.00     0.049 A 
ATOM     14  N   UNL A   1      40.863  29.076  31.437  1.00  0.00    -0.248 NA
ATOM     15  C   UNL A   1      38.921  30.364  31.511  1.00  0.00     0.031 C 
ATOM     16  C   UNL A   1      39.364  27.140  27.675  1.00  0.00     0.029 A 
ATOM     17  N   UNL A   1      40.923  27.062  29.271  1.00  0.00    -0.354 N 
ATOM     18  C   UNL A   1      40.947  29.995  32.478  1.00  0.00     0.074 A 
ATOM     19  C   UNL A   1      39.797  30.862  32.365  1.00  0.00     0.031 C 
ATOM     20  C   UNL A   1      40.241  26.176  27.338  1.00  0.00     0.029 A 
ATOM     21  C   UNL A   1      41.283  26.097  28.357  1.00  0.00     0.049 A 
ATOM     22  H   UNL A   1      41.443  27.250  30.086  1.00  0.00     0.167 HD
ATOM     23  C   UNL A   1      41.858  30.073  33.481  1.00  0.00     0.034 A 
ATOM     24  C   UNL A   1      42.331  25.247  28.357  1.00  0.00     0.034 A 
ATOM     25  C   UNL A   1      42.947  29.143  33.624  1.00  0.00     0.049 A 
ATOM     26  C   UNL A   1      43.301  25.294  29.517  1.00  0.00     0.074 A 
ATOM     27  C   UNL A   1      43.890  29.058  34.630  1.00  0.00     0.029 A 
ATOM     28  N   UNL A   1      43.220  28.116  32.730  1.00  0.00    -0.354 N 
ATOM     29  N   UNL A   1      43.332  26.121  30.537  1.00  0.00    -0.248 NA
ATOM     30  C   UNL A   1      44.361  24.275  29.540  1.00  0.00     0.031 C 
ATOM     31  C   UNL A   1      44.749  27.993  34.333  1.00  0.00     0.029 A 
ATOM     32  C   UNL A   1      44.308  27.383  33.168  1.00  0.00     0.049 A 
ATOM     33  H   UNL A   1      42.713  27.934  31.905  1.00  0.00     0.167 HD
ATOM     34  C   UNL A   1      44.385  25.694  31.343  1.00  0.00     0.074 A 
ATOM     35  C   UNL A   1      44.957  24.533  30.695  1.00  0.00     0.031 C 
ATOM     36  C   UNL A   1      44.838  26.210  32.514  1.00  0.00     0.034 A 
BRANCH  23  37
ATOM     37  C   UNL A   1      41.679  31.194  34.479  1.00  0.00     0.023 A 
ATOM     38  C   UNL A   1      40.589  31.206  35.372  1.00  0.00     0.031 A 
ATOM     39  C   UNL A   1      42.519  32.319  34.460  1.00  0.00     0.131 A 
ATOM     40  C   UNL A   1      40.276  32.375  36.078  1.00  0.00     0.055 A 
ATOM     41  C   UNL A   1      42.270  33.436  35.263  1.00  0.00     0.041 A 
ATOM     42  F   UNL A   1      43.572  32.375  33.629  1.00  0.00    -0.206 F 
ATOM     43  C   UNL A   1      41.123  33.482  36.053  1.00  0.00     0.022 A 
BRANCH  40  44
ATOM     44  S   UNL A   1      38.631  32.497  36.836  1.00  0.00     0.124 S 
ATOM     45  O   UNL A   1      38.885  31.949  38.168  1.00  0.00    -0.237 OA
ATOM     46  O   UNL A   1      38.354  33.922  36.774  1.00  0.00    -0.237 OA
ATOM     47  O   UNL A   1      37.796  31.656  35.975  1.00  0.00    -0.744 OA
ENDBRANCH  40  44
ENDBRANCH  23  37
BRANCH  24  48
ATOM     48  C   UNL A   1      42.517  24.249  27.261  1.00  0.00     0.023 A 
ATOM     49  C   UNL A   1      41.787  23.047  27.252  1.00  0.00     0.031 A 
ATOM     50  C   UNL A   1      43.472  24.442  26.249  1.00  0.00     0.131 A 
ATOM     51  C   UNL A   1      42.066  22.060  26.292  1.00  0.00     0.055 A 
ATOM     52  C   UNL A   1      43.715  23.476  25.268  1.00  0.00     0.041 A 
ATOM     53  F   UNL A   1      44.187  25.577  26.198  1.00  0.00    -0.206 F 
ATOM     54  C   UNL A   1      43.021  22.269  25.296  1.00  0.00     0.022 A 
BRANCH  51  55
ATOM     55  S   UNL A   1      41.219  20.460  26.418  1.00  0.00     0.124 S 
ATOM     56  O   UNL A   1      41.982  19.644  25.480  1.00  0.00    -0.237 OA
ATOM     57  O   UNL A   1      41.387  20.140  27.832  1.00  0.00    -0.237 OA
ATOM     58  O   UNL A   1      39.849  20.767  26.010  1.00  0.00    -0.744 OA
ENDBRANCH  51  55
ENDBRANCH  24  48
BRANCH  36  59
ATOM     59  C   UNL A   1      45.952  25.471  33.207  1.00  0.00     0.023 A 
ATOM     60  C   UNL A   1      45.701  24.404  34.085  1.00  0.00     0.031 A 
ATOM     61  C   UNL A   1      47.289  25.829  32.958  1.00  0.00     0.131 A 
ATOM     62  C   UNL A   1      46.774  23.756  34.715  1.00  0.00     0.055 A 
ATOM     63  C   UNL A   1      48.353  25.146  33.546  1.00  0.00     0.041 A 
ATOM     64  F   UNL A   1      47.582  26.842  32.125  1.00  0.00    -0.206 F 
ATOM     65  C   UNL A   1      48.098  24.108  34.437  1.00  0.00     0.022 A 
BRANCH  62  66
ATOM     66  S   UNL A   1      46.414  22.482  35.954  1.00  0.00     0.124 S 
ATOM     67  O   UNL A   1      45.089  22.877  36.421  1.00  0.00    -0.237 OA
ATOM     68  O   UNL A   1      46.474  21.254  35.168  1.00  0.00    -0.237 OA
ATOM     69  O   UNL A   1      47.490  22.642  36.932  1.00  0.00    -0.744 OA
ENDBRANCH  62  66
ENDBRANCH  36  59
ENDBRANCH  10  11
ENDBRANCH   3   5
ENDBRANCH   2   3
ENDBRANCH   1   2
BRANCH   1  70
ATOM     70  C   UNL A   1      32.234  28.091  27.500  1.00  0.00     0.274 C 
BRANCH  70  71
ATOM     71  O   UNL A   1      31.070  27.271  27.290  1.00  0.00    -0.457 OA
BRANCH  71  72
ATOM     72  C   UNL A   1      31.191  26.374  26.252  1.00  0.00     0.370 C 
ATOM     73  O   UNL A   1      31.283  25.166  26.448  1.00  0.00    -0.245 OA
BRANCH  72  74
ATOM     74  C   UNL A   1      31.242  27.105  24.855  1.00  0.00     0.328 C 
BRANCH  74  75
ATOM     75  N   UNL A   1      32.134  26.372  23.925  1.00  0.00    -0.319 N 
ATOM     76  C   UNL A   1      31.948  26.647  22.501  1.00  0.00     0.263 C 
ATOM     77  C   UNL A   1      33.568  26.450  24.264  1.00  0.00     0.274 C 
ATOM     78  H   UNL A   1      31.818  25.415  24.078  1.00  0.00     0.349 HD
ATOM     79  C   UNL A   1      32.643  25.554  21.683  1.00  0.00     0.062 C 
ATOM     80  C   UNL A   1      34.336  25.289  23.575  1.00  0.00     0.104 C 
ATOM     81  C   UNL A   1      34.116  25.391  22.055  1.00  0.00     0.022 C 
BRANCH  80  82
ATOM     82  C   UNL A   1      33.906  23.961  24.179  1.00  0.00     0.103 A 
ATOM     83  N   UNL A   1      33.156  23.096  23.533  1.00  0.00    -0.241 NA
ATOM     84  S   UNL A   1      34.294  23.491  25.787  1.00  0.00    -0.118 S 
ATOM     85  C   UNL A   1      33.047  21.915  24.224  1.00  0.00     0.082 A 
ATOM     86  C   UNL A   1      33.581  21.939  25.510  1.00  0.00     0.055 A 
ATOM     87  C   UNL A   1      32.451  20.734  23.743  1.00  0.00     0.030 A 
ATOM     88  C   UNL A   1      33.503  20.818  26.353  1.00  0.00     0.021 A 
ATOM     89  C   UNL A   1      32.391  19.607  24.562  1.00  0.00     0.002 A 
ATOM     90  C   UNL A   1      32.901  19.655  25.855  1.00  0.00     0.002 A 
ENDBRANCH  80  82
ENDBRANCH  74  75
BRANCH  74  91
ATOM     91  C   UNL A   1      29.831  27.161  24.274  1.00  0.00     0.046 A 
ATOM     92  C   UNL A   1      28.922  26.118  24.185  1.00  0.00     0.094 A 
ATOM     93  C   UNL A   1      29.158  28.312  23.718  1.00  0.00     0.010 A 
ATOM     94  N   UNL A   1      27.726  26.604  23.746  1.00  0.00    -0.361 N 
ATOM     95  C   UNL A   1      27.833  27.943  23.469  1.00  0.00     0.046 A 
ATOM     96  C   UNL A   1      29.536  29.649  23.455  1.00  0.00     0.026 A 
ATOM     97  H   UNL A   1      26.904  26.072  23.644  1.00  0.00     0.166 HD
ATOM     98  C   UNL A   1      26.852  28.850  23.048  1.00  0.00     0.028 A 
ATOM     99  C   UNL A   1      28.570  30.557  23.006  1.00  0.00     0.018 A 
ATOM    100  C   UNL A   1      27.244  30.172  22.829  1.00  0.00     0.018 A 
ATOM    101  Br  UNL A   1      29.065  32.350  22.659  1.00  0.00    -0.051 Br
ENDBRANCH  74  91
ENDBRANCH  72  74
ENDBRANCH  71  72
ENDBRANCH  70  71
ENDBRANCH   1  70
TORSDOF 17
ENDMDL
MODEL 2
REMARK VINA RESULT:     -12.6      5.076     10.360
REMARK SMILES O=C(OCCOC(=O)[C@H](c1c[nH]c2ccc(Br)cc12)[N@H+]1CCC[C@H](c2nc3ccccc3s2)C1)c1ccc(-c2c3nc(c(-c4cc(S(=O)(=O)[O-])ccc4F)c4ccc([nH]4)c(-c4cc(S(=O)(=O)[O-])ccc4F)c4nc(c(-c5cc(S(=O)(=O)[O-])ccc5F)c5ccc2[nH]5)C=C4)C=C3)cc1
REMARK SMILES IDX 4 1 3 2 2 3 1 4 35 5 36 6 97 7 37 8 96 9 38 10 39 11 40 12
REMARK SMILES IDX 90 13 41 14 95 15 89 16 91 17 42 18 94 19 88 20 87 21 43 23
REMARK SMILES IDX 75 24 55 25 74 26 56 27 59 28 73 29 92 30 57 31 58 32 72 34
REMARK SMILES IDX 93 35 60 36 44 37 45 38 53 39 46 40 52 41 54 42 51 43 47 44
REMARK SMILES IDX 48 45 49 46 50 47 76 48 77 49 85 50 78 51 84 52 86 53 83 54
REMARK SMILES IDX 79 55 80 56 81 57 82 58 61 59 62 60 70 61 63 62 69 63 71 64
REMARK SMILES IDX 68 65 64 66 65 67 66 68 67 69 5 70 6 71 7 72 8 73 9 74 20 75
REMARK SMILES IDX 21 76 34 77 22 79 24 80 23 81 25 82 26 83 33 84 27 85 32 86
REMARK SMILES IDX 28 87 31 88 29 89 30 90 10 91 11 92 19 93 12 94 13 95 18 96
REMARK SMILES IDX 14 98 16 99 15 100 17 101
REMARK H PARENT 91 22 59 33 20 78 12 97
REMARK Flexibility Score: inf
ROOT
ATOM      1  C   UNL A   1      37.704  21.347  25.104  1.00  0.00     0.275 C 
ENDROOT
BRANCH   1   2
ATOM      2  O   UNL A   1      38.511  21.455  26.284  1.00  0.00    -0.458 OA
BRANCH   2   3
ATOM      3  C   UNL A   1      39.808  21.819  26.402  1.00  0.00     0.338 C 
ATOM      4  O   UNL A   1      40.680  20.979  26.179  1.00  0.00    -0.246 OA
BRANCH   3   5
ATOM      5  C   UNL A   1      40.231  23.154  26.930  1.00  0.00     0.060 A 
ATOM      6  C   UNL A   1      41.014  23.408  28.063  1.00  0.00     0.016 A 
ATOM      7  C   UNL A   1      39.778  24.257  26.203  1.00  0.00     0.016 A 
ATOM      8  C   UNL A   1      41.427  24.708  28.396  1.00  0.00     0.010 A 
ATOM      9  C   UNL A   1      40.189  25.549  26.534  1.00  0.00     0.010 A 
ATOM     10  C   UNL A   1      41.035  25.797  27.621  1.00  0.00    -0.014 A 
BRANCH  10  11
ATOM     11  C   UNL A   1      41.366  27.197  28.007  1.00  0.00     0.031 A 
ATOM     12  C   UNL A   1      42.781  27.675  27.797  1.00  0.00     0.074 A 
ATOM     13  C   UNL A   1      40.462  28.008  28.595  1.00  0.00     0.049 A 
ATOM     14  N   UNL A   1      43.367  28.771  28.202  1.00  0.00    -0.248 NA
ATOM     15  C   UNL A   1      43.677  26.741  27.097  1.00  0.00     0.031 C 
ATOM     16  C   UNL A   1      39.080  27.654  28.926  1.00  0.00     0.029 A 
ATOM     17  N   UNL A   1      40.581  29.302  29.042  1.00  0.00    -0.354 N 
ATOM     18  C   UNL A   1      44.709  28.618  27.866  1.00  0.00     0.074 A 
ATOM     19  C   UNL A   1      44.858  27.281  27.339  1.00  0.00     0.031 C 
ATOM     20  C   UNL A   1      38.480  28.708  29.509  1.00  0.00     0.029 A 
ATOM     21  C   UNL A   1      39.433  29.810  29.609  1.00  0.00     0.049 A 
ATOM     22  H   UNL A   1      41.415  29.822  28.963  1.00  0.00     0.167 HD
ATOM     23  C   UNL A   1      45.716  29.525  27.925  1.00  0.00     0.034 A 
ATOM     24  C   UNL A   1      39.188  31.027  30.137  1.00  0.00     0.034 A 
ATOM     25  C   UNL A   1      45.525  30.879  28.371  1.00  0.00     0.049 A 
ATOM     26  C   UNL A   1      40.297  32.055  30.132  1.00  0.00     0.074 A 
ATOM     27  C   UNL A   1      46.434  31.919  28.406  1.00  0.00     0.029 A 
ATOM     28  N   UNL A   1      44.320  31.383  28.845  1.00  0.00    -0.354 N 
ATOM     29  N   UNL A   1      41.546  31.923  29.745  1.00  0.00    -0.248 NA
ATOM     30  C   UNL A   1      39.957  33.404  30.608  1.00  0.00     0.031 C 
ATOM     31  C   UNL A   1      45.786  33.047  28.922  1.00  0.00     0.029 A 
ATOM     32  C   UNL A   1      44.459  32.723  29.161  1.00  0.00     0.049 A 
ATOM     33  H   UNL A   1      43.489  30.864  28.941  1.00  0.00     0.167 HD
ATOM     34  C   UNL A   1      42.125  33.181  29.890  1.00  0.00     0.074 A 
ATOM     35  C   UNL A   1      41.088  34.059  30.391  1.00  0.00     0.031 C 
ATOM     36  C   UNL A   1      43.396  33.580  29.631  1.00  0.00     0.034 A 
BRANCH  23  37
ATOM     37  C   UNL A   1      47.082  29.056  27.480  1.00  0.00     0.023 A 
ATOM     38  C   UNL A   1      47.363  28.814  26.121  1.00  0.00     0.031 A 
ATOM     39  C   UNL A   1      48.073  28.725  28.419  1.00  0.00     0.131 A 
ATOM     40  C   UNL A   1      48.519  28.111  25.759  1.00  0.00     0.055 A 
ATOM     41  C   UNL A   1      49.281  28.135  28.036  1.00  0.00     0.041 A 
ATOM     42  F   UNL A   1      47.869  28.924  29.731  1.00  0.00    -0.206 F 
ATOM     43  C   UNL A   1      49.496  27.794  26.702  1.00  0.00     0.022 A 
BRANCH  40  44
ATOM     44  S   UNL A   1      48.606  27.421  24.082  1.00  0.00     0.124 S 
ATOM     45  O   UNL A   1      49.878  27.969  23.609  1.00  0.00    -0.237 OA
ATOM     46  O   UNL A   1      48.579  25.988  24.322  1.00  0.00    -0.237 OA
ATOM     47  O   UNL A   1      47.419  27.971  23.425  1.00  0.00    -0.744 OA
ENDBRANCH  40  44
ENDBRANCH  23  37
BRANCH  24  48
ATOM     48  C   UNL A   1      37.841  31.376  30.682  1.00  0.00     0.023 A 
ATOM     49  C   UNL A   1      36.890  32.032  29.880  1.00  0.00     0.031 A 
ATOM     50  C   UNL A   1      37.508  31.128  32.024  1.00  0.00     0.131 A 
ATOM     51  C   UNL A   1      35.680  32.473  30.441  1.00  0.00     0.055 A 
ATOM     52  C   UNL A   1      36.283  31.529  32.566  1.00  0.00     0.041 A 
ATOM     53  F   UNL A   1      38.370  30.491  32.831  1.00  0.00    -0.206 F 
ATOM     54  C   UNL A   1      35.367  32.220  31.777  1.00  0.00     0.022 A 
BRANCH  51  55
ATOM     55  S   UNL A   1      34.554  33.460  29.414  1.00  0.00     0.124 S 
ATOM     56  O   UNL A   1      35.478  34.380  28.760  1.00  0.00    -0.237 OA
ATOM     57  O   UNL A   1      33.951  32.441  28.562  1.00  0.00    -0.237 OA
ATOM     58  O   UNL A   1      33.650  34.068  30.388  1.00  0.00    -0.744 OA
ENDBRANCH  51  55
ENDBRANCH  24  48
BRANCH  36  59
ATOM     59  C   UNL A   1      43.709  35.043  29.804  1.00  0.00     0.023 A 
ATOM     60  C   UNL A   1      43.429  35.986  28.802  1.00  0.00     0.031 A 
ATOM     61  C   UNL A   1      44.273  35.499  31.010  1.00  0.00     0.131 A 
ATOM     62  C   UNL A   1      43.749  37.335  29.008  1.00  0.00     0.055 A 
ATOM     63  C   UNL A   1      44.541  36.850  31.229  1.00  0.00     0.041 A 
ATOM     64  F   UNL A   1      44.559  34.637  31.999  1.00  0.00    -0.206 F 
ATOM     65  C   UNL A   1      44.287  37.775  30.222  1.00  0.00     0.022 A 
BRANCH  62  66
ATOM     66  S   UNL A   1      43.513  38.505  27.642  1.00  0.00     0.124 S 
ATOM     67  O   UNL A   1      44.737  38.323  26.871  1.00  0.00    -0.237 OA
ATOM     68  O   UNL A   1      42.287  38.015  27.020  1.00  0.00    -0.237 OA
ATOM     69  O   UNL A   1      43.389  39.798  28.316  1.00  0.00    -0.744 OA
ENDBRANCH  62  66
ENDBRANCH  36  59
ENDBRANCH  10  11
ENDBRANCH   3   5
ENDBRANCH   2   3
ENDBRANCH   1   2
BRANCH   1  70
ATOM     70  C   UNL A   1      36.578  22.377  24.967  1.00  0.00     0.274 C 
BRANCH  70  71
ATOM     71  O   UNL A   1      35.882  22.396  23.707  1.00  0.00    -0.457 OA
BRANCH  71  72
ATOM     72  C   UNL A   1      34.568  22.796  23.793  1.00  0.00     0.370 C 
ATOM     73  O   UNL A   1      34.163  23.813  23.238  1.00  0.00    -0.245 OA
BRANCH  72  74
ATOM     74  C   UNL A   1      33.724  21.827  24.708  1.00  0.00     0.328 C 
BRANCH  74  75
ATOM     75  N   UNL A   1      32.648  22.580  25.397  1.00  0.00    -0.319 N 
ATOM     76  C   UNL A   1      31.451  21.818  25.751  1.00  0.00     0.263 C 
ATOM     77  C   UNL A   1      33.101  23.366  26.561  1.00  0.00     0.274 C 
ATOM     78  H   UNL A   1      32.371  23.227  24.659  1.00  0.00     0.349 HD
ATOM     79  C   UNL A   1      30.315  22.791  26.081  1.00  0.00     0.062 C 
ATOM     80  C   UNL A   1      32.059  24.471  26.888  1.00  0.00     0.104 C 
ATOM     81  C   UNL A   1      30.702  23.799  27.162  1.00  0.00     0.022 C 
BRANCH  80  82
ATOM     82  C   UNL A   1      32.031  25.496  25.765  1.00  0.00     0.103 A 
ATOM     83  N   UNL A   1      31.021  25.609  24.931  1.00  0.00    -0.241 NA
ATOM     84  S   UNL A   1      33.342  26.557  25.428  1.00  0.00    -0.118 S 
ATOM     85  C   UNL A   1      31.163  26.708  24.121  1.00  0.00     0.082 A 
ATOM     86  C   UNL A   1      32.395  27.351  24.218  1.00  0.00     0.055 A 
ATOM     87  C   UNL A   1      30.191  27.203  23.232  1.00  0.00     0.030 A 
ATOM     88  C   UNL A   1      32.702  28.463  23.417  1.00  0.00     0.021 A 
ATOM     89  C   UNL A   1      30.475  28.323  22.450  1.00  0.00     0.002 A 
ATOM     90  C   UNL A   1      31.721  28.936  22.535  1.00  0.00     0.002 A 
ENDBRANCH  80  82
ENDBRANCH  74  75
BRANCH  74  91
ATOM     91  C   UNL A   1      33.106  20.736  23.836  1.00  0.00     0.046 A 
ATOM     92  C   UNL A   1      32.150  20.898  22.845  1.00  0.00     0.094 A 
ATOM     93  C   UNL A   1      33.409  19.324  23.856  1.00  0.00     0.010 A 
ATOM     94  N   UNL A   1      31.972  19.712  22.197  1.00  0.00    -0.361 N 
ATOM     95  C   UNL A   1      32.739  18.735  22.779  1.00  0.00     0.046 A 
ATOM     96  C   UNL A   1      34.233  18.499  24.656  1.00  0.00     0.026 A 
ATOM     97  H   UNL A   1      31.379  19.576  21.422  1.00  0.00     0.166 HD
ATOM     98  C   UNL A   1      32.907  17.395  22.413  1.00  0.00     0.028 A 
ATOM     99  C   UNL A   1      34.385  17.150  24.317  1.00  0.00     0.018 A 
ATOM    100  C   UNL A   1      33.754  16.610  23.200  1.00  0.00     0.018 A 
ATOM    101  Br  UNL A   1      35.492  16.040  25.376  1.00  0.00    -0.051 Br
ENDBRANCH  74  91
ENDBRANCH  72  74
ENDBRANCH  71  72
ENDBRANCH  70  71
ENDBRANCH   1  70
TORSDOF 17
ENDMDL
MODEL 3
REMARK VINA RESULT:     -12.6      1.573      2.116
REMARK SMILES O=C(OCCOC(=O)[C@H](c1c[nH]c2ccc(Br)cc12)[N@H+]1CCC[C@H](c2nc3ccccc3s2)C1)c1ccc(-c2c3nc(c(-c4cc(S(=O)(=O)[O-])ccc4F)c4ccc([nH]4)c(-c4cc(S(=O)(=O)[O-])ccc4F)c4nc(c(-c5cc(S(=O)(=O)[O-])ccc5F)c5ccc2[nH]5)C=C4)C=C3)cc1
REMARK SMILES IDX 4 1 3 2 2 3 1 4 35 5 36 6 97 7 37 8 96 9 38 10 39 11 40 12
REMARK SMILES IDX 90 13 41 14 95 15 89 16 91 17 42 18 94 19 88 20 87 21 43 23
REMARK SMILES IDX 75 24 55 25 74 26 56 27 59 28 73 29 92 30 57 31 58 32 72 34
REMARK SMILES IDX 93 35 60 36 44 37 45 38 53 39 46 40 52 41 54 42 51 43 47 44
REMARK SMILES IDX 48 45 49 46 50 47 76 48 77 49 85 50 78 51 84 52 86 53 83 54
REMARK SMILES IDX 79 55 80 56 81 57 82 58 61 59 62 60 70 61 63 62 69 63 71 64
REMARK SMILES IDX 68 65 64 66 65 67 66 68 67 69 5 70 6 71 7 72 8 73 9 74 20 75
REMARK SMILES IDX 21 76 34 77 22 79 24 80 23 81 25 82 26 83 33 84 27 85 32 86
REMARK SMILES IDX 28 87 31 88 29 89 30 90 10 91 11 92 19 93 12 94 13 95 18 96
REMARK SMILES IDX 14 98 16 99 15 100 17 101
REMARK H PARENT 91 22 59 33 20 78 12 97
REMARK Flexibility Score: inf
ROOT
ATOM      1  C   UNL A   1      31.891  30.584  26.740  1.00  0.00     0.275 C 
ENDROOT
BRANCH   1   2
ATOM      2  O   UNL A   1      33.266  30.982  26.667  1.00  0.00    -0.458 OA
BRANCH   2   3
ATOM      3  C   UNL A   1      33.992  31.714  27.542  1.00  0.00     0.338 C 
ATOM      4  O   UNL A   1      33.612  32.852  27.817  1.00  0.00    -0.246 OA
BRANCH   3   5
ATOM      5  C   UNL A   1      35.312  31.259  28.082  1.00  0.00     0.060 A 
ATOM      6  C   UNL A   1      36.489  32.010  28.184  1.00  0.00     0.016 A 
ATOM      7  C   UNL A   1      35.355  29.935  28.522  1.00  0.00     0.016 A 
ATOM      8  C   UNL A   1      37.638  31.495  28.806  1.00  0.00     0.010 A 
ATOM      9  C   UNL A   1      36.497  29.424  29.140  1.00  0.00     0.010 A 
ATOM     10  C   UNL A   1      37.650  30.198  29.311  1.00  0.00    -0.014 A 
BRANCH  10  11
ATOM     11  C   UNL A   1      38.885  29.586  29.880  1.00  0.00     0.031 A 
ATOM     12  C   UNL A   1      39.341  30.045  31.242  1.00  0.00     0.074 A 
ATOM     13  C   UNL A   1      39.628  28.701  29.184  1.00  0.00     0.049 A 
ATOM     14  N   UNL A   1      40.456  29.806  31.879  1.00  0.00    -0.248 NA
ATOM     15  C   UNL A   1      38.435  30.966  31.946  1.00  0.00     0.031 C 
ATOM     16  C   UNL A   1      39.347  28.225  27.827  1.00  0.00     0.029 A 
ATOM     17  N   UNL A   1      40.793  28.055  29.519  1.00  0.00    -0.354 N 
ATOM     18  C   UNL A   1      40.410  30.605  33.017  1.00  0.00     0.074 A 
ATOM     19  C   UNL A   1      39.217  31.413  32.912  1.00  0.00     0.031 C 
ATOM     20  C   UNL A   1      40.304  27.356  27.455  1.00  0.00     0.029 A 
ATOM     21  C   UNL A   1      41.277  27.221  28.536  1.00  0.00     0.049 A 
ATOM     22  H   UNL A   1      41.244  28.179  30.386  1.00  0.00     0.167 HD
ATOM     23  C   UNL A   1      41.243  30.621  34.088  1.00  0.00     0.034 A 
ATOM     24  C   UNL A   1      42.375  26.437  28.522  1.00  0.00     0.034 A 
ATOM     25  C   UNL A   1      42.377  29.744  34.211  1.00  0.00     0.049 A 
ATOM     26  C   UNL A   1      43.258  26.407  29.750  1.00  0.00     0.074 A 
ATOM     27  C   UNL A   1      43.252  29.599  35.270  1.00  0.00     0.029 A 
ATOM     28  N   UNL A   1      42.776  28.840  33.234  1.00  0.00    -0.354 N 
ATOM     29  N   UNL A   1      43.166  27.115  30.854  1.00  0.00    -0.248 NA
ATOM     30  C   UNL A   1      44.378  25.454  29.742  1.00  0.00     0.031 C 
ATOM     31  C   UNL A   1      44.196  28.624  34.925  1.00  0.00     0.029 A 
ATOM     32  C   UNL A   1      43.876  28.125  33.671  1.00  0.00     0.049 A 
ATOM     33  H   UNL A   1      42.339  28.725  32.359  1.00  0.00     0.167 HD
ATOM     34  C   UNL A   1      44.186  26.660  31.685  1.00  0.00     0.074 A 
ATOM     35  C   UNL A   1      44.875  25.613  30.960  1.00  0.00     0.031 C 
ATOM     36  C   UNL A   1      44.524  27.065  32.935  1.00  0.00     0.034 A 
BRANCH  23  37
ATOM     37  C   UNL A   1      40.924  31.610  35.185  1.00  0.00     0.023 A 
ATOM     38  C   UNL A   1      39.929  31.338  36.145  1.00  0.00     0.031 A 
ATOM     39  C   UNL A   1      41.519  32.883  35.206  1.00  0.00     0.131 A 
ATOM     40  C   UNL A   1      39.446  32.367  36.963  1.00  0.00     0.055 A 
ATOM     41  C   UNL A   1      41.116  33.867  36.113  1.00  0.00     0.041 A 
ATOM     42  F   UNL A   1      42.469  33.210  34.316  1.00  0.00    -0.206 F 
ATOM     43  C   UNL A   1      40.050  33.623  36.976  1.00  0.00     0.022 A 
BRANCH  40  44
ATOM     44  S   UNL A   1      37.875  32.097  37.833  1.00  0.00     0.124 S 
ATOM     45  O   UNL A   1      37.541  30.737  37.412  1.00  0.00    -0.237 OA
ATOM     46  O   UNL A   1      38.249  32.259  39.228  1.00  0.00    -0.237 OA
ATOM     47  O   UNL A   1      37.002  33.140  37.291  1.00  0.00    -0.744 OA
ENDBRANCH  40  44
ENDBRANCH  23  37
BRANCH  24  48
ATOM     48  C   UNL A   1      42.700  25.580  27.342  1.00  0.00     0.023 A 
ATOM     49  C   UNL A   1      42.224  24.259  27.260  1.00  0.00     0.031 A 
ATOM     50  C   UNL A   1      43.543  26.037  26.316  1.00  0.00     0.131 A 
ATOM     51  C   UNL A   1      42.644  23.423  26.213  1.00  0.00     0.055 A 
ATOM     52  C   UNL A   1      43.922  25.215  25.251  1.00  0.00     0.041 A 
ATOM     53  F   UNL A   1      44.014  27.294  26.333  1.00  0.00    -0.206 F 
ATOM     54  C   UNL A   1      43.485  23.894  25.203  1.00  0.00     0.022 A 
BRANCH  51  55
ATOM     55  S   UNL A   1      42.140  21.679  26.236  1.00  0.00     0.124 S 
ATOM     56  O   UNL A   1      42.434  21.304  27.615  1.00  0.00    -0.237 OA
ATOM     57  O   UNL A   1      40.727  21.769  25.882  1.00  0.00    -0.237 OA
ATOM     58  O   UNL A   1      42.996  21.064  25.224  1.00  0.00    -0.744 OA
ENDBRANCH  51  55
ENDBRANCH  24  48
BRANCH  36  59
ATOM     59  C   UNL A   1      45.633  26.317  33.627  1.00  0.00     0.023 A 
ATOM     60  C   UNL A   1      45.389  25.158  34.382  1.00  0.00     0.031 A 
ATOM     61  C   UNL A   1      46.961  26.762  33.499  1.00  0.00     0.131 A 
ATOM     62  C   UNL A   1      46.455  24.504  35.016  1.00  0.00     0.055 A 
ATOM     63  C   UNL A   1      48.024  26.077  34.089  1.00  0.00     0.041 A 
ATOM     64  F   UNL A   1      47.248  27.864  32.787  1.00  0.00    -0.206 F 
ATOM     65  C   UNL A   1      47.772  24.946  34.859  1.00  0.00     0.022 A 
BRANCH  62  66
ATOM     66  S   UNL A   1      46.091  23.099  36.103  1.00  0.00     0.124 S 
ATOM     67  O   UNL A   1      47.061  22.107  35.653  1.00  0.00    -0.237 OA
ATOM     68  O   UNL A   1      46.322  23.663  37.429  1.00  0.00    -0.237 OA
ATOM     69  O   UNL A   1      44.695  22.784  35.801  1.00  0.00    -0.744 OA
ENDBRANCH  62  66
ENDBRANCH  36  59
ENDBRANCH  10  11
ENDBRANCH   3   5
ENDBRANCH   2   3
ENDBRANCH   1   2
BRANCH   1  70
ATOM     70  C   UNL A   1      31.613  29.267  27.474  1.00  0.00     0.274 C 
BRANCH  70  71
ATOM     71  O   UNL A   1      32.479  28.164  27.149  1.00  0.00    -0.457 OA
BRANCH  71  72
ATOM     72  C   UNL A   1      31.862  27.149  26.451  1.00  0.00     0.370 C 
ATOM     73  O   UNL A   1      30.848  26.599  26.870  1.00  0.00    -0.245 OA
BRANCH  72  74
ATOM     74  C   UNL A   1      32.648  26.789  25.132  1.00  0.00     0.328 C 
BRANCH  74  75
ATOM     75  N   UNL A   1      32.206  25.472  24.615  1.00  0.00    -0.319 N 
ATOM     76  C   UNL A   1      30.859  25.048  24.995  1.00  0.00     0.263 C 
ATOM     77  C   UNL A   1      32.395  25.290  23.163  1.00  0.00     0.274 C 
ATOM     78  H   UNL A   1      32.852  24.852  25.104  1.00  0.00     0.349 HD
ATOM     79  C   UNL A   1      30.709  23.548  24.726  1.00  0.00     0.062 C 
ATOM     80  C   UNL A   1      32.387  23.776  22.816  1.00  0.00     0.104 C 
ATOM     81  C   UNL A   1      31.051  23.174  23.284  1.00  0.00     0.022 C 
BRANCH  80  82
ATOM     82  C   UNL A   1      33.616  23.107  23.414  1.00  0.00     0.103 A 
ATOM     83  N   UNL A   1      33.569  21.934  24.004  1.00  0.00    -0.241 NA
ATOM     84  S   UNL A   1      35.167  23.848  23.443  1.00  0.00    -0.118 S 
ATOM     85  C   UNL A   1      34.828  21.479  24.309  1.00  0.00     0.082 A 
ATOM     86  C   UNL A   1      35.850  22.403  24.105  1.00  0.00     0.055 A 
ATOM     87  C   UNL A   1      35.140  20.196  24.798  1.00  0.00     0.030 A 
ATOM     88  C   UNL A   1      37.184  22.094  24.416  1.00  0.00     0.021 A 
ATOM     89  C   UNL A   1      36.466  19.870  25.085  1.00  0.00     0.002 A 
ATOM     90  C   UNL A   1      37.472  20.813  24.906  1.00  0.00     0.002 A 
ENDBRANCH  80  82
ENDBRANCH  74  75
BRANCH  74  91
ATOM     91  C   UNL A   1      32.376  27.867  24.085  1.00  0.00     0.046 A 
ATOM     92  C   UNL A   1      33.316  28.612  23.388  1.00  0.00     0.094 A 
ATOM     93  C   UNL A   1      31.090  28.311  23.599  1.00  0.00     0.010 A 
ATOM     94  N   UNL A   1      32.681  29.358  22.439  1.00  0.00    -0.361 N 
ATOM     95  C   UNL A   1      31.323  29.183  22.531  1.00  0.00     0.046 A 
ATOM     96  C   UNL A   1      29.749  28.012  23.932  1.00  0.00     0.026 A 
ATOM     97  H   UNL A   1      33.131  29.937  21.782  1.00  0.00     0.166 HD
ATOM     98  C   UNL A   1      30.299  29.707  21.733  1.00  0.00     0.028 A 
ATOM     99  C   UNL A   1      28.716  28.553  23.159  1.00  0.00     0.018 A 
ATOM    100  C   UNL A   1      28.984  29.367  22.062  1.00  0.00     0.018 A 
ATOM    101  Br  UNL A   1      26.918  28.152  23.591  1.00  0.00    -0.051 Br
ENDBRANCH  74  91
ENDBRANCH  72  74
ENDBRANCH  71  72
ENDBRANCH  70  71
ENDBRANCH   1  70
TORSDOF 17
ENDMDL
