MODEL 1
REMARK VINA RESULT:     -13.0      0.000      0.000
REMARK SMILES COc1cc([C@@H]2CC(=O)Nc3c(C(=O)OCCOC(=O)c4ccc(-c5c6nc(c(-c7cc(S(=O)(=O)[O-])ccc7F)c7ccc([nH]7)c(-c7cc(S(=O)(=O)[O-])ccc7F)c7nc(c(-c8cc(S(=O)(=O)[O-])ccc8F)c8ccc5[nH]8)C=C7)C=C6)cc4)cn(-c4ccc(F)cc4)c32)c(OC)c2c1OCO2
REMARK SMILES IDX 17 1 16 2 15 3 13 4 14 5 12 6 6 7 7 8 93 9 8 10 11 11 85 12
REMARK SMILES IDX 9 13 10 14 84 15 5 17 3 18 4 19 98 20 97 21 99 22 94 23
REMARK SMILES IDX 101 24 100 25 2 26 1 27 95 28 96 29 86 30 87 31 92 32 88 33
REMARK SMILES IDX 91 34 89 35 90 36 18 37 19 38 20 39 21 40 22 41 83 42 23 43
REMARK SMILES IDX 82 44 24 45 25 46 26 47 76 48 27 49 81 50 75 51 77 52 28 53
REMARK SMILES IDX 80 54 74 55 73 56 29 58 61 59 41 60 60 61 42 62 45 63 59 64
REMARK SMILES IDX 78 65 43 66 44 67 58 69 79 70 46 71 30 72 31 73 39 74 32 75
REMARK SMILES IDX 38 76 40 77 37 78 33 79 34 80 35 81 36 82 62 83 63 84 71 85
REMARK SMILES IDX 64 86 70 87 72 88 69 89 65 90 66 91 67 92 68 93 47 94 48 95
REMARK SMILES IDX 56 96 49 97 55 98 57 99 54 100 50 101 51 102 52 103 53 104
REMARK H PARENT 10 16 77 57 45 68
REMARK Flexibility Score: inf
ROOT
ATOM      1  C   UNL A   1      33.693  29.612  26.758  1.00  0.00     0.275 C 
ENDROOT
BRANCH   1   2
ATOM      2  C   UNL A   1      33.481  28.169  26.316  1.00  0.00     0.275 C 
BRANCH   2   3
ATOM      3  O   UNL A   1      33.626  28.021  24.891  1.00  0.00    -0.458 OA
BRANCH   3   4
ATOM      4  C   UNL A   1      33.142  26.863  24.336  1.00  0.00     0.341 C 
ATOM      5  O   UNL A   1      32.346  26.824  23.401  1.00  0.00    -0.246 OA
BRANCH   4   6
ATOM      6  C   UNL A   1      33.706  25.672  24.954  1.00  0.00     0.102 A 
ATOM      7  C   UNL A   1      33.408  22.332  26.479  1.00  0.00     0.082 C 
ATOM      8  C   UNL A   1      32.227  22.588  27.435  1.00  0.00     0.115 C 
ATOM      9  C   UNL A   1      33.873  23.635  25.907  1.00  0.00     0.055 A 
ATOM     10  C   UNL A   1      31.262  23.684  26.996  1.00  0.00     0.225 C 
ATOM     11  C   UNL A   1      33.060  24.735  25.785  1.00  0.00     0.078 A 
ATOM     12  N   UNL A   1      35.120  23.979  25.429  1.00  0.00    -0.317 N 
ATOM     13  O   UNL A   1      30.074  23.667  27.323  1.00  0.00    -0.275 OA
ATOM     14  N   UNL A   1      31.784  24.742  26.298  1.00  0.00    -0.324 N 
ATOM     15  C   UNL A   1      35.021  25.231  24.854  1.00  0.00     0.109 A 
ATOM     16  H   UNL A   1      31.222  25.539  26.158  1.00  0.00     0.170 HD
BRANCH   7  17
ATOM     17  C   UNL A   1      33.065  21.292  25.397  1.00  0.00     0.012 A 
ATOM     18  C   UNL A   1      33.195  18.931  24.731  1.00  0.00     0.165 A 
ATOM     19  C   UNL A   1      33.335  19.930  25.696  1.00  0.00     0.059 A 
ATOM     20  C   UNL A   1      32.689  19.291  23.498  1.00  0.00     0.211 A 
ATOM     21  C   UNL A   1      32.373  20.601  23.200  1.00  0.00     0.211 A 
ATOM     22  O   UNL A   1      32.427  18.451  22.455  1.00  0.00    -0.449 OA
ATOM     23  C   UNL A   1      32.556  21.625  24.117  1.00  0.00     0.168 A 
ATOM     24  O   UNL A   1      31.894  20.723  21.927  1.00  0.00    -0.449 OA
ATOM     25  C   UNL A   1      31.848  19.355  21.504  1.00  0.00     0.468 C 
BRANCH  18  26
ATOM     26  O   UNL A   1      33.550  17.667  25.100  1.00  0.00    -0.493 OA
ATOM     27  C   UNL A   1      32.436  16.863  25.483  1.00  0.00     0.278 C 
ENDBRANCH  18  26
BRANCH  23  28
ATOM     28  O   UNL A   1      32.297  22.938  23.887  1.00  0.00    -0.492 OA
ATOM     29  C   UNL A   1      31.088  23.343  23.271  1.00  0.00     0.278 C 
ENDBRANCH  23  28
ENDBRANCH   7  17
BRANCH  12  30
ATOM     30  C   UNL A   1      36.290  23.188  25.448  1.00  0.00     0.046 A 
ATOM     31  C   UNL A   1      36.314  21.979  24.747  1.00  0.00     0.029 A 
ATOM     32  C   UNL A   1      37.403  23.605  26.188  1.00  0.00     0.029 A 
ATOM     33  C   UNL A   1      37.423  21.142  24.843  1.00  0.00     0.041 A 
ATOM     34  C   UNL A   1      38.513  22.759  26.281  1.00  0.00     0.041 A 
ATOM     35  C   UNL A   1      38.507  21.533  25.620  1.00  0.00     0.123 A 
ATOM     36  F   UNL A   1      39.563  20.714  25.727  1.00  0.00    -0.207 F 
ENDBRANCH  12  30
ENDBRANCH   4   6
ENDBRANCH   3   4
ENDBRANCH   2   3
ENDBRANCH   1   2
BRANCH   1  37
ATOM     37  O   UNL A   1      35.076  29.847  26.991  1.00  0.00    -0.458 OA
BRANCH  37  38
ATOM     38  C   UNL A   1      35.346  30.984  27.671  1.00  0.00     0.338 C 
ATOM     39  O   UNL A   1      34.980  32.112  27.387  1.00  0.00    -0.246 OA
BRANCH  38  40
ATOM     40  C   UNL A   1      36.283  30.687  28.754  1.00  0.00     0.060 A 
ATOM     41  C   UNL A   1      37.282  31.640  28.976  1.00  0.00     0.016 A 
ATOM     42  C   UNL A   1      36.402  29.353  29.157  1.00  0.00     0.016 A 
ATOM     43  C   UNL A   1      38.529  31.184  29.324  1.00  0.00     0.010 A 
ATOM     44  C   UNL A   1      37.650  28.897  29.466  1.00  0.00     0.010 A 
ATOM     45  C   UNL A   1      38.707  29.805  29.438  1.00  0.00    -0.014 A 
BRANCH  45  46
ATOM     46  C   UNL A   1      40.043  29.287  29.592  1.00  0.00     0.031 A 
ATOM     47  C   UNL A   1      40.409  29.094  31.011  1.00  0.00     0.074 A 
ATOM     48  C   UNL A   1      40.750  28.889  28.517  1.00  0.00     0.049 A 
ATOM     49  N   UNL A   1      41.350  29.683  31.665  1.00  0.00    -0.248 NA
ATOM     50  C   UNL A   1      39.483  28.323  31.861  1.00  0.00     0.031 C 
ATOM     51  C   UNL A   1      40.337  28.841  27.111  1.00  0.00     0.029 A 
ATOM     52  N   UNL A   1      41.973  28.310  28.481  1.00  0.00    -0.354 N 
ATOM     53  C   UNL A   1      41.276  29.182  32.958  1.00  0.00     0.074 A 
ATOM     54  C   UNL A   1      39.993  28.549  33.070  1.00  0.00     0.031 C 
ATOM     55  C   UNL A   1      41.182  28.034  26.427  1.00  0.00     0.029 A 
ATOM     56  C   UNL A   1      42.243  27.598  27.319  1.00  0.00     0.049 A 
ATOM     57  H   UNL A   1      42.620  28.388  29.220  1.00  0.00     0.167 HD
ATOM     58  C   UNL A   1      42.377  29.118  33.750  1.00  0.00     0.034 A 
ATOM     59  C   UNL A   1      43.197  26.634  27.179  1.00  0.00     0.034 A 
ATOM     60  C   UNL A   1      43.424  29.972  33.239  1.00  0.00     0.049 A 
ATOM     61  C   UNL A   1      44.191  26.881  28.267  1.00  0.00     0.074 A 
ATOM     62  C   UNL A   1      43.518  31.334  33.023  1.00  0.00     0.029 A 
ATOM     63  N   UNL A   1      44.411  29.402  32.465  1.00  0.00    -0.354 N 
ATOM     64  N   UNL A   1      44.912  27.973  28.331  1.00  0.00    -0.248 NA
ATOM     65  C   UNL A   1      43.988  26.211  29.548  1.00  0.00     0.031 C 
ATOM     66  C   UNL A   1      44.187  31.459  31.770  1.00  0.00     0.029 A 
ATOM     67  C   UNL A   1      44.557  30.182  31.338  1.00  0.00     0.049 A 
ATOM     68  H   UNL A   1      44.921  28.587  32.677  1.00  0.00     0.167 HD
ATOM     69  C   UNL A   1      44.879  28.359  29.666  1.00  0.00     0.074 A 
ATOM     70  C   UNL A   1      44.363  27.190  30.382  1.00  0.00     0.031 C 
ATOM     71  C   UNL A   1      44.962  29.675  30.037  1.00  0.00     0.034 A 
BRANCH  58  72
ATOM     72  C   UNL A   1      42.627  28.041  34.777  1.00  0.00     0.023 A 
ATOM     73  C   UNL A   1      43.308  26.891  34.342  1.00  0.00     0.031 A 
ATOM     74  C   UNL A   1      42.017  27.949  36.050  1.00  0.00     0.131 A 
ATOM     75  C   UNL A   1      43.283  25.709  35.098  1.00  0.00     0.055 A 
ATOM     76  C   UNL A   1      42.054  26.792  36.831  1.00  0.00     0.041 A 
ATOM     77  F   UNL A   1      41.271  28.928  36.577  1.00  0.00    -0.206 F 
ATOM     78  C   UNL A   1      42.661  25.651  36.342  1.00  0.00     0.022 A 
BRANCH  75  79
ATOM     79  S   UNL A   1      43.922  24.196  34.339  1.00  0.00     0.124 S 
ATOM     80  O   UNL A   1      44.201  24.641  32.979  1.00  0.00    -0.237 OA
ATOM     81  O   UNL A   1      45.083  23.910  35.175  1.00  0.00    -0.237 OA
ATOM     82  O   UNL A   1      42.810  23.257  34.472  1.00  0.00    -0.744 OA
ENDBRANCH  75  79
ENDBRANCH  58  72
BRANCH  59  83
ATOM     83  C   UNL A   1      43.020  25.329  26.461  1.00  0.00     0.023 A 
ATOM     84  C   UNL A   1      43.999  24.761  25.614  1.00  0.00     0.031 A 
ATOM     85  C   UNL A   1      41.916  24.497  26.776  1.00  0.00     0.131 A 
ATOM     86  C   UNL A   1      43.839  23.439  25.116  1.00  0.00     0.055 A 
ATOM     87  C   UNL A   1      41.760  23.202  26.276  1.00  0.00     0.041 A 
ATOM     88  F   UNL A   1      40.979  24.879  27.656  1.00  0.00    -0.206 F 
ATOM     89  C   UNL A   1      42.727  22.664  25.448  1.00  0.00     0.022 A 
BRANCH  86  90
ATOM     90  S   UNL A   1      45.128  22.658  24.084  1.00  0.00     0.124 S 
ATOM     91  O   UNL A   1      46.046  23.766  23.844  1.00  0.00    -0.237 OA
ATOM     92  O   UNL A   1      45.615  21.585  24.944  1.00  0.00    -0.237 OA
ATOM     93  O   UNL A   1      44.392  22.205  22.902  1.00  0.00    -0.744 OA
ENDBRANCH  86  90
ENDBRANCH  59  83
BRANCH  71  94
ATOM     94  C   UNL A   1      45.283  30.716  28.972  1.00  0.00     0.023 A 
ATOM     95  C   UNL A   1      46.588  31.068  28.549  1.00  0.00     0.031 A 
ATOM     96  C   UNL A   1      44.206  31.255  28.248  1.00  0.00     0.131 A 
ATOM     97  C   UNL A   1      46.771  31.932  27.448  1.00  0.00     0.055 A 
ATOM     98  C   UNL A   1      44.390  32.087  27.143  1.00  0.00     0.041 A 
ATOM     99  F   UNL A   1      42.941  30.940  28.576  1.00  0.00    -0.206 F 
ATOM    100  C   UNL A   1      45.674  32.434  26.742  1.00  0.00     0.022 A 
BRANCH  97 101
ATOM    101  S   UNL A   1      48.443  32.437  26.922  1.00  0.00     0.124 S 
ATOM    102  O   UNL A   1      49.085  31.174  26.577  1.00  0.00    -0.237 OA
ATOM    103  O   UNL A   1      48.165  33.340  25.808  1.00  0.00    -0.237 OA
ATOM    104  O   UNL A   1      48.991  33.092  28.111  1.00  0.00    -0.744 OA
ENDBRANCH  97 101
ENDBRANCH  71  94
ENDBRANCH  45  46
ENDBRANCH  38  40
ENDBRANCH  37  38
ENDBRANCH   1  37
TORSDOF 18
ENDMDL
MODEL 2
REMARK VINA RESULT:     -12.8      2.193      6.729
REMARK SMILES COc1cc([C@@H]2CC(=O)Nc3c(C(=O)OCCOC(=O)c4ccc(-c5c6nc(c(-c7cc(S(=O)(=O)[O-])ccc7F)c7ccc([nH]7)c(-c7cc(S(=O)(=O)[O-])ccc7F)c7nc(c(-c8cc(S(=O)(=O)[O-])ccc8F)c8ccc5[nH]8)C=C7)C=C6)cc4)cn(-c4ccc(F)cc4)c32)c(OC)c2c1OCO2
REMARK SMILES IDX 17 1 16 2 15 3 13 4 14 5 12 6 6 7 7 8 93 9 8 10 11 11 85 12
REMARK SMILES IDX 9 13 10 14 84 15 5 17 3 18 4 19 98 20 97 21 99 22 94 23
REMARK SMILES IDX 101 24 100 25 2 26 1 27 95 28 96 29 86 30 87 31 92 32 88 33
REMARK SMILES IDX 91 34 89 35 90 36 18 37 19 38 20 39 21 40 22 41 83 42 23 43
REMARK SMILES IDX 82 44 24 45 25 46 26 47 76 48 27 49 81 50 75 51 77 52 28 53
REMARK SMILES IDX 80 54 74 55 73 56 29 58 61 59 41 60 60 61 42 62 45 63 59 64
REMARK SMILES IDX 78 65 43 66 44 67 58 69 79 70 46 71 30 72 31 73 39 74 32 75
REMARK SMILES IDX 38 76 40 77 37 78 33 79 34 80 35 81 36 82 62 83 63 84 71 85
REMARK SMILES IDX 64 86 70 87 72 88 69 89 65 90 66 91 67 92 68 93 47 94 48 95
REMARK SMILES IDX 56 96 49 97 55 98 57 99 54 100 50 101 51 102 52 103 53 104
REMARK H PARENT 10 16 77 57 45 68
REMARK Flexibility Score: inf
ROOT
ATOM      1  C   UNL A   1      35.040  28.882  27.262  1.00  0.00     0.275 C 
ENDROOT
BRANCH   1   2
ATOM      2  C   UNL A   1      33.848  29.028  26.324  1.00  0.00     0.275 C 
BRANCH   2   3
ATOM      3  O   UNL A   1      34.020  28.258  25.119  1.00  0.00    -0.458 OA
BRANCH   3   4
ATOM      4  C   UNL A   1      33.148  27.218  24.918  1.00  0.00     0.341 C 
ATOM      5  O   UNL A   1      32.056  27.327  24.366  1.00  0.00    -0.246 OA
BRANCH   4   6
ATOM      6  C   UNL A   1      33.674  25.950  25.402  1.00  0.00     0.102 A 
ATOM      7  C   UNL A   1      33.276  22.461  26.515  1.00  0.00     0.082 C 
ATOM      8  C   UNL A   1      32.079  22.628  27.470  1.00  0.00     0.115 C 
ATOM      9  C   UNL A   1      33.780  23.812  26.110  1.00  0.00     0.055 A 
ATOM     10  C   UNL A   1      31.147  23.789  27.144  1.00  0.00     0.225 C 
ATOM     11  C   UNL A   1      32.991  24.936  26.103  1.00  0.00     0.078 A 
ATOM     12  N   UNL A   1      35.044  24.182  25.702  1.00  0.00    -0.317 N 
ATOM     13  O   UNL A   1      29.951  23.761  27.443  1.00  0.00    -0.275 OA
ATOM     14  N   UNL A   1      31.705  24.910  26.587  1.00  0.00    -0.324 N 
ATOM     15  C   UNL A   1      34.982  25.495  25.277  1.00  0.00     0.109 A 
ATOM     16  H   UNL A   1      31.162  25.730  26.531  1.00  0.00     0.170 HD
BRANCH   7  17
ATOM     17  C   UNL A   1      32.938  21.564  25.310  1.00  0.00     0.012 A 
ATOM     18  C   UNL A   1      33.087  19.308  24.348  1.00  0.00     0.165 A 
ATOM     19  C   UNL A   1      33.222  20.178  25.432  1.00  0.00     0.059 A 
ATOM     20  C   UNL A   1      32.571  19.817  23.173  1.00  0.00     0.211 A 
ATOM     21  C   UNL A   1      32.240  21.151  23.046  1.00  0.00     0.211 A 
ATOM     22  O   UNL A   1      32.312  19.114  22.033  1.00  0.00    -0.449 OA
ATOM     23  C   UNL A   1      32.418  22.052  24.085  1.00  0.00     0.168 A 
ATOM     24  O   UNL A   1      31.753  21.429  21.801  1.00  0.00    -0.449 OA
ATOM     25  C   UNL A   1      31.718  20.126  21.207  1.00  0.00     0.468 C 
BRANCH  18  26
ATOM     26  O   UNL A   1      33.457  18.011  24.551  1.00  0.00    -0.493 OA
ATOM     27  C   UNL A   1      32.686  17.363  25.562  1.00  0.00     0.278 C 
ENDBRANCH  18  26
BRANCH  23  28
ATOM     28  O   UNL A   1      32.145  23.380  24.026  1.00  0.00    -0.492 OA
ATOM     29  C   UNL A   1      30.923  23.848  23.483  1.00  0.00     0.278 C 
ENDBRANCH  23  28
ENDBRANCH   7  17
BRANCH  12  30
ATOM     30  C   UNL A   1      36.197  23.369  25.650  1.00  0.00     0.046 A 
ATOM     31  C   UNL A   1      36.128  22.116  25.036  1.00  0.00     0.029 A 
ATOM     32  C   UNL A   1      37.389  23.809  26.238  1.00  0.00     0.029 A 
ATOM     33  C   UNL A   1      37.228  21.263  25.070  1.00  0.00     0.041 A 
ATOM     34  C   UNL A   1      38.490  22.948  26.270  1.00  0.00     0.041 A 
ATOM     35  C   UNL A   1      38.396  21.681  25.699  1.00  0.00     0.123 A 
ATOM     36  F   UNL A   1      39.445  20.848  25.749  1.00  0.00    -0.207 F 
ENDBRANCH  12  30
ENDBRANCH   4   6
ENDBRANCH   3   4
ENDBRANCH   2   3
ENDBRANCH   1   2
BRANCH   1  37
ATOM     37  O   UNL A   1      35.648  30.151  27.469  1.00  0.00    -0.458 OA
BRANCH  37  38
ATOM     38  C   UNL A   1      36.684  30.142  28.339  1.00  0.00     0.338 C 
ATOM     39  O   UNL A   1      36.880  30.926  29.251  1.00  0.00    -0.246 OA
BRANCH  38  40
ATOM     40  C   UNL A   1      37.642  29.113  27.937  1.00  0.00     0.060 A 
ATOM     41  C   UNL A   1      37.900  28.115  28.883  1.00  0.00     0.016 A 
ATOM     42  C   UNL A   1      38.528  29.425  26.901  1.00  0.00     0.016 A 
ATOM     43  C   UNL A   1      39.185  27.644  28.975  1.00  0.00     0.010 A 
ATOM     44  C   UNL A   1      39.814  28.983  27.016  1.00  0.00     0.010 A 
ATOM     45  C   UNL A   1      40.139  28.188  28.114  1.00  0.00    -0.014 A 
BRANCH  45  46
ATOM     46  C   UNL A   1      41.528  27.871  28.326  1.00  0.00     0.031 A 
ATOM     47  C   UNL A   1      41.946  26.661  27.587  1.00  0.00     0.074 A 
ATOM     48  C   UNL A   1      42.330  28.722  28.995  1.00  0.00     0.049 A 
ATOM     49  N   UNL A   1      42.375  25.550  28.081  1.00  0.00    -0.248 NA
ATOM     50  C   UNL A   1      41.644  26.596  26.146  1.00  0.00     0.031 C 
ATOM     51  C   UNL A   1      42.013  30.046  29.539  1.00  0.00     0.029 A 
ATOM     52  N   UNL A   1      43.662  28.626  29.216  1.00  0.00    -0.354 N 
ATOM     53  C   UNL A   1      42.612  24.724  26.990  1.00  0.00     0.074 A 
ATOM     54  C   UNL A   1      41.935  25.325  25.877  1.00  0.00     0.031 C 
ATOM     55  C   UNL A   1      43.165  30.714  29.781  1.00  0.00     0.029 A 
ATOM     56  C   UNL A   1      44.288  29.832  29.508  1.00  0.00     0.049 A 
ATOM     57  H   UNL A   1      44.147  27.771  29.173  1.00  0.00     0.167 HD
ATOM     58  C   UNL A   1      43.551  23.744  27.043  1.00  0.00     0.034 A 
ATOM     59  C   UNL A   1      45.624  30.084  29.395  1.00  0.00     0.034 A 
ATOM     60  C   UNL A   1      43.906  23.450  28.412  1.00  0.00     0.049 A 
ATOM     61  C   UNL A   1      46.296  28.750  29.443  1.00  0.00     0.074 A 
ATOM     62  C   UNL A   1      43.192  22.982  29.499  1.00  0.00     0.029 A 
ATOM     63  N   UNL A   1      45.037  24.041  28.933  1.00  0.00    -0.354 N 
ATOM     64  N   UNL A   1      46.251  27.973  30.496  1.00  0.00    -0.248 NA
ATOM     65  C   UNL A   1      46.525  28.051  28.182  1.00  0.00     0.031 C 
ATOM     66  C   UNL A   1      43.659  23.757  30.601  1.00  0.00     0.029 A 
ATOM     67  C   UNL A   1      44.697  24.579  30.156  1.00  0.00     0.049 A 
ATOM     68  H   UNL A   1      45.926  24.072  28.511  1.00  0.00     0.167 HD
ATOM     69  C   UNL A   1      46.007  26.697  30.003  1.00  0.00     0.074 A 
ATOM     70  C   UNL A   1      46.268  26.794  28.565  1.00  0.00     0.031 C 
ATOM     71  C   UNL A   1      45.315  25.765  30.729  1.00  0.00     0.034 A 
BRANCH  58  72
ATOM     72  C   UNL A   1      44.385  23.297  25.867  1.00  0.00     0.023 A 
ATOM     73  C   UNL A   1      44.236  21.963  25.451  1.00  0.00     0.031 A 
ATOM     74  C   UNL A   1      45.486  23.993  25.317  1.00  0.00     0.131 A 
ATOM     75  C   UNL A   1      45.192  21.356  24.621  1.00  0.00     0.055 A 
ATOM     76  C   UNL A   1      46.397  23.406  24.436  1.00  0.00     0.041 A 
ATOM     77  F   UNL A   1      45.809  25.244  25.666  1.00  0.00    -0.206 F 
ATOM     78  C   UNL A   1      46.272  22.069  24.109  1.00  0.00     0.022 A 
BRANCH  75  79
ATOM     79  S   UNL A   1      45.095  19.567  24.373  1.00  0.00     0.124 S 
ATOM     80  O   UNL A   1      44.491  19.482  23.049  1.00  0.00    -0.237 OA
ATOM     81  O   UNL A   1      46.497  19.176  24.470  1.00  0.00    -0.237 OA
ATOM     82  O   UNL A   1      44.245  19.119  25.475  1.00  0.00    -0.744 OA
ENDBRANCH  75  79
ENDBRANCH  58  72
BRANCH  59  83
ATOM     83  C   UNL A   1      46.232  31.330  28.823  1.00  0.00     0.023 A 
ATOM     84  C   UNL A   1      45.773  31.955  27.641  1.00  0.00     0.031 A 
ATOM     85  C   UNL A   1      47.184  32.058  29.579  1.00  0.00     0.131 A 
ATOM     86  C   UNL A   1      46.275  33.230  27.261  1.00  0.00     0.055 A 
ATOM     87  C   UNL A   1      47.680  33.307  29.196  1.00  0.00     0.041 A 
ATOM     88  F   UNL A   1      47.612  31.624  30.774  1.00  0.00    -0.206 F 
ATOM     89  C   UNL A   1      47.221  33.902  28.036  1.00  0.00     0.022 A 
BRANCH  86  90
ATOM     90  S   UNL A   1      45.640  34.089  25.780  1.00  0.00     0.124 S 
ATOM     91  O   UNL A   1      44.741  35.081  26.359  1.00  0.00    -0.237 OA
ATOM     92  O   UNL A   1      46.859  34.599  25.163  1.00  0.00    -0.237 OA
ATOM     93  O   UNL A   1      44.974  33.026  25.026  1.00  0.00    -0.744 OA
ENDBRANCH  86  90
ENDBRANCH  59  83
BRANCH  71  94
ATOM     94  C   UNL A   1      44.967  26.077  32.179  1.00  0.00     0.023 A 
ATOM     95  C   UNL A   1      43.759  26.675  32.613  1.00  0.00     0.031 A 
ATOM     96  C   UNL A   1      45.841  25.599  33.172  1.00  0.00     0.131 A 
ATOM     97  C   UNL A   1      43.472  26.780  33.991  1.00  0.00     0.055 A 
ATOM     98  C   UNL A   1      45.541  25.680  34.532  1.00  0.00     0.041 A 
ATOM     99  F   UNL A   1      46.991  24.995  32.831  1.00  0.00    -0.206 F 
ATOM    100  C   UNL A   1      44.357  26.276  34.948  1.00  0.00     0.022 A 
BRANCH  97 101
ATOM    101  S   UNL A   1      41.944  27.592  34.569  1.00  0.00     0.124 S 
ATOM    102  O   UNL A   1      42.411  28.479  35.628  1.00  0.00    -0.237 OA
ATOM    103  O   UNL A   1      41.453  28.243  33.357  1.00  0.00    -0.237 OA
ATOM    104  O   UNL A   1      41.120  26.474  35.032  1.00  0.00    -0.744 OA
ENDBRANCH  97 101
ENDBRANCH  71  94
ENDBRANCH  45  46
ENDBRANCH  38  40
ENDBRANCH  37  38
ENDBRANCH   1  37
TORSDOF 18
ENDMDL
MODEL 3
REMARK VINA RESULT:     -12.7      4.026      8.415
REMARK SMILES COc1cc([C@@H]2CC(=O)Nc3c(C(=O)OCCOC(=O)c4ccc(-c5c6nc(c(-c7cc(S(=O)(=O)[O-])ccc7F)c7ccc([nH]7)c(-c7cc(S(=O)(=O)[O-])ccc7F)c7nc(c(-c8cc(S(=O)(=O)[O-])ccc8F)c8ccc5[nH]8)C=C7)C=C6)cc4)cn(-c4ccc(F)cc4)c32)c(OC)c2c1OCO2
REMARK SMILES IDX 17 1 16 2 15 3 13 4 14 5 12 6 6 7 7 8 93 9 8 10 11 11 85 12
REMARK SMILES IDX 9 13 10 14 84 15 5 17 3 18 4 19 98 20 97 21 99 22 94 23
REMARK SMILES IDX 101 24 100 25 2 26 1 27 95 28 96 29 86 30 87 31 92 32 88 33
REMARK SMILES IDX 91 34 89 35 90 36 18 37 19 38 20 39 21 40 22 41 83 42 23 43
REMARK SMILES IDX 82 44 24 45 25 46 26 47 76 48 27 49 81 50 75 51 77 52 28 53
REMARK SMILES IDX 80 54 74 55 73 56 29 58 61 59 41 60 60 61 42 62 45 63 59 64
REMARK SMILES IDX 78 65 43 66 44 67 58 69 79 70 46 71 30 72 31 73 39 74 32 75
REMARK SMILES IDX 38 76 40 77 37 78 33 79 34 80 35 81 36 82 62 83 63 84 71 85
REMARK SMILES IDX 64 86 70 87 72 88 69 89 65 90 66 91 67 92 68 93 47 94 48 95
REMARK SMILES IDX 56 96 49 97 55 98 57 99 54 100 50 101 51 102 52 103 53 104
REMARK H PARENT 10 16 77 57 45 68
REMARK Flexibility Score: inf
ROOT
ATOM      1  C   UNL A   1      37.809  23.683  26.583  1.00  0.00     0.275 C 
ENDROOT
BRANCH   1   2
ATOM      2  C   UNL A   1      36.629  23.911  25.645  1.00  0.00     0.275 C 
BRANCH   2   3
ATOM      3  O   UNL A   1      35.375  23.591  26.278  1.00  0.00    -0.458 OA
BRANCH   3   4
ATOM      4  C   UNL A   1      34.238  23.806  25.542  1.00  0.00     0.341 C 
ATOM      5  O   UNL A   1      33.462  22.920  25.191  1.00  0.00    -0.246 OA
BRANCH   4   6
ATOM      6  C   UNL A   1      34.024  25.216  25.248  1.00  0.00     0.102 A 
ATOM      7  C   UNL A   1      32.783  27.956  23.122  1.00  0.00     0.082 C 
ATOM      8  C   UNL A   1      33.308  27.481  21.754  1.00  0.00     0.115 C 
ATOM      9  C   UNL A   1      33.375  27.105  24.203  1.00  0.00     0.055 A 
ATOM     10  C   UNL A   1      33.477  25.972  21.612  1.00  0.00     0.225 C 
ATOM     11  C   UNL A   1      33.808  25.819  23.993  1.00  0.00     0.078 A 
ATOM     12  N   UNL A   1      33.601  27.415  25.527  1.00  0.00    -0.317 N 
ATOM     13  O   UNL A   1      33.380  25.412  20.518  1.00  0.00    -0.275 OA
ATOM     14  N   UNL A   1      33.833  25.269  22.733  1.00  0.00    -0.324 N 
ATOM     15  C   UNL A   1      34.007  26.259  26.167  1.00  0.00     0.109 A 
ATOM     16  H   UNL A   1      34.118  24.331  22.632  1.00  0.00     0.170 HD
BRANCH   7  17
ATOM     17  C   UNL A   1      31.245  28.000  23.171  1.00  0.00     0.012 A 
ATOM     18  C   UNL A   1      29.243  29.409  22.967  1.00  0.00     0.165 A 
ATOM     19  C   UNL A   1      30.618  29.224  22.816  1.00  0.00     0.059 A 
ATOM     20  C   UNL A   1      28.488  28.330  23.381  1.00  0.00     0.211 A 
ATOM     21  C   UNL A   1      29.069  27.115  23.685  1.00  0.00     0.211 A 
ATOM     22  O   UNL A   1      27.132  28.301  23.528  1.00  0.00    -0.449 OA
ATOM     23  C   UNL A   1      30.439  26.917  23.603  1.00  0.00     0.168 A 
ATOM     24  O   UNL A   1      28.135  26.199  24.074  1.00  0.00    -0.449 OA
ATOM     25  C   UNL A   1      26.917  26.928  23.883  1.00  0.00     0.468 C 
BRANCH  18  26
ATOM     26  O   UNL A   1      28.753  30.646  22.665  1.00  0.00    -0.493 OA
ATOM     27  C   UNL A   1      28.346  30.768  21.304  1.00  0.00     0.278 C 
ENDBRANCH  18  26
BRANCH  23  28
ATOM     28  O   UNL A   1      31.084  25.764  23.912  1.00  0.00    -0.492 OA
ATOM     29  C   UNL A   1      30.557  24.873  24.879  1.00  0.00     0.278 C 
ENDBRANCH  23  28
ENDBRANCH   7  17
BRANCH  12  30
ATOM     30  C   UNL A   1      33.396  28.660  26.161  1.00  0.00     0.046 A 
ATOM     31  C   UNL A   1      32.126  29.243  26.137  1.00  0.00     0.029 A 
ATOM     32  C   UNL A   1      34.468  29.313  26.780  1.00  0.00     0.029 A 
ATOM     33  C   UNL A   1      31.936  30.517  26.666  1.00  0.00     0.041 A 
ATOM     34  C   UNL A   1      34.271  30.593  27.309  1.00  0.00     0.041 A 
ATOM     35  C   UNL A   1      33.013  31.186  27.236  1.00  0.00     0.123 A 
ATOM     36  F   UNL A   1      32.830  32.421  27.725  1.00  0.00    -0.207 F 
ENDBRANCH  12  30
ENDBRANCH   4   6
ENDBRANCH   3   4
ENDBRANCH   2   3
ENDBRANCH   1   2
BRANCH   1  37
ATOM     37  O   UNL A   1      38.884  24.541  26.223  1.00  0.00    -0.458 OA
BRANCH  37  38
ATOM     38  C   UNL A   1      39.661  24.933  27.258  1.00  0.00     0.338 C 
ATOM     39  O   UNL A   1      40.677  24.390  27.657  1.00  0.00    -0.246 OA
BRANCH  38  40
ATOM     40  C   UNL A   1      39.021  26.054  27.943  1.00  0.00     0.060 A 
ATOM     41  C   UNL A   1      39.066  27.284  27.277  1.00  0.00     0.016 A 
ATOM     42  C   UNL A   1      38.836  25.946  29.325  1.00  0.00     0.016 A 
ATOM     43  C   UNL A   1      39.236  28.413  28.038  1.00  0.00     0.010 A 
ATOM     44  C   UNL A   1      39.041  27.064  30.079  1.00  0.00     0.010 A 
ATOM     45  C   UNL A   1      39.344  28.254  29.420  1.00  0.00    -0.014 A 
BRANCH  45  46
ATOM     46  C   UNL A   1      39.732  29.387  30.221  1.00  0.00     0.031 A 
ATOM     47  C   UNL A   1      38.600  30.300  30.486  1.00  0.00     0.074 A 
ATOM     48  C   UNL A   1      40.961  29.447  30.771  1.00  0.00     0.049 A 
ATOM     49  N   UNL A   1      38.483  31.530  30.119  1.00  0.00    -0.248 NA
ATOM     50  C   UNL A   1      37.359  29.718  31.029  1.00  0.00     0.031 C 
ATOM     51  C   UNL A   1      42.035  28.450  30.731  1.00  0.00     0.029 A 
ATOM     52  N   UNL A   1      41.463  30.385  31.607  1.00  0.00    -0.354 N 
ATOM     53  C   UNL A   1      37.242  31.941  30.587  1.00  0.00     0.074 A 
ATOM     54  C   UNL A   1      36.521  30.746  30.918  1.00  0.00     0.031 C 
ATOM     55  C   UNL A   1      42.932  28.724  31.708  1.00  0.00     0.029 A 
ATOM     56  C   UNL A   1      42.548  29.962  32.366  1.00  0.00     0.049 A 
ATOM     57  H   UNL A   1      41.090  31.294  31.673  1.00  0.00     0.167 HD
ATOM     58  C   UNL A   1      37.003  33.243  30.892  1.00  0.00     0.034 A 
ATOM     59  C   UNL A   1      42.988  30.542  33.519  1.00  0.00     0.034 A 
ATOM     60  C   UNL A   1      38.001  34.099  30.293  1.00  0.00     0.049 A 
ATOM     61  C   UNL A   1      42.470  31.943  33.495  1.00  0.00     0.074 A 
ATOM     62  C   UNL A   1      38.375  34.354  28.987  1.00  0.00     0.029 A 
ATOM     63  N   UNL A   1      39.065  34.503  31.072  1.00  0.00    -0.354 N 
ATOM     64  N   UNL A   1      42.836  32.817  32.591  1.00  0.00    -0.248 NA
ATOM     65  C   UNL A   1      41.166  32.204  34.098  1.00  0.00     0.031 C 
ATOM     66  C   UNL A   1      39.799  34.405  29.019  1.00  0.00     0.029 A 
ATOM     67  C   UNL A   1      40.216  34.283  30.348  1.00  0.00     0.049 A 
ATOM     68  H   UNL A   1      39.012  34.881  31.980  1.00  0.00     0.167 HD
ATOM     69  C   UNL A   1      41.667  33.459  32.202  1.00  0.00     0.074 A 
ATOM     70  C   UNL A   1      40.682  33.096  33.225  1.00  0.00     0.031 C 
ATOM     71  C   UNL A   1      41.506  33.957  30.937  1.00  0.00     0.034 A 
BRANCH  58  72
ATOM     72  C   UNL A   1      36.082  33.706  31.993  1.00  0.00     0.023 A 
ATOM     73  C   UNL A   1      34.872  34.307  31.603  1.00  0.00     0.031 A 
ATOM     74  C   UNL A   1      36.423  33.845  33.359  1.00  0.00     0.131 A 
ATOM     75  C   UNL A   1      34.123  35.074  32.508  1.00  0.00     0.055 A 
ATOM     76  C   UNL A   1      35.638  34.550  34.273  1.00  0.00     0.041 A 
ATOM     77  F   UNL A   1      37.574  33.396  33.875  1.00  0.00    -0.206 F 
ATOM     78  C   UNL A   1      34.496  35.199  33.843  1.00  0.00     0.022 A 
BRANCH  75  79
ATOM     79  S   UNL A   1      32.748  36.055  31.862  1.00  0.00     0.124 S 
ATOM     80  O   UNL A   1      32.973  35.972  30.423  1.00  0.00    -0.237 OA
ATOM     81  O   UNL A   1      31.593  35.328  32.377  1.00  0.00    -0.237 OA
ATOM     82  O   UNL A   1      32.968  37.374  32.451  1.00  0.00    -0.744 OA
ENDBRANCH  75  79
ENDBRANCH  58  72
BRANCH  59  83
ATOM     83  C   UNL A   1      43.421  29.810  34.754  1.00  0.00     0.023 A 
ATOM     84  C   UNL A   1      42.711  28.721  35.309  1.00  0.00     0.031 A 
ATOM     85  C   UNL A   1      44.701  30.061  35.309  1.00  0.00     0.131 A 
ATOM     86  C   UNL A   1      43.276  27.960  36.370  1.00  0.00     0.055 A 
ATOM     87  C   UNL A   1      45.247  29.316  36.356  1.00  0.00     0.041 A 
ATOM     88  F   UNL A   1      45.517  30.994  34.795  1.00  0.00    -0.206 F 
ATOM     89  C   UNL A   1      44.538  28.255  36.887  1.00  0.00     0.022 A 
BRANCH  86  90
ATOM     90  S   UNL A   1      42.411  26.502  37.049  1.00  0.00     0.124 S 
ATOM     91  O   UNL A   1      41.039  26.984  37.169  1.00  0.00    -0.237 OA
ATOM     92  O   UNL A   1      42.655  25.486  36.030  1.00  0.00    -0.237 OA
ATOM     93  O   UNL A   1      43.091  26.263  38.323  1.00  0.00    -0.744 OA
ENDBRANCH  86  90
ENDBRANCH  59  83
BRANCH  71  94
ATOM     94  C   UNL A   1      42.704  33.970  29.998  1.00  0.00     0.023 A 
ATOM     95  C   UNL A   1      43.108  32.884  29.183  1.00  0.00     0.031 A 
ATOM     96  C   UNL A   1      43.367  35.196  29.809  1.00  0.00     0.131 A 
ATOM     97  C   UNL A   1      44.140  33.051  28.234  1.00  0.00     0.055 A 
ATOM     98  C   UNL A   1      44.367  35.365  28.852  1.00  0.00     0.041 A 
ATOM     99  F   UNL A   1      43.015  36.276  30.527  1.00  0.00    -0.206 F 
ATOM    100  C   UNL A   1      44.762  34.291  28.063  1.00  0.00     0.022 A 
BRANCH  97 101
ATOM    101  S   UNL A   1      44.707  31.650  27.212  1.00  0.00     0.124 S 
ATOM    102  O   UNL A   1      45.002  32.268  25.925  1.00  0.00    -0.237 OA
ATOM    103  O   UNL A   1      45.856  31.154  27.965  1.00  0.00    -0.237 OA
ATOM    104  O   UNL A   1      43.554  30.748  27.203  1.00  0.00    -0.744 OA
ENDBRANCH  97 101
ENDBRANCH  71  94
ENDBRANCH  45  46
ENDBRANCH  38  40
ENDBRANCH  37  38
ENDBRANCH   1  37
TORSDOF 18
ENDMDL
