MODEL 1
REMARK VINA RESULT:     -12.8      0.000      0.000
REMARK SMILES CN(C(=O)C[C@H]1SC(=O)N(c2cccc(O)c2)C1=O)c1ccccc1C(=O)OCCOC(=O)c1ccc(-c2c3nc(c(-c4cc(S(=O)(=O)[O-])ccc4F)c4ccc([nH]4)c(-c4cc(S(=O)(=O)[O-])ccc4F)c4nc(c(-c5cc(S(=O)(=O)[O-])ccc5F)c5ccc2[nH]5)C=C4)C=C3)cc1
REMARK SMILES IDX 28 1 26 2 27 3 25 4 20 5 21 6 22 7 24 8 23 9 2 10 1 11 3 12
REMARK SMILES IDX 4 13 5 14 6 15 7 16 18 17 8 18 10 19 19 20 9 21 11 22 12 23
REMARK SMILES IDX 17 24 13 25 15 26 14 27 16 28 29 30 30 31 31 32 32 33 33 34
REMARK SMILES IDX 34 35 35 36 96 37 36 38 95 39 37 40 38 41 39 42 89 43 40 44
REMARK SMILES IDX 94 45 88 46 90 47 41 48 93 49 87 50 86 51 42 53 74 54 54 55
REMARK SMILES IDX 73 56 55 57 58 58 72 59 91 60 56 61 57 62 71 64 92 65 59 66
REMARK SMILES IDX 43 67 44 68 52 69 45 70 51 71 53 72 50 73 46 74 47 75 48 76
REMARK SMILES IDX 49 77 75 78 76 79 84 80 77 81 83 82 85 83 82 84 78 85 79 86
REMARK SMILES IDX 80 87 81 88 60 89 61 90 69 91 62 92 68 93 70 94 67 95 63 96
REMARK SMILES IDX 64 97 65 98 66 99
REMARK H PARENT 16 29 90 52 58 63
REMARK Flexibility Score: inf
ROOT
ATOM      1  O   UNL A   1      34.627  21.429  26.790  1.00  0.00    -0.458 OA
ENDROOT
BRANCH   1   2
ATOM      2  C   UNL A   1      33.334  21.571  26.404  1.00  0.00     0.340 C 
ATOM      3  O   UNL A   1      32.528  22.363  26.865  1.00  0.00    -0.246 OA
BRANCH   2   4
ATOM      4  C   UNL A   1      33.013  20.693  25.252  1.00  0.00     0.083 A 
ATOM      5  C   UNL A   1      32.729  21.156  23.953  1.00  0.00     0.058 A 
ATOM      6  C   UNL A   1      32.367  20.205  22.979  1.00  0.00     0.027 A 
ATOM      7  C   UNL A   1      32.301  18.841  23.279  1.00  0.00     0.002 A 
ATOM      8  C   UNL A   1      32.976  19.315  25.535  1.00  0.00     0.018 A 
ATOM      9  C   UNL A   1      32.607  18.395  24.557  1.00  0.00     0.001 A 
BRANCH   5  10
ATOM     10  N   UNL A   1      32.904  22.523  23.539  1.00  0.00    -0.315 N 
ATOM     11  C   UNL A   1      34.224  22.839  22.987  1.00  0.00     0.153 C 
BRANCH  10  12
ATOM     12  C   UNL A   1      31.818  23.400  23.589  1.00  0.00     0.228 C 
ATOM     13  O   UNL A   1      30.788  23.187  24.234  1.00  0.00    -0.274 OA
BRANCH  12  14
ATOM     14  C   UNL A   1      31.927  24.751  22.902  1.00  0.00     0.125 C 
BRANCH  14  15
ATOM     15  C   UNL A   1      32.021  25.864  23.946  1.00  0.00     0.156 C 
ATOM     16  S   UNL A   1      33.274  27.077  23.473  1.00  0.00    -0.050 SA
ATOM     17  C   UNL A   1      30.730  26.660  24.024  1.00  0.00     0.248 C 
ATOM     18  C   UNL A   1      32.094  28.224  22.913  1.00  0.00     0.293 C 
ATOM     19  N   UNL A   1      30.855  27.899  23.408  1.00  0.00    -0.240 N 
ATOM     20  O   UNL A   1      29.699  26.188  24.494  1.00  0.00    -0.273 OA
ATOM     21  O   UNL A   1      32.430  29.173  22.223  1.00  0.00    -0.261 OA
BRANCH  19  22
ATOM     22  C   UNL A   1      29.787  28.831  23.335  1.00  0.00     0.056 A 
ATOM     23  C   UNL A   1      29.974  30.167  23.720  1.00  0.00     0.027 A 
ATOM     24  C   UNL A   1      28.500  28.401  22.985  1.00  0.00     0.073 A 
ATOM     25  C   UNL A   1      28.897  31.055  23.764  1.00  0.00     0.006 A 
ATOM     26  C   UNL A   1      27.426  29.281  23.088  1.00  0.00     0.117 A 
ATOM     27  C   UNL A   1      27.614  30.606  23.465  1.00  0.00     0.046 A 
BRANCH  26  28
ATOM     28  O   UNL A   1      26.178  28.787  22.846  1.00  0.00    -0.508 OA
ATOM     29  H   UNL A   1      25.781  28.907  22.006  1.00  0.00     0.293 HD
ENDBRANCH  26  28
ENDBRANCH  19  22
ENDBRANCH  14  15
ENDBRANCH  12  14
ENDBRANCH  10  12
ENDBRANCH   5  10
ENDBRANCH   2   4
ENDBRANCH   1   2
BRANCH   1  30
ATOM     30  C   UNL A   1      35.602  22.146  25.999  1.00  0.00     0.275 C 
BRANCH  30  31
ATOM     31  C   UNL A   1      36.638  21.174  25.424  1.00  0.00     0.275 C 
BRANCH  31  32
ATOM     32  O   UNL A   1      37.866  21.892  25.213  1.00  0.00    -0.458 OA
BRANCH  32  33
ATOM     33  C   UNL A   1      38.908  21.457  25.956  1.00  0.00     0.338 C 
ATOM     34  O   UNL A   1      39.398  20.343  25.974  1.00  0.00    -0.246 OA
BRANCH  33  35
ATOM     35  C   UNL A   1      39.518  22.632  26.587  1.00  0.00     0.060 A 
ATOM     36  C   UNL A   1      39.067  23.883  26.169  1.00  0.00     0.016 A 
ATOM     37  C   UNL A   1      40.543  22.520  27.521  1.00  0.00     0.016 A 
ATOM     38  C   UNL A   1      39.678  25.042  26.632  1.00  0.00     0.010 A 
ATOM     39  C   UNL A   1      41.123  23.688  28.027  1.00  0.00     0.010 A 
ATOM     40  C   UNL A   1      40.715  24.958  27.568  1.00  0.00    -0.014 A 
BRANCH  40  41
ATOM     41  C   UNL A   1      41.433  26.183  28.013  1.00  0.00     0.031 A 
ATOM     42  C   UNL A   1      40.685  27.223  28.802  1.00  0.00     0.074 A 
ATOM     43  C   UNL A   1      42.736  26.367  27.722  1.00  0.00     0.049 A 
ATOM     44  N   UNL A   1      41.015  28.457  29.078  1.00  0.00    -0.248 NA
ATOM     45  C   UNL A   1      39.373  26.818  29.332  1.00  0.00     0.031 C 
ATOM     46  C   UNL A   1      43.597  25.402  27.038  1.00  0.00     0.029 A 
ATOM     47  N   UNL A   1      43.563  27.438  27.957  1.00  0.00    -0.354 N 
ATOM     48  C   UNL A   1      39.929  28.997  29.760  1.00  0.00     0.074 A 
ATOM     49  C   UNL A   1      38.927  27.955  29.846  1.00  0.00     0.031 C 
ATOM     50  C   UNL A   1      44.830  25.918  26.918  1.00  0.00     0.029 A 
ATOM     51  C   UNL A   1      44.824  27.286  27.426  1.00  0.00     0.049 A 
ATOM     52  H   UNL A   1      43.281  28.238  28.457  1.00  0.00     0.167 HD
ATOM     53  C   UNL A   1      39.785  30.251  30.259  1.00  0.00     0.034 A 
ATOM     54  C   UNL A   1      45.839  28.166  27.305  1.00  0.00     0.034 A 
ATOM     55  C   UNL A   1      40.819  31.256  30.192  1.00  0.00     0.049 A 
ATOM     56  C   UNL A   1      45.637  29.572  27.808  1.00  0.00     0.074 A 
ATOM     57  C   UNL A   1      40.794  32.555  30.668  1.00  0.00     0.029 A 
ATOM     58  N   UNL A   1      42.071  31.070  29.617  1.00  0.00    -0.354 N 
ATOM     59  N   UNL A   1      44.579  30.100  28.382  1.00  0.00    -0.248 NA
ATOM     60  C   UNL A   1      46.757  30.505  27.634  1.00  0.00     0.031 C 
ATOM     61  C   UNL A   1      42.002  33.172  30.326  1.00  0.00     0.029 A 
ATOM     62  C   UNL A   1      42.814  32.236  29.705  1.00  0.00     0.049 A 
ATOM     63  H   UNL A   1      42.384  30.232  29.207  1.00  0.00     0.167 HD
ATOM     64  C   UNL A   1      44.918  31.422  28.658  1.00  0.00     0.074 A 
ATOM     65  C   UNL A   1      46.281  31.605  28.200  1.00  0.00     0.031 C 
ATOM     66  C   UNL A   1      44.171  32.398  29.236  1.00  0.00     0.034 A 
BRANCH  53  67
ATOM     67  C   UNL A   1      38.444  30.617  30.850  1.00  0.00     0.023 A 
ATOM     68  C   UNL A   1      37.436  31.243  30.097  1.00  0.00     0.031 A 
ATOM     69  C   UNL A   1      38.185  30.366  32.211  1.00  0.00     0.131 A 
ATOM     70  C   UNL A   1      36.252  31.665  30.725  1.00  0.00     0.055 A 
ATOM     71  C   UNL A   1      36.974  30.713  32.810  1.00  0.00     0.041 A 
ATOM     72  F   UNL A   1      39.117  29.791  32.989  1.00  0.00    -0.206 F 
ATOM     73  C   UNL A   1      36.004  31.381  32.070  1.00  0.00     0.022 A 
BRANCH  70  74
ATOM     74  S   UNL A   1      35.105  32.718  29.796  1.00  0.00     0.124 S 
ATOM     75  O   UNL A   1      34.553  31.772  28.829  1.00  0.00    -0.237 OA
ATOM     76  O   UNL A   1      34.188  33.178  30.833  1.00  0.00    -0.237 OA
ATOM     77  O   UNL A   1      35.970  33.748  29.225  1.00  0.00    -0.744 OA
ENDBRANCH  70  74
ENDBRANCH  53  67
BRANCH  54  78
ATOM     78  C   UNL A   1      47.101  27.773  26.613  1.00  0.00     0.023 A 
ATOM     79  C   UNL A   1      47.240  27.905  25.223  1.00  0.00     0.031 A 
ATOM     80  C   UNL A   1      48.180  27.223  27.332  1.00  0.00     0.131 A 
ATOM     81  C   UNL A   1      48.415  27.465  24.592  1.00  0.00     0.055 A 
ATOM     82  C   UNL A   1      49.368  26.841  26.708  1.00  0.00     0.041 A 
ATOM     83  F   UNL A   1      48.100  27.066  28.663  1.00  0.00    -0.206 F 
ATOM     84  C   UNL A   1      49.486  26.950  25.327  1.00  0.00     0.022 A 
BRANCH  81  85
ATOM     85  S   UNL A   1      48.494  27.499  22.780  1.00  0.00     0.124 S 
ATOM     86  O   UNL A   1      48.450  26.079  22.454  1.00  0.00    -0.237 OA
ATOM     87  O   UNL A   1      47.304  28.274  22.440  1.00  0.00    -0.237 OA
ATOM     88  O   UNL A   1      49.767  28.163  22.507  1.00  0.00    -0.744 OA
ENDBRANCH  81  85
ENDBRANCH  54  78
BRANCH  66  89
ATOM     89  C   UNL A   1      44.843  33.730  29.455  1.00  0.00     0.023 A 
ATOM     90  C   UNL A   1      44.701  34.790  28.542  1.00  0.00     0.031 A 
ATOM     91  C   UNL A   1      45.640  33.936  30.594  1.00  0.00     0.131 A 
ATOM     92  C   UNL A   1      45.390  35.992  28.760  1.00  0.00     0.055 A 
ATOM     93  C   UNL A   1      46.276  35.154  30.834  1.00  0.00     0.041 A 
ATOM     94  F   UNL A   1      45.810  32.956  31.496  1.00  0.00    -0.206 F 
ATOM     95  C   UNL A   1      46.162  36.187  29.908  1.00  0.00     0.022 A 
BRANCH  92  96
ATOM     96  S   UNL A   1      45.329  37.276  27.479  1.00  0.00     0.124 S 
ATOM     97  O   UNL A   1      43.976  37.117  26.956  1.00  0.00    -0.237 OA
ATOM     98  O   UNL A   1      45.579  38.493  28.244  1.00  0.00    -0.237 OA
ATOM     99  O   UNL A   1      46.398  36.893  26.559  1.00  0.00    -0.744 OA
ENDBRANCH  92  96
ENDBRANCH  66  89
ENDBRANCH  40  41
ENDBRANCH  33  35
ENDBRANCH  32  33
ENDBRANCH  31  32
ENDBRANCH  30  31
ENDBRANCH   1  30
TORSDOF 20
ENDMDL
MODEL 2
REMARK VINA RESULT:     -12.6      1.672      2.221
REMARK SMILES CN(C(=O)C[C@H]1SC(=O)N(c2cccc(O)c2)C1=O)c1ccccc1C(=O)OCCOC(=O)c1ccc(-c2c3nc(c(-c4cc(S(=O)(=O)[O-])ccc4F)c4ccc([nH]4)c(-c4cc(S(=O)(=O)[O-])ccc4F)c4nc(c(-c5cc(S(=O)(=O)[O-])ccc5F)c5ccc2[nH]5)C=C4)C=C3)cc1
REMARK SMILES IDX 28 1 26 2 27 3 25 4 20 5 21 6 22 7 24 8 23 9 2 10 1 11 3 12
REMARK SMILES IDX 4 13 5 14 6 15 7 16 18 17 8 18 10 19 19 20 9 21 11 22 12 23
REMARK SMILES IDX 17 24 13 25 15 26 14 27 16 28 29 30 30 31 31 32 32 33 33 34
REMARK SMILES IDX 34 35 35 36 96 37 36 38 95 39 37 40 38 41 39 42 89 43 40 44
REMARK SMILES IDX 94 45 88 46 90 47 41 48 93 49 87 50 86 51 42 53 74 54 54 55
REMARK SMILES IDX 73 56 55 57 58 58 72 59 91 60 56 61 57 62 71 64 92 65 59 66
REMARK SMILES IDX 43 67 44 68 52 69 45 70 51 71 53 72 50 73 46 74 47 75 48 76
REMARK SMILES IDX 49 77 75 78 76 79 84 80 77 81 83 82 85 83 82 84 78 85 79 86
REMARK SMILES IDX 80 87 81 88 60 89 61 90 69 91 62 92 68 93 70 94 67 95 63 96
REMARK SMILES IDX 64 97 65 98 66 99
REMARK H PARENT 16 29 90 52 58 63
REMARK Flexibility Score: inf
ROOT
ATOM      1  O   UNL A   1      35.465  21.933  24.163  1.00  0.00    -0.458 OA
ENDROOT
BRANCH   1   2
ATOM      2  C   UNL A   1      34.947  21.212  25.189  1.00  0.00     0.340 C 
ATOM      3  O   UNL A   1      34.971  21.522  26.370  1.00  0.00    -0.246 OA
BRANCH   2   4
ATOM      4  C   UNL A   1      34.236  20.007  24.700  1.00  0.00     0.083 A 
ATOM      5  C   UNL A   1      32.870  19.971  24.357  1.00  0.00     0.058 A 
ATOM      6  C   UNL A   1      32.316  18.733  23.980  1.00  0.00     0.027 A 
ATOM      7  C   UNL A   1      33.093  17.570  23.932  1.00  0.00     0.002 A 
ATOM      8  C   UNL A   1      35.015  18.838  24.616  1.00  0.00     0.018 A 
ATOM      9  C   UNL A   1      34.443  17.623  24.249  1.00  0.00     0.001 A 
BRANCH   5  10
ATOM     10  N   UNL A   1      32.045  21.145  24.256  1.00  0.00    -0.315 N 
ATOM     11  C   UNL A   1      31.394  21.556  25.504  1.00  0.00     0.153 C 
BRANCH  10  12
ATOM     12  C   UNL A   1      32.001  21.853  23.053  1.00  0.00     0.228 C 
ATOM     13  O   UNL A   1      32.198  21.344  21.945  1.00  0.00    -0.274 OA
BRANCH  12  14
ATOM     14  C   UNL A   1      31.585  23.315  23.068  1.00  0.00     0.125 C 
BRANCH  14  15
ATOM     15  C   UNL A   1      32.822  24.212  23.059  1.00  0.00     0.156 C 
ATOM     16  S   UNL A   1      32.630  25.548  21.857  1.00  0.00    -0.050 SA
ATOM     17  C   UNL A   1      33.002  24.920  24.390  1.00  0.00     0.248 C 
ATOM     18  C   UNL A   1      32.255  26.726  23.080  1.00  0.00     0.293 C 
ATOM     19  N   UNL A   1      32.636  26.258  24.312  1.00  0.00    -0.240 N 
ATOM     20  O   UNL A   1      33.339  24.321  25.407  1.00  0.00    -0.273 OA
ATOM     21  O   UNL A   1      31.767  27.803  22.774  1.00  0.00    -0.261 OA
BRANCH  19  22
ATOM     22  C   UNL A   1      32.701  27.137  25.425  1.00  0.00     0.056 A 
ATOM     23  C   UNL A   1      31.613  27.264  26.301  1.00  0.00     0.027 A 
ATOM     24  C   UNL A   1      33.811  27.974  25.598  1.00  0.00     0.073 A 
ATOM     25  C   UNL A   1      31.627  28.215  27.325  1.00  0.00     0.006 A 
ATOM     26  C   UNL A   1      33.789  28.955  26.585  1.00  0.00     0.117 A 
ATOM     27  C   UNL A   1      32.712  29.077  27.456  1.00  0.00     0.046 A 
BRANCH  26  28
ATOM     28  O   UNL A   1      34.843  29.820  26.642  1.00  0.00    -0.508 OA
ATOM     29  H   UNL A   1      35.587  29.688  26.090  1.00  0.00     0.293 HD
ENDBRANCH  26  28
ENDBRANCH  19  22
ENDBRANCH  14  15
ENDBRANCH  12  14
ENDBRANCH  10  12
ENDBRANCH   5  10
ENDBRANCH   2   4
ENDBRANCH   1   2
BRANCH   1  30
ATOM     30  C   UNL A   1      36.776  22.500  24.389  1.00  0.00     0.275 C 
BRANCH  30  31
ATOM     31  C   UNL A   1      37.750  21.415  24.858  1.00  0.00     0.275 C 
BRANCH  31  32
ATOM     32  O   UNL A   1      38.201  21.750  26.182  1.00  0.00    -0.458 OA
BRANCH  32  33
ATOM     33  C   UNL A   1      39.523  21.563  26.392  1.00  0.00     0.338 C 
ATOM     34  O   UNL A   1      40.216  20.641  26.002  1.00  0.00    -0.246 OA
BRANCH  33  35
ATOM     35  C   UNL A   1      40.052  22.795  26.986  1.00  0.00     0.060 A 
ATOM     36  C   UNL A   1      39.540  24.001  26.509  1.00  0.00     0.016 A 
ATOM     37  C   UNL A   1      41.062  22.778  27.943  1.00  0.00     0.016 A 
ATOM     38  C   UNL A   1      40.075  25.210  26.936  1.00  0.00     0.010 A 
ATOM     39  C   UNL A   1      41.564  23.997  28.412  1.00  0.00     0.010 A 
ATOM     40  C   UNL A   1      41.095  25.223  27.894  1.00  0.00    -0.014 A 
BRANCH  40  41
ATOM     41  C   UNL A   1      41.734  26.503  28.303  1.00  0.00     0.031 A 
ATOM     42  C   UNL A   1      40.917  27.521  29.053  1.00  0.00     0.074 A 
ATOM     43  C   UNL A   1      43.025  26.758  28.012  1.00  0.00     0.049 A 
ATOM     44  N   UNL A   1      41.169  28.781  29.289  1.00  0.00    -0.248 NA
ATOM     45  C   UNL A   1      39.629  27.053  29.588  1.00  0.00     0.031 C 
ATOM     46  C   UNL A   1      43.949  25.825  27.366  1.00  0.00     0.029 A 
ATOM     47  N   UNL A   1      43.782  27.885  28.217  1.00  0.00    -0.354 N 
ATOM     48  C   UNL A   1      40.046  29.275  29.947  1.00  0.00     0.074 A 
ATOM     49  C   UNL A   1      39.110  28.176  30.062  1.00  0.00     0.031 C 
ATOM     50  C   UNL A   1      45.148  26.412  27.235  1.00  0.00     0.029 A 
ATOM     51  C   UNL A   1      45.055  27.793  27.698  1.00  0.00     0.049 A 
ATOM     52  H   UNL A   1      43.449  28.682  28.688  1.00  0.00     0.167 HD
ATOM     53  C   UNL A   1      39.822  30.533  30.404  1.00  0.00     0.034 A 
ATOM     54  C   UNL A   1      46.014  28.729  27.554  1.00  0.00     0.034 A 
ATOM     55  C   UNL A   1      40.793  31.597  30.309  1.00  0.00     0.049 A 
ATOM     56  C   UNL A   1      45.722  30.136  28.009  1.00  0.00     0.074 A 
ATOM     57  C   UNL A   1      40.685  32.907  30.742  1.00  0.00     0.029 A 
ATOM     58  N   UNL A   1      42.059  31.470  29.747  1.00  0.00    -0.354 N 
ATOM     59  N   UNL A   1      44.631  30.616  28.559  1.00  0.00    -0.248 NA
ATOM     60  C   UNL A   1      46.785  31.130  27.810  1.00  0.00     0.031 C 
ATOM     61  C   UNL A   1      41.855  33.586  30.387  1.00  0.00     0.029 A 
ATOM     62  C   UNL A   1      42.728  32.682  29.801  1.00  0.00     0.049 A 
ATOM     63  H   UNL A   1      42.426  30.639  29.367  1.00  0.00     0.167 HD
ATOM     64  C   UNL A   1      44.885  31.965  28.793  1.00  0.00     0.074 A 
ATOM     65  C   UNL A   1      46.238  32.216  28.337  1.00  0.00     0.031 C 
ATOM     66  C   UNL A   1      44.076  32.911  29.335  1.00  0.00     0.034 A 
BRANCH  53  67
ATOM     67  C   UNL A   1      38.457  30.835  30.975  1.00  0.00     0.023 A 
ATOM     68  C   UNL A   1      37.428  31.403  30.205  1.00  0.00     0.031 A 
ATOM     69  C   UNL A   1      38.194  30.582  32.335  1.00  0.00     0.131 A 
ATOM     70  C   UNL A   1      36.216  31.769  30.814  1.00  0.00     0.055 A 
ATOM     71  C   UNL A   1      36.959  30.871  32.916  1.00  0.00     0.041 A 
ATOM     72  F   UNL A   1      39.144  30.062  33.129  1.00  0.00    -0.206 F 
ATOM     73  C   UNL A   1      35.966  31.484  32.158  1.00  0.00     0.022 A 
BRANCH  70  74
ATOM     74  S   UNL A   1      35.029  32.755  29.862  1.00  0.00     0.124 S 
ATOM     75  O   UNL A   1      35.898  33.763  29.261  1.00  0.00    -0.237 OA
ATOM     76  O   UNL A   1      34.465  31.771  28.945  1.00  0.00    -0.237 OA
ATOM     77  O   UNL A   1      34.109  33.260  30.879  1.00  0.00    -0.744 OA
ENDBRANCH  70  74
ENDBRANCH  53  67
BRANCH  54  78
ATOM     78  C   UNL A   1      47.303  28.392  26.881  1.00  0.00     0.023 A 
ATOM     79  C   UNL A   1      47.378  28.236  25.489  1.00  0.00     0.031 A 
ATOM     80  C   UNL A   1      48.478  28.186  27.630  1.00  0.00     0.131 A 
ATOM     81  C   UNL A   1      48.592  27.854  24.892  1.00  0.00     0.055 A 
ATOM     82  C   UNL A   1      49.694  27.863  27.027  1.00  0.00     0.041 A 
ATOM     83  F   UNL A   1      48.463  28.315  28.967  1.00  0.00    -0.206 F 
ATOM     84  C   UNL A   1      49.753  27.683  25.650  1.00  0.00     0.022 A 
BRANCH  81  85
ATOM     85  S   UNL A   1      48.612  27.500  23.113  1.00  0.00     0.124 S 
ATOM     86  O   UNL A   1      49.853  28.141  22.696  1.00  0.00    -0.237 OA
ATOM     87  O   UNL A   1      48.604  26.040  23.094  1.00  0.00    -0.237 OA
ATOM     88  O   UNL A   1      47.388  28.134  22.626  1.00  0.00    -0.744 OA
ENDBRANCH  81  85
ENDBRANCH  54  78
BRANCH  66  89
ATOM     89  C   UNL A   1      44.663  34.288  29.513  1.00  0.00     0.023 A 
ATOM     90  C   UNL A   1      44.336  35.350  28.651  1.00  0.00     0.031 A 
ATOM     91  C   UNL A   1      45.567  34.537  30.561  1.00  0.00     0.131 A 
ATOM     92  C   UNL A   1      44.951  36.600  28.823  1.00  0.00     0.055 A 
ATOM     93  C   UNL A   1      46.130  35.797  30.761  1.00  0.00     0.041 A 
ATOM     94  F   UNL A   1      45.914  33.556  31.410  1.00  0.00    -0.206 F 
ATOM     95  C   UNL A   1      45.831  36.835  29.883  1.00  0.00     0.022 A 
BRANCH  92  96
ATOM     96  S   UNL A   1      44.644  37.898  27.594  1.00  0.00     0.124 S 
ATOM     97  O   UNL A   1      43.813  37.200  26.618  1.00  0.00    -0.237 OA
ATOM     98  O   UNL A   1      43.975  38.926  28.384  1.00  0.00    -0.237 OA
ATOM     99  O   UNL A   1      45.984  38.251  27.127  1.00  0.00    -0.744 OA
ENDBRANCH  92  96
ENDBRANCH  66  89
ENDBRANCH  40  41
ENDBRANCH  33  35
ENDBRANCH  32  33
ENDBRANCH  31  32
ENDBRANCH  30  31
ENDBRANCH   1  30
TORSDOF 20
ENDMDL
MODEL 3
REMARK VINA RESULT:     -12.6      4.876     10.354
REMARK SMILES CN(C(=O)C[C@H]1SC(=O)N(c2cccc(O)c2)C1=O)c1ccccc1C(=O)OCCOC(=O)c1ccc(-c2c3nc(c(-c4cc(S(=O)(=O)[O-])ccc4F)c4ccc([nH]4)c(-c4cc(S(=O)(=O)[O-])ccc4F)c4nc(c(-c5cc(S(=O)(=O)[O-])ccc5F)c5ccc2[nH]5)C=C4)C=C3)cc1
REMARK SMILES IDX 28 1 26 2 27 3 25 4 20 5 21 6 22 7 24 8 23 9 2 10 1 11 3 12
REMARK SMILES IDX 4 13 5 14 6 15 7 16 18 17 8 18 10 19 19 20 9 21 11 22 12 23
REMARK SMILES IDX 17 24 13 25 15 26 14 27 16 28 29 30 30 31 31 32 32 33 33 34
REMARK SMILES IDX 34 35 35 36 96 37 36 38 95 39 37 40 38 41 39 42 89 43 40 44
REMARK SMILES IDX 94 45 88 46 90 47 41 48 93 49 87 50 86 51 42 53 74 54 54 55
REMARK SMILES IDX 73 56 55 57 58 58 72 59 91 60 56 61 57 62 71 64 92 65 59 66
REMARK SMILES IDX 43 67 44 68 52 69 45 70 51 71 53 72 50 73 46 74 47 75 48 76
REMARK SMILES IDX 49 77 75 78 76 79 84 80 77 81 83 82 85 83 82 84 78 85 79 86
REMARK SMILES IDX 80 87 81 88 60 89 61 90 69 91 62 92 68 93 70 94 67 95 63 96
REMARK SMILES IDX 64 97 65 98 66 99
REMARK H PARENT 16 29 90 52 58 63
REMARK Flexibility Score: inf
ROOT
ATOM      1  O   UNL A   1      32.351  28.041  24.427  1.00  0.00    -0.458 OA
ENDROOT
BRANCH   1   2
ATOM      2  C   UNL A   1      31.748  28.284  23.236  1.00  0.00     0.340 C 
ATOM      3  O   UNL A   1      32.311  28.524  22.180  1.00  0.00    -0.246 OA
BRANCH   2   4
ATOM      4  C   UNL A   1      30.276  28.127  23.333  1.00  0.00     0.083 A 
ATOM      5  C   UNL A   1      29.629  27.003  23.880  1.00  0.00     0.058 A 
ATOM      6  C   UNL A   1      28.222  26.964  23.833  1.00  0.00     0.027 A 
ATOM      7  C   UNL A   1      27.480  28.010  23.273  1.00  0.00     0.002 A 
ATOM      8  C   UNL A   1      29.520  29.189  22.802  1.00  0.00     0.018 A 
ATOM      9  C   UNL A   1      28.129  29.124  22.759  1.00  0.00     0.001 A 
BRANCH   5  10
ATOM     10  N   UNL A   1      30.316  25.956  24.587  1.00  0.00    -0.315 N 
ATOM     11  C   UNL A   1      30.390  26.134  26.041  1.00  0.00     0.153 C 
BRANCH  10  12
ATOM     12  C   UNL A   1      30.758  24.829  23.889  1.00  0.00     0.228 C 
ATOM     13  O   UNL A   1      30.957  24.807  22.671  1.00  0.00    -0.274 OA
BRANCH  12  14
ATOM     14  C   UNL A   1      31.124  23.575  24.664  1.00  0.00     0.125 C 
BRANCH  14  15
ATOM     15  C   UNL A   1      32.622  23.299  24.539  1.00  0.00     0.156 C 
ATOM     16  S   UNL A   1      33.437  23.474  26.143  1.00  0.00    -0.050 SA
ATOM     17  C   UNL A   1      32.888  21.861  24.132  1.00  0.00     0.248 C 
ATOM     18  C   UNL A   1      33.530  21.756  26.393  1.00  0.00     0.293 C 
ATOM     19  N   UNL A   1      33.336  21.099  25.204  1.00  0.00    -0.240 N 
ATOM     20  O   UNL A   1      32.630  21.443  23.007  1.00  0.00    -0.273 OA
ATOM     21  O   UNL A   1      33.783  21.304  27.498  1.00  0.00    -0.261 OA
BRANCH  19  22
ATOM     22  C   UNL A   1      33.646  19.719  25.088  1.00  0.00     0.056 A 
ATOM     23  C   UNL A   1      34.934  19.303  24.716  1.00  0.00     0.027 A 
ATOM     24  C   UNL A   1      32.640  18.756  25.233  1.00  0.00     0.073 A 
ATOM     25  C   UNL A   1      35.209  17.954  24.483  1.00  0.00     0.006 A 
ATOM     26  C   UNL A   1      32.913  17.422  24.943  1.00  0.00     0.117 A 
ATOM     27  C   UNL A   1      34.190  17.011  24.579  1.00  0.00     0.046 A 
BRANCH  26  28
ATOM     28  O   UNL A   1      31.875  16.538  24.989  1.00  0.00    -0.508 OA
ATOM     29  H   UNL A   1      31.358  16.383  24.224  1.00  0.00     0.293 HD
ENDBRANCH  26  28
ENDBRANCH  19  22
ENDBRANCH  14  15
ENDBRANCH  12  14
ENDBRANCH  10  12
ENDBRANCH   5  10
ENDBRANCH   2   4
ENDBRANCH   1   2
BRANCH   1  30
ATOM     30  C   UNL A   1      33.059  29.157  25.014  1.00  0.00     0.275 C 
BRANCH  30  31
ATOM     31  C   UNL A   1      32.072  30.118  25.684  1.00  0.00     0.275 C 
BRANCH  31  32
ATOM     32  O   UNL A   1      32.523  30.371  27.026  1.00  0.00    -0.458 OA
BRANCH  32  33
ATOM     33  C   UNL A   1      33.103  31.579  27.208  1.00  0.00     0.338 C 
ATOM     34  O   UNL A   1      32.584  32.676  27.119  1.00  0.00    -0.246 OA
BRANCH  33  35
ATOM     35  C   UNL A   1      34.437  31.345  27.769  1.00  0.00     0.060 A 
ATOM     36  C   UNL A   1      34.731  30.049  28.192  1.00  0.00     0.016 A 
ATOM     37  C   UNL A   1      35.361  32.373  27.930  1.00  0.00     0.016 A 
ATOM     38  C   UNL A   1      35.928  29.776  28.841  1.00  0.00     0.010 A 
ATOM     39  C   UNL A   1      36.588  32.086  28.537  1.00  0.00     0.010 A 
ATOM     40  C   UNL A   1      36.873  30.792  29.022  1.00  0.00    -0.014 A 
BRANCH  40  41
ATOM     41  C   UNL A   1      38.124  30.536  29.786  1.00  0.00     0.031 A 
ATOM     42  C   UNL A   1      39.174  29.637  29.189  1.00  0.00     0.074 A 
ATOM     43  C   UNL A   1      38.326  31.096  30.995  1.00  0.00     0.049 A 
ATOM     44  N   UNL A   1      40.209  29.075  29.754  1.00  0.00    -0.248 NA
ATOM     45  C   UNL A   1      39.017  29.314  27.762  1.00  0.00     0.031 C 
ATOM     46  C   UNL A   1      37.428  32.049  31.649  1.00  0.00     0.029 A 
ATOM     47  N   UNL A   1      39.350  30.937  31.895  1.00  0.00    -0.354 N 
ATOM     48  C   UNL A   1      40.794  28.282  28.771  1.00  0.00     0.074 A 
ATOM     49  C   UNL A   1      39.988  28.432  27.577  1.00  0.00     0.031 C 
ATOM     50  C   UNL A   1      37.944  32.397  32.837  1.00  0.00     0.029 A 
ATOM     51  C   UNL A   1      39.157  31.620  33.075  1.00  0.00     0.049 A 
ATOM     52  H   UNL A   1      40.147  30.387  31.716  1.00  0.00     0.167 HD
ATOM     53  C   UNL A   1      41.897  27.498  28.866  1.00  0.00     0.034 A 
ATOM     54  C   UNL A   1      39.840  31.579  34.236  1.00  0.00     0.034 A 
ATOM     55  C   UNL A   1      42.702  27.401  30.061  1.00  0.00     0.049 A 
ATOM     56  C   UNL A   1      41.025  30.653  34.343  1.00  0.00     0.074 A 
ATOM     57  C   UNL A   1      43.843  26.649  30.275  1.00  0.00     0.029 A 
ATOM     58  N   UNL A   1      42.452  28.086  31.245  1.00  0.00    -0.354 N 
ATOM     59  N   UNL A   1      41.527  29.847  33.436  1.00  0.00    -0.248 NA
ATOM     60  C   UNL A   1      41.725  30.620  35.633  1.00  0.00     0.031 C 
ATOM     61  C   UNL A   1      44.246  26.830  31.603  1.00  0.00     0.029 A 
ATOM     62  C   UNL A   1      43.403  27.755  32.197  1.00  0.00     0.049 A 
ATOM     63  H   UNL A   1      41.708  28.715  31.386  1.00  0.00     0.167 HD
ATOM     64  C   UNL A   1      42.618  29.228  34.041  1.00  0.00     0.074 A 
ATOM     65  C   UNL A   1      42.707  29.765  35.383  1.00  0.00     0.031 C 
ATOM     66  C   UNL A   1      43.469  28.299  33.534  1.00  0.00     0.034 A 
BRANCH  53  67
ATOM     67  C   UNL A   1      42.247  26.638  27.675  1.00  0.00     0.023 A 
ATOM     68  C   UNL A   1      41.899  25.279  27.601  1.00  0.00     0.031 A 
ATOM     69  C   UNL A   1      42.979  27.187  26.605  1.00  0.00     0.131 A 
ATOM     70  C   UNL A   1      42.349  24.498  26.523  1.00  0.00     0.055 A 
ATOM     71  C   UNL A   1      43.352  26.425  25.497  1.00  0.00     0.041 A 
ATOM     72  F   UNL A   1      43.361  28.474  26.627  1.00  0.00    -0.206 F 
ATOM     73  C   UNL A   1      43.050  25.068  25.458  1.00  0.00     0.022 A 
BRANCH  70  74
ATOM     74  S   UNL A   1      42.130  22.699  26.603  1.00  0.00     0.124 S 
ATOM     75  O   UNL A   1      40.772  22.591  27.129  1.00  0.00    -0.237 OA
ATOM     76  O   UNL A   1      42.309  22.298  25.212  1.00  0.00    -0.237 OA
ATOM     77  O   UNL A   1      43.183  22.266  27.519  1.00  0.00    -0.744 OA
ENDBRANCH  70  74
ENDBRANCH  53  67
BRANCH  54  78
ATOM     78  C   UNL A   1      39.378  32.373  35.413  1.00  0.00     0.023 A 
ATOM     79  C   UNL A   1      39.792  33.699  35.603  1.00  0.00     0.031 A 
ATOM     80  C   UNL A   1      38.539  31.800  36.388  1.00  0.00     0.131 A 
ATOM     81  C   UNL A   1      39.393  34.399  36.755  1.00  0.00     0.055 A 
ATOM     82  C   UNL A   1      38.098  32.517  37.500  1.00  0.00     0.041 A 
ATOM     83  F   UNL A   1      38.116  30.532  36.261  1.00  0.00    -0.206 F 
ATOM     84  C   UNL A   1      38.536  33.823  37.695  1.00  0.00     0.022 A 
BRANCH  81  85
ATOM     85  S   UNL A   1      40.081  36.052  37.050  1.00  0.00     0.124 S 
ATOM     86  O   UNL A   1      39.252  36.526  38.150  1.00  0.00    -0.237 OA
ATOM     87  O   UNL A   1      41.471  35.747  37.377  1.00  0.00    -0.237 OA
ATOM     88  O   UNL A   1      39.879  36.737  35.775  1.00  0.00    -0.744 OA
ENDBRANCH  81  85
ENDBRANCH  54  78
BRANCH  66  89
ATOM     89  C   UNL A   1      44.602  27.856  34.424  1.00  0.00     0.023 A 
ATOM     90  C   UNL A   1      44.498  26.718  35.243  1.00  0.00     0.031 A 
ATOM     91  C   UNL A   1      45.801  28.589  34.454  1.00  0.00     0.131 A 
ATOM     92  C   UNL A   1      45.559  26.377  36.097  1.00  0.00     0.055 A 
ATOM     93  C   UNL A   1      46.873  28.211  35.261  1.00  0.00     0.041 A 
ATOM     94  F   UNL A   1      45.950  29.685  33.692  1.00  0.00    -0.206 F 
ATOM     95  C   UNL A   1      46.751  27.105  36.098  1.00  0.00     0.022 A 
BRANCH  92  96
ATOM     96  S   UNL A   1      45.329  25.009  37.267  1.00  0.00     0.124 S 
ATOM     97  O   UNL A   1      44.247  24.255  36.643  1.00  0.00    -0.237 OA
ATOM     98  O   UNL A   1      46.640  24.369  37.261  1.00  0.00    -0.237 OA
ATOM     99  O   UNL A   1      44.975  25.683  38.516  1.00  0.00    -0.744 OA
ENDBRANCH  92  96
ENDBRANCH  66  89
ENDBRANCH  40  41
ENDBRANCH  33  35
ENDBRANCH  32  33
ENDBRANCH  31  32
ENDBRANCH  30  31
ENDBRANCH   1  30
TORSDOF 20
ENDMDL
