MODEL 1
REMARK VINA RESULT:     -14.0      0.000      0.000
REMARK SMILES O=C(OCCOC(=O)c1nccnc1C(=O)Nc1ccc2c(c1)OCO2)c1ccc(-c2c3nc(c(-c4cc(S(=O)(=O)[O-])ccc4F)c4ccc([nH]4)c(-c4cc(S(=O)(=O)[O-])ccc4F)c4nc(c(-c5cc(S(=O)(=O)[O-])ccc5F)c5ccc2[nH]5)C=C4)C=C3)cc1
REMARK SMILES IDX 4 1 3 2 2 3 1 4 27 5 28 6 89 7 29 8 88 9 30 10 31 11 32 12
REMARK SMILES IDX 82 13 33 14 87 15 81 16 83 17 34 18 86 19 80 20 79 21 35 23
REMARK SMILES IDX 67 24 47 25 66 26 48 27 51 28 65 29 84 30 49 31 50 32 64 34
REMARK SMILES IDX 85 35 52 36 36 37 37 38 45 39 38 40 44 41 46 42 43 43 39 44
REMARK SMILES IDX 40 45 41 46 42 47 68 48 69 49 77 50 70 51 76 52 78 53 75 54
REMARK SMILES IDX 71 55 72 56 73 57 74 58 53 59 54 60 62 61 55 62 61 63 63 64
REMARK SMILES IDX 60 65 56 66 57 67 58 68 59 69 5 70 6 71 7 72 8 73 9 74 10 75
REMARK SMILES IDX 14 76 11 77 13 78 12 79 15 80 16 81 17 82 18 84 19 85 23 86
REMARK SMILES IDX 20 87 22 88 21 89 24 90 26 91 25 92
REMARK H PARENT 83 22 51 33 17 83
REMARK Flexibility Score: inf
ROOT
ATOM      1  C   UNL A   1      31.450  28.843  24.946  1.00  0.00     0.275 C 
ENDROOT
BRANCH   1   2
ATOM      2  O   UNL A   1      32.659  29.450  25.630  1.00  0.00    -0.458 OA
BRANCH   2   3
ATOM      3  C   UNL A   1      32.871  30.419  26.627  1.00  0.00     0.338 C 
ATOM      4  O   UNL A   1      31.967  31.201  26.909  1.00  0.00    -0.246 OA
BRANCH   3   5
ATOM      5  C   UNL A   1      34.228  30.641  27.275  1.00  0.00     0.060 A 
ATOM      6  C   UNL A   1      34.938  29.510  27.507  1.00  0.00     0.016 A 
ATOM      7  C   UNL A   1      34.900  31.804  27.648  1.00  0.00     0.016 A 
ATOM      8  C   UNL A   1      36.163  29.359  28.117  1.00  0.00     0.010 A 
ATOM      9  C   UNL A   1      36.222  31.718  28.223  1.00  0.00     0.010 A 
ATOM     10  C   UNL A   1      36.857  30.472  28.489  1.00  0.00    -0.014 A 
BRANCH  10  11
ATOM     11  C   UNL A   1      38.004  30.222  29.421  1.00  0.00     0.031 A 
ATOM     12  C   UNL A   1      39.140  29.435  28.845  1.00  0.00     0.074 A 
ATOM     13  C   UNL A   1      38.225  30.869  30.594  1.00  0.00     0.049 A 
ATOM     14  N   UNL A   1      40.143  28.851  29.432  1.00  0.00    -0.248 NA
ATOM     15  C   UNL A   1      39.131  29.309  27.380  1.00  0.00     0.031 C 
ATOM     16  C   UNL A   1      37.423  31.968  31.136  1.00  0.00     0.029 A 
ATOM     17  N   UNL A   1      39.223  30.733  31.537  1.00  0.00    -0.354 N 
ATOM     18  C   UNL A   1      40.826  28.198  28.412  1.00  0.00     0.074 A 
ATOM     19  C   UNL A   1      40.111  28.451  27.183  1.00  0.00     0.031 C 
ATOM     20  C   UNL A   1      37.928  32.374  32.313  1.00  0.00     0.029 A 
ATOM     21  C   UNL A   1      39.052  31.520  32.662  1.00  0.00     0.049 A 
ATOM     22  H   UNL A   1      39.990  30.128  31.419  1.00  0.00     0.167 HD
ATOM     23  C   UNL A   1      41.950  27.450  28.504  1.00  0.00     0.034 A 
ATOM     24  C   UNL A   1      39.692  31.517  33.854  1.00  0.00     0.034 A 
ATOM     25  C   UNL A   1      42.666  27.283  29.738  1.00  0.00     0.049 A 
ATOM     26  C   UNL A   1      40.839  30.547  34.012  1.00  0.00     0.074 A 
ATOM     27  C   UNL A   1      43.739  26.462  30.019  1.00  0.00     0.029 A 
ATOM     28  N   UNL A   1      42.379  27.985  30.906  1.00  0.00    -0.354 N 
ATOM     29  N   UNL A   1      41.358  29.741  33.111  1.00  0.00    -0.248 NA
ATOM     30  C   UNL A   1      41.485  30.473  35.327  1.00  0.00     0.031 C 
ATOM     31  C   UNL A   1      44.068  26.630  31.370  1.00  0.00     0.029 A 
ATOM     32  C   UNL A   1      43.245  27.606  31.914  1.00  0.00     0.049 A 
ATOM     33  H   UNL A   1      41.663  28.655  31.000  1.00  0.00     0.167 HD
ATOM     34  C   UNL A   1      42.411  29.088  33.743  1.00  0.00     0.074 A 
ATOM     35  C   UNL A   1      42.458  29.603  35.098  1.00  0.00     0.031 C 
ATOM     36  C   UNL A   1      43.263  28.151  33.252  1.00  0.00     0.034 A 
BRANCH  23  37
ATOM     37  C   UNL A   1      42.323  26.679  27.264  1.00  0.00     0.023 A 
ATOM     38  C   UNL A   1      41.892  25.358  27.047  1.00  0.00     0.031 A 
ATOM     39  C   UNL A   1      43.307  27.202  26.406  1.00  0.00     0.131 A 
ATOM     40  C   UNL A   1      42.550  24.562  26.096  1.00  0.00     0.055 A 
ATOM     41  C   UNL A   1      43.877  26.437  25.388  1.00  0.00     0.041 A 
ATOM     42  F   UNL A   1      43.783  28.444  26.590  1.00  0.00    -0.206 F 
ATOM     43  C   UNL A   1      43.521  25.099  25.248  1.00  0.00     0.022 A 
BRANCH  40  44
ATOM     44  S   UNL A   1      42.299  22.763  26.152  1.00  0.00     0.124 S 
ATOM     45  O   UNL A   1      40.855  22.677  26.363  1.00  0.00    -0.237 OA
ATOM     46  O   UNL A   1      42.777  22.336  24.843  1.00  0.00    -0.237 OA
ATOM     47  O   UNL A   1      43.115  22.338  27.286  1.00  0.00    -0.744 OA
ENDBRANCH  40  44
ENDBRANCH  23  37
BRANCH  24  48
ATOM     48  C   UNL A   1      39.209  32.341  35.017  1.00  0.00     0.023 A 
ATOM     49  C   UNL A   1      39.676  33.645  35.269  1.00  0.00     0.031 A 
ATOM     50  C   UNL A   1      38.325  31.782  35.964  1.00  0.00     0.131 A 
ATOM     51  C   UNL A   1      39.291  34.323  36.445  1.00  0.00     0.055 A 
ATOM     52  C   UNL A   1      37.911  32.475  37.106  1.00  0.00     0.041 A 
ATOM     53  F   UNL A   1      37.844  30.540  35.797  1.00  0.00    -0.206 F 
ATOM     54  C   UNL A   1      38.405  33.749  37.358  1.00  0.00     0.022 A 
BRANCH  51  55
ATOM     55  S   UNL A   1      40.034  35.940  36.820  1.00  0.00     0.124 S 
ATOM     56  O   UNL A   1      39.290  36.341  38.008  1.00  0.00    -0.237 OA
ATOM     57  O   UNL A   1      41.434  35.586  37.027  1.00  0.00    -0.237 OA
ATOM     58  O   UNL A   1      39.764  36.727  35.618  1.00  0.00    -0.744 OA
ENDBRANCH  51  55
ENDBRANCH  24  48
BRANCH  36  59
ATOM     59  C   UNL A   1      44.349  27.675  34.176  1.00  0.00     0.023 A 
ATOM     60  C   UNL A   1      44.192  26.524  34.965  1.00  0.00     0.031 A 
ATOM     61  C   UNL A   1      45.566  28.374  34.246  1.00  0.00     0.131 A 
ATOM     62  C   UNL A   1      45.222  26.130  35.827  1.00  0.00     0.055 A 
ATOM     63  C   UNL A   1      46.610  27.943  35.062  1.00  0.00     0.041 A 
ATOM     64  F   UNL A   1      45.760  29.481  33.510  1.00  0.00    -0.206 F 
ATOM     65  C   UNL A   1      46.438  26.820  35.866  1.00  0.00     0.022 A 
BRANCH  62  66
ATOM     66  S   UNL A   1      44.926  24.742  36.954  1.00  0.00     0.124 S 
ATOM     67  O   UNL A   1      46.185  24.678  37.690  1.00  0.00    -0.237 OA
ATOM     68  O   UNL A   1      43.766  25.199  37.712  1.00  0.00    -0.237 OA
ATOM     69  O   UNL A   1      44.674  23.617  36.054  1.00  0.00    -0.744 OA
ENDBRANCH  62  66
ENDBRANCH  36  59
ENDBRANCH  10  11
ENDBRANCH   3   5
ENDBRANCH   2   3
ENDBRANCH   1   2
BRANCH   1  70
ATOM     70  C   UNL A   1      31.204  27.080  24.768  1.00  0.00     0.275 C 
BRANCH  70  71
ATOM     71  O   UNL A   1      32.280  25.702  23.702  1.00  0.00    -0.457 OA
BRANCH  71  72
ATOM     72  C   UNL A   1      33.415  24.793  23.403  1.00  0.00     0.359 C 
ATOM     73  O   UNL A   1      33.668  24.582  22.213  1.00  0.00    -0.244 OA
BRANCH  72  74
ATOM     74  C   UNL A   1      34.277  23.993  24.473  1.00  0.00     0.179 A 
ATOM     75  N   UNL A   1      35.626  24.062  24.215  1.00  0.00    -0.245 NA
ATOM     76  C   UNL A   1      33.860  23.249  25.594  1.00  0.00     0.161 A 
ATOM     77  C   UNL A   1      36.471  23.416  25.072  1.00  0.00     0.132 A 
ATOM     78  N   UNL A   1      34.730  22.567  26.415  1.00  0.00    -0.247 NA
ATOM     79  C   UNL A   1      36.034  22.667  26.142  1.00  0.00     0.132 A 
BRANCH  76  80
ATOM     80  C   UNL A   1      32.480  23.059  26.090  1.00  0.00     0.276 C 
ATOM     81  O   UNL A   1      31.892  23.932  26.726  1.00  0.00    -0.267 OA
ATOM     82  N   UNL A   1      31.828  21.911  25.820  1.00  0.00    -0.320 N 
ATOM     83  H   UNL A   1      30.929  21.795  26.205  1.00  0.00     0.170 HD
BRANCH  82  84
ATOM     84  C   UNL A   1      32.319  20.894  25.052  1.00  0.00     0.045 A 
ATOM     85  C   UNL A   1      32.090  20.683  23.212  1.00  0.00     0.030 A 
ATOM     86  C   UNL A   1      32.847  19.474  26.039  1.00  0.00     0.076 A 
ATOM     87  C   UNL A   1      32.449  19.094  22.451  1.00  0.00     0.053 A 
ATOM     88  C   UNL A   1      33.154  17.953  25.191  1.00  0.00     0.167 A 
ATOM     89  C   UNL A   1      32.964  17.780  23.489  1.00  0.00     0.165 A 
ATOM     90  O   UNL A   1      33.427  16.719  25.687  1.00  0.00    -0.454 OA
ATOM     91  O   UNL A   1      33.203  16.488  23.167  1.00  0.00    -0.454 OA
ATOM     92  C   UNL A   1      33.343  15.867  24.487  1.00  0.00     0.468 C 
ENDBRANCH  82  84
ENDBRANCH  76  80
ENDBRANCH  72  74
ENDBRANCH  71  72
ENDBRANCH  70  71
ENDBRANCH   1  70
TORSDOF 16
ENDMDL
MODEL 2
REMARK VINA RESULT:     -14.0      2.690      9.038
REMARK SMILES O=C(OCCOC(=O)c1nccnc1C(=O)Nc1ccc2c(c1)OCO2)c1ccc(-c2c3nc(c(-c4cc(S(=O)(=O)[O-])ccc4F)c4ccc([nH]4)c(-c4cc(S(=O)(=O)[O-])ccc4F)c4nc(c(-c5cc(S(=O)(=O)[O-])ccc5F)c5ccc2[nH]5)C=C4)C=C3)cc1
REMARK SMILES IDX 4 1 3 2 2 3 1 4 27 5 28 6 89 7 29 8 88 9 30 10 31 11 32 12
REMARK SMILES IDX 82 13 33 14 87 15 81 16 83 17 34 18 86 19 80 20 79 21 35 23
REMARK SMILES IDX 67 24 47 25 66 26 48 27 51 28 65 29 84 30 49 31 50 32 64 34
REMARK SMILES IDX 85 35 52 36 36 37 37 38 45 39 38 40 44 41 46 42 43 43 39 44
REMARK SMILES IDX 40 45 41 46 42 47 68 48 69 49 77 50 70 51 76 52 78 53 75 54
REMARK SMILES IDX 71 55 72 56 73 57 74 58 53 59 54 60 62 61 55 62 61 63 63 64
REMARK SMILES IDX 60 65 56 66 57 67 58 68 59 69 5 70 6 71 7 72 8 73 9 74 10 75
REMARK SMILES IDX 14 76 11 77 13 78 12 79 15 80 16 81 17 82 18 84 19 85 23 86
REMARK SMILES IDX 20 87 22 88 21 89 24 90 26 91 25 92
REMARK H PARENT 83 22 51 33 17 83
REMARK Flexibility Score: inf
ROOT
ATOM      1  C   UNL A   1      31.790  32.675  26.505  1.00  0.00     0.275 C 
ENDROOT
BRANCH   1   2
ATOM      2  O   UNL A   1      31.952  33.440  27.804  1.00  0.00    -0.458 OA
BRANCH   2   3
ATOM      3  C   UNL A   1      32.979  34.184  28.413  1.00  0.00     0.338 C 
ATOM      4  O   UNL A   1      32.785  35.366  28.687  1.00  0.00    -0.246 OA
BRANCH   3   5
ATOM      5  C   UNL A   1      34.379  33.630  28.615  1.00  0.00     0.060 A 
ATOM      6  C   UNL A   1      34.428  32.315  28.941  1.00  0.00     0.016 A 
ATOM      7  C   UNL A   1      35.638  34.218  28.494  1.00  0.00     0.016 A 
ATOM      8  C   UNL A   1      35.520  31.530  29.237  1.00  0.00     0.010 A 
ATOM      9  C   UNL A   1      36.826  33.428  28.716  1.00  0.00     0.010 A 
ATOM     10  C   UNL A   1      36.769  32.065  29.122  1.00  0.00    -0.014 A 
BRANCH  10  11
ATOM     11  C   UNL A   1      37.862  31.266  29.764  1.00  0.00     0.031 A 
ATOM     12  C   UNL A   1      38.044  31.490  31.234  1.00  0.00     0.074 A 
ATOM     13  C   UNL A   1      38.479  30.187  29.217  1.00  0.00     0.049 A 
ATOM     14  N   UNL A   1      39.024  31.157  32.022  1.00  0.00    -0.248 NA
ATOM     15  C   UNL A   1      36.934  32.188  31.900  1.00  0.00     0.031 C 
ATOM     16  C   UNL A   1      38.151  29.569  27.931  1.00  0.00     0.029 A 
ATOM     17  N   UNL A   1      39.491  29.377  29.691  1.00  0.00    -0.354 N 
ATOM     18  C   UNL A   1      38.693  31.701  33.257  1.00  0.00     0.074 A 
ATOM     19  C   UNL A   1      37.435  32.392  33.101  1.00  0.00     0.031 C 
ATOM     20  C   UNL A   1      38.958  28.519  27.702  1.00  0.00     0.029 A 
ATOM     21  C   UNL A   1      39.921  28.421  28.788  1.00  0.00     0.049 A 
ATOM     22  H   UNL A   1      39.874  29.472  30.592  1.00  0.00     0.167 HD
ATOM     23  C   UNL A   1      39.388  31.629  34.416  1.00  0.00     0.034 A 
ATOM     24  C   UNL A   1      40.995  27.598  28.810  1.00  0.00     0.034 A 
ATOM     25  C   UNL A   1      40.603  30.871  34.540  1.00  0.00     0.049 A 
ATOM     26  C   UNL A   1      41.873  27.652  30.037  1.00  0.00     0.074 A 
ATOM     27  C   UNL A   1      41.482  30.803  35.601  1.00  0.00     0.029 A 
ATOM     28  N   UNL A   1      41.094  30.022  33.553  1.00  0.00    -0.354 N 
ATOM     29  N   UNL A   1      41.696  28.348  31.139  1.00  0.00    -0.248 NA
ATOM     30  C   UNL A   1      43.087  26.828  30.036  1.00  0.00     0.031 C 
ATOM     31  C   UNL A   1      42.533  29.951  35.236  1.00  0.00     0.029 A 
ATOM     32  C   UNL A   1      42.273  29.435  33.974  1.00  0.00     0.049 A 
ATOM     33  H   UNL A   1      40.664  29.861  32.682  1.00  0.00     0.167 HD
ATOM     34  C   UNL A   1      42.759  28.021  31.973  1.00  0.00     0.074 A 
ATOM     35  C   UNL A   1      43.567  27.059  31.249  1.00  0.00     0.031 C 
ATOM     36  C   UNL A   1      43.045  28.472  33.223  1.00  0.00     0.034 A 
BRANCH  23  37
ATOM     37  C   UNL A   1      38.892  32.514  35.530  1.00  0.00     0.023 A 
ATOM     38  C   UNL A   1      39.274  33.864  35.639  1.00  0.00     0.031 A 
ATOM     39  C   UNL A   1      38.214  31.931  36.614  1.00  0.00     0.131 A 
ATOM     40  C   UNL A   1      39.106  34.535  36.861  1.00  0.00     0.055 A 
ATOM     41  C   UNL A   1      37.951  32.641  37.786  1.00  0.00     0.041 A 
ATOM     42  F   UNL A   1      37.859  30.636  36.581  1.00  0.00    -0.206 F 
ATOM     43  C   UNL A   1      38.425  33.942  37.926  1.00  0.00     0.022 A 
BRANCH  40  44
ATOM     44  S   UNL A   1      40.006  36.092  37.122  1.00  0.00     0.124 S 
ATOM     45  O   UNL A   1      41.342  35.603  37.458  1.00  0.00    -0.237 OA
ATOM     46  O   UNL A   1      39.876  36.753  35.829  1.00  0.00    -0.237 OA
ATOM     47  O   UNL A   1      39.285  36.724  38.224  1.00  0.00    -0.744 OA
ENDBRANCH  40  44
ENDBRANCH  23  37
BRANCH  24  48
ATOM     48  C   UNL A   1      41.379  26.762  27.618  1.00  0.00     0.023 A 
ATOM     49  C   UNL A   1      41.158  25.373  27.563  1.00  0.00     0.031 A 
ATOM     50  C   UNL A   1      42.075  27.344  26.538  1.00  0.00     0.131 A 
ATOM     51  C   UNL A   1      41.656  24.617  26.481  1.00  0.00     0.055 A 
ATOM     52  C   UNL A   1      42.527  26.597  25.446  1.00  0.00     0.041 A 
ATOM     53  F   UNL A   1      42.331  28.663  26.524  1.00  0.00    -0.206 F 
ATOM     54  C   UNL A   1      42.330  25.222  25.419  1.00  0.00     0.022 A 
BRANCH  51  55
ATOM     55  S   UNL A   1      41.492  22.805  26.515  1.00  0.00     0.124 S 
ATOM     56  O   UNL A   1      40.053  22.633  26.359  1.00  0.00    -0.237 OA
ATOM     57  O   UNL A   1      42.315  22.409  25.378  1.00  0.00    -0.237 OA
ATOM     58  O   UNL A   1      42.027  22.440  27.825  1.00  0.00    -0.744 OA
ENDBRANCH  51  55
ENDBRANCH  24  48
BRANCH  36  59
ATOM     59  C   UNL A   1      44.250  27.877  33.897  1.00  0.00     0.023 A 
ATOM     60  C   UNL A   1      44.165  26.692  34.645  1.00  0.00     0.031 A 
ATOM     61  C   UNL A   1      45.504  28.498  33.764  1.00  0.00     0.131 A 
ATOM     62  C   UNL A   1      45.310  26.187  35.273  1.00  0.00     0.055 A 
ATOM     63  C   UNL A   1      46.651  27.958  34.342  1.00  0.00     0.041 A 
ATOM     64  F   UNL A   1      45.632  29.633  33.058  1.00  0.00    -0.206 F 
ATOM     65  C   UNL A   1      46.556  26.801  35.111  1.00  0.00     0.022 A 
BRANCH  62  66
ATOM     66  S   UNL A   1      45.137  24.755  36.369  1.00  0.00     0.124 S 
ATOM     67  O   UNL A   1      45.103  25.385  37.685  1.00  0.00    -0.237 OA
ATOM     68  O   UNL A   1      43.883  24.163  35.913  1.00  0.00    -0.237 OA
ATOM     69  O   UNL A   1      46.333  23.962  36.090  1.00  0.00    -0.744 OA
ENDBRANCH  62  66
ENDBRANCH  36  59
ENDBRANCH  10  11
ENDBRANCH   3   5
ENDBRANCH   2   3
ENDBRANCH   1   2
BRANCH   1  70
ATOM     70  C   UNL A   1      31.907  30.895  26.391  1.00  0.00     0.275 C 
BRANCH  70  71
ATOM     71  O   UNL A   1      32.890  29.725  25.027  1.00  0.00    -0.457 OA
BRANCH  71  72
ATOM     72  C   UNL A   1      33.460  28.477  24.459  1.00  0.00     0.359 C 
ATOM     73  O   UNL A   1      34.408  28.596  23.677  1.00  0.00    -0.244 OA
BRANCH  72  74
ATOM     74  C   UNL A   1      32.905  27.006  24.695  1.00  0.00     0.179 A 
ATOM     75  N   UNL A   1      32.820  26.687  26.030  1.00  0.00    -0.245 NA
ATOM     76  C   UNL A   1      32.514  26.027  23.760  1.00  0.00     0.161 A 
ATOM     77  C   UNL A   1      32.350  25.448  26.359  1.00  0.00     0.132 A 
ATOM     78  N   UNL A   1      32.089  24.768  24.118  1.00  0.00    -0.247 NA
ATOM     79  C   UNL A   1      32.006  24.496  25.423  1.00  0.00     0.132 A 
BRANCH  76  80
ATOM     80  C   UNL A   1      32.484  26.147  22.287  1.00  0.00     0.276 C 
ATOM     81  O   UNL A   1      33.245  25.502  21.567  1.00  0.00    -0.267 OA
ATOM     82  N   UNL A   1      31.585  26.963  21.703  1.00  0.00    -0.320 N 
ATOM     83  H   UNL A   1      31.623  27.058  20.723  1.00  0.00     0.170 HD
BRANCH  82  84
ATOM     84  C   UNL A   1      30.624  27.670  22.366  1.00  0.00     0.045 A 
ATOM     85  C   UNL A   1      29.070  26.978  23.133  1.00  0.00     0.030 A 
ATOM     86  C   UNL A   1      30.731  29.447  22.054  1.00  0.00     0.076 A 
ATOM     87  C   UNL A   1      27.738  28.093  23.595  1.00  0.00     0.053 A 
ATOM     88  C   UNL A   1      29.355  30.450  22.531  1.00  0.00     0.167 A 
ATOM     89  C   UNL A   1      27.939  29.801  23.262  1.00  0.00     0.165 A 
ATOM     90  O   UNL A   1      29.115  31.766  22.301  1.00  0.00    -0.454 OA
ATOM     91  O   UNL A   1      27.053  30.810  23.434  1.00  0.00    -0.454 OA
ATOM     92  C   UNL A   1      27.718  31.919  22.745  1.00  0.00     0.468 C 
ENDBRANCH  82  84
ENDBRANCH  76  80
ENDBRANCH  72  74
ENDBRANCH  71  72
ENDBRANCH  70  71
ENDBRANCH   1  70
TORSDOF 16
ENDMDL
MODEL 3
REMARK VINA RESULT:     -14.0      4.765     10.276
REMARK SMILES O=C(OCCOC(=O)c1nccnc1C(=O)Nc1ccc2c(c1)OCO2)c1ccc(-c2c3nc(c(-c4cc(S(=O)(=O)[O-])ccc4F)c4ccc([nH]4)c(-c4cc(S(=O)(=O)[O-])ccc4F)c4nc(c(-c5cc(S(=O)(=O)[O-])ccc5F)c5ccc2[nH]5)C=C4)C=C3)cc1
REMARK SMILES IDX 4 1 3 2 2 3 1 4 27 5 28 6 89 7 29 8 88 9 30 10 31 11 32 12
REMARK SMILES IDX 82 13 33 14 87 15 81 16 83 17 34 18 86 19 80 20 79 21 35 23
REMARK SMILES IDX 67 24 47 25 66 26 48 27 51 28 65 29 84 30 49 31 50 32 64 34
REMARK SMILES IDX 85 35 52 36 36 37 37 38 45 39 38 40 44 41 46 42 43 43 39 44
REMARK SMILES IDX 40 45 41 46 42 47 68 48 69 49 77 50 70 51 76 52 78 53 75 54
REMARK SMILES IDX 71 55 72 56 73 57 74 58 53 59 54 60 62 61 55 62 61 63 63 64
REMARK SMILES IDX 60 65 56 66 57 67 58 68 59 69 5 70 6 71 7 72 8 73 9 74 10 75
REMARK SMILES IDX 14 76 11 77 13 78 12 79 15 80 16 81 17 82 18 84 19 85 23 86
REMARK SMILES IDX 20 87 22 88 21 89 24 90 26 91 25 92
REMARK H PARENT 83 22 51 33 17 83
REMARK Flexibility Score: inf
ROOT
ATOM      1  C   UNL A   1      34.740  21.647  25.657  1.00  0.00     0.275 C 
ENDROOT
BRANCH   1   2
ATOM      2  O   UNL A   1      36.179  21.306  25.991  1.00  0.00    -0.458 OA
BRANCH   2   3
ATOM      3  C   UNL A   1      37.438  21.597  25.436  1.00  0.00     0.338 C 
ATOM      4  O   UNL A   1      37.767  21.067  24.377  1.00  0.00    -0.246 OA
BRANCH   3   5
ATOM      5  C   UNL A   1      38.480  22.429  26.165  1.00  0.00     0.060 A 
ATOM      6  C   UNL A   1      38.177  23.746  26.278  1.00  0.00     0.016 A 
ATOM      7  C   UNL A   1      39.684  22.083  26.776  1.00  0.00     0.016 A 
ATOM      8  C   UNL A   1      38.918  24.767  26.830  1.00  0.00     0.010 A 
ATOM      9  C   UNL A   1      40.472  23.095  27.439  1.00  0.00     0.010 A 
ATOM     10  C   UNL A   1      40.098  24.469  27.444  1.00  0.00    -0.014 A 
BRANCH  10  11
ATOM     11  C   UNL A   1      40.983  25.646  27.722  1.00  0.00     0.031 A 
ATOM     12  C   UNL A   1      40.400  26.689  28.625  1.00  0.00     0.074 A 
ATOM     13  C   UNL A   1      42.317  25.708  27.480  1.00  0.00     0.049 A 
ATOM     14  N   UNL A   1      40.786  27.909  28.864  1.00  0.00    -0.248 NA
ATOM     15  C   UNL A   1      39.204  26.270  29.371  1.00  0.00     0.031 C 
ATOM     16  C   UNL A   1      43.149  24.620  26.960  1.00  0.00     0.029 A 
ATOM     17  N   UNL A   1      43.235  26.719  27.678  1.00  0.00    -0.354 N 
ATOM     18  C   UNL A   1      39.816  28.434  29.709  1.00  0.00     0.074 A 
ATOM     19  C   UNL A   1      38.826  27.405  29.923  1.00  0.00     0.031 C 
ATOM     20  C   UNL A   1      44.425  25.025  26.846  1.00  0.00     0.029 A 
ATOM     21  C   UNL A   1      44.506  26.431  27.212  1.00  0.00     0.049 A 
ATOM     22  H   UNL A   1      43.006  27.571  28.114  1.00  0.00     0.167 HD
ATOM     23  C   UNL A   1      39.762  29.672  30.252  1.00  0.00     0.034 A 
ATOM     24  C   UNL A   1      45.592  27.220  27.049  1.00  0.00     0.034 A 
ATOM     25  C   UNL A   1      40.807  30.641  30.067  1.00  0.00     0.049 A 
ATOM     26  C   UNL A   1      45.467  28.658  27.496  1.00  0.00     0.074 A 
ATOM     27  C   UNL A   1      40.841  31.969  30.442  1.00  0.00     0.029 A 
ATOM     28  N   UNL A   1      42.028  30.363  29.459  1.00  0.00    -0.354 N 
ATOM     29  N   UNL A   1      44.453  29.241  28.098  1.00  0.00    -0.248 NA
ATOM     30  C   UNL A   1      46.608  29.545  27.246  1.00  0.00     0.031 C 
ATOM     31  C   UNL A   1      42.063  32.506  30.017  1.00  0.00     0.029 A 
ATOM     32  C   UNL A   1      42.818  31.497  29.436  1.00  0.00     0.049 A 
ATOM     33  H   UNL A   1      42.292  29.485  29.099  1.00  0.00     0.167 HD
ATOM     34  C   UNL A   1      44.847  30.554  28.327  1.00  0.00     0.074 A 
ATOM     35  C   UNL A   1      46.196  30.674  27.805  1.00  0.00     0.031 C 
ATOM     36  C   UNL A   1      44.163  31.570  28.913  1.00  0.00     0.034 A 
BRANCH  23  37
ATOM     37  C   UNL A   1      38.469  30.027  30.941  1.00  0.00     0.023 A 
ATOM     38  C   UNL A   1      37.405  30.645  30.260  1.00  0.00     0.031 A 
ATOM     39  C   UNL A   1      38.399  29.948  32.342  1.00  0.00     0.131 A 
ATOM     40  C   UNL A   1      36.395  31.289  30.993  1.00  0.00     0.055 A 
ATOM     41  C   UNL A   1      37.333  30.493  33.058  1.00  0.00     0.041 A 
ATOM     42  F   UNL A   1      39.404  29.401  33.047  1.00  0.00    -0.206 F 
ATOM     43  C   UNL A   1      36.337  31.195  32.385  1.00  0.00     0.022 A 
BRANCH  40  44
ATOM     44  S   UNL A   1      35.305  32.454  30.122  1.00  0.00     0.124 S 
ATOM     45  O   UNL A   1      34.843  31.638  29.001  1.00  0.00    -0.237 OA
ATOM     46  O   UNL A   1      34.305  32.768  31.135  1.00  0.00    -0.237 OA
ATOM     47  O   UNL A   1      36.197  33.553  29.760  1.00  0.00    -0.744 OA
ENDBRANCH  40  44
ENDBRANCH  23  37
BRANCH  24  48
ATOM     48  C   UNL A   1      46.827  26.736  26.338  1.00  0.00     0.023 A 
ATOM     49  C   UNL A   1      47.927  26.181  27.019  1.00  0.00     0.031 A 
ATOM     50  C   UNL A   1      46.960  26.915  24.945  1.00  0.00     0.131 A 
ATOM     51  C   UNL A   1      49.111  25.865  26.320  1.00  0.00     0.055 A 
ATOM     52  C   UNL A   1      48.119  26.558  24.248  1.00  0.00     0.041 A 
ATOM     53  F   UNL A   1      45.956  27.446  24.228  1.00  0.00    -0.206 F 
ATOM     54  C   UNL A   1      49.208  26.041  24.939  1.00  0.00     0.022 A 
BRANCH  51  55
ATOM     55  S   UNL A   1      50.568  25.300  27.251  1.00  0.00     0.124 S 
ATOM     56  O   UNL A   1      50.950  26.509  27.970  1.00  0.00    -0.237 OA
ATOM     57  O   UNL A   1      50.007  24.222  28.058  1.00  0.00    -0.237 OA
ATOM     58  O   UNL A   1      51.496  24.874  26.205  1.00  0.00    -0.744 OA
ENDBRANCH  51  55
ENDBRANCH  24  48
BRANCH  36  59
ATOM     59  C   UNL A   1      44.893  32.875  29.069  1.00  0.00     0.023 A 
ATOM     60  C   UNL A   1      44.824  33.879  28.090  1.00  0.00     0.031 A 
ATOM     61  C   UNL A   1      45.648  33.121  30.229  1.00  0.00     0.131 A 
ATOM     62  C   UNL A   1      45.538  35.071  28.269  1.00  0.00     0.055 A 
ATOM     63  C   UNL A   1      46.308  34.332  30.428  1.00  0.00     0.041 A 
ATOM     64  F   UNL A   1      45.743  32.189  31.192  1.00  0.00    -0.206 F 
ATOM     65  C   UNL A   1      46.263  35.312  29.440  1.00  0.00     0.022 A 
BRANCH  62  66
ATOM     66  S   UNL A   1      45.566  36.274  26.916  1.00  0.00     0.124 S 
ATOM     67  O   UNL A   1      44.159  36.648  26.815  1.00  0.00    -0.237 OA
ATOM     68  O   UNL A   1      46.463  37.303  27.431  1.00  0.00    -0.237 OA
ATOM     69  O   UNL A   1      46.087  35.508  25.785  1.00  0.00    -0.744 OA
ENDBRANCH  62  66
ENDBRANCH  36  59
ENDBRANCH  10  11
ENDBRANCH   3   5
ENDBRANCH   2   3
ENDBRANCH   1   2
BRANCH   1  70
ATOM     70  C   UNL A   1      33.668  22.567  26.753  1.00  0.00     0.275 C 
BRANCH  70  71
ATOM     71  O   UNL A   1      32.346  24.076  26.341  1.00  0.00    -0.457 OA
BRANCH  71  72
ATOM     72  C   UNL A   1      31.769  25.442  26.414  1.00  0.00     0.359 C 
ATOM     73  O   UNL A   1      30.564  25.531  26.664  1.00  0.00    -0.244 OA
BRANCH  72  74
ATOM     74  C   UNL A   1      32.542  26.798  26.111  1.00  0.00     0.179 A 
ATOM     75  N   UNL A   1      32.682  27.582  27.232  1.00  0.00    -0.245 NA
ATOM     76  C   UNL A   1      33.070  27.285  24.899  1.00  0.00     0.161 A 
ATOM     77  C   UNL A   1      33.336  28.774  27.097  1.00  0.00     0.132 A 
ATOM     78  N   UNL A   1      33.682  28.513  24.780  1.00  0.00    -0.247 NA
ATOM     79  C   UNL A   1      33.813  29.242  25.891  1.00  0.00     0.132 A 
BRANCH  76  80
ATOM     80  C   UNL A   1      33.072  26.615  23.581  1.00  0.00     0.276 C 
ATOM     81  O   UNL A   1      33.987  25.872  23.231  1.00  0.00    -0.267 OA
ATOM     82  N   UNL A   1      32.033  26.795  22.741  1.00  0.00    -0.320 N 
ATOM     83  H   UNL A   1      32.087  26.374  21.852  1.00  0.00     0.170 HD
BRANCH  82  84
ATOM     84  C   UNL A   1      30.911  27.516  23.028  1.00  0.00     0.045 A 
ATOM     85  C   UNL A   1      29.262  26.832  23.574  1.00  0.00     0.030 A 
ATOM     86  C   UNL A   1      30.991  29.206  22.393  1.00  0.00     0.076 A 
ATOM     87  C   UNL A   1      27.803  27.879  23.508  1.00  0.00     0.053 A 
ATOM     88  C   UNL A   1      29.491  30.142  22.353  1.00  0.00     0.167 A 
ATOM     89  C   UNL A   1      27.983  29.506  22.885  1.00  0.00     0.165 A 
ATOM     90  O   UNL A   1      29.240  31.363  21.816  1.00  0.00    -0.454 OA
ATOM     91  O   UNL A   1      27.029  30.439  22.657  1.00  0.00    -0.454 OA
ATOM     92  C   UNL A   1      27.773  31.459  21.914  1.00  0.00     0.468 C 
ENDBRANCH  82  84
ENDBRANCH  76  80
ENDBRANCH  72  74
ENDBRANCH  71  72
ENDBRANCH  70  71
ENDBRANCH   1  70
TORSDOF 16
ENDMDL
