MODEL 1
REMARK VINA RESULT:     -11.6      0.000      0.000
REMARK SMILES CCN(CC)c1ccc(NC(=O)c2ccc(OC)cc2)cc1C(=O)OCCOC(=O)c1ccc(-c2c3nc(c(-c4cc(S(=O)(=O)[O-])ccc4F)c4ccc([nH]4)c(-c4cc(S(=O)(=O)[O-])ccc4F)c4nc(c(-c5cc(S(=O)(=O)[O-])ccc5F)c5ccc2[nH]5)C=C4)C=C3)cc1
REMARK SMILES IDX 26 1 25 2 23 3 24 4 22 5 6 6 7 7 8 8 21 9 9 10 3 11 2 12
REMARK SMILES IDX 1 13 4 14 5 15 10 16 11 17 12 19 13 20 14 21 20 22 15 23
REMARK SMILES IDX 19 24 16 25 17 26 18 27 27 28 28 29 29 30 30 31 31 32 32 33
REMARK SMILES IDX 93 34 33 35 92 36 34 37 35 38 36 39 86 40 37 41 91 42 85 43
REMARK SMILES IDX 87 44 38 45 90 46 84 47 83 48 39 50 71 51 51 52 70 53 52 54
REMARK SMILES IDX 55 55 69 56 88 57 53 58 54 59 68 61 89 62 56 63 40 64 41 65
REMARK SMILES IDX 49 66 42 67 48 68 50 69 47 70 43 71 44 72 45 73 46 74 72 75
REMARK SMILES IDX 73 76 81 77 74 78 80 79 82 80 79 81 75 82 76 83 77 84 78 85
REMARK SMILES IDX 57 86 58 87 66 88 59 89 65 90 67 91 64 92 60 93 61 94 62 95
REMARK SMILES IDX 63 96
REMARK H PARENT 10 18 87 49 55 60
REMARK Flexibility Score: inf
ROOT
ATOM      1  C   UNL A   1      36.661  22.550  23.609  1.00  0.00     0.275 C 
ENDROOT
BRANCH   1   2
ATOM      2  O   UNL A   1      35.950  23.518  24.409  1.00  0.00    -0.458 OA
BRANCH   2   3
ATOM      3  C   UNL A   1      34.887  24.128  23.822  1.00  0.00     0.340 C 
ATOM      4  O   UNL A   1      34.655  24.197  22.627  1.00  0.00    -0.246 OA
BRANCH   3   5
ATOM      5  C   UNL A   1      33.947  24.618  24.853  1.00  0.00     0.085 A 
ATOM      6  C   UNL A   1      32.857  23.852  25.317  1.00  0.00     0.051 A 
ATOM      7  C   UNL A   1      31.939  24.539  26.123  1.00  0.00     0.029 A 
ATOM      8  C   UNL A   1      32.129  25.868  26.523  1.00  0.00     0.028 A 
ATOM      9  C   UNL A   1      34.181  25.932  25.317  1.00  0.00     0.044 A 
ATOM     10  C   UNL A   1      33.286  26.556  26.183  1.00  0.00     0.042 A 
BRANCH   6  11
ATOM     11  N   UNL A   1      32.696  22.491  25.072  1.00  0.00    -0.371 N 
BRANCH  11  12
ATOM     12  C   UNL A   1      32.621  22.028  23.678  1.00  0.00     0.113 C 
ATOM     13  C   UNL A   1      32.350  20.536  23.568  1.00  0.00     0.027 C 
ENDBRANCH  11  12
BRANCH  11  14
ATOM     14  C   UNL A   1      32.944  21.501  26.127  1.00  0.00     0.113 C 
ATOM     15  C   UNL A   1      34.230  21.750  26.911  1.00  0.00     0.027 C 
ENDBRANCH  11  14
ENDBRANCH   6  11
BRANCH  10  16
ATOM     16  N   UNL A   1      33.586  27.858  26.627  1.00  0.00    -0.322 N 
ATOM     17  C   UNL A   1      33.416  29.088  26.020  1.00  0.00     0.255 C 
ATOM     18  H   UNL A   1      33.988  27.901  27.525  1.00  0.00     0.170 HD
ATOM     19  O   UNL A   1      33.963  30.090  26.471  1.00  0.00    -0.269 OA
BRANCH  17  20
ATOM     20  C   UNL A   1      32.503  29.242  24.869  1.00  0.00     0.040 A 
ATOM     21  C   UNL A   1      32.952  28.902  23.591  1.00  0.00     0.017 A 
ATOM     22  C   UNL A   1      31.193  29.700  25.059  1.00  0.00     0.017 A 
ATOM     23  C   UNL A   1      32.053  28.916  22.523  1.00  0.00     0.047 A 
ATOM     24  C   UNL A   1      30.297  29.700  23.990  1.00  0.00     0.047 A 
ATOM     25  C   UNL A   1      30.715  29.268  22.729  1.00  0.00     0.118 A 
BRANCH  25  26
ATOM     26  O   UNL A   1      29.902  29.172  21.632  1.00  0.00    -0.497 OA
ATOM     27  C   UNL A   1      28.932  30.209  21.515  1.00  0.00     0.278 C 
ENDBRANCH  25  26
ENDBRANCH  17  20
ENDBRANCH  10  16
ENDBRANCH   3   5
ENDBRANCH   2   3
ENDBRANCH   1   2
BRANCH   1  28
ATOM     28  C   UNL A   1      37.033  21.334  24.454  1.00  0.00     0.275 C 
BRANCH  28  29
ATOM     29  O   UNL A   1      37.527  21.794  25.721  1.00  0.00    -0.458 OA
BRANCH  29  30
ATOM     30  C   UNL A   1      38.813  21.481  25.985  1.00  0.00     0.338 C 
ATOM     31  O   UNL A   1      39.430  20.482  25.647  1.00  0.00    -0.246 OA
BRANCH  30  32
ATOM     32  C   UNL A   1      39.427  22.644  26.630  1.00  0.00     0.060 A 
ATOM     33  C   UNL A   1      38.972  23.905  26.246  1.00  0.00     0.016 A 
ATOM     34  C   UNL A   1      40.471  22.507  27.538  1.00  0.00     0.016 A 
ATOM     35  C   UNL A   1      39.593  25.052  26.730  1.00  0.00     0.010 A 
ATOM     36  C   UNL A   1      41.070  23.660  28.054  1.00  0.00     0.010 A 
ATOM     37  C   UNL A   1      40.657  24.941  27.632  1.00  0.00    -0.014 A 
BRANCH  37  38
ATOM     38  C   UNL A   1      41.427  26.145  28.043  1.00  0.00     0.031 A 
ATOM     39  C   UNL A   1      40.729  27.204  28.853  1.00  0.00     0.074 A 
ATOM     40  C   UNL A   1      42.726  26.290  27.719  1.00  0.00     0.049 A 
ATOM     41  N   UNL A   1      41.087  28.436  29.097  1.00  0.00    -0.248 NA
ATOM     42  C   UNL A   1      39.441  26.819  29.451  1.00  0.00     0.031 C 
ATOM     43  C   UNL A   1      43.543  25.296  27.021  1.00  0.00     0.029 A 
ATOM     44  N   UNL A   1      43.589  27.337  27.931  1.00  0.00    -0.354 N 
ATOM     45  C   UNL A   1      40.045  28.992  29.834  1.00  0.00     0.074 A 
ATOM     46  C   UNL A   1      39.039  27.962  29.985  1.00  0.00     0.031 C 
ATOM     47  C   UNL A   1      44.786  25.780  26.866  1.00  0.00     0.029 A 
ATOM     48  C   UNL A   1      44.832  27.148  27.372  1.00  0.00     0.049 A 
ATOM     49  H   UNL A   1      43.341  28.146  28.434  1.00  0.00     0.167 HD
ATOM     50  C   UNL A   1      39.942  30.250  30.331  1.00  0.00     0.034 A 
ATOM     51  C   UNL A   1      45.867  28.002  27.231  1.00  0.00     0.034 A 
ATOM     52  C   UNL A   1      40.977  31.245  30.193  1.00  0.00     0.049 A 
ATOM     53  C   UNL A   1      45.713  29.413  27.745  1.00  0.00     0.074 A 
ATOM     54  C   UNL A   1      40.972  32.566  30.607  1.00  0.00     0.029 A 
ATOM     55  N   UNL A   1      42.220  31.017  29.614  1.00  0.00    -0.354 N 
ATOM     56  N   UNL A   1      44.677  29.970  28.332  1.00  0.00    -0.248 NA
ATOM     57  C   UNL A   1      46.859  30.315  27.568  1.00  0.00     0.031 C 
ATOM     58  C   UNL A   1      42.194  33.146  30.241  1.00  0.00     0.029 A 
ATOM     59  C   UNL A   1      42.985  32.171  29.655  1.00  0.00     0.049 A 
ATOM     60  H   UNL A   1      42.513  30.159  29.229  1.00  0.00     0.167 HD
ATOM     61  C   UNL A   1      45.056  31.281  28.608  1.00  0.00     0.074 A 
ATOM     62  C   UNL A   1      46.422  31.423  28.147  1.00  0.00     0.031 C 
ATOM     63  C   UNL A   1      44.344  32.283  29.185  1.00  0.00     0.034 A 
BRANCH  50  64
ATOM     64  C   UNL A   1      38.644  30.628  31.003  1.00  0.00     0.023 A 
ATOM     65  C   UNL A   1      37.594  31.247  30.303  1.00  0.00     0.031 A 
ATOM     66  C   UNL A   1      38.473  30.399  32.380  1.00  0.00     0.131 A 
ATOM     67  C   UNL A   1      36.446  31.668  30.995  1.00  0.00     0.055 A 
ATOM     68  C   UNL A   1      37.299  30.752  33.047  1.00  0.00     0.041 A 
ATOM     69  F   UNL A   1      39.452  29.835  33.105  1.00  0.00    -0.206 F 
ATOM     70  C   UNL A   1      36.281  31.403  32.356  1.00  0.00     0.022 A 
BRANCH  67  71
ATOM     71  S   UNL A   1      35.221  32.678  30.118  1.00  0.00     0.124 S 
ATOM     72  O   UNL A   1      36.045  33.780  29.626  1.00  0.00    -0.237 OA
ATOM     73  O   UNL A   1      34.715  31.758  29.107  1.00  0.00    -0.237 OA
ATOM     74  O   UNL A   1      34.265  33.043  31.162  1.00  0.00    -0.744 OA
ENDBRANCH  67  71
ENDBRANCH  50  64
BRANCH  51  75
ATOM     75  C   UNL A   1      47.102  27.591  26.497  1.00  0.00     0.023 A 
ATOM     76  C   UNL A   1      47.279  27.891  25.137  1.00  0.00     0.031 A 
ATOM     77  C   UNL A   1      48.100  26.831  27.135  1.00  0.00     0.131 A 
ATOM     78  C   UNL A   1      48.397  27.392  24.448  1.00  0.00     0.055 A 
ATOM     79  C   UNL A   1      49.240  26.391  26.462  1.00  0.00     0.041 A 
ATOM     80  F   UNL A   1      47.982  26.506  28.433  1.00  0.00    -0.206 F 
ATOM     81  C   UNL A   1      49.386  26.657  25.105  1.00  0.00     0.022 A 
BRANCH  78  82
ATOM     82  S   UNL A   1      48.485  27.617  22.649  1.00  0.00     0.124 S 
ATOM     83  O   UNL A   1      48.619  26.242  22.182  1.00  0.00    -0.237 OA
ATOM     84  O   UNL A   1      47.214  28.273  22.364  1.00  0.00    -0.237 OA
ATOM     85  O   UNL A   1      49.670  28.455  22.470  1.00  0.00    -0.744 OA
ENDBRANCH  78  82
ENDBRANCH  51  75
BRANCH  63  86
ATOM     86  C   UNL A   1      45.060  33.593  29.386  1.00  0.00     0.023 A 
ATOM     87  C   UNL A   1      45.775  33.869  30.563  1.00  0.00     0.031 A 
ATOM     88  C   UNL A   1      45.007  34.585  28.391  1.00  0.00     0.131 A 
ATOM     89  C   UNL A   1      46.364  35.130  30.741  1.00  0.00     0.055 A 
ATOM     90  C   UNL A   1      45.639  35.818  28.552  1.00  0.00     0.041 A 
ATOM     91  F   UNL A   1      44.338  34.369  27.247  1.00  0.00    -0.206 F 
ATOM     92  C   UNL A   1      46.311  36.100  29.737  1.00  0.00     0.022 A 
BRANCH  89  93
ATOM     93  S   UNL A   1      47.133  35.515  32.338  1.00  0.00     0.124 S 
ATOM     94  O   UNL A   1      46.343  34.704  33.260  1.00  0.00    -0.237 OA
ATOM     95  O   UNL A   1      48.512  35.085  32.133  1.00  0.00    -0.237 OA
ATOM     96  O   UNL A   1      46.948  36.959  32.468  1.00  0.00    -0.744 OA
ENDBRANCH  89  93
ENDBRANCH  63  86
ENDBRANCH  37  38
ENDBRANCH  30  32
ENDBRANCH  29  30
ENDBRANCH  28  29
ENDBRANCH   1  28
TORSDOF 20
ENDMDL
MODEL 2
REMARK VINA RESULT:     -11.5      2.026      2.801
REMARK SMILES CCN(CC)c1ccc(NC(=O)c2ccc(OC)cc2)cc1C(=O)OCCOC(=O)c1ccc(-c2c3nc(c(-c4cc(S(=O)(=O)[O-])ccc4F)c4ccc([nH]4)c(-c4cc(S(=O)(=O)[O-])ccc4F)c4nc(c(-c5cc(S(=O)(=O)[O-])ccc5F)c5ccc2[nH]5)C=C4)C=C3)cc1
REMARK SMILES IDX 26 1 25 2 23 3 24 4 22 5 6 6 7 7 8 8 21 9 9 10 3 11 2 12
REMARK SMILES IDX 1 13 4 14 5 15 10 16 11 17 12 19 13 20 14 21 20 22 15 23
REMARK SMILES IDX 19 24 16 25 17 26 18 27 27 28 28 29 29 30 30 31 31 32 32 33
REMARK SMILES IDX 93 34 33 35 92 36 34 37 35 38 36 39 86 40 37 41 91 42 85 43
REMARK SMILES IDX 87 44 38 45 90 46 84 47 83 48 39 50 71 51 51 52 70 53 52 54
REMARK SMILES IDX 55 55 69 56 88 57 53 58 54 59 68 61 89 62 56 63 40 64 41 65
REMARK SMILES IDX 49 66 42 67 48 68 50 69 47 70 43 71 44 72 45 73 46 74 72 75
REMARK SMILES IDX 73 76 81 77 74 78 80 79 82 80 79 81 75 82 76 83 77 84 78 85
REMARK SMILES IDX 57 86 58 87 66 88 59 89 65 90 67 91 64 92 60 93 61 94 62 95
REMARK SMILES IDX 63 96
REMARK H PARENT 10 18 87 49 55 60
REMARK Flexibility Score: inf
ROOT
ATOM      1  C   UNL A   1      36.294  22.961  23.521  1.00  0.00     0.275 C 
ENDROOT
BRANCH   1   2
ATOM      2  O   UNL A   1      35.083  23.691  23.806  1.00  0.00    -0.458 OA
BRANCH   2   3
ATOM      3  C   UNL A   1      34.107  23.642  22.862  1.00  0.00     0.340 C 
ATOM      4  O   UNL A   1      34.175  23.101  21.771  1.00  0.00    -0.246 OA
BRANCH   3   5
ATOM      5  C   UNL A   1      32.861  24.245  23.383  1.00  0.00     0.085 A 
ATOM      6  C   UNL A   1      32.158  23.713  24.483  1.00  0.00     0.051 A 
ATOM      7  C   UNL A   1      30.890  24.264  24.711  1.00  0.00     0.029 A 
ATOM      8  C   UNL A   1      30.384  25.333  23.961  1.00  0.00     0.028 A 
ATOM      9  C   UNL A   1      32.387  25.373  22.675  1.00  0.00     0.044 A 
ATOM     10  C   UNL A   1      31.155  25.945  22.982  1.00  0.00     0.042 A 
BRANCH   6  11
ATOM     11  N   UNL A   1      32.673  22.753  25.352  1.00  0.00    -0.371 N 
BRANCH  11  12
ATOM     12  C   UNL A   1      33.232  23.193  26.639  1.00  0.00     0.113 C 
ATOM     13  C   UNL A   1      34.005  22.094  27.350  1.00  0.00     0.027 C 
ENDBRANCH  11  12
BRANCH  11  14
ATOM     14  C   UNL A   1      32.361  21.330  25.173  1.00  0.00     0.113 C 
ATOM     15  C   UNL A   1      32.204  20.917  23.711  1.00  0.00     0.027 C 
ENDBRANCH  11  14
ENDBRANCH   6  11
BRANCH  10  16
ATOM     16  N   UNL A   1      30.748  27.080  22.255  1.00  0.00    -0.322 N 
ATOM     17  C   UNL A   1      30.770  28.423  22.577  1.00  0.00     0.255 C 
ATOM     18  H   UNL A   1      30.383  26.883  21.362  1.00  0.00     0.170 HD
ATOM     19  O   UNL A   1      30.147  29.240  21.904  1.00  0.00    -0.269 OA
BRANCH  17  20
ATOM     20  C   UNL A   1      31.611  28.921  23.685  1.00  0.00     0.040 A 
ATOM     21  C   UNL A   1      31.023  29.673  24.705  1.00  0.00     0.017 A 
ATOM     22  C   UNL A   1      32.978  28.620  23.727  1.00  0.00     0.017 A 
ATOM     23  C   UNL A   1      31.785  30.028  25.820  1.00  0.00     0.047 A 
ATOM     24  C   UNL A   1      33.730  28.967  24.850  1.00  0.00     0.047 A 
ATOM     25  C   UNL A   1      33.124  29.635  25.916  1.00  0.00     0.118 A 
BRANCH  25  26
ATOM     26  O   UNL A   1      33.755  29.966  27.085  1.00  0.00    -0.497 OA
ATOM     27  C   UNL A   1      35.054  29.402  27.243  1.00  0.00     0.278 C 
ENDBRANCH  25  26
ENDBRANCH  17  20
ENDBRANCH  10  16
ENDBRANCH   3   5
ENDBRANCH   2   3
ENDBRANCH   1   2
BRANCH   1  28
ATOM     28  C   UNL A   1      36.365  21.698  24.376  1.00  0.00     0.275 C 
BRANCH  28  29
ATOM     29  O   UNL A   1      36.944  22.040  25.644  1.00  0.00    -0.458 OA
BRANCH  29  30
ATOM     30  C   UNL A   1      38.214  21.621  25.829  1.00  0.00     0.338 C 
ATOM     31  O   UNL A   1      38.737  20.597  25.416  1.00  0.00    -0.246 OA
BRANCH  30  32
ATOM     32  C   UNL A   1      38.944  22.704  26.492  1.00  0.00     0.060 A 
ATOM     33  C   UNL A   1      38.507  24.008  26.262  1.00  0.00     0.016 A 
ATOM     34  C   UNL A   1      40.072  22.454  27.266  1.00  0.00     0.016 A 
ATOM     35  C   UNL A   1      39.226  25.087  26.764  1.00  0.00     0.010 A 
ATOM     36  C   UNL A   1      40.773  23.538  27.803  1.00  0.00     0.010 A 
ATOM     37  C   UNL A   1      40.374  24.863  27.532  1.00  0.00    -0.014 A 
BRANCH  37  38
ATOM     38  C   UNL A   1      41.236  26.001  27.950  1.00  0.00     0.031 A 
ATOM     39  C   UNL A   1      40.643  27.069  28.828  1.00  0.00     0.074 A 
ATOM     40  C   UNL A   1      42.526  26.077  27.573  1.00  0.00     0.049 A 
ATOM     41  N   UNL A   1      41.088  28.267  29.099  1.00  0.00    -0.248 NA
ATOM     42  C   UNL A   1      39.359  26.743  29.469  1.00  0.00     0.031 C 
ATOM     43  C   UNL A   1      43.249  25.062  26.805  1.00  0.00     0.029 A 
ATOM     44  N   UNL A   1      43.463  27.060  27.783  1.00  0.00    -0.354 N 
ATOM     45  C   UNL A   1      40.116  28.858  29.902  1.00  0.00     0.074 A 
ATOM     46  C   UNL A   1      39.054  27.887  30.061  1.00  0.00     0.031 C 
ATOM     47  C   UNL A   1      44.512  25.473  26.610  1.00  0.00     0.029 A 
ATOM     48  C   UNL A   1      44.667  26.816  27.163  1.00  0.00     0.049 A 
ATOM     49  H   UNL A   1      43.289  27.863  28.325  1.00  0.00     0.167 HD
ATOM     50  C   UNL A   1      40.114  30.099  30.447  1.00  0.00     0.034 A 
ATOM     51  C   UNL A   1      45.747  27.608  27.005  1.00  0.00     0.034 A 
ATOM     52  C   UNL A   1      41.204  31.033  30.298  1.00  0.00     0.049 A 
ATOM     53  C   UNL A   1      45.704  29.006  27.575  1.00  0.00     0.074 A 
ATOM     54  C   UNL A   1      41.301  32.335  30.758  1.00  0.00     0.029 A 
ATOM     55  N   UNL A   1      42.404  30.751  29.655  1.00  0.00    -0.354 N 
ATOM     56  N   UNL A   1      44.732  29.603  28.228  1.00  0.00    -0.248 NA
ATOM     57  C   UNL A   1      46.897  29.841  27.379  1.00  0.00     0.031 C 
ATOM     58  C   UNL A   1      42.540  32.852  30.357  1.00  0.00     0.029 A 
ATOM     59  C   UNL A   1      43.242  31.853  29.703  1.00  0.00     0.049 A 
ATOM     60  H   UNL A   1      42.625  29.892  29.228  1.00  0.00     0.167 HD
ATOM     61  C   UNL A   1      45.205  30.876  28.533  1.00  0.00     0.074 A 
ATOM     62  C   UNL A   1      46.556  30.951  28.015  1.00  0.00     0.031 C 
ATOM     63  C   UNL A   1      44.584  31.898  29.176  1.00  0.00     0.034 A 
BRANCH  50  64
ATOM     64  C   UNL A   1      38.873  30.532  31.189  1.00  0.00     0.023 A 
ATOM     65  C   UNL A   1      37.827  31.225  30.556  1.00  0.00     0.031 A 
ATOM     66  C   UNL A   1      38.755  30.277  32.567  1.00  0.00     0.131 A 
ATOM     67  C   UNL A   1      36.739  31.690  31.312  1.00  0.00     0.055 A 
ATOM     68  C   UNL A   1      37.635  30.678  33.298  1.00  0.00     0.041 A 
ATOM     69  F   UNL A   1      39.734  29.642  33.231  1.00  0.00    -0.206 F 
ATOM     70  C   UNL A   1      36.624  31.401  32.674  1.00  0.00     0.022 A 
BRANCH  67  71
ATOM     71  S   UNL A   1      35.533  32.789  30.519  1.00  0.00     0.124 S 
ATOM     72  O   UNL A   1      36.150  34.098  30.718  1.00  0.00    -0.237 OA
ATOM     73  O   UNL A   1      35.508  32.296  29.147  1.00  0.00    -0.237 OA
ATOM     74  O   UNL A   1      34.308  32.563  31.284  1.00  0.00    -0.744 OA
ENDBRANCH  67  71
ENDBRANCH  50  64
BRANCH  51  75
ATOM     75  C   UNL A   1      46.921  27.151  26.202  1.00  0.00     0.023 A 
ATOM     76  C   UNL A   1      48.000  26.481  26.801  1.00  0.00     0.031 A 
ATOM     77  C   UNL A   1      47.010  27.437  24.827  1.00  0.00     0.131 A 
ATOM     78  C   UNL A   1      49.139  26.167  26.041  1.00  0.00     0.055 A 
ATOM     79  C   UNL A   1      48.116  27.067  24.062  1.00  0.00     0.041 A 
ATOM     80  F   UNL A   1      46.012  28.083  24.201  1.00  0.00    -0.206 F 
ATOM     81  C   UNL A   1      49.198  26.441  24.673  1.00  0.00     0.022 A 
BRANCH  78  82
ATOM     82  S   UNL A   1      50.596  25.496  26.890  1.00  0.00     0.124 S 
ATOM     83  O   UNL A   1      50.039  24.328  27.563  1.00  0.00    -0.237 OA
ATOM     84  O   UNL A   1      51.498  25.228  25.776  1.00  0.00    -0.237 OA
ATOM     85  O   UNL A   1      51.007  26.587  27.772  1.00  0.00    -0.744 OA
ENDBRANCH  78  82
ENDBRANCH  51  75
BRANCH  63  86
ATOM     86  C   UNL A   1      45.389  33.153  29.391  1.00  0.00     0.023 A 
ATOM     87  C   UNL A   1      45.377  34.205  28.460  1.00  0.00     0.031 A 
ATOM     88  C   UNL A   1      46.194  33.286  30.535  1.00  0.00     0.131 A 
ATOM     89  C   UNL A   1      46.200  35.323  28.662  1.00  0.00     0.055 A 
ATOM     90  C   UNL A   1      46.970  34.423  30.757  1.00  0.00     0.041 A 
ATOM     91  F   UNL A   1      46.239  32.309  31.456  1.00  0.00    -0.206 F 
ATOM     92  C   UNL A   1      46.985  35.445  29.811  1.00  0.00     0.022 A 
BRANCH  89  93
ATOM     93  S   UNL A   1      46.290  36.584  27.362  1.00  0.00     0.124 S 
ATOM     94  O   UNL A   1      47.464  37.352  27.764  1.00  0.00    -0.237 OA
ATOM     95  O   UNL A   1      46.439  35.779  26.155  1.00  0.00    -0.237 OA
ATOM     96  O   UNL A   1      45.016  37.292  27.480  1.00  0.00    -0.744 OA
ENDBRANCH  89  93
ENDBRANCH  63  86
ENDBRANCH  37  38
ENDBRANCH  30  32
ENDBRANCH  29  30
ENDBRANCH  28  29
ENDBRANCH   1  28
TORSDOF 20
ENDMDL
MODEL 3
REMARK VINA RESULT:     -11.5      4.686      7.791
REMARK SMILES CCN(CC)c1ccc(NC(=O)c2ccc(OC)cc2)cc1C(=O)OCCOC(=O)c1ccc(-c2c3nc(c(-c4cc(S(=O)(=O)[O-])ccc4F)c4ccc([nH]4)c(-c4cc(S(=O)(=O)[O-])ccc4F)c4nc(c(-c5cc(S(=O)(=O)[O-])ccc5F)c5ccc2[nH]5)C=C4)C=C3)cc1
REMARK SMILES IDX 26 1 25 2 23 3 24 4 22 5 6 6 7 7 8 8 21 9 9 10 3 11 2 12
REMARK SMILES IDX 1 13 4 14 5 15 10 16 11 17 12 19 13 20 14 21 20 22 15 23
REMARK SMILES IDX 19 24 16 25 17 26 18 27 27 28 28 29 29 30 30 31 31 32 32 33
REMARK SMILES IDX 93 34 33 35 92 36 34 37 35 38 36 39 86 40 37 41 91 42 85 43
REMARK SMILES IDX 87 44 38 45 90 46 84 47 83 48 39 50 71 51 51 52 70 53 52 54
REMARK SMILES IDX 55 55 69 56 88 57 53 58 54 59 68 61 89 62 56 63 40 64 41 65
REMARK SMILES IDX 49 66 42 67 48 68 50 69 47 70 43 71 44 72 45 73 46 74 72 75
REMARK SMILES IDX 73 76 81 77 74 78 80 79 82 80 79 81 75 82 76 83 77 84 78 85
REMARK SMILES IDX 57 86 58 87 66 88 59 89 65 90 67 91 64 92 60 93 61 94 62 95
REMARK SMILES IDX 63 96
REMARK H PARENT 10 18 87 49 55 60
REMARK Flexibility Score: inf
ROOT
ATOM      1  C   UNL A   1      31.059  31.499  26.023  1.00  0.00     0.275 C 
ENDROOT
BRANCH   1   2
ATOM      2  O   UNL A   1      31.424  30.220  26.582  1.00  0.00    -0.458 OA
BRANCH   2   3
ATOM      3  C   UNL A   1      32.255  29.446  25.837  1.00  0.00     0.340 C 
ATOM      4  O   UNL A   1      33.432  29.660  25.599  1.00  0.00    -0.246 OA
BRANCH   3   5
ATOM      5  C   UNL A   1      31.565  28.204  25.428  1.00  0.00     0.085 A 
ATOM      6  C   UNL A   1      30.802  28.109  24.246  1.00  0.00     0.051 A 
ATOM      7  C   UNL A   1      30.036  26.942  24.116  1.00  0.00     0.029 A 
ATOM      8  C   UNL A   1      30.089  25.895  25.045  1.00  0.00     0.028 A 
ATOM      9  C   UNL A   1      31.680  27.118  26.326  1.00  0.00     0.044 A 
ATOM     10  C   UNL A   1      30.963  25.941  26.122  1.00  0.00     0.042 A 
BRANCH   6  11
ATOM     11  N   UNL A   1      30.825  29.050  23.220  1.00  0.00    -0.371 N 
BRANCH  11  12
ATOM     12  C   UNL A   1      31.787  28.874  22.122  1.00  0.00     0.113 C 
ATOM     13  C   UNL A   1      33.051  28.151  22.557  1.00  0.00     0.027 C 
ENDBRANCH  11  12
BRANCH  11  14
ATOM     14  C   UNL A   1      29.712  29.990  23.034  1.00  0.00     0.113 C 
ATOM     15  C   UNL A   1      29.508  30.417  21.583  1.00  0.00     0.027 C 
ENDBRANCH  11  14
ENDBRANCH   6  11
BRANCH  10  16
ATOM     16  N   UNL A   1      31.137  24.889  27.042  1.00  0.00    -0.322 N 
ATOM     17  C   UNL A   1      31.838  23.703  26.945  1.00  0.00     0.255 C 
ATOM     18  H   UNL A   1      30.677  25.019  27.903  1.00  0.00     0.170 HD
ATOM     19  O   UNL A   1      31.670  22.806  27.766  1.00  0.00    -0.269 OA
BRANCH  17  20
ATOM     20  C   UNL A   1      32.871  23.518  25.905  1.00  0.00     0.040 A 
ATOM     21  C   UNL A   1      32.559  22.792  24.753  1.00  0.00     0.017 A 
ATOM     22  C   UNL A   1      34.141  24.088  26.058  1.00  0.00     0.017 A 
ATOM     23  C   UNL A   1      33.484  22.732  23.709  1.00  0.00     0.047 A 
ATOM     24  C   UNL A   1      35.057  24.034  25.007  1.00  0.00     0.047 A 
ATOM     25  C   UNL A   1      34.713  23.392  23.815  1.00  0.00     0.118 A 
BRANCH  25  26
ATOM     26  O   UNL A   1      35.512  23.335  22.705  1.00  0.00    -0.497 OA
ATOM     27  C   UNL A   1      36.823  22.826  22.938  1.00  0.00     0.278 C 
ENDBRANCH  25  26
ENDBRANCH  17  20
ENDBRANCH  10  16
ENDBRANCH   3   5
ENDBRANCH   2   3
ENDBRANCH   1   2
BRANCH   1  28
ATOM     28  C   UNL A   1      31.378  32.620  27.009  1.00  0.00     0.275 C 
BRANCH  28  29
ATOM     29  O   UNL A   1      32.757  32.988  26.849  1.00  0.00    -0.458 OA
BRANCH  29  30
ATOM     30  C   UNL A   1      33.295  33.668  27.883  1.00  0.00     0.338 C 
ATOM     31  O   UNL A   1      32.833  34.633  28.473  1.00  0.00    -0.246 OA
BRANCH  30  32
ATOM     32  C   UNL A   1      34.493  32.942  28.312  1.00  0.00     0.060 A 
ATOM     33  C   UNL A   1      34.391  31.558  28.448  1.00  0.00     0.016 A 
ATOM     34  C   UNL A   1      35.670  33.607  28.639  1.00  0.00     0.016 A 
ATOM     35  C   UNL A   1      35.454  30.824  28.964  1.00  0.00     0.010 A 
ATOM     36  C   UNL A   1      36.751  32.865  29.122  1.00  0.00     0.010 A 
ATOM     37  C   UNL A   1      36.643  31.472  29.317  1.00  0.00    -0.014 A 
BRANCH  37  38
ATOM     38  C   UNL A   1      37.731  30.730  30.007  1.00  0.00     0.031 A 
ATOM     39  C   UNL A   1      37.973  31.000  31.468  1.00  0.00     0.074 A 
ATOM     40  C   UNL A   1      38.479  29.819  29.357  1.00  0.00     0.049 A 
ATOM     41  N   UNL A   1      39.002  30.696  32.212  1.00  0.00    -0.248 NA
ATOM     42  C   UNL A   1      36.911  31.734  32.176  1.00  0.00     0.031 C 
ATOM     43  C   UNL A   1      38.286  29.395  27.969  1.00  0.00     0.029 A 
ATOM     44  N   UNL A   1      39.563  29.086  29.778  1.00  0.00    -0.354 N 
ATOM     45  C   UNL A   1      38.738  31.244  33.464  1.00  0.00     0.074 A 
ATOM     46  C   UNL A   1      37.455  31.908  33.371  1.00  0.00     0.031 C 
ATOM     47  C   UNL A   1      39.215  28.478  27.656  1.00  0.00     0.029 A 
ATOM     48  C   UNL A   1      40.123  28.312  28.788  1.00  0.00     0.049 A 
ATOM     49  H   UNL A   1      39.906  29.113  30.701  1.00  0.00     0.167 HD
ATOM     50  C   UNL A   1      39.503  31.199  34.582  1.00  0.00     0.034 A 
ATOM     51  C   UNL A   1      41.269  27.600  28.775  1.00  0.00     0.034 A 
ATOM     52  C   UNL A   1      40.764  30.499  34.654  1.00  0.00     0.049 A 
ATOM     53  C   UNL A   1      42.132  27.605  30.014  1.00  0.00     0.074 A 
ATOM     54  C   UNL A   1      41.654  30.421  35.710  1.00  0.00     0.029 A 
ATOM     55  N   UNL A   1      41.301  29.732  33.626  1.00  0.00    -0.354 N 
ATOM     56  N   UNL A   1      41.937  28.227  31.156  1.00  0.00    -0.248 NA
ATOM     57  C   UNL A   1      43.375  26.823  29.962  1.00  0.00     0.031 C 
ATOM     58  C   UNL A   1      42.747  29.643  35.308  1.00  0.00     0.029 A 
ATOM     59  C   UNL A   1      42.509  29.184  34.022  1.00  0.00     0.049 A 
ATOM     60  H   UNL A   1      40.882  29.600  32.745  1.00  0.00     0.167 HD
ATOM     61  C   UNL A   1      43.025  27.896  31.960  1.00  0.00     0.074 A 
ATOM     62  C   UNL A   1      43.857  27.001  31.182  1.00  0.00     0.031 C 
ATOM     63  C   UNL A   1      43.318  28.296  33.223  1.00  0.00     0.034 A 
BRANCH  50  64
ATOM     64  C   UNL A   1      39.028  31.979  35.783  1.00  0.00     0.023 A 
ATOM     65  C   UNL A   1      38.338  31.368  36.845  1.00  0.00     0.031 A 
ATOM     66  C   UNL A   1      39.237  33.368  35.847  1.00  0.00     0.131 A 
ATOM     67  C   UNL A   1      37.830  32.155  37.892  1.00  0.00     0.055 A 
ATOM     68  C   UNL A   1      38.795  34.133  36.928  1.00  0.00     0.041 A 
ATOM     69  F   UNL A   1      39.867  34.010  34.850  1.00  0.00    -0.206 F 
ATOM     70  C   UNL A   1      38.075  33.528  37.953  1.00  0.00     0.022 A 
BRANCH  67  71
ATOM     71  S   UNL A   1      36.737  31.378  39.115  1.00  0.00     0.124 S 
ATOM     72  O   UNL A   1      35.639  32.340  39.182  1.00  0.00    -0.237 OA
ATOM     73  O   UNL A   1      36.427  30.096  38.494  1.00  0.00    -0.237 OA
ATOM     74  O   UNL A   1      37.565  31.303  40.317  1.00  0.00    -0.744 OA
ENDBRANCH  67  71
ENDBRANCH  50  64
BRANCH  51  75
ATOM     75  C   UNL A   1      41.723  26.903  27.535  1.00  0.00     0.023 A 
ATOM     76  C   UNL A   1      41.587  25.513  27.387  1.00  0.00     0.031 A 
ATOM     77  C   UNL A   1      42.363  27.612  26.502  1.00  0.00     0.131 A 
ATOM     78  C   UNL A   1      42.128  24.872  26.259  1.00  0.00     0.055 A 
ATOM     79  C   UNL A   1      42.842  26.980  25.355  1.00  0.00     0.041 A 
ATOM     80  F   UNL A   1      42.529  28.942  26.593  1.00  0.00    -0.206 F 
ATOM     81  C   UNL A   1      42.740  25.598  25.236  1.00  0.00     0.022 A 
BRANCH  78  82
ATOM     82  S   UNL A   1      42.123  23.058  26.201  1.00  0.00     0.124 S 
ATOM     83  O   UNL A   1      40.695  22.762  26.211  1.00  0.00    -0.237 OA
ATOM     84  O   UNL A   1      42.826  22.794  24.951  1.00  0.00    -0.237 OA
ATOM     85  O   UNL A   1      42.847  22.678  27.413  1.00  0.00    -0.744 OA
ENDBRANCH  78  82
ENDBRANCH  51  75
BRANCH  63  86
ATOM     86  C   UNL A   1      44.565  27.720  33.843  1.00  0.00     0.023 A 
ATOM     87  C   UNL A   1      44.529  26.550  34.621  1.00  0.00     0.031 A 
ATOM     88  C   UNL A   1      45.802  28.364  33.667  1.00  0.00     0.131 A 
ATOM     89  C   UNL A   1      45.699  26.090  35.242  1.00  0.00     0.055 A 
ATOM     90  C   UNL A   1      46.972  27.873  34.244  1.00  0.00     0.041 A 
ATOM     91  F   UNL A   1      45.889  29.484  32.931  1.00  0.00    -0.206 F 
ATOM     92  C   UNL A   1      46.923  26.737  35.047  1.00  0.00     0.022 A 
BRANCH  89  93
ATOM     93  S   UNL A   1      45.588  24.679  36.375  1.00  0.00     0.124 S 
ATOM     94  O   UNL A   1      45.593  23.547  35.453  1.00  0.00    -0.237 OA
ATOM     95  O   UNL A   1      46.784  24.839  37.194  1.00  0.00    -0.237 OA
ATOM     96  O   UNL A   1      44.324  24.902  37.077  1.00  0.00    -0.744 OA
ENDBRANCH  89  93
ENDBRANCH  63  86
ENDBRANCH  37  38
ENDBRANCH  30  32
ENDBRANCH  29  30
ENDBRANCH  28  29
ENDBRANCH   1  28
TORSDOF 20
ENDMDL
