MODEL 1
REMARK VINA RESULT:     -11.7      0.000      0.000
REMARK SMILES CSc1ccc(CNc2ccc(N3CCOCC3)c(C(=O)OCCOC(=O)c3ccc(-c4c5nc(c(-c6cc(S(=O)(=O)[O-])ccc6F)c6ccc([nH]6)c(-c6cc(S(=O)(=O)[O-])ccc6F)c6nc(c(-c7cc(S(=O)(=O)[O-])ccc7F)c7ccc4[nH]7)C=C6)C=C5)cc3)c2)cc1
REMARK SMILES IDX 23 1 22 2 20 3 21 4 19 5 9 6 10 7 91 8 11 9 12 10 8 11 7 13
REMARK SMILES IDX 6 14 3 15 4 16 93 17 5 18 92 19 2 20 1 21 13 22 14 23 18 24
REMARK SMILES IDX 15 25 17 26 16 27 24 28 25 29 26 30 27 31 28 32 29 33 90 34
REMARK SMILES IDX 30 35 89 36 31 37 32 38 33 39 83 40 34 41 88 42 82 43 84 44
REMARK SMILES IDX 35 45 87 46 81 47 80 48 36 50 68 51 48 52 67 53 49 54 52 55
REMARK SMILES IDX 66 56 85 57 50 58 51 59 65 61 86 62 53 63 37 64 38 65 46 66
REMARK SMILES IDX 39 67 45 68 47 69 44 70 40 71 41 72 42 73 43 74 69 75 70 76
REMARK SMILES IDX 78 77 71 78 77 79 79 80 76 81 72 82 73 83 74 84 75 85 54 86
REMARK SMILES IDX 55 87 63 88 56 89 62 90 64 91 61 92 57 93 58 94 59 95 60 96
REMARK H PARENT 8 12 84 49 52 60
REMARK Flexibility Score: inf
ROOT
ATOM      1  C   UNL A   1      31.383  28.803  26.459  1.00  0.00     0.275 C 
ENDROOT
BRANCH   1   2
ATOM      2  O   UNL A   1      32.498  27.967  26.087  1.00  0.00    -0.458 OA
BRANCH   2   3
ATOM      3  C   UNL A   1      32.270  26.627  26.082  1.00  0.00     0.340 C 
ATOM      4  O   UNL A   1      31.644  26.005  26.926  1.00  0.00    -0.246 OA
BRANCH   3   5
ATOM      5  C   UNL A   1      33.076  26.001  25.013  1.00  0.00     0.085 A 
ATOM      6  C   UNL A   1      34.919  24.407  24.824  1.00  0.00     0.035 A 
ATOM      7  C   UNL A   1      34.587  24.267  23.476  1.00  0.00     0.028 A 
ATOM      8  C   UNL A   1      34.188  25.332  25.554  1.00  0.00     0.043 A 
ATOM      9  C   UNL A   1      33.519  24.985  22.900  1.00  0.00     0.029 A 
ATOM     10  C   UNL A   1      32.707  25.845  23.657  1.00  0.00     0.052 A 
BRANCH   6  11
ATOM     11  N   UNL A   1      35.843  23.571  25.421  1.00  0.00    -0.381 N 
ATOM     12  H   UNL A   1      35.998  23.661  26.389  1.00  0.00     0.160 HD
BRANCH  11  13
ATOM     13  C   UNL A   1      36.596  22.565  24.690  1.00  0.00     0.148 C 
BRANCH  13  14
ATOM     14  C   UNL A   1      35.861  21.247  24.714  1.00  0.00    -0.029 A 
ATOM     15  C   UNL A   1      34.526  18.776  24.730  1.00  0.00     0.007 A 
ATOM     16  C   UNL A   1      35.916  18.821  24.859  1.00  0.00     0.015 A 
ATOM     17  C   UNL A   1      33.810  19.963  24.559  1.00  0.00     0.015 A 
ATOM     18  C   UNL A   1      36.579  20.048  24.850  1.00  0.00     0.007 A 
ATOM     19  C   UNL A   1      34.472  21.193  24.552  1.00  0.00     0.007 A 
BRANCH  15  20
ATOM     20  S   UNL A   1      33.655  17.222  24.784  1.00  0.00    -0.130 SA
ATOM     21  C   UNL A   1      34.097  16.609  23.136  1.00  0.00     0.091 C 
ENDBRANCH  15  20
ENDBRANCH  13  14
ENDBRANCH  11  13
ENDBRANCH   6  11
BRANCH  10  22
ATOM     22  N   UNL A   1      31.525  26.296  23.058  1.00  0.00    -0.366 N 
ATOM     23  C   UNL A   1      31.375  28.017  22.329  1.00  0.00     0.145 C 
ATOM     24  C   UNL A   1      30.144  25.450  23.613  1.00  0.00     0.145 C 
ATOM     25  C   UNL A   1      29.418  28.980  22.694  1.00  0.00     0.181 C 
ATOM     26  C   UNL A   1      28.548  26.302  23.934  1.00  0.00     0.181 C 
ATOM     27  O   UNL A   1      28.187  27.902  23.521  1.00  0.00    -0.378 OA
ENDBRANCH  10  22
ENDBRANCH   3   5
ENDBRANCH   2   3
ENDBRANCH   1   2
BRANCH   1  28
ATOM     28  C   UNL A   1      31.380  30.037  25.567  1.00  0.00     0.275 C 
BRANCH  28  29
ATOM     29  O   UNL A   1      32.635  30.704  25.760  1.00  0.00    -0.458 OA
BRANCH  29  30
ATOM     30  C   UNL A   1      32.593  31.645  26.721  1.00  0.00     0.338 C 
ATOM     31  O   UNL A   1      31.718  32.467  26.933  1.00  0.00    -0.246 OA
BRANCH  30  32
ATOM     32  C   UNL A   1      33.767  31.550  27.575  1.00  0.00     0.060 A 
ATOM     33  C   UNL A   1      34.875  32.879  27.881  1.00  0.00     0.016 A 
ATOM     34  C   UNL A   1      34.297  29.976  27.996  1.00  0.00     0.016 A 
ATOM     35  C   UNL A   1      36.655  32.465  28.608  1.00  0.00     0.010 A 
ATOM     36  C   UNL A   1      35.830  29.630  28.687  1.00  0.00     0.010 A 
ATOM     37  C   UNL A   1      37.060  30.797  29.018  1.00  0.00    -0.014 A 
BRANCH  37  38
ATOM     38  C   UNL A   1      38.311  30.414  29.755  1.00  0.00     0.031 A 
ATOM     39  C   UNL A   1      39.365  29.537  29.116  1.00  0.00     0.074 A 
ATOM     40  C   UNL A   1      38.476  30.776  31.046  1.00  0.00     0.049 A 
ATOM     41  N   UNL A   1      40.398  28.945  29.665  1.00  0.00    -0.248 NA
ATOM     42  C   UNL A   1      39.200  29.225  27.692  1.00  0.00     0.031 C 
ATOM     43  C   UNL A   1      37.507  31.513  31.848  1.00  0.00     0.029 A 
ATOM     44  N   UNL A   1      39.520  30.592  31.923  1.00  0.00    -0.354 N 
ATOM     45  C   UNL A   1      40.951  28.132  28.678  1.00  0.00     0.074 A 
ATOM     46  C   UNL A   1      40.102  28.271  27.514  1.00  0.00     0.031 C 
ATOM     47  C   UNL A   1      38.047  31.864  33.018  1.00  0.00     0.029 A 
ATOM     48  C   UNL A   1      39.345  31.229  33.135  1.00  0.00     0.049 A 
ATOM     49  H   UNL A   1      40.318  30.056  31.706  1.00  0.00     0.167 HD
ATOM     50  C   UNL A   1      42.070  27.360  28.732  1.00  0.00     0.034 A 
ATOM     51  C   UNL A   1      40.106  31.270  34.245  1.00  0.00     0.034 A 
ATOM     52  C   UNL A   1      42.946  27.305  29.883  1.00  0.00     0.049 A 
ATOM     53  C   UNL A   1      41.356  30.446  34.273  1.00  0.00     0.074 A 
ATOM     54  C   UNL A   1      44.146  26.629  30.024  1.00  0.00     0.029 A 
ATOM     55  N   UNL A   1      42.722  27.961  31.089  1.00  0.00    -0.354 N 
ATOM     56  N   UNL A   1      41.849  29.672  33.335  1.00  0.00    -0.248 NA
ATOM     57  C   UNL A   1      42.133  30.476  35.514  1.00  0.00     0.031 C 
ATOM     58  C   UNL A   1      44.613  26.822  31.330  1.00  0.00     0.029 A 
ATOM     59  C   UNL A   1      43.747  27.683  31.984  1.00  0.00     0.049 A 
ATOM     60  H   UNL A   1      41.948  28.538  31.281  1.00  0.00     0.167 HD
ATOM     61  C   UNL A   1      43.000  29.115  33.876  1.00  0.00     0.074 A 
ATOM     62  C   UNL A   1      43.142  29.672  35.209  1.00  0.00     0.031 C 
ATOM     63  C   UNL A   1      43.858  28.220  33.322  1.00  0.00     0.034 A 
BRANCH  50  64
ATOM     64  C   UNL A   1      42.383  26.487  27.529  1.00  0.00     0.023 A 
ATOM     65  C   UNL A   1      41.892  25.174  27.403  1.00  0.00     0.031 A 
ATOM     66  C   UNL A   1      43.234  26.958  26.511  1.00  0.00     0.131 A 
ATOM     67  C   UNL A   1      42.344  24.349  26.360  1.00  0.00     0.055 A 
ATOM     68  C   UNL A   1      43.597  26.165  25.418  1.00  0.00     0.041 A 
ATOM     69  F   UNL A   1      43.751  28.196  26.570  1.00  0.00    -0.206 F 
ATOM     70  C   UNL A   1      43.171  24.843  25.351  1.00  0.00     0.022 A 
BRANCH  67  71
ATOM     71  S   UNL A   1      41.996  22.570  26.456  1.00  0.00     0.124 S 
ATOM     72  O   UNL A   1      40.535  22.554  26.451  1.00  0.00    -0.237 OA
ATOM     73  O   UNL A   1      42.644  22.058  25.254  1.00  0.00    -0.237 OA
ATOM     74  O   UNL A   1      42.611  22.167  27.718  1.00  0.00    -0.744 OA
ENDBRANCH  67  71
ENDBRANCH  50  64
BRANCH  51  75
ATOM     75  C   UNL A   1      39.681  32.093  35.417  1.00  0.00     0.023 A 
ATOM     76  C   UNL A   1      40.075  33.435  35.534  1.00  0.00     0.031 A 
ATOM     77  C   UNL A   1      38.839  31.567  36.416  1.00  0.00     0.131 A 
ATOM     78  C   UNL A   1      39.627  34.205  36.620  1.00  0.00     0.055 A 
ATOM     79  C   UNL A   1      38.348  32.353  37.460  1.00  0.00     0.041 A 
ATOM     80  F   UNL A   1      38.432  30.289  36.357  1.00  0.00    -0.206 F 
ATOM     81  C   UNL A   1      38.747  33.680  37.569  1.00  0.00     0.022 A 
BRANCH  78  82
ATOM     82  S   UNL A   1      40.245  35.901  36.801  1.00  0.00     0.124 S 
ATOM     83  O   UNL A   1      41.688  35.689  36.848  1.00  0.00    -0.237 OA
ATOM     84  O   UNL A   1      39.729  36.545  35.597  1.00  0.00    -0.237 OA
ATOM     85  O   UNL A   1      39.640  36.352  38.053  1.00  0.00    -0.744 OA
ENDBRANCH  78  82
ENDBRANCH  51  75
BRANCH  63  86
ATOM     86  C   UNL A   1      45.040  27.824  34.167  1.00  0.00     0.023 A 
ATOM     87  C   UNL A   1      44.971  26.748  35.070  1.00  0.00     0.031 A 
ATOM     88  C   UNL A   1      46.229  28.571  34.114  1.00  0.00     0.131 A 
ATOM     89  C   UNL A   1      46.044  26.496  35.936  1.00  0.00     0.055 A 
ATOM     90  C   UNL A   1      47.320  28.272  34.930  1.00  0.00     0.041 A 
ATOM     91  F   UNL A   1      46.345  29.614  33.276  1.00  0.00    -0.206 F 
ATOM     92  C   UNL A   1      47.225  27.240  35.860  1.00  0.00     0.022 A 
BRANCH  89  93
ATOM     93  S   UNL A   1      45.828  25.266  37.251  1.00  0.00     0.124 S 
ATOM     94  O   UNL A   1      47.006  24.424  37.073  1.00  0.00    -0.237 OA
ATOM     95  O   UNL A   1      45.811  26.094  38.453  1.00  0.00    -0.237 OA
ATOM     96  O   UNL A   1      44.554  24.630  36.919  1.00  0.00    -0.744 OA
ENDBRANCH  89  93
ENDBRANCH  63  86
ENDBRANCH  37  38
ENDBRANCH  30  32
ENDBRANCH  29  30
ENDBRANCH  28  29
ENDBRANCH   1  28
TORSDOF 19
ENDMDL
MODEL 2
REMARK VINA RESULT:     -11.5      2.452      3.590
REMARK SMILES CSc1ccc(CNc2ccc(N3CCOCC3)c(C(=O)OCCOC(=O)c3ccc(-c4c5nc(c(-c6cc(S(=O)(=O)[O-])ccc6F)c6ccc([nH]6)c(-c6cc(S(=O)(=O)[O-])ccc6F)c6nc(c(-c7cc(S(=O)(=O)[O-])ccc7F)c7ccc4[nH]7)C=C6)C=C5)cc3)c2)cc1
REMARK SMILES IDX 23 1 22 2 20 3 21 4 19 5 9 6 10 7 91 8 11 9 12 10 8 11 7 13
REMARK SMILES IDX 6 14 3 15 4 16 93 17 5 18 92 19 2 20 1 21 13 22 14 23 18 24
REMARK SMILES IDX 15 25 17 26 16 27 24 28 25 29 26 30 27 31 28 32 29 33 90 34
REMARK SMILES IDX 30 35 89 36 31 37 32 38 33 39 83 40 34 41 88 42 82 43 84 44
REMARK SMILES IDX 35 45 87 46 81 47 80 48 36 50 68 51 48 52 67 53 49 54 52 55
REMARK SMILES IDX 66 56 85 57 50 58 51 59 65 61 86 62 53 63 37 64 38 65 46 66
REMARK SMILES IDX 39 67 45 68 47 69 44 70 40 71 41 72 42 73 43 74 69 75 70 76
REMARK SMILES IDX 78 77 71 78 77 79 79 80 76 81 72 82 73 83 74 84 75 85 54 86
REMARK SMILES IDX 55 87 63 88 56 89 62 90 64 91 61 92 57 93 58 94 59 95 60 96
REMARK H PARENT 8 12 84 49 52 60
REMARK Flexibility Score: inf
ROOT
ATOM      1  C   UNL A   1      30.899  30.367  24.815  1.00  0.00     0.275 C 
ENDROOT
BRANCH   1   2
ATOM      2  O   UNL A   1      31.496  29.416  23.909  1.00  0.00    -0.458 OA
BRANCH   2   3
ATOM      3  C   UNL A   1      30.829  29.192  22.746  1.00  0.00     0.340 C 
ATOM      4  O   UNL A   1      31.004  29.789  21.695  1.00  0.00    -0.246 OA
BRANCH   3   5
ATOM      5  C   UNL A   1      29.710  28.261  22.999  1.00  0.00     0.085 A 
ATOM      6  C   UNL A   1      29.310  26.199  24.249  1.00  0.00     0.035 A 
ATOM      7  C   UNL A   1      27.943  26.451  24.121  1.00  0.00     0.028 A 
ATOM      8  C   UNL A   1      30.170  27.086  23.619  1.00  0.00     0.043 A 
ATOM      9  C   UNL A   1      27.463  27.589  23.439  1.00  0.00     0.029 A 
ATOM     10  C   UNL A   1      28.329  28.547  22.890  1.00  0.00     0.052 A 
BRANCH   6  11
ATOM     11  N   UNL A   1      29.775  25.188  25.068  1.00  0.00    -0.381 N 
ATOM     12  H   UNL A   1      29.547  24.259  24.839  1.00  0.00     0.160 HD
BRANCH  11  13
ATOM     13  C   UNL A   1      30.586  25.431  26.250  1.00  0.00     0.148 C 
BRANCH  13  14
ATOM     14  C   UNL A   1      31.999  24.959  26.017  1.00  0.00    -0.029 A 
ATOM     15  C   UNL A   1      34.634  24.108  25.545  1.00  0.00     0.007 A 
ATOM     16  C   UNL A   1      34.316  25.467  25.486  1.00  0.00     0.015 A 
ATOM     17  C   UNL A   1      33.628  23.175  25.807  1.00  0.00     0.015 A 
ATOM     18  C   UNL A   1      33.008  25.890  25.718  1.00  0.00     0.007 A 
ATOM     19  C   UNL A   1      32.318  23.597  26.043  1.00  0.00     0.007 A 
BRANCH  15  20
ATOM     20  S   UNL A   1      36.309  23.551  25.295  1.00  0.00    -0.130 SA
ATOM     21  C   UNL A   1      36.090  21.819  25.781  1.00  0.00     0.091 C 
ENDBRANCH  15  20
ENDBRANCH  13  14
ENDBRANCH  11  13
ENDBRANCH   6  11
BRANCH  10  22
ATOM     22  N   UNL A   1      27.760  29.757  22.476  1.00  0.00    -0.366 N 
ATOM     23  C   UNL A   1      27.746  30.284  20.676  1.00  0.00     0.145 C 
ATOM     24  C   UNL A   1      27.692  30.916  23.735  1.00  0.00     0.145 C 
ATOM     25  C   UNL A   1      28.114  32.443  20.369  1.00  0.00     0.181 C 
ATOM     26  C   UNL A   1      28.040  32.695  23.434  1.00  0.00     0.181 C 
ATOM     27  O   UNL A   1      28.229  33.418  21.917  1.00  0.00    -0.378 OA
ENDBRANCH  10  22
ENDBRANCH   3   5
ENDBRANCH   2   3
ENDBRANCH   1   2
BRANCH   1  28
ATOM     28  C   UNL A   1      31.583  30.248  26.169  1.00  0.00     0.275 C 
BRANCH  28  29
ATOM     29  O   UNL A   1      32.802  31.001  26.098  1.00  0.00    -0.458 OA
BRANCH  29  30
ATOM     30  C   UNL A   1      32.884  31.965  27.034  1.00  0.00     0.338 C 
ATOM     31  O   UNL A   1      32.082  32.851  27.276  1.00  0.00    -0.246 OA
BRANCH  30  32
ATOM     32  C   UNL A   1      34.100  31.808  27.818  1.00  0.00     0.060 A 
ATOM     33  C   UNL A   1      35.356  33.029  27.945  1.00  0.00     0.016 A 
ATOM     34  C   UNL A   1      34.494  30.221  28.331  1.00  0.00     0.016 A 
ATOM     35  C   UNL A   1      37.131  32.481  28.592  1.00  0.00     0.010 A 
ATOM     36  C   UNL A   1      36.029  29.764  28.952  1.00  0.00     0.010 A 
ATOM     37  C   UNL A   1      37.391  30.814  29.110  1.00  0.00    -0.014 A 
BRANCH  37  38
ATOM     38  C   UNL A   1      38.645  30.354  29.795  1.00  0.00     0.031 A 
ATOM     39  C   UNL A   1      39.616  29.414  29.116  1.00  0.00     0.074 A 
ATOM     40  C   UNL A   1      38.885  30.704  31.078  1.00  0.00     0.049 A 
ATOM     41  N   UNL A   1      40.633  28.760  29.624  1.00  0.00    -0.248 NA
ATOM     42  C   UNL A   1      39.375  29.113  27.700  1.00  0.00     0.031 C 
ATOM     43  C   UNL A   1      37.996  31.499  31.918  1.00  0.00     0.029 A 
ATOM     44  N   UNL A   1      39.951  30.455  31.912  1.00  0.00    -0.354 N 
ATOM     45  C   UNL A   1      41.094  27.914  28.616  1.00  0.00     0.074 A 
ATOM     46  C   UNL A   1      40.209  28.106  27.488  1.00  0.00     0.031 C 
ATOM     47  C   UNL A   1      38.604  31.815  33.064  1.00  0.00     0.029 A 
ATOM     48  C   UNL A   1      39.864  31.101  33.129  1.00  0.00     0.049 A 
ATOM     49  H   UNL A   1      40.704  29.872  31.664  1.00  0.00     0.167 HD
ATOM     50  C   UNL A   1      42.164  27.075  28.626  1.00  0.00     0.034 A 
ATOM     51  C   UNL A   1      40.670  31.095  34.207  1.00  0.00     0.034 A 
ATOM     52  C   UNL A   1      43.082  26.965  29.741  1.00  0.00     0.049 A 
ATOM     53  C   UNL A   1      41.868  30.196  34.186  1.00  0.00     0.074 A 
ATOM     54  C   UNL A   1      44.243  26.217  29.834  1.00  0.00     0.029 A 
ATOM     55  N   UNL A   1      42.948  27.633  30.954  1.00  0.00    -0.354 N 
ATOM     56  N   UNL A   1      42.274  29.393  33.231  1.00  0.00    -0.248 NA
ATOM     57  C   UNL A   1      42.695  30.176  35.395  1.00  0.00     0.031 C 
ATOM     58  C   UNL A   1      44.774  26.380  31.120  1.00  0.00     0.029 A 
ATOM     59  C   UNL A   1      43.990  27.292  31.807  1.00  0.00     0.049 A 
ATOM     60  H   UNL A   1      42.219  28.257  31.176  1.00  0.00     0.167 HD
ATOM     61  C   UNL A   1      43.409  28.766  33.725  1.00  0.00     0.074 A 
ATOM     62  C   UNL A   1      43.639  29.313  35.050  1.00  0.00     0.031 C 
ATOM     63  C   UNL A   1      44.187  27.821  33.138  1.00  0.00     0.034 A 
BRANCH  50  64
ATOM     64  C   UNL A   1      42.375  26.185  27.413  1.00  0.00     0.023 A 
ATOM     65  C   UNL A   1      41.850  24.881  27.335  1.00  0.00     0.031 A 
ATOM     66  C   UNL A   1      43.160  26.630  26.333  1.00  0.00     0.131 A 
ATOM     67  C   UNL A   1      42.210  24.038  26.272  1.00  0.00     0.055 A 
ATOM     68  C   UNL A   1      43.428  25.820  25.225  1.00  0.00     0.041 A 
ATOM     69  F   UNL A   1      43.705  27.857  26.343  1.00  0.00    -0.206 F 
ATOM     70  C   UNL A   1      42.973  24.507  25.202  1.00  0.00     0.022 A 
BRANCH  67  71
ATOM     71  S   UNL A   1      41.835  22.267  26.410  1.00  0.00     0.124 S 
ATOM     72  O   UNL A   1      40.381  22.262  26.259  1.00  0.00    -0.237 OA
ATOM     73  O   UNL A   1      42.594  21.698  25.303  1.00  0.00    -0.237 OA
ATOM     74  O   UNL A   1      42.315  21.917  27.745  1.00  0.00    -0.744 OA
ENDBRANCH  67  71
ENDBRANCH  50  64
BRANCH  51  75
ATOM     75  C   UNL A   1      40.345  31.941  35.394  1.00  0.00     0.023 A 
ATOM     76  C   UNL A   1      39.290  31.597  36.254  1.00  0.00     0.031 A 
ATOM     77  C   UNL A   1      41.108  33.080  35.715  1.00  0.00     0.131 A 
ATOM     78  C   UNL A   1      39.028  32.380  37.391  1.00  0.00     0.055 A 
ATOM     79  C   UNL A   1      40.883  33.819  36.878  1.00  0.00     0.041 A 
ATOM     80  F   UNL A   1      42.128  33.457  34.928  1.00  0.00    -0.206 F 
ATOM     81  C   UNL A   1      39.833  33.473  37.721  1.00  0.00     0.022 A 
BRANCH  78  82
ATOM     82  S   UNL A   1      37.589  31.975  38.418  1.00  0.00     0.124 S 
ATOM     83  O   UNL A   1      37.259  30.632  37.954  1.00  0.00    -0.237 OA
ATOM     84  O   UNL A   1      38.139  32.071  39.767  1.00  0.00    -0.237 OA
ATOM     85  O   UNL A   1      36.618  33.011  38.069  1.00  0.00    -0.744 OA
ENDBRANCH  78  82
ENDBRANCH  51  75
BRANCH  63  86
ATOM     86  C   UNL A   1      45.376  27.352  33.935  1.00  0.00     0.023 A 
ATOM     87  C   UNL A   1      46.629  27.983  33.828  1.00  0.00     0.031 A 
ATOM     88  C   UNL A   1      45.271  26.223  34.765  1.00  0.00     0.131 A 
ATOM     89  C   UNL A   1      47.742  27.435  34.479  1.00  0.00     0.055 A 
ATOM     90  C   UNL A   1      46.368  25.723  35.465  1.00  0.00     0.041 A 
ATOM     91  F   UNL A   1      44.101  25.577  34.896  1.00  0.00    -0.206 F 
ATOM     92  C   UNL A   1      47.618  26.320  35.312  1.00  0.00     0.022 A 
BRANCH  89  93
ATOM     93  S   UNL A   1      49.382  28.124  34.123  1.00  0.00     0.124 S 
ATOM     94  O   UNL A   1      49.107  28.977  32.971  1.00  0.00    -0.237 OA
ATOM     95  O   UNL A   1      49.707  28.816  35.367  1.00  0.00    -0.237 OA
ATOM     96  O   UNL A   1      50.196  26.943  33.840  1.00  0.00    -0.744 OA
ENDBRANCH  89  93
ENDBRANCH  63  86
ENDBRANCH  37  38
ENDBRANCH  30  32
ENDBRANCH  29  30
ENDBRANCH  28  29
ENDBRANCH   1  28
TORSDOF 19
ENDMDL
MODEL 3
REMARK VINA RESULT:     -11.4      1.807      3.049
REMARK SMILES CSc1ccc(CNc2ccc(N3CCOCC3)c(C(=O)OCCOC(=O)c3ccc(-c4c5nc(c(-c6cc(S(=O)(=O)[O-])ccc6F)c6ccc([nH]6)c(-c6cc(S(=O)(=O)[O-])ccc6F)c6nc(c(-c7cc(S(=O)(=O)[O-])ccc7F)c7ccc4[nH]7)C=C6)C=C5)cc3)c2)cc1
REMARK SMILES IDX 23 1 22 2 20 3 21 4 19 5 9 6 10 7 91 8 11 9 12 10 8 11 7 13
REMARK SMILES IDX 6 14 3 15 4 16 93 17 5 18 92 19 2 20 1 21 13 22 14 23 18 24
REMARK SMILES IDX 15 25 17 26 16 27 24 28 25 29 26 30 27 31 28 32 29 33 90 34
REMARK SMILES IDX 30 35 89 36 31 37 32 38 33 39 83 40 34 41 88 42 82 43 84 44
REMARK SMILES IDX 35 45 87 46 81 47 80 48 36 50 68 51 48 52 67 53 49 54 52 55
REMARK SMILES IDX 66 56 85 57 50 58 51 59 65 61 86 62 53 63 37 64 38 65 46 66
REMARK SMILES IDX 39 67 45 68 47 69 44 70 40 71 41 72 42 73 43 74 69 75 70 76
REMARK SMILES IDX 78 77 71 78 77 79 79 80 76 81 72 82 73 83 74 84 75 85 54 86
REMARK SMILES IDX 55 87 63 88 56 89 62 90 64 91 61 92 57 93 58 94 59 95 60 96
REMARK H PARENT 8 12 84 49 52 60
REMARK Flexibility Score: inf
ROOT
ATOM      1  C   UNL A   1      30.953  29.940  24.601  1.00  0.00     0.275 C 
ENDROOT
BRANCH   1   2
ATOM      2  O   UNL A   1      31.554  29.322  23.445  1.00  0.00    -0.458 OA
BRANCH   2   3
ATOM      3  C   UNL A   1      30.738  29.123  22.376  1.00  0.00     0.340 C 
ATOM      4  O   UNL A   1      30.811  29.701  21.303  1.00  0.00    -0.246 OA
BRANCH   3   5
ATOM      5  C   UNL A   1      29.615  28.251  22.778  1.00  0.00     0.085 A 
ATOM      6  C   UNL A   1      29.272  26.227  24.105  1.00  0.00     0.035 A 
ATOM      7  C   UNL A   1      27.913  26.545  24.138  1.00  0.00     0.028 A 
ATOM      8  C   UNL A   1      30.090  27.063  23.360  1.00  0.00     0.043 A 
ATOM      9  C   UNL A   1      27.408  27.696  23.497  1.00  0.00     0.029 A 
ATOM     10  C   UNL A   1      28.246  28.603  22.831  1.00  0.00     0.052 A 
BRANCH   6  11
ATOM     11  N   UNL A   1      29.784  25.205  24.881  1.00  0.00    -0.381 N 
ATOM     12  H   UNL A   1      29.503  24.283  24.684  1.00  0.00     0.160 HD
BRANCH  11  13
ATOM     13  C   UNL A   1      30.718  25.426  25.973  1.00  0.00     0.148 C 
BRANCH  13  14
ATOM     14  C   UNL A   1      32.078  24.884  25.611  1.00  0.00    -0.029 A 
ATOM     15  C   UNL A   1      34.608  23.843  24.974  1.00  0.00     0.007 A 
ATOM     16  C   UNL A   1      33.554  22.981  25.281  1.00  0.00     0.015 A 
ATOM     17  C   UNL A   1      34.405  25.224  25.019  1.00  0.00     0.015 A 
ATOM     18  C   UNL A   1      32.298  23.496  25.599  1.00  0.00     0.007 A 
ATOM     19  C   UNL A   1      33.147  25.743  25.335  1.00  0.00     0.007 A 
BRANCH  15  20
ATOM     20  S   UNL A   1      36.208  23.203  24.522  1.00  0.00    -0.130 SA
ATOM     21  C   UNL A   1      37.125  23.698  26.006  1.00  0.00     0.091 C 
ENDBRANCH  15  20
ENDBRANCH  13  14
ENDBRANCH  11  13
ENDBRANCH   6  11
BRANCH  10  22
ATOM     22  N   UNL A   1      27.689  29.835  22.466  1.00  0.00    -0.366 N 
ATOM     23  C   UNL A   1      27.635  30.410  20.682  1.00  0.00     0.145 C 
ATOM     24  C   UNL A   1      27.679  30.960  23.756  1.00  0.00     0.145 C 
ATOM     25  C   UNL A   1      28.036  32.569  20.422  1.00  0.00     0.181 C 
ATOM     26  C   UNL A   1      28.053  32.740  23.494  1.00  0.00     0.181 C 
ATOM     27  O   UNL A   1      28.213  33.500  21.992  1.00  0.00    -0.378 OA
ENDBRANCH  10  22
ENDBRANCH   3   5
ENDBRANCH   2   3
ENDBRANCH   1   2
BRANCH   1  28
ATOM     28  C   UNL A   1      31.799  29.615  25.824  1.00  0.00     0.275 C 
BRANCH  28  29
ATOM     29  O   UNL A   1      32.933  30.493  25.802  1.00  0.00    -0.458 OA
BRANCH  29  30
ATOM     30  C   UNL A   1      32.874  31.456  26.741  1.00  0.00     0.338 C 
ATOM     31  O   UNL A   1      32.006  32.296  26.906  1.00  0.00    -0.246 OA
BRANCH  30  32
ATOM     32  C   UNL A   1      34.018  31.362  27.636  1.00  0.00     0.060 A 
ATOM     33  C   UNL A   1      35.159  32.667  27.920  1.00  0.00     0.016 A 
ATOM     34  C   UNL A   1      34.482  29.791  28.140  1.00  0.00     0.016 A 
ATOM     35  C   UNL A   1      36.901  32.229  28.722  1.00  0.00     0.010 A 
ATOM     36  C   UNL A   1      35.982  29.427  28.895  1.00  0.00     0.010 A 
ATOM     37  C   UNL A   1      37.238  30.569  29.216  1.00  0.00    -0.014 A 
BRANCH  37  38
ATOM     38  C   UNL A   1      38.453  30.179  30.007  1.00  0.00     0.031 A 
ATOM     39  C   UNL A   1      39.521  29.282  29.423  1.00  0.00     0.074 A 
ATOM     40  C   UNL A   1      38.569  30.553  31.300  1.00  0.00     0.049 A 
ATOM     41  N   UNL A   1      40.524  28.685  30.021  1.00  0.00    -0.248 NA
ATOM     42  C   UNL A   1      39.412  28.957  27.996  1.00  0.00     0.031 C 
ATOM     43  C   UNL A   1      37.575  31.310  32.054  1.00  0.00     0.029 A 
ATOM     44  N   UNL A   1      39.573  30.366  32.222  1.00  0.00    -0.354 N 
ATOM     45  C   UNL A   1      41.107  27.854  29.066  1.00  0.00     0.074 A 
ATOM     46  C   UNL A   1      40.309  27.991  27.866  1.00  0.00     0.031 C 
ATOM     47  C   UNL A   1      38.070  31.667  33.241  1.00  0.00     0.029 A 
ATOM     48  C   UNL A   1      39.355  31.018  33.419  1.00  0.00     0.049 A 
ATOM     49  H   UNL A   1      40.372  29.819  32.044  1.00  0.00     0.167 HD
ATOM     50  C   UNL A   1      42.213  27.069  29.175  1.00  0.00     0.034 A 
ATOM     51  C   UNL A   1      40.069  31.063  34.560  1.00  0.00     0.034 A 
ATOM     52  C   UNL A   1      43.040  27.017  30.362  1.00  0.00     0.049 A 
ATOM     53  C   UNL A   1      41.307  30.225  34.648  1.00  0.00     0.074 A 
ATOM     54  C   UNL A   1      44.225  26.329  30.560  1.00  0.00     0.029 A 
ATOM     55  N   UNL A   1      42.774  27.688  31.551  1.00  0.00    -0.354 N 
ATOM     56  N   UNL A   1      41.829  29.434  33.741  1.00  0.00    -0.248 NA
ATOM     57  C   UNL A   1      42.032  30.258  35.921  1.00  0.00     0.031 C 
ATOM     58  C   UNL A   1      44.639  26.530  31.882  1.00  0.00     0.029 A 
ATOM     59  C   UNL A   1      43.757  27.409  32.491  1.00  0.00     0.049 A 
ATOM     60  H   UNL A   1      41.999  28.277  31.704  1.00  0.00     0.167 HD
ATOM     61  C   UNL A   1      42.950  28.869  34.335  1.00  0.00     0.074 A 
ATOM     62  C   UNL A   1      43.042  29.440  35.666  1.00  0.00     0.031 C 
ATOM     63  C   UNL A   1      43.818  27.959  33.826  1.00  0.00     0.034 A 
BRANCH  50  64
ATOM     64  C   UNL A   1      42.566  26.180  27.995  1.00  0.00     0.023 A 
ATOM     65  C   UNL A   1      41.946  24.935  27.779  1.00  0.00     0.031 A 
ATOM     66  C   UNL A   1      43.580  26.560  27.096  1.00  0.00     0.131 A 
ATOM     67  C   UNL A   1      42.420  24.074  26.776  1.00  0.00     0.055 A 
ATOM     68  C   UNL A   1      43.977  25.743  26.033  1.00  0.00     0.041 A 
ATOM     69  F   UNL A   1      44.226  27.728  27.247  1.00  0.00    -0.206 F 
ATOM     70  C   UNL A   1      43.414  24.481  25.883  1.00  0.00     0.022 A 
BRANCH  67  71
ATOM     71  S   UNL A   1      41.862  22.347  26.784  1.00  0.00     0.124 S 
ATOM     72  O   UNL A   1      42.348  21.888  28.083  1.00  0.00    -0.237 OA
ATOM     73  O   UNL A   1      40.416  22.484  26.655  1.00  0.00    -0.237 OA
ATOM     74  O   UNL A   1      42.541  21.761  25.631  1.00  0.00    -0.744 OA
ENDBRANCH  67  71
ENDBRANCH  50  64
BRANCH  51  75
ATOM     75  C   UNL A   1      39.606  31.903  35.704  1.00  0.00     0.023 A 
ATOM     76  C   UNL A   1      40.088  33.210  35.878  1.00  0.00     0.031 A 
ATOM     77  C   UNL A   1      38.641  31.433  36.616  1.00  0.00     0.131 A 
ATOM     78  C   UNL A   1      39.607  34.000  36.934  1.00  0.00     0.055 A 
ATOM     79  C   UNL A   1      38.121  32.243  37.628  1.00  0.00     0.041 A 
ATOM     80  F   UNL A   1      38.146  30.191  36.500  1.00  0.00    -0.206 F 
ATOM     81  C   UNL A   1      38.608  33.535  37.794  1.00  0.00     0.022 A 
BRANCH  78  82
ATOM     82  S   UNL A   1      40.333  35.641  37.199  1.00  0.00     0.124 S 
ATOM     83  O   UNL A   1      41.749  35.382  36.965  1.00  0.00    -0.237 OA
ATOM     84  O   UNL A   1      39.652  36.444  36.188  1.00  0.00    -0.237 OA
ATOM     85  O   UNL A   1      39.976  35.954  38.582  1.00  0.00    -0.744 OA
ENDBRANCH  78  82
ENDBRANCH  51  75
BRANCH  63  86
ATOM     86  C   UNL A   1      44.960  27.558  34.724  1.00  0.00     0.023 A 
ATOM     87  C   UNL A   1      44.949  26.340  35.427  1.00  0.00     0.031 A 
ATOM     88  C   UNL A   1      46.041  28.433  34.927  1.00  0.00     0.131 A 
ATOM     89  C   UNL A   1      45.962  26.064  36.357  1.00  0.00     0.055 A 
ATOM     90  C   UNL A   1      47.081  28.121  35.802  1.00  0.00     0.041 A 
ATOM     91  F   UNL A   1      46.095  29.612  34.288  1.00  0.00    -0.206 F 
ATOM     92  C   UNL A   1      47.037  26.939  36.536  1.00  0.00     0.022 A 
BRANCH  89  93
ATOM     93  S   UNL A   1      45.788  24.607  37.422  1.00  0.00     0.124 S 
ATOM     94  O   UNL A   1      47.132  24.475  37.974  1.00  0.00    -0.237 OA
ATOM     95  O   UNL A   1      44.752  25.028  38.360  1.00  0.00    -0.237 OA
ATOM     96  O   UNL A   1      45.392  23.549  36.494  1.00  0.00    -0.744 OA
ENDBRANCH  89  93
ENDBRANCH  63  86
ENDBRANCH  37  38
ENDBRANCH  30  32
ENDBRANCH  29  30
ENDBRANCH  28  29
ENDBRANCH   1  28
TORSDOF 19
ENDMDL
