MODEL 1
REMARK VINA RESULT:     -13.5      0.000      0.000
REMARK SMILES Cc1ccc([C@H](C)NC(=O)[C@H]2[C@@H]3CC[C@@H](C3)[C@@H]2C(=O)OCCOC(=O)c2ccc(-c3c4nc(c(-c5cc(S(=O)(=O)[O-])ccc5F)c5ccc([nH]5)c(-c5cc(S(=O)(=O)[O-])ccc5F)c5nc(c(-c6cc(S(=O)(=O)[O-])ccc6F)c6ccc3[nH]6)C=C5)C=C4)cc2)cc1
REMARK SMILES IDX 21 1 20 2 18 3 19 4 17 5 11 6 12 7 13 8 16 9 15 10 14 11
REMARK SMILES IDX 9 12 8 13 10 15 6 16 7 17 5 18 1 19 2 20 3 21 90 22 4 23
REMARK SMILES IDX 89 24 22 25 23 26 24 27 25 28 26 29 27 30 88 31 28 32 87 33
REMARK SMILES IDX 29 34 30 35 31 36 81 37 32 38 86 39 80 40 82 41 33 42 85 43
REMARK SMILES IDX 79 44 78 45 34 47 66 48 46 49 65 50 47 51 50 52 64 53 83 54
REMARK SMILES IDX 48 55 49 56 63 58 84 59 51 60 35 61 36 62 44 63 37 64 43 65
REMARK SMILES IDX 45 66 42 67 38 68 39 69 40 70 41 71 67 72 68 73 76 74 69 75
REMARK SMILES IDX 75 76 77 77 74 78 70 79 71 80 72 81 73 82 52 83 53 84 61 85
REMARK SMILES IDX 54 86 60 87 62 88 59 89 55 90 56 91 57 92 58 93
REMARK H PARENT 8 14 82 46 50 57
REMARK Flexibility Score: inf
ROOT
ATOM      1  C   UNL A   1      31.346  32.399  26.662  1.00  0.00     0.274 C 
ENDROOT
BRANCH   1   2
ATOM      2  O   UNL A   1      31.941  30.553  26.119  1.00  0.00    -0.462 OA
BRANCH   2   3
ATOM      3  C   UNL A   1      32.518  29.330  25.812  1.00  0.00     0.310 C 
ATOM      4  O   UNL A   1      33.752  29.263  25.783  1.00  0.00    -0.252 OA
BRANCH   3   5
ATOM      5  C   UNL A   1      31.791  28.036  25.365  1.00  0.00     0.115 C 
ATOM      6  C   UNL A   1      32.176  26.611  24.903  1.00  0.00     0.096 C 
ATOM      7  C   UNL A   1      31.263  26.367  23.667  1.00  0.00     0.002 C 
ATOM      8  C   UNL A   1      31.843  27.185  22.495  1.00  0.00     0.005 C 
ATOM      9  C   UNL A   1      30.006  27.171  23.966  1.00  0.00     0.009 C 
ATOM     10  C   UNL A   1      30.777  28.453  24.249  1.00  0.00     0.004 C 
ATOM     11  C   UNL A   1      31.490  28.626  22.893  1.00  0.00     0.005 C 
BRANCH   6  12
ATOM     12  C   UNL A   1      32.135  25.413  25.869  1.00  0.00     0.224 C 
ATOM     13  N   UNL A   1      32.913  24.312  25.837  1.00  0.00    -0.349 N 
ATOM     14  H   UNL A   1      32.747  23.700  26.590  1.00  0.00     0.164 HD
ATOM     15  O   UNL A   1      31.357  25.475  26.834  1.00  0.00    -0.275 OA
BRANCH  13  16
ATOM     16  C   UNL A   1      33.939  23.835  24.933  1.00  0.00     0.109 C 
ATOM     17  C   UNL A   1      35.331  23.954  25.552  1.00  0.00     0.036 C 
BRANCH  16  18
ATOM     18  C   UNL A   1      33.681  22.426  24.472  1.00  0.00    -0.026 A 
ATOM     19  C   UNL A   1      32.508  18.374  23.891  1.00  0.00     0.044 C 
ATOM     20  C   UNL A   1      32.926  19.793  24.017  1.00  0.00    -0.051 A 
ATOM     21  C   UNL A   1      33.976  20.071  24.884  1.00  0.00     0.004 A 
ATOM     22  C   UNL A   1      32.341  20.811  23.269  1.00  0.00     0.004 A 
ATOM     23  C   UNL A   1      34.342  21.378  25.127  1.00  0.00     0.006 A 
ATOM     24  C   UNL A   1      32.725  22.129  23.490  1.00  0.00     0.006 A 
ENDBRANCH  16  18
ENDBRANCH  13  16
ENDBRANCH   6  12
ENDBRANCH   3   5
ENDBRANCH   2   3
ENDBRANCH   1   2
BRANCH   1  25
ATOM     25  C   UNL A   1      32.300  33.630  27.264  1.00  0.00     0.275 C 
BRANCH  25  26
ATOM     26  O   UNL A   1      32.649  33.785  28.666  1.00  0.00    -0.458 OA
BRANCH  26  27
ATOM     27  C   UNL A   1      33.098  34.976  29.131  1.00  0.00     0.338 C 
ATOM     28  O   UNL A   1      32.550  36.033  29.160  1.00  0.00    -0.246 OA
BRANCH  27  29
ATOM     29  C   UNL A   1      34.398  34.652  29.642  1.00  0.00     0.060 A 
ATOM     30  C   UNL A   1      34.533  33.862  31.259  1.00  0.00     0.016 A 
ATOM     31  C   UNL A   1      35.540  34.250  28.330  1.00  0.00     0.016 A 
ATOM     32  C   UNL A   1      35.947  32.746  31.592  1.00  0.00     0.010 A 
ATOM     33  C   UNL A   1      36.847  33.111  28.637  1.00  0.00     0.010 A 
ATOM     34  C   UNL A   1      37.134  32.385  30.274  1.00  0.00    -0.014 A 
BRANCH  34  35
ATOM     35  C   UNL A   1      38.411  31.613  30.369  1.00  0.00     0.031 A 
ATOM     36  C   UNL A   1      38.668  30.191  29.982  1.00  0.00     0.074 A 
ATOM     37  C   UNL A   1      39.472  32.241  30.939  1.00  0.00     0.049 A 
ATOM     38  N   UNL A   1      39.778  29.555  30.217  1.00  0.00    -0.248 NA
ATOM     39  C   UNL A   1      37.678  29.312  29.375  1.00  0.00     0.031 C 
ATOM     40  C   UNL A   1      40.876  32.139  30.558  1.00  0.00     0.029 A 
ATOM     41  N   UNL A   1      39.489  33.133  32.004  1.00  0.00    -0.354 N 
ATOM     42  C   UNL A   1      39.746  28.350  29.546  1.00  0.00     0.074 A 
ATOM     43  C   UNL A   1      38.371  28.187  29.178  1.00  0.00     0.031 C 
ATOM     44  C   UNL A   1      41.622  32.869  31.406  1.00  0.00     0.029 A 
ATOM     45  C   UNL A   1      40.769  33.299  32.497  1.00  0.00     0.049 A 
ATOM     46  H   UNL A   1      38.692  33.587  32.361  1.00  0.00     0.167 HD
ATOM     47  C   UNL A   1      40.910  27.716  29.220  1.00  0.00     0.034 A 
ATOM     48  C   UNL A   1      41.075  33.344  33.820  1.00  0.00     0.034 A 
ATOM     49  C   UNL A   1      42.053  28.389  29.842  1.00  0.00     0.049 A 
ATOM     50  C   UNL A   1      42.016  32.193  34.130  1.00  0.00     0.074 A 
ATOM     51  C   UNL A   1      42.882  29.417  29.435  1.00  0.00     0.029 A 
ATOM     52  N   UNL A   1      42.291  28.218  31.190  1.00  0.00    -0.354 N 
ATOM     53  N   UNL A   1      42.317  31.253  33.268  1.00  0.00    -0.248 NA
ATOM     54  C   UNL A   1      42.709  32.012  35.393  1.00  0.00     0.031 C 
ATOM     55  C   UNL A   1      43.548  29.925  30.592  1.00  0.00     0.029 A 
ATOM     56  C   UNL A   1      43.181  29.162  31.691  1.00  0.00     0.049 A 
ATOM     57  H   UNL A   1      41.879  27.510  31.735  1.00  0.00     0.167 HD
ATOM     58  C   UNL A   1      43.182  30.343  33.811  1.00  0.00     0.074 A 
ATOM     59  C   UNL A   1      43.429  30.903  35.136  1.00  0.00     0.031 C 
ATOM     60  C   UNL A   1      43.528  29.193  33.129  1.00  0.00     0.034 A 
BRANCH  47  61
ATOM     61  C   UNL A   1      41.082  26.684  28.109  1.00  0.00     0.023 A 
ATOM     62  C   UNL A   1      41.540  25.398  28.476  1.00  0.00     0.031 A 
ATOM     63  C   UNL A   1      40.922  26.872  26.718  1.00  0.00     0.131 A 
ATOM     64  C   UNL A   1      41.891  24.425  27.518  1.00  0.00     0.055 A 
ATOM     65  C   UNL A   1      41.289  25.910  25.760  1.00  0.00     0.041 A 
ATOM     66  F   UNL A   1      40.370  27.972  26.198  1.00  0.00    -0.206 F 
ATOM     67  C   UNL A   1      41.789  24.681  26.157  1.00  0.00     0.022 A 
BRANCH  64  68
ATOM     68  S   UNL A   1      42.519  22.824  28.091  1.00  0.00     0.124 S 
ATOM     69  O   UNL A   1      42.780  23.085  29.503  1.00  0.00    -0.237 OA
ATOM     70  O   UNL A   1      41.406  21.931  27.791  1.00  0.00    -0.237 OA
ATOM     71  O   UNL A   1      43.713  22.616  27.273  1.00  0.00    -0.744 OA
ENDBRANCH  64  68
ENDBRANCH  47  61
BRANCH  48  72
ATOM     72  C   UNL A   1      39.990  33.962  34.654  1.00  0.00     0.023 A 
ATOM     73  C   UNL A   1      39.157  33.066  35.375  1.00  0.00     0.031 A 
ATOM     74  C   UNL A   1      40.057  35.282  35.116  1.00  0.00     0.131 A 
ATOM     75  C   UNL A   1      38.597  33.435  36.612  1.00  0.00     0.055 A 
ATOM     76  C   UNL A   1      39.478  35.655  36.338  1.00  0.00     0.041 A 
ATOM     77  F   UNL A   1      40.785  36.196  34.462  1.00  0.00    -0.206 F 
ATOM     78  C   UNL A   1      38.785  34.720  37.114  1.00  0.00     0.022 A 
BRANCH  75  79
ATOM     79  S   UNL A   1      37.848  32.151  37.666  1.00  0.00     0.124 S 
ATOM     80  O   UNL A   1      36.540  32.728  37.963  1.00  0.00    -0.237 OA
ATOM     81  O   UNL A   1      37.841  30.977  36.797  1.00  0.00    -0.237 OA
ATOM     82  O   UNL A   1      38.755  32.051  38.807  1.00  0.00    -0.744 OA
ENDBRANCH  75  79
ENDBRANCH  48  72
BRANCH  60  83
ATOM     83  C   UNL A   1      44.132  27.948  33.783  1.00  0.00     0.023 A 
ATOM     84  C   UNL A   1      43.360  26.986  34.440  1.00  0.00     0.031 A 
ATOM     85  C   UNL A   1      45.512  27.627  33.707  1.00  0.00     0.131 A 
ATOM     86  C   UNL A   1      43.908  25.812  34.982  1.00  0.00     0.055 A 
ATOM     87  C   UNL A   1      46.059  26.434  34.203  1.00  0.00     0.041 A 
ATOM     88  F   UNL A   1      46.408  28.430  33.121  1.00  0.00    -0.206 F 
ATOM     89  C   UNL A   1      45.256  25.517  34.857  1.00  0.00     0.022 A 
BRANCH  86  90
ATOM     90  S   UNL A   1      42.787  24.722  35.892  1.00  0.00     0.124 S 
ATOM     91  O   UNL A   1      43.008  25.141  37.274  1.00  0.00    -0.237 OA
ATOM     92  O   UNL A   1      41.491  25.080  35.326  1.00  0.00    -0.237 OA
ATOM     93  O   UNL A   1      43.269  23.383  35.563  1.00  0.00    -0.744 OA
ENDBRANCH  86  90
ENDBRANCH  60  83
ENDBRANCH  34  35
ENDBRANCH  27  29
ENDBRANCH  26  27
ENDBRANCH  25  26
ENDBRANCH   1  25
TORSDOF 17
ENDMDL
MODEL 2
REMARK VINA RESULT:     -13.4      1.695      2.238
REMARK SMILES Cc1ccc([C@H](C)NC(=O)[C@H]2[C@@H]3CC[C@@H](C3)[C@@H]2C(=O)OCCOC(=O)c2ccc(-c3c4nc(c(-c5cc(S(=O)(=O)[O-])ccc5F)c5ccc([nH]5)c(-c5cc(S(=O)(=O)[O-])ccc5F)c5nc(c(-c6cc(S(=O)(=O)[O-])ccc6F)c6ccc3[nH]6)C=C5)C=C4)cc2)cc1
REMARK SMILES IDX 21 1 20 2 18 3 19 4 17 5 11 6 12 7 13 8 16 9 15 10 14 11
REMARK SMILES IDX 9 12 8 13 10 15 6 16 7 17 5 18 1 19 2 20 3 21 90 22 4 23
REMARK SMILES IDX 89 24 22 25 23 26 24 27 25 28 26 29 27 30 88 31 28 32 87 33
REMARK SMILES IDX 29 34 30 35 31 36 81 37 32 38 86 39 80 40 82 41 33 42 85 43
REMARK SMILES IDX 79 44 78 45 34 47 66 48 46 49 65 50 47 51 50 52 64 53 83 54
REMARK SMILES IDX 48 55 49 56 63 58 84 59 51 60 35 61 36 62 44 63 37 64 43 65
REMARK SMILES IDX 45 66 42 67 38 68 39 69 40 70 41 71 67 72 68 73 76 74 69 75
REMARK SMILES IDX 75 76 77 77 74 78 70 79 71 80 72 81 73 82 52 83 53 84 61 85
REMARK SMILES IDX 54 86 60 87 62 88 59 89 55 90 56 91 57 92 58 93
REMARK H PARENT 8 14 82 46 50 57
REMARK Flexibility Score: inf
ROOT
ATOM      1  C   UNL A   1      33.549  31.570  27.646  1.00  0.00     0.274 C 
ENDROOT
BRANCH   1   2
ATOM      2  O   UNL A   1      32.679  29.772  27.386  1.00  0.00    -0.462 OA
BRANCH   2   3
ATOM      3  C   UNL A   1      32.101  28.565  27.024  1.00  0.00     0.310 C 
ATOM      4  O   UNL A   1      32.307  27.584  27.749  1.00  0.00    -0.252 OA
BRANCH   3   5
ATOM      5  C   UNL A   1      31.316  28.253  25.725  1.00  0.00     0.115 C 
ATOM      6  C   UNL A   1      31.179  27.079  24.727  1.00  0.00     0.096 C 
ATOM      7  C   UNL A   1      31.257  27.770  23.335  1.00  0.00     0.002 C 
ATOM      8  C   UNL A   1      32.731  28.149  23.088  1.00  0.00     0.005 C 
ATOM      9  C   UNL A   1      30.654  29.148  23.568  1.00  0.00     0.009 C 
ATOM     10  C   UNL A   1      31.564  29.451  24.751  1.00  0.00     0.004 C 
ATOM     11  C   UNL A   1      32.935  29.324  24.058  1.00  0.00     0.005 C 
BRANCH   6  12
ATOM     12  C   UNL A   1      29.995  26.098  24.795  1.00  0.00     0.224 C 
ATOM     13  N   UNL A   1      29.931  24.942  25.487  1.00  0.00    -0.349 N 
ATOM     14  H   UNL A   1      29.050  24.505  25.428  1.00  0.00     0.164 HD
ATOM     15  O   UNL A   1      28.945  26.418  24.214  1.00  0.00    -0.275 OA
BRANCH  13  16
ATOM     16  C   UNL A   1      30.877  24.205  26.299  1.00  0.00     0.109 C 
ATOM     17  C   UNL A   1      30.253  22.933  26.871  1.00  0.00     0.036 C 
BRANCH  16  18
ATOM     18  C   UNL A   1      32.143  23.887  25.551  1.00  0.00    -0.026 A 
ATOM     19  C   UNL A   1      35.904  22.504  24.110  1.00  0.00     0.044 C 
ATOM     20  C   UNL A   1      34.572  22.999  24.539  1.00  0.00    -0.051 A 
ATOM     21  C   UNL A   1      34.547  24.016  25.486  1.00  0.00     0.004 A 
ATOM     22  C   UNL A   1      33.386  22.518  23.992  1.00  0.00     0.004 A 
ATOM     23  C   UNL A   1      33.345  24.447  26.005  1.00  0.00     0.006 A 
ATOM     24  C   UNL A   1      32.170  22.969  24.491  1.00  0.00     0.006 A 
ENDBRANCH  16  18
ENDBRANCH  13  16
ENDBRANCH   6  12
ENDBRANCH   3   5
ENDBRANCH   2   3
ENDBRANCH   1   2
BRANCH   1  25
ATOM     25  C   UNL A   1      32.805  33.064  27.619  1.00  0.00     0.275 C 
BRANCH  25  26
ATOM     26  O   UNL A   1      32.632  33.914  28.786  1.00  0.00    -0.458 OA
BRANCH  26  27
ATOM     27  C   UNL A   1      33.359  35.049  28.918  1.00  0.00     0.338 C 
ATOM     28  O   UNL A   1      33.081  36.167  28.616  1.00  0.00    -0.246 OA
BRANCH  27  29
ATOM     29  C   UNL A   1      34.552  34.593  29.571  1.00  0.00     0.060 A 
ATOM     30  C   UNL A   1      34.407  33.677  31.120  1.00  0.00     0.016 A 
ATOM     31  C   UNL A   1      35.839  34.205  28.396  1.00  0.00     0.016 A 
ATOM     32  C   UNL A   1      35.687  32.437  31.546  1.00  0.00     0.010 A 
ATOM     33  C   UNL A   1      37.014  32.951  28.780  1.00  0.00     0.010 A 
ATOM     34  C   UNL A   1      37.022  32.087  30.375  1.00  0.00    -0.014 A 
BRANCH  34  35
ATOM     35  C   UNL A   1      38.221  31.217  30.576  1.00  0.00     0.031 A 
ATOM     36  C   UNL A   1      38.469  29.840  30.047  1.00  0.00     0.074 A 
ATOM     37  C   UNL A   1      39.196  31.688  31.396  1.00  0.00     0.049 A 
ATOM     38  N   UNL A   1      39.486  29.099  30.376  1.00  0.00    -0.248 NA
ATOM     39  C   UNL A   1      37.558  29.119  29.168  1.00  0.00     0.031 C 
ATOM     40  C   UNL A   1      40.638  31.531  31.246  1.00  0.00     0.029 A 
ATOM     41  N   UNL A   1      39.071  32.435  32.560  1.00  0.00    -0.354 N 
ATOM     42  C   UNL A   1      39.512  27.993  29.550  1.00  0.00     0.074 A 
ATOM     43  C   UNL A   1      38.217  27.980  28.938  1.00  0.00     0.031 C 
ATOM     44  C   UNL A   1      41.260  32.091  32.298  1.00  0.00     0.029 A 
ATOM     45  C   UNL A   1      40.251  32.443  33.279  1.00  0.00     0.049 A 
ATOM     46  H   UNL A   1      38.248  32.898  32.837  1.00  0.00     0.167 HD
ATOM     47  C   UNL A   1      40.681  27.321  29.341  1.00  0.00     0.034 A 
ATOM     48  C   UNL A   1      40.322  32.298  34.628  1.00  0.00     0.034 A 
ATOM     49  C   UNL A   1      41.730  27.824  30.232  1.00  0.00     0.049 A 
ATOM     50  C   UNL A   1      41.133  31.052  34.931  1.00  0.00     0.074 A 
ATOM     51  C   UNL A   1      42.669  28.831  30.114  1.00  0.00     0.029 A 
ATOM     52  N   UNL A   1      41.718  27.468  31.565  1.00  0.00    -0.354 N 
ATOM     53  N   UNL A   1      41.532  30.208  34.013  1.00  0.00    -0.248 NA
ATOM     54  C   UNL A   1      41.583  30.662  36.256  1.00  0.00     0.031 C 
ATOM     55  C   UNL A   1      43.145  29.139  31.424  1.00  0.00     0.029 A 
ATOM     56  C   UNL A   1      42.552  28.273  32.332  1.00  0.00     0.049 A 
ATOM     57  H   UNL A   1      41.181  26.730  31.931  1.00  0.00     0.167 HD
ATOM     58  C   UNL A   1      42.241  29.175  34.563  1.00  0.00     0.074 A 
ATOM     59  C   UNL A   1      42.279  29.545  35.975  1.00  0.00     0.031 C 
ATOM     60  C   UNL A   1      42.642  28.098  33.798  1.00  0.00     0.034 A 
BRANCH  47  61
ATOM     61  C   UNL A   1      40.993  26.427  28.144  1.00  0.00     0.023 A 
ATOM     62  C   UNL A   1      41.339  25.082  28.406  1.00  0.00     0.031 A 
ATOM     63  C   UNL A   1      41.066  26.795  26.782  1.00  0.00     0.131 A 
ATOM     64  C   UNL A   1      41.804  24.217  27.394  1.00  0.00     0.055 A 
ATOM     65  C   UNL A   1      41.549  25.940  25.775  1.00  0.00     0.041 A 
ATOM     66  F   UNL A   1      40.646  27.980  26.332  1.00  0.00    -0.206 F 
ATOM     67  C   UNL A   1      41.933  24.645  26.080  1.00  0.00     0.022 A 
BRANCH  64  68
ATOM     68  S   UNL A   1      42.274  22.524  27.842  1.00  0.00     0.124 S 
ATOM     69  O   UNL A   1      43.180  22.161  26.758  1.00  0.00    -0.237 OA
ATOM     70  O   UNL A   1      42.876  22.710  29.157  1.00  0.00    -0.237 OA
ATOM     71  O   UNL A   1      40.999  21.808  27.845  1.00  0.00    -0.744 OA
ENDBRANCH  64  68
ENDBRANCH  47  61
BRANCH  48  72
ATOM     72  C   UNL A   1      39.140  32.886  35.345  1.00  0.00     0.023 A 
ATOM     73  C   UNL A   1      38.433  32.017  36.219  1.00  0.00     0.031 A 
ATOM     74  C   UNL A   1      39.001  34.261  35.565  1.00  0.00     0.131 A 
ATOM     75  C   UNL A   1      37.799  32.512  37.374  1.00  0.00     0.055 A 
ATOM     76  C   UNL A   1      38.347  34.754  36.704  1.00  0.00     0.041 A 
ATOM     77  F   UNL A   1      39.600  35.143  34.754  1.00  0.00    -0.206 F 
ATOM     78  C   UNL A   1      37.785  33.879  37.638  1.00  0.00     0.022 A 
BRANCH  75  79
ATOM     79  S   UNL A   1      37.226  31.337  38.644  1.00  0.00     0.124 S 
ATOM     80  O   UNL A   1      38.173  31.576  39.728  1.00  0.00    -0.237 OA
ATOM     81  O   UNL A   1      35.853  31.768  38.893  1.00  0.00    -0.237 OA
ATOM     82  O   UNL A   1      37.340  30.031  37.998  1.00  0.00    -0.744 OA
ENDBRANCH  75  79
ENDBRANCH  48  72
BRANCH  60  83
ATOM     83  C   UNL A   1      43.057  26.739  34.368  1.00  0.00     0.023 A 
ATOM     84  C   UNL A   1      44.387  26.314  34.422  1.00  0.00     0.031 A 
ATOM     85  C   UNL A   1      42.138  25.834  34.959  1.00  0.00     0.131 A 
ATOM     86  C   UNL A   1      44.773  25.096  35.005  1.00  0.00     0.055 A 
ATOM     87  C   UNL A   1      42.520  24.638  35.585  1.00  0.00     0.041 A 
ATOM     88  F   UNL A   1      40.820  26.067  34.996  1.00  0.00    -0.206 F 
ATOM     89  C   UNL A   1      43.849  24.255  35.603  1.00  0.00     0.022 A 
BRANCH  86  90
ATOM     90  S   UNL A   1      46.522  24.647  34.899  1.00  0.00     0.124 S 
ATOM     91  O   UNL A   1      47.159  25.719  35.660  1.00  0.00    -0.237 OA
ATOM     92  O   UNL A   1      46.536  23.332  35.533  1.00  0.00    -0.237 OA
ATOM     93  O   UNL A   1      46.792  24.656  33.465  1.00  0.00    -0.744 OA
ENDBRANCH  86  90
ENDBRANCH  60  83
ENDBRANCH  34  35
ENDBRANCH  27  29
ENDBRANCH  26  27
ENDBRANCH  25  26
ENDBRANCH   1  25
TORSDOF 17
ENDMDL
MODEL 3
REMARK VINA RESULT:     -13.3      3.160      4.453
REMARK SMILES Cc1ccc([C@H](C)NC(=O)[C@H]2[C@@H]3CC[C@@H](C3)[C@@H]2C(=O)OCCOC(=O)c2ccc(-c3c4nc(c(-c5cc(S(=O)(=O)[O-])ccc5F)c5ccc([nH]5)c(-c5cc(S(=O)(=O)[O-])ccc5F)c5nc(c(-c6cc(S(=O)(=O)[O-])ccc6F)c6ccc3[nH]6)C=C5)C=C4)cc2)cc1
REMARK SMILES IDX 21 1 20 2 18 3 19 4 17 5 11 6 12 7 13 8 16 9 15 10 14 11
REMARK SMILES IDX 9 12 8 13 10 15 6 16 7 17 5 18 1 19 2 20 3 21 90 22 4 23
REMARK SMILES IDX 89 24 22 25 23 26 24 27 25 28 26 29 27 30 88 31 28 32 87 33
REMARK SMILES IDX 29 34 30 35 31 36 81 37 32 38 86 39 80 40 82 41 33 42 85 43
REMARK SMILES IDX 79 44 78 45 34 47 66 48 46 49 65 50 47 51 50 52 64 53 83 54
REMARK SMILES IDX 48 55 49 56 63 58 84 59 51 60 35 61 36 62 44 63 37 64 43 65
REMARK SMILES IDX 45 66 42 67 38 68 39 69 40 70 41 71 67 72 68 73 76 74 69 75
REMARK SMILES IDX 75 76 77 77 74 78 70 79 71 80 72 81 73 82 52 83 53 84 61 85
REMARK SMILES IDX 54 86 60 87 62 88 59 89 55 90 56 91 57 92 58 93
REMARK H PARENT 8 14 82 46 50 57
REMARK Flexibility Score: inf
ROOT
ATOM      1  C   UNL A   1      32.330  30.612  26.960  1.00  0.00     0.274 C 
ENDROOT
BRANCH   1   2
ATOM      2  O   UNL A   1      32.366  28.656  26.482  1.00  0.00    -0.462 OA
BRANCH   2   3
ATOM      3  C   UNL A   1      32.576  27.328  26.144  1.00  0.00     0.310 C 
ATOM      4  O   UNL A   1      33.744  26.946  25.997  1.00  0.00    -0.252 OA
BRANCH   3   5
ATOM      5  C   UNL A   1      31.501  26.267  25.794  1.00  0.00     0.115 C 
ATOM      6  C   UNL A   1      31.453  24.760  25.451  1.00  0.00     0.096 C 
ATOM      7  C   UNL A   1      30.492  24.693  24.229  1.00  0.00     0.002 C 
ATOM      8  C   UNL A   1      31.266  25.213  23.002  1.00  0.00     0.005 C 
ATOM      9  C   UNL A   1      29.523  25.846  24.453  1.00  0.00     0.009 C 
ATOM     10  C   UNL A   1      30.635  26.869  24.639  1.00  0.00     0.004 C 
ATOM     11  C   UNL A   1      31.349  26.722  23.281  1.00  0.00     0.005 C 
BRANCH   6  12
ATOM     12  C   UNL A   1      31.083  23.705  26.509  1.00  0.00     0.224 C 
ATOM     13  N   UNL A   1      31.770  22.588  26.823  1.00  0.00    -0.349 N 
ATOM     14  H   UNL A   1      31.372  22.087  27.572  1.00  0.00     0.164 HD
ATOM     15  O   UNL A   1      30.083  23.918  27.213  1.00  0.00    -0.275 OA
BRANCH  13  16
ATOM     16  C   UNL A   1      32.967  21.964  26.296  1.00  0.00     0.109 C 
ATOM     17  C   UNL A   1      33.865  21.439  27.415  1.00  0.00     0.036 C 
BRANCH  16  18
ATOM     18  C   UNL A   1      32.652  20.873  25.309  1.00  0.00    -0.026 A 
ATOM     19  C   UNL A   1      32.527  17.976  22.190  1.00  0.00     0.044 C 
ATOM     20  C   UNL A   1      32.520  18.943  23.316  1.00  0.00    -0.051 A 
ATOM     21  C   UNL A   1      32.247  20.271  23.012  1.00  0.00     0.004 A 
ATOM     22  C   UNL A   1      32.723  18.550  24.636  1.00  0.00     0.004 A 
ATOM     23  C   UNL A   1      32.330  21.236  23.994  1.00  0.00     0.006 A 
ATOM     24  C   UNL A   1      32.780  19.515  25.636  1.00  0.00     0.006 A 
ENDBRANCH  16  18
ENDBRANCH  13  16
ENDBRANCH   6  12
ENDBRANCH   3   5
ENDBRANCH   2   3
ENDBRANCH   1   2
BRANCH   1  25
ATOM     25  C   UNL A   1      33.622  31.561  27.426  1.00  0.00     0.275 C 
BRANCH  25  26
ATOM     26  O   UNL A   1      34.246  31.507  28.737  1.00  0.00    -0.458 OA
BRANCH  26  27
ATOM     27  C   UNL A   1      35.514  31.952  28.909  1.00  0.00     0.338 C 
ATOM     28  O   UNL A   1      35.908  33.055  29.126  1.00  0.00    -0.246 OA
BRANCH  27  29
ATOM     29  C   UNL A   1      36.291  30.750  28.820  1.00  0.00     0.060 A 
ATOM     30  C   UNL A   1      37.210  30.411  27.303  1.00  0.00     0.016 A 
ATOM     31  C   UNL A   1      36.942  30.266  30.410  1.00  0.00     0.016 A 
ATOM     32  C   UNL A   1      38.756  29.432  27.396  1.00  0.00     0.010 A 
ATOM     33  C   UNL A   1      38.472  29.398  30.494  1.00  0.00     0.010 A 
ATOM     34  C   UNL A   1      39.382  28.896  29.007  1.00  0.00    -0.014 A 
BRANCH  34  35
ATOM     35  C   UNL A   1      40.540  27.993  29.293  1.00  0.00     0.031 A 
ATOM     36  C   UNL A   1      40.674  26.533  28.995  1.00  0.00     0.074 A 
ATOM     37  C   UNL A   1      41.588  28.528  29.970  1.00  0.00     0.049 A 
ATOM     38  N   UNL A   1      41.666  25.791  29.394  1.00  0.00    -0.248 NA
ATOM     39  C   UNL A   1      39.671  25.739  28.299  1.00  0.00     0.031 C 
ATOM     40  C   UNL A   1      43.007  28.252  29.776  1.00  0.00     0.029 A 
ATOM     41  N   UNL A   1      41.578  29.466  30.994  1.00  0.00    -0.354 N 
ATOM     42  C   UNL A   1      41.577  24.564  28.769  1.00  0.00     0.074 A 
ATOM     43  C   UNL A   1      40.248  24.536  28.235  1.00  0.00     0.031 C 
ATOM     44  C   UNL A   1      43.723  28.937  30.684  1.00  0.00     0.029 A 
ATOM     45  C   UNL A   1      42.798  29.514  31.641  1.00  0.00     0.049 A 
ATOM     46  H   UNL A   1      40.801  30.023  31.229  1.00  0.00     0.167 HD
ATOM     47  C   UNL A   1      42.690  23.789  28.619  1.00  0.00     0.034 A 
ATOM     48  C   UNL A   1      42.943  29.593  32.990  1.00  0.00     0.034 A 
ATOM     49  C   UNL A   1      43.819  24.362  29.356  1.00  0.00     0.049 A 
ATOM     50  C   UNL A   1      43.698  28.363  33.459  1.00  0.00     0.074 A 
ATOM     51  C   UNL A   1      44.805  25.270  29.021  1.00  0.00     0.029 A 
ATOM     52  N   UNL A   1      43.868  24.236  30.729  1.00  0.00    -0.354 N 
ATOM     53  N   UNL A   1      43.991  27.352  32.679  1.00  0.00    -0.248 NA
ATOM     54  C   UNL A   1      44.205  28.171  34.807  1.00  0.00     0.031 C 
ATOM     55  C   UNL A   1      45.378  25.760  30.233  1.00  0.00     0.029 A 
ATOM     56  C   UNL A   1      44.793  25.100  31.304  1.00  0.00     0.049 A 
ATOM     57  H   UNL A   1      43.312  23.607  31.243  1.00  0.00     0.167 HD
ATOM     58  C   UNL A   1      44.671  26.381  33.362  1.00  0.00     0.074 A 
ATOM     59  C   UNL A   1      44.817  26.978  34.686  1.00  0.00     0.031 C 
ATOM     60  C   UNL A   1      44.961  25.166  32.773  1.00  0.00     0.034 A 
BRANCH  47  61
ATOM     61  C   UNL A   1      42.876  22.689  27.578  1.00  0.00     0.023 A 
ATOM     62  C   UNL A   1      43.870  22.884  26.591  1.00  0.00     0.031 A 
ATOM     63  C   UNL A   1      42.113  21.511  27.414  1.00  0.00     0.131 A 
ATOM     64  C   UNL A   1      44.014  22.015  25.490  1.00  0.00     0.055 A 
ATOM     65  C   UNL A   1      42.242  20.654  26.306  1.00  0.00     0.041 A 
ATOM     66  F   UNL A   1      41.226  21.095  28.321  1.00  0.00    -0.206 F 
ATOM     67  C   UNL A   1      43.189  20.910  25.328  1.00  0.00     0.022 A 
BRANCH  64  68
ATOM     68  S   UNL A   1      45.284  22.383  24.250  1.00  0.00     0.124 S 
ATOM     69  O   UNL A   1      44.741  21.742  23.057  1.00  0.00    -0.237 OA
ATOM     70  O   UNL A   1      45.304  23.841  24.253  1.00  0.00    -0.237 OA
ATOM     71  O   UNL A   1      46.484  21.749  24.796  1.00  0.00    -0.744 OA
ENDBRANCH  64  68
ENDBRANCH  47  61
BRANCH  48  72
ATOM     72  C   UNL A   1      41.843  30.370  33.654  1.00  0.00     0.023 A 
ATOM     73  C   UNL A   1      41.860  31.779  33.467  1.00  0.00     0.031 A 
ATOM     74  C   UNL A   1      40.620  29.790  34.008  1.00  0.00     0.131 A 
ATOM     75  C   UNL A   1      40.664  32.519  33.431  1.00  0.00     0.055 A 
ATOM     76  C   UNL A   1      39.431  30.535  33.996  1.00  0.00     0.041 A 
ATOM     77  F   UNL A   1      40.534  28.475  34.245  1.00  0.00    -0.206 F 
ATOM     78  C   UNL A   1      39.442  31.893  33.661  1.00  0.00     0.022 A 
BRANCH  75  79
ATOM     79  S   UNL A   1      40.703  34.239  32.832  1.00  0.00     0.124 S 
ATOM     80  O   UNL A   1      40.235  34.092  31.457  1.00  0.00    -0.237 OA
ATOM     81  O   UNL A   1      39.791  34.925  33.743  1.00  0.00    -0.237 OA
ATOM     82  O   UNL A   1      42.104  34.634  32.971  1.00  0.00    -0.744 OA
ENDBRANCH  75  79
ENDBRANCH  48  72
BRANCH  60  83
ATOM     83  C   UNL A   1      45.332  23.897  33.544  1.00  0.00     0.023 A 
ATOM     84  C   UNL A   1      46.628  23.634  33.994  1.00  0.00     0.031 A 
ATOM     85  C   UNL A   1      44.377  22.923  33.935  1.00  0.00     0.131 A 
ATOM     86  C   UNL A   1      46.952  22.502  34.758  1.00  0.00     0.055 A 
ATOM     87  C   UNL A   1      44.683  21.814  34.738  1.00  0.00     0.041 A 
ATOM     88  F   UNL A   1      43.085  23.001  33.592  1.00  0.00    -0.206 F 
ATOM     89  C   UNL A   1      45.985  21.591  35.150  1.00  0.00     0.022 A 
BRANCH  86  90
ATOM     90  S   UNL A   1      48.697  22.256  35.171  1.00  0.00     0.124 S 
ATOM     91  O   UNL A   1      48.764  20.810  35.367  1.00  0.00    -0.237 OA
ATOM     92  O   UNL A   1      49.364  22.760  33.975  1.00  0.00    -0.237 OA
ATOM     93  O   UNL A   1      48.880  23.057  36.378  1.00  0.00    -0.744 OA
ENDBRANCH  86  90
ENDBRANCH  60  83
ENDBRANCH  34  35
ENDBRANCH  27  29
ENDBRANCH  26  27
ENDBRANCH  25  26
ENDBRANCH   1  25
TORSDOF 17
ENDMDL
