MODEL 1
REMARK VINA RESULT:     -10.8      0.000      0.000
REMARK SMILES CC[C@H](C)N(CC)c1cc(C)c(N)c(C(=O)OCCOC(=O)c2ccc(-c3c4nc(c(-c5cc(S(=O)(=O)[O-])ccc5F)c5ccc([nH]5)c(-c5cc(S(=O)(=O)[O-])ccc5F)c5nc(c(-c6cc(S(=O)(=O)[O-])ccc6F)c6ccc3[nH]6)C=C5)C=C4)cc2)c1
REMARK SMILES IDX 18 1 17 2 15 3 16 4 14 5 8 6 9 7 86 8 10 9 11 10 12 11 5 12
REMARK SMILES IDX 3 13 4 14 2 15 1 16 6 17 7 18 13 19 19 22 20 23 21 24 22 25
REMARK SMILES IDX 23 26 24 27 85 28 25 29 84 30 26 31 27 32 28 33 78 34 29 35
REMARK SMILES IDX 83 36 77 37 79 38 30 39 82 40 76 41 75 42 31 44 63 45 43 46
REMARK SMILES IDX 62 47 44 48 47 49 61 50 80 51 45 52 46 53 60 55 81 56 48 57
REMARK SMILES IDX 32 58 33 59 41 60 34 61 40 62 42 63 39 64 35 65 36 66 37 67
REMARK SMILES IDX 38 68 64 69 65 70 73 71 66 72 72 73 74 74 71 75 67 76 68 77
REMARK SMILES IDX 69 78 70 79 49 80 50 81 58 82 51 83 57 84 59 85 56 86 52 87
REMARK SMILES IDX 53 88 54 89 55 90
REMARK H PARENT 13 20 13 21 79 43 47 54
REMARK Flexibility Score: inf
ROOT
ATOM      1  C   UNL A   1      31.826  28.625  27.445  1.00  0.00     0.275 C 
ENDROOT
BRANCH   1   2
ATOM      2  O   UNL A   1      32.614  27.584  26.831  1.00  0.00    -0.458 OA
BRANCH   2   3
ATOM      3  C   UNL A   1      31.931  26.480  26.414  1.00  0.00     0.340 C 
ATOM      4  O   UNL A   1      30.856  26.104  26.837  1.00  0.00    -0.246 OA
BRANCH   3   5
ATOM      5  C   UNL A   1      32.676  25.787  25.322  1.00  0.00     0.085 A 
ATOM      6  C   UNL A   1      34.430  24.192  24.691  1.00  0.00     0.038 A 
ATOM      7  C   UNL A   1      34.098  24.455  23.360  1.00  0.00     0.031 A 
ATOM      8  C   UNL A   1      33.718  24.906  25.660  1.00  0.00     0.043 A 
ATOM      9  C   UNL A   1      33.098  25.371  22.986  1.00  0.00    -0.025 A 
ATOM     10  C   UNL A   1      32.926  25.688  21.522  1.00  0.00     0.047 C 
ATOM     11  C   UNL A   1      32.311  25.978  23.975  1.00  0.00     0.049 A 
BRANCH   6  12
ATOM     12  N   UNL A   1      35.408  23.279  25.057  1.00  0.00    -0.369 N 
BRANCH  12  13
ATOM     13  C   UNL A   1      35.156  22.048  25.842  1.00  0.00     0.078 C 
ATOM     14  C   UNL A   1      34.406  22.279  27.154  1.00  0.00     0.031 C 
BRANCH  13  15
ATOM     15  C   UNL A   1      34.597  20.880  25.009  1.00  0.00     0.021 C 
ATOM     16  C   UNL A   1      33.121  20.547  25.162  1.00  0.00     0.006 C 
ENDBRANCH  13  15
ENDBRANCH  12  13
BRANCH  12  17
ATOM     17  C   UNL A   1      36.809  23.702  24.891  1.00  0.00     0.113 C 
ATOM     18  C   UNL A   1      37.550  23.797  26.219  1.00  0.00     0.027 C 
ENDBRANCH  12  17
ENDBRANCH   6  12
BRANCH  11  19
ATOM     19  N   UNL A   1      31.277  26.836  23.607  1.00  0.00    -0.398 N 
ATOM     20  H   UNL A   1      30.545  26.508  23.036  1.00  0.00     0.156 HD
ATOM     21  H   UNL A   1      31.281  27.771  23.916  1.00  0.00     0.156 HD
ENDBRANCH  11  19
ENDBRANCH   3   5
ENDBRANCH   2   3
ENDBRANCH   1   2
BRANCH   1  22
ATOM     22  C   UNL A   1      31.782  29.865  26.553  1.00  0.00     0.275 C 
BRANCH  22  23
ATOM     23  O   UNL A   1      33.119  30.357  26.377  1.00  0.00    -0.458 OA
BRANCH  23  24
ATOM     24  C   UNL A   1      33.521  31.325  27.234  1.00  0.00     0.338 C 
ATOM     25  O   UNL A   1      32.882  32.309  27.571  1.00  0.00    -0.246 OA
BRANCH  24  26
ATOM     26  C   UNL A   1      34.882  31.011  27.729  1.00  0.00     0.060 A 
ATOM     27  C   UNL A   1      35.223  29.701  28.047  1.00  0.00     0.016 A 
ATOM     28  C   UNL A   1      35.802  32.031  27.975  1.00  0.00     0.016 A 
ATOM     29  C   UNL A   1      36.431  29.416  28.687  1.00  0.00     0.010 A 
ATOM     30  C   UNL A   1      37.060  31.724  28.520  1.00  0.00     0.010 A 
ATOM     31  C   UNL A   1      37.383  30.414  28.925  1.00  0.00    -0.014 A 
BRANCH  31  32
ATOM     32  C   UNL A   1      38.652  30.108  29.667  1.00  0.00     0.031 A 
ATOM     33  C   UNL A   1      39.697  29.218  29.031  1.00  0.00     0.074 A 
ATOM     34  C   UNL A   1      38.922  30.640  30.881  1.00  0.00     0.049 A 
ATOM     35  N   UNL A   1      40.717  28.605  29.579  1.00  0.00    -0.248 NA
ATOM     36  C   UNL A   1      39.556  28.966  27.590  1.00  0.00     0.031 C 
ATOM     37  C   UNL A   1      38.071  31.582  31.609  1.00  0.00     0.029 A 
ATOM     38  N   UNL A   1      40.009  30.479  31.714  1.00  0.00    -0.354 N 
ATOM     39  C   UNL A   1      41.278  27.821  28.573  1.00  0.00     0.074 A 
ATOM     40  C   UNL A   1      40.485  28.045  27.382  1.00  0.00     0.031 C 
ATOM     41  C   UNL A   1      38.695  31.970  32.732  1.00  0.00     0.029 A 
ATOM     42  C   UNL A   1      39.923  31.199  32.886  1.00  0.00     0.049 A 
ATOM     43  H   UNL A   1      40.775  29.902  31.493  1.00  0.00     0.167 HD
ATOM     44  C   UNL A   1      42.346  26.987  28.643  1.00  0.00     0.034 A 
ATOM     45  C   UNL A   1      40.697  31.197  33.992  1.00  0.00     0.034 A 
ATOM     46  C   UNL A   1      43.182  26.846  29.813  1.00  0.00     0.049 A 
ATOM     47  C   UNL A   1      41.861  30.244  34.064  1.00  0.00     0.074 A 
ATOM     48  C   UNL A   1      44.289  26.032  29.991  1.00  0.00     0.029 A 
ATOM     49  N   UNL A   1      43.022  27.554  30.996  1.00  0.00    -0.354 N 
ATOM     50  N   UNL A   1      42.295  29.397  33.159  1.00  0.00    -0.248 NA
ATOM     51  C   UNL A   1      42.620  30.219  35.322  1.00  0.00     0.031 C 
ATOM     52  C   UNL A   1      44.765  26.211  31.296  1.00  0.00     0.029 A 
ATOM     53  C   UNL A   1      43.999  27.187  31.911  1.00  0.00     0.049 A 
ATOM     54  H   UNL A   1      42.317  28.221  31.164  1.00  0.00     0.167 HD
ATOM     55  C   UNL A   1      43.377  28.743  33.739  1.00  0.00     0.074 A 
ATOM     56  C   UNL A   1      43.550  29.313  35.059  1.00  0.00     0.031 C 
ATOM     57  C   UNL A   1      44.152  27.751  33.231  1.00  0.00     0.034 A 
BRANCH  44  58
ATOM     58  C   UNL A   1      42.625  26.105  27.446  1.00  0.00     0.023 A 
ATOM     59  C   UNL A   1      42.114  24.802  27.327  1.00  0.00     0.031 A 
ATOM     60  C   UNL A   1      43.452  26.582  26.410  1.00  0.00     0.131 A 
ATOM     61  C   UNL A   1      42.494  23.998  26.238  1.00  0.00     0.055 A 
ATOM     62  C   UNL A   1      43.758  25.807  25.290  1.00  0.00     0.041 A 
ATOM     63  F   UNL A   1      43.986  27.812  26.474  1.00  0.00    -0.206 F 
ATOM     64  C   UNL A   1      43.292  24.500  25.207  1.00  0.00     0.022 A 
BRANCH  61  65
ATOM     65  S   UNL A   1      42.051  22.238  26.262  1.00  0.00     0.124 S 
ATOM     66  O   UNL A   1      42.495  21.838  27.595  1.00  0.00    -0.237 OA
ATOM     67  O   UNL A   1      40.608  22.274  26.053  1.00  0.00    -0.237 OA
ATOM     68  O   UNL A   1      42.827  21.674  25.159  1.00  0.00    -0.744 OA
ENDBRANCH  61  65
ENDBRANCH  44  58
BRANCH  45  69
ATOM     69  C   UNL A   1      40.340  32.047  35.170  1.00  0.00     0.023 A 
ATOM     70  C   UNL A   1      39.361  31.644  36.094  1.00  0.00     0.031 A 
ATOM     71  C   UNL A   1      40.949  33.301  35.365  1.00  0.00     0.131 A 
ATOM     72  C   UNL A   1      39.006  32.496  37.153  1.00  0.00     0.055 A 
ATOM     73  C   UNL A   1      40.638  34.115  36.456  1.00  0.00     0.041 A 
ATOM     74  F   UNL A   1      41.877  33.748  34.504  1.00  0.00    -0.206 F 
ATOM     75  C   UNL A   1      39.654  33.717  37.352  1.00  0.00     0.022 A 
BRANCH  72  76
ATOM     76  S   UNL A   1      37.621  32.025  38.227  1.00  0.00     0.124 S 
ATOM     77  O   UNL A   1      38.186  32.243  39.553  1.00  0.00    -0.237 OA
ATOM     78  O   UNL A   1      36.581  32.958  37.810  1.00  0.00    -0.237 OA
ATOM     79  O   UNL A   1      37.377  30.627  37.875  1.00  0.00    -0.744 OA
ENDBRANCH  72  76
ENDBRANCH  45  69
BRANCH  57  80
ATOM     80  C   UNL A   1      45.281  27.257  34.100  1.00  0.00     0.023 A 
ATOM     81  C   UNL A   1      45.111  26.185  34.994  1.00  0.00     0.031 A 
ATOM     82  C   UNL A   1      46.536  27.889  34.056  1.00  0.00     0.131 A 
ATOM     83  C   UNL A   1      46.160  25.815  35.849  1.00  0.00     0.055 A 
ATOM     84  C   UNL A   1      47.594  27.480  34.870  1.00  0.00     0.041 A 
ATOM     85  F   UNL A   1      46.752  28.920  33.223  1.00  0.00    -0.206 F 
ATOM     86  C   UNL A   1      47.404  26.446  35.782  1.00  0.00     0.022 A 
BRANCH  83  87
ATOM     87  S   UNL A   1      45.848  24.558  37.120  1.00  0.00     0.124 S 
ATOM     88  O   UNL A   1      46.512  23.386  36.558  1.00  0.00    -0.237 OA
ATOM     89  O   UNL A   1      46.479  25.142  38.300  1.00  0.00    -0.237 OA
ATOM     90  O   UNL A   1      44.390  24.479  37.174  1.00  0.00    -0.744 OA
ENDBRANCH  83  87
ENDBRANCH  57  80
ENDBRANCH  31  32
ENDBRANCH  24  26
ENDBRANCH  23  24
ENDBRANCH  22  23
ENDBRANCH   1  22
TORSDOF 19
ENDMDL
MODEL 2
REMARK VINA RESULT:     -10.8      4.995      9.940
REMARK SMILES CC[C@H](C)N(CC)c1cc(C)c(N)c(C(=O)OCCOC(=O)c2ccc(-c3c4nc(c(-c5cc(S(=O)(=O)[O-])ccc5F)c5ccc([nH]5)c(-c5cc(S(=O)(=O)[O-])ccc5F)c5nc(c(-c6cc(S(=O)(=O)[O-])ccc6F)c6ccc3[nH]6)C=C5)C=C4)cc2)c1
REMARK SMILES IDX 18 1 17 2 15 3 16 4 14 5 8 6 9 7 86 8 10 9 11 10 12 11 5 12
REMARK SMILES IDX 3 13 4 14 2 15 1 16 6 17 7 18 13 19 19 22 20 23 21 24 22 25
REMARK SMILES IDX 23 26 24 27 85 28 25 29 84 30 26 31 27 32 28 33 78 34 29 35
REMARK SMILES IDX 83 36 77 37 79 38 30 39 82 40 76 41 75 42 31 44 63 45 43 46
REMARK SMILES IDX 62 47 44 48 47 49 61 50 80 51 45 52 46 53 60 55 81 56 48 57
REMARK SMILES IDX 32 58 33 59 41 60 34 61 40 62 42 63 39 64 35 65 36 66 37 67
REMARK SMILES IDX 38 68 64 69 65 70 73 71 66 72 72 73 74 74 71 75 67 76 68 77
REMARK SMILES IDX 69 78 70 79 49 80 50 81 58 82 51 83 57 84 59 85 56 86 52 87
REMARK SMILES IDX 53 88 54 89 55 90
REMARK H PARENT 13 20 13 21 79 43 47 54
REMARK Flexibility Score: inf
ROOT
ATOM      1  C   UNL A   1      34.792  21.373  24.914  1.00  0.00     0.275 C 
ENDROOT
BRANCH   1   2
ATOM      2  O   UNL A   1      34.276  22.032  26.089  1.00  0.00    -0.458 OA
BRANCH   2   3
ATOM      3  C   UNL A   1      34.348  23.394  26.094  1.00  0.00     0.340 C 
ATOM      4  O   UNL A   1      35.364  24.054  26.182  1.00  0.00    -0.246 OA
BRANCH   3   5
ATOM      5  C   UNL A   1      32.987  23.989  25.945  1.00  0.00     0.085 A 
ATOM      6  C   UNL A   1      31.598  25.800  25.048  1.00  0.00     0.038 A 
ATOM      7  C   UNL A   1      30.500  25.152  25.618  1.00  0.00     0.031 A 
ATOM      8  C   UNL A   1      32.846  25.208  25.260  1.00  0.00     0.043 A 
ATOM      9  C   UNL A   1      30.612  23.960  26.356  1.00  0.00    -0.025 A 
ATOM     10  C   UNL A   1      29.385  23.427  27.052  1.00  0.00     0.047 C 
ATOM     11  C   UNL A   1      31.855  23.316  26.446  1.00  0.00     0.049 A 
BRANCH   6  12
ATOM     12  N   UNL A   1      31.482  26.970  24.311  1.00  0.00    -0.369 N 
BRANCH  12  13
ATOM     13  C   UNL A   1      31.982  28.294  24.753  1.00  0.00     0.078 C 
ATOM     14  C   UNL A   1      31.661  28.635  26.208  1.00  0.00     0.031 C 
BRANCH  13  15
ATOM     15  C   UNL A   1      33.445  28.571  24.361  1.00  0.00     0.021 C 
ATOM     16  C   UNL A   1      33.737  28.883  22.902  1.00  0.00     0.006 C 
ENDBRANCH  13  15
ENDBRANCH  12  13
BRANCH  12  17
ATOM     17  C   UNL A   1      30.570  26.941  23.155  1.00  0.00     0.113 C 
ATOM     18  C   UNL A   1      29.384  27.882  23.325  1.00  0.00     0.027 C 
ENDBRANCH  12  17
ENDBRANCH   6  12
BRANCH  11  19
ATOM     19  N   UNL A   1      31.958  22.103  27.122  1.00  0.00    -0.398 N 
ATOM     20  H   UNL A   1      31.784  22.062  28.090  1.00  0.00     0.156 HD
ATOM     21  H   UNL A   1      32.207  21.286  26.631  1.00  0.00     0.156 HD
ENDBRANCH  11  19
ENDBRANCH   3   5
ENDBRANCH   2   3
ENDBRANCH   1   2
BRANCH   1  22
ATOM     22  C   UNL A   1      36.042  20.564  25.257  1.00  0.00     0.275 C 
BRANCH  22  23
ATOM     23  O   UNL A   1      37.204  21.343  24.932  1.00  0.00    -0.458 OA
BRANCH  23  24
ATOM     24  C   UNL A   1      38.370  20.947  25.498  1.00  0.00     0.338 C 
ATOM     25  O   UNL A   1      38.837  19.819  25.486  1.00  0.00    -0.246 OA
BRANCH  24  26
ATOM     26  C   UNL A   1      39.022  22.109  26.145  1.00  0.00     0.060 A 
ATOM     27  C   UNL A   1      38.560  23.396  25.894  1.00  0.00     0.016 A 
ATOM     28  C   UNL A   1      40.162  21.938  26.930  1.00  0.00     0.016 A 
ATOM     29  C   UNL A   1      39.276  24.508  26.343  1.00  0.00     0.010 A 
ATOM     30  C   UNL A   1      40.817  23.058  27.470  1.00  0.00     0.010 A 
ATOM     31  C   UNL A   1      40.409  24.368  27.152  1.00  0.00    -0.014 A 
BRANCH  31  32
ATOM     32  C   UNL A   1      41.205  25.568  27.580  1.00  0.00     0.031 A 
ATOM     33  C   UNL A   1      40.566  26.615  28.465  1.00  0.00     0.074 A 
ATOM     34  C   UNL A   1      42.504  25.729  27.238  1.00  0.00     0.049 A 
ATOM     35  N   UNL A   1      40.955  27.838  28.726  1.00  0.00    -0.248 NA
ATOM     36  C   UNL A   1      39.306  26.239  29.123  1.00  0.00     0.031 C 
ATOM     37  C   UNL A   1      43.306  24.784  26.461  1.00  0.00     0.029 A 
ATOM     38  N   UNL A   1      43.390  26.746  27.520  1.00  0.00    -0.354 N 
ATOM     39  C   UNL A   1      39.942  28.407  29.494  1.00  0.00     0.074 A 
ATOM     40  C   UNL A   1      38.926  27.388  29.661  1.00  0.00     0.031 C 
ATOM     41  C   UNL A   1      44.571  25.224  26.394  1.00  0.00     0.029 A 
ATOM     42  C   UNL A   1      44.647  26.551  26.992  1.00  0.00     0.049 A 
ATOM     43  H   UNL A   1      43.146  27.540  28.049  1.00  0.00     0.167 HD
ATOM     44  C   UNL A   1      39.865  29.664  30.002  1.00  0.00     0.034 A 
ATOM     45  C   UNL A   1      45.724  27.363  26.928  1.00  0.00     0.034 A 
ATOM     46  C   UNL A   1      40.928  30.637  29.905  1.00  0.00     0.049 A 
ATOM     47  C   UNL A   1      45.611  28.765  27.470  1.00  0.00     0.074 A 
ATOM     48  C   UNL A   1      40.956  31.936  30.385  1.00  0.00     0.029 A 
ATOM     49  N   UNL A   1      42.163  30.412  29.310  1.00  0.00    -0.354 N 
ATOM     50  N   UNL A   1      44.593  29.342  28.066  1.00  0.00    -0.248 NA
ATOM     51  C   UNL A   1      46.781  29.637  27.300  1.00  0.00     0.031 C 
ATOM     52  C   UNL A   1      42.185  32.511  30.036  1.00  0.00     0.029 A 
ATOM     53  C   UNL A   1      42.952  31.550  29.400  1.00  0.00     0.049 A 
ATOM     54  H   UNL A   1      42.439  29.567  28.886  1.00  0.00     0.167 HD
ATOM     55  C   UNL A   1      45.003  30.643  28.341  1.00  0.00     0.074 A 
ATOM     56  C   UNL A   1      46.370  30.756  27.876  1.00  0.00     0.031 C 
ATOM     57  C   UNL A   1      44.308  31.657  28.917  1.00  0.00     0.034 A 
BRANCH  44  58
ATOM     58  C   UNL A   1      38.559  30.081  30.640  1.00  0.00     0.023 A 
ATOM     59  C   UNL A   1      37.553  30.764  29.936  1.00  0.00     0.031 A 
ATOM     60  C   UNL A   1      38.335  29.809  32.004  1.00  0.00     0.131 A 
ATOM     61  C   UNL A   1      36.407  31.214  30.613  1.00  0.00     0.055 A 
ATOM     62  C   UNL A   1      37.156  30.187  32.651  1.00  0.00     0.041 A 
ATOM     63  F   UNL A   1      39.265  29.177  32.737  1.00  0.00    -0.206 F 
ATOM     64  C   UNL A   1      36.191  30.908  31.959  1.00  0.00     0.022 A 
BRANCH  61  65
ATOM     65  S   UNL A   1      35.270  32.332  29.748  1.00  0.00     0.124 S 
ATOM     66  O   UNL A   1      34.385  32.753  30.832  1.00  0.00    -0.237 OA
ATOM     67  O   UNL A   1      36.169  33.354  29.225  1.00  0.00    -0.237 OA
ATOM     68  O   UNL A   1      34.646  31.475  28.741  1.00  0.00    -0.744 OA
ENDBRANCH  61  65
ENDBRANCH  44  58
BRANCH  45  69
ATOM     69  C   UNL A   1      46.970  26.919  26.232  1.00  0.00     0.023 A 
ATOM     70  C   UNL A   1      48.021  26.303  26.932  1.00  0.00     0.031 A 
ATOM     71  C   UNL A   1      47.145  27.143  24.853  1.00  0.00     0.131 A 
ATOM     72  C   UNL A   1      49.203  25.956  26.257  1.00  0.00     0.055 A 
ATOM     73  C   UNL A   1      48.295  26.738  24.175  1.00  0.00     0.041 A 
ATOM     74  F   UNL A   1      46.183  27.745  24.135  1.00  0.00    -0.206 F 
ATOM     75  C   UNL A   1      49.337  26.149  24.880  1.00  0.00     0.022 A 
BRANCH  72  76
ATOM     76  S   UNL A   1      50.605  25.322  27.218  1.00  0.00     0.124 S 
ATOM     77  O   UNL A   1      50.977  26.490  28.008  1.00  0.00    -0.237 OA
ATOM     78  O   UNL A   1      49.996  24.217  27.951  1.00  0.00    -0.237 OA
ATOM     79  O   UNL A   1      51.571  24.928  26.194  1.00  0.00    -0.744 OA
ENDBRANCH  72  76
ENDBRANCH  45  69
BRANCH  57  80
ATOM     80  C   UNL A   1      45.042  32.961  29.108  1.00  0.00     0.023 A 
ATOM     81  C   UNL A   1      44.910  34.023  28.195  1.00  0.00     0.031 A 
ATOM     82  C   UNL A   1      45.909  33.131  30.201  1.00  0.00     0.131 A 
ATOM     83  C   UNL A   1      45.678  35.186  28.361  1.00  0.00     0.055 A 
ATOM     84  C   UNL A   1      46.628  34.312  30.391  1.00  0.00     0.041 A 
ATOM     85  F   UNL A   1      46.074  32.148  31.101  1.00  0.00    -0.206 F 
ATOM     86  C   UNL A   1      46.525  35.342  29.461  1.00  0.00     0.022 A 
BRANCH  83  87
ATOM     87  S   UNL A   1      45.629  36.456  27.067  1.00  0.00     0.124 S 
ATOM     88  O   UNL A   1      46.201  35.750  25.926  1.00  0.00    -0.237 OA
ATOM     89  O   UNL A   1      44.204  36.759  26.980  1.00  0.00    -0.237 OA
ATOM     90  O   UNL A   1      46.457  37.531  27.610  1.00  0.00    -0.744 OA
ENDBRANCH  83  87
ENDBRANCH  57  80
ENDBRANCH  31  32
ENDBRANCH  24  26
ENDBRANCH  23  24
ENDBRANCH  22  23
ENDBRANCH   1  22
TORSDOF 19
ENDMDL
MODEL 3
REMARK VINA RESULT:     -10.6      1.434      1.997
REMARK SMILES CC[C@H](C)N(CC)c1cc(C)c(N)c(C(=O)OCCOC(=O)c2ccc(-c3c4nc(c(-c5cc(S(=O)(=O)[O-])ccc5F)c5ccc([nH]5)c(-c5cc(S(=O)(=O)[O-])ccc5F)c5nc(c(-c6cc(S(=O)(=O)[O-])ccc6F)c6ccc3[nH]6)C=C5)C=C4)cc2)c1
REMARK SMILES IDX 18 1 17 2 15 3 16 4 14 5 8 6 9 7 86 8 10 9 11 10 12 11 5 12
REMARK SMILES IDX 3 13 4 14 2 15 1 16 6 17 7 18 13 19 19 22 20 23 21 24 22 25
REMARK SMILES IDX 23 26 24 27 85 28 25 29 84 30 26 31 27 32 28 33 78 34 29 35
REMARK SMILES IDX 83 36 77 37 79 38 30 39 82 40 76 41 75 42 31 44 63 45 43 46
REMARK SMILES IDX 62 47 44 48 47 49 61 50 80 51 45 52 46 53 60 55 81 56 48 57
REMARK SMILES IDX 32 58 33 59 41 60 34 61 40 62 42 63 39 64 35 65 36 66 37 67
REMARK SMILES IDX 38 68 64 69 65 70 73 71 66 72 72 73 74 74 71 75 67 76 68 77
REMARK SMILES IDX 69 78 70 79 49 80 50 81 58 82 51 83 57 84 59 85 56 86 52 87
REMARK SMILES IDX 53 88 54 89 55 90
REMARK H PARENT 13 20 13 21 79 43 47 54
REMARK Flexibility Score: inf
ROOT
ATOM      1  C   UNL A   1      31.605  28.244  27.293  1.00  0.00     0.275 C 
ENDROOT
BRANCH   1   2
ATOM      2  O   UNL A   1      32.197  27.091  26.659  1.00  0.00    -0.458 OA
BRANCH   2   3
ATOM      3  C   UNL A   1      31.328  26.184  26.130  1.00  0.00     0.340 C 
ATOM      4  O   UNL A   1      30.175  26.016  26.474  1.00  0.00    -0.246 OA
BRANCH   3   5
ATOM      5  C   UNL A   1      31.978  25.421  25.024  1.00  0.00     0.085 A 
ATOM      6  C   UNL A   1      33.346  23.500  24.349  1.00  0.00     0.038 A 
ATOM      7  C   UNL A   1      33.207  23.947  23.034  1.00  0.00     0.031 A 
ATOM      8  C   UNL A   1      32.744  24.285  25.337  1.00  0.00     0.043 A 
ATOM      9  C   UNL A   1      32.494  25.110  22.690  1.00  0.00    -0.025 A 
ATOM     10  C   UNL A   1      32.533  25.581  21.259  1.00  0.00     0.047 C 
ATOM     11  C   UNL A   1      31.791  25.809  23.683  1.00  0.00     0.049 A 
BRANCH   6  12
ATOM     12  N   UNL A   1      34.040  22.346  24.683  1.00  0.00    -0.369 N 
BRANCH  12  13
ATOM     13  C   UNL A   1      35.512  22.195  24.588  1.00  0.00     0.078 C 
ATOM     14  C   UNL A   1      36.111  22.680  23.268  1.00  0.00     0.031 C 
BRANCH  13  15
ATOM     15  C   UNL A   1      36.272  22.693  25.831  1.00  0.00     0.021 C 
ATOM     16  C   UNL A   1      37.391  23.701  25.618  1.00  0.00     0.006 C 
ENDBRANCH  13  15
ENDBRANCH  12  13
BRANCH  12  17
ATOM     17  C   UNL A   1      33.245  21.122  24.877  1.00  0.00     0.113 C 
ATOM     18  C   UNL A   1      32.740  20.542  23.563  1.00  0.00     0.027 C 
ENDBRANCH  12  17
ENDBRANCH   6  12
BRANCH  11  19
ATOM     19  N   UNL A   1      31.031  26.924  23.337  1.00  0.00    -0.398 N 
ATOM     20  H   UNL A   1      30.409  26.879  22.576  1.00  0.00     0.156 HD
ATOM     21  H   UNL A   1      31.118  27.757  23.854  1.00  0.00     0.156 HD
ENDBRANCH  11  19
ENDBRANCH   3   5
ENDBRANCH   2   3
ENDBRANCH   1   2
BRANCH   1  22
ATOM     22  C   UNL A   1      31.475  29.397  26.299  1.00  0.00     0.275 C 
BRANCH  22  23
ATOM     23  O   UNL A   1      32.769  29.982  26.093  1.00  0.00    -0.458 OA
BRANCH  23  24
ATOM     24  C   UNL A   1      33.085  31.036  26.884  1.00  0.00     0.338 C 
ATOM     25  O   UNL A   1      32.386  32.012  27.108  1.00  0.00    -0.246 OA
BRANCH  24  26
ATOM     26  C   UNL A   1      34.433  30.832  27.463  1.00  0.00     0.060 A 
ATOM     27  C   UNL A   1      34.924  29.544  27.648  1.00  0.00     0.016 A 
ATOM     28  C   UNL A   1      35.183  31.916  27.919  1.00  0.00     0.016 A 
ATOM     29  C   UNL A   1      36.105  29.329  28.360  1.00  0.00     0.010 A 
ATOM     30  C   UNL A   1      36.425  31.698  28.539  1.00  0.00     0.010 A 
ATOM     31  C   UNL A   1      36.891  30.397  28.809  1.00  0.00    -0.014 A 
BRANCH  31  32
ATOM     32  C   UNL A   1      38.128  30.155  29.624  1.00  0.00     0.031 A 
ATOM     33  C   UNL A   1      39.264  29.344  29.042  1.00  0.00     0.074 A 
ATOM     34  C   UNL A   1      38.289  30.680  30.861  1.00  0.00     0.049 A 
ATOM     35  N   UNL A   1      40.285  28.785  29.643  1.00  0.00    -0.248 NA
ATOM     36  C   UNL A   1      39.229  29.111  27.591  1.00  0.00     0.031 C 
ATOM     37  C   UNL A   1      37.337  31.553  31.549  1.00  0.00     0.029 A 
ATOM     38  N   UNL A   1      39.329  30.570  31.758  1.00  0.00    -0.354 N 
ATOM     39  C   UNL A   1      40.955  28.057  28.663  1.00  0.00     0.074 A 
ATOM     40  C   UNL A   1      40.225  28.254  27.428  1.00  0.00     0.031 C 
ATOM     41  C   UNL A   1      37.865  31.957  32.714  1.00  0.00     0.029 A 
ATOM     42  C   UNL A   1      39.126  31.261  32.933  1.00  0.00     0.049 A 
ATOM     43  H   UNL A   1      40.143  30.045  31.577  1.00  0.00     0.167 HD
ATOM     44  C   UNL A   1      42.068  27.288  28.787  1.00  0.00     0.034 A 
ATOM     45  C   UNL A   1      39.829  31.285  34.086  1.00  0.00     0.034 A 
ATOM     46  C   UNL A   1      42.836  27.177  30.005  1.00  0.00     0.049 A 
ATOM     47  C   UNL A   1      41.044  30.404  34.217  1.00  0.00     0.074 A 
ATOM     48  C   UNL A   1      43.979  26.430  30.240  1.00  0.00     0.029 A 
ATOM     49  N   UNL A   1      42.559  27.851  31.187  1.00  0.00    -0.354 N 
ATOM     50  N   UNL A   1      41.585  29.604  33.327  1.00  0.00    -0.248 NA
ATOM     51  C   UNL A   1      41.723  30.402  35.519  1.00  0.00     0.031 C 
ATOM     52  C   UNL A   1      44.360  26.612  31.575  1.00  0.00     0.029 A 
ATOM     53  C   UNL A   1      43.499  27.527  32.156  1.00  0.00     0.049 A 
ATOM     54  H   UNL A   1      41.804  28.469  31.320  1.00  0.00     0.167 HD
ATOM     55  C   UNL A   1      42.668  29.006  33.965  1.00  0.00     0.074 A 
ATOM     56  C   UNL A   1      42.723  29.560  35.301  1.00  0.00     0.031 C 
ATOM     57  C   UNL A   1      43.534  28.073  33.491  1.00  0.00     0.034 A 
BRANCH  44  58
ATOM     58  C   UNL A   1      42.474  26.449  27.597  1.00  0.00     0.023 A 
ATOM     59  C   UNL A   1      42.025  25.131  27.407  1.00  0.00     0.031 A 
ATOM     60  C   UNL A   1      43.363  26.982  26.642  1.00  0.00     0.131 A 
ATOM     61  C   UNL A   1      42.521  24.370  26.334  1.00  0.00     0.055 A 
ATOM     62  C   UNL A   1      43.788  26.248  25.533  1.00  0.00     0.041 A 
ATOM     63  F   UNL A   1      43.843  28.229  26.778  1.00  0.00    -0.206 F 
ATOM     64  C   UNL A   1      43.379  24.928  25.383  1.00  0.00     0.022 A 
BRANCH  61  65
ATOM     65  S   UNL A   1      42.145  22.596  26.281  1.00  0.00     0.124 S 
ATOM     66  O   UNL A   1      40.687  22.600  26.361  1.00  0.00    -0.237 OA
ATOM     67  O   UNL A   1      42.714  22.192  25.000  1.00  0.00    -0.237 OA
ATOM     68  O   UNL A   1      42.826  22.065  27.461  1.00  0.00    -0.744 OA
ENDBRANCH  61  65
ENDBRANCH  44  58
BRANCH  45  69
ATOM     69  C   UNL A   1      39.346  32.088  35.252  1.00  0.00     0.023 A 
ATOM     70  C   UNL A   1      39.756  33.417  35.446  1.00  0.00     0.031 A 
ATOM     71  C   UNL A   1      38.494  31.517  36.217  1.00  0.00     0.131 A 
ATOM     72  C   UNL A   1      39.334  34.120  36.587  1.00  0.00     0.055 A 
ATOM     73  C   UNL A   1      38.025  32.241  37.314  1.00  0.00     0.041 A 
ATOM     74  F   UNL A   1      38.085  30.244  36.094  1.00  0.00    -0.206 F 
ATOM     75  C   UNL A   1      38.454  33.548  37.509  1.00  0.00     0.022 A 
BRANCH  72  76
ATOM     76  S   UNL A   1      40.016  35.772  36.898  1.00  0.00     0.124 S 
ATOM     77  O   UNL A   1      39.653  36.479  35.675  1.00  0.00    -0.237 OA
ATOM     78  O   UNL A   1      39.305  36.173  38.107  1.00  0.00    -0.237 OA
ATOM     79  O   UNL A   1      41.446  35.523  37.074  1.00  0.00    -0.744 OA
ENDBRANCH  72  76
ENDBRANCH  45  69
BRANCH  57  80
ATOM     80  C   UNL A   1      44.635  27.633  34.423  1.00  0.00     0.023 A 
ATOM     81  C   UNL A   1      44.470  26.549  35.302  1.00  0.00     0.031 A 
ATOM     82  C   UNL A   1      45.857  28.330  34.452  1.00  0.00     0.131 A 
ATOM     83  C   UNL A   1      45.486  26.228  36.215  1.00  0.00     0.055 A 
ATOM     84  C   UNL A   1      46.885  27.971  35.324  1.00  0.00     0.041 A 
ATOM     85  F   UNL A   1      46.066  29.375  33.635  1.00  0.00    -0.206 F 
ATOM     86  C   UNL A   1      46.698  26.924  36.221  1.00  0.00     0.022 A 
BRANCH  83  87
ATOM     87  S   UNL A   1      45.168  24.950  37.462  1.00  0.00     0.124 S 
ATOM     88  O   UNL A   1      46.260  24.013  37.222  1.00  0.00    -0.237 OA
ATOM     89  O   UNL A   1      45.239  25.705  38.710  1.00  0.00    -0.237 OA
ATOM     90  O   UNL A   1      43.838  24.455  37.115  1.00  0.00    -0.744 OA
ENDBRANCH  83  87
ENDBRANCH  57  80
ENDBRANCH  31  32
ENDBRANCH  24  26
ENDBRANCH  23  24
ENDBRANCH  22  23
ENDBRANCH   1  22
TORSDOF 19
ENDMDL
