MODEL 1
REMARK VINA RESULT:     -11.8      0.000      0.000
REMARK SMILES CC(C)CSc1cc2c(cc1Cl)C=C(C(=O)OCCOC(=O)c1ccc(-c3c4nc(c(-c5cc(S(=O)(=O)[O-])ccc5F)c5ccc([nH]5)c(-c5cc(S(=O)(=O)[O-])ccc5F)c5nc(c(-c6cc(S(=O)(=O)[O-])ccc6F)c6ccc3[nH]6)C=C5)C=C4)cc1)[C@@H](C(F)(F)F)O2
REMARK SMILES IDX 18 1 17 2 15 3 16 4 14 5 6 6 7 7 11 8 8 9 10 10 12 11 9 12
REMARK SMILES IDX 91 13 13 14 86 15 5 16 4 17 2 18 1 19 3 20 87 21 88 22 89 23
REMARK SMILES IDX 90 24 19 25 20 26 21 27 22 28 23 29 24 30 85 31 25 32 84 33
REMARK SMILES IDX 26 34 27 35 28 36 78 37 29 38 83 39 77 40 79 41 30 42 82 43
REMARK SMILES IDX 76 44 75 45 31 47 63 48 43 49 62 50 44 51 47 52 61 53 80 54
REMARK SMILES IDX 45 55 46 56 60 58 81 59 48 60 32 61 33 62 41 63 34 64 40 65
REMARK SMILES IDX 42 66 39 67 35 68 36 69 37 70 38 71 64 72 65 73 73 74 66 75
REMARK SMILES IDX 72 76 74 77 71 78 67 79 68 80 69 81 70 82 49 83 50 84 58 85
REMARK SMILES IDX 51 86 57 87 59 88 56 89 52 90 53 91 54 92 55 93
REMARK H PARENT 79 46 47 57
REMARK Flexibility Score: inf
ROOT
ATOM      1  C   UNL A   1      31.074  31.252  25.426  1.00  0.00     0.275 C 
ENDROOT
BRANCH   1   2
ATOM      2  O   UNL A   1      31.641  29.986  25.019  1.00  0.00    -0.459 OA
BRANCH   2   3
ATOM      3  C   UNL A   1      30.891  29.244  24.165  1.00  0.00     0.338 C 
ATOM      4  O   UNL A   1      30.024  29.649  23.417  1.00  0.00    -0.246 OA
BRANCH   3   5
ATOM      5  C   UNL A   1      31.333  27.836  24.208  1.00  0.00     0.087 C 
ATOM      6  C   UNL A   1      32.143  23.064  25.630  1.00  0.00     0.030 A 
ATOM      7  C   UNL A   1      32.752  23.936  24.692  1.00  0.00     0.063 A 
ATOM      8  C   UNL A   1      30.960  23.497  26.245  1.00  0.00     0.055 A 
ATOM      9  C   UNL A   1      32.276  25.230  24.477  1.00  0.00     0.129 A 
ATOM     10  C   UNL A   1      30.555  24.827  26.116  1.00  0.00     0.033 A 
ATOM     11  Cl  UNL A   1      29.866  22.486  27.112  1.00  0.00    -0.083 Cl
ATOM     12  C   UNL A   1      31.240  25.694  25.266  1.00  0.00     0.019 A 
ATOM     13  O   UNL A   1      32.887  26.001  23.527  1.00  0.00    -0.475 OA
ATOM     14  C   UNL A   1      30.888  27.092  25.223  1.00  0.00     0.027 C 
ATOM     15  C   UNL A   1      32.285  27.296  23.179  1.00  0.00     0.316 C 
BRANCH   6  16
ATOM     16  S   UNL A   1      33.027  21.519  25.861  1.00  0.00    -0.124 SA
BRANCH  16  17
ATOM     17  C   UNL A   1      32.153  20.223  24.893  1.00  0.00     0.078 C 
BRANCH  17  18
ATOM     18  C   UNL A   1      32.629  19.858  23.471  1.00  0.00    -0.007 C 
ATOM     19  C   UNL A   1      32.232  18.480  22.946  1.00  0.00     0.008 C 
ATOM     20  C   UNL A   1      32.089  20.921  22.499  1.00  0.00     0.008 C 
ENDBRANCH  17  18
ENDBRANCH  16  17
ENDBRANCH   6  16
BRANCH  15  21
ATOM     21  C   UNL A   1      33.445  28.270  22.912  1.00  0.00     0.430 C 
ATOM     22  F   UNL A   1      33.003  29.411  22.328  1.00  0.00    -0.167 F 
ATOM     23  F   UNL A   1      34.067  28.646  24.055  1.00  0.00    -0.167 F 
ATOM     24  F   UNL A   1      34.383  27.737  22.098  1.00  0.00    -0.167 F 
ENDBRANCH  15  21
ENDBRANCH   3   5
ENDBRANCH   2   3
ENDBRANCH   1   2
BRANCH   1  25
ATOM     25  C   UNL A   1      31.426  31.585  26.878  1.00  0.00     0.275 C 
BRANCH  25  26
ATOM     26  O   UNL A   1      32.812  31.295  27.131  1.00  0.00    -0.458 OA
BRANCH  26  27
ATOM     27  C   UNL A   1      33.545  32.340  27.577  1.00  0.00     0.338 C 
ATOM     28  O   UNL A   1      33.151  33.465  27.834  1.00  0.00    -0.246 OA
BRANCH  27  29
ATOM     29  C   UNL A   1      34.910  31.885  27.871  1.00  0.00     0.060 A 
ATOM     30  C   UNL A   1      35.976  32.761  28.005  1.00  0.00     0.016 A 
ATOM     31  C   UNL A   1      35.070  30.549  28.209  1.00  0.00     0.016 A 
ATOM     32  C   UNL A   1      37.197  32.271  28.490  1.00  0.00     0.010 A 
ATOM     33  C   UNL A   1      36.213  30.113  28.868  1.00  0.00     0.010 A 
ATOM     34  C   UNL A   1      37.319  30.954  28.992  1.00  0.00    -0.014 A 
BRANCH  34  35
ATOM     35  C   UNL A   1      38.574  30.486  29.661  1.00  0.00     0.031 A 
ATOM     36  C   UNL A   1      38.952  30.919  31.063  1.00  0.00     0.074 A 
ATOM     37  C   UNL A   1      39.420  29.680  28.980  1.00  0.00     0.049 A 
ATOM     38  N   UNL A   1      39.956  30.515  31.805  1.00  0.00    -0.248 NA
ATOM     39  C   UNL A   1      38.142  31.967  31.705  1.00  0.00     0.031 C 
ATOM     40  C   UNL A   1      39.272  29.312  27.571  1.00  0.00     0.029 A 
ATOM     41  N   UNL A   1      40.551  29.006  29.376  1.00  0.00    -0.354 N 
ATOM     42  C   UNL A   1      39.900  31.265  32.976  1.00  0.00     0.074 A 
ATOM     43  C   UNL A   1      38.828  32.216  32.811  1.00  0.00     0.031 C 
ATOM     44  C   UNL A   1      40.201  28.402  27.251  1.00  0.00     0.029 A 
ATOM     45  C   UNL A   1      41.053  28.158  28.411  1.00  0.00     0.049 A 
ATOM     46  H   UNL A   1      40.962  29.117  30.263  1.00  0.00     0.167 HD
ATOM     47  C   UNL A   1      40.631  31.139  34.109  1.00  0.00     0.034 A 
ATOM     48  C   UNL A   1      42.062  27.263  28.455  1.00  0.00     0.034 A 
ATOM     49  C   UNL A   1      41.659  30.145  34.286  1.00  0.00     0.049 A 
ATOM     50  C   UNL A   1      42.807  27.071  29.752  1.00  0.00     0.074 A 
ATOM     51  C   UNL A   1      42.378  29.856  35.433  1.00  0.00     0.029 A 
ATOM     52  N   UNL A   1      42.107  29.275  33.304  1.00  0.00    -0.354 N 
ATOM     53  N   UNL A   1      42.628  27.678  30.902  1.00  0.00    -0.248 NA
ATOM     54  C   UNL A   1      43.877  26.065  29.768  1.00  0.00     0.031 C 
ATOM     55  C   UNL A   1      43.306  28.862  35.125  1.00  0.00     0.029 A 
ATOM     56  C   UNL A   1      43.115  28.470  33.810  1.00  0.00     0.049 A 
ATOM     57  H   UNL A   1      41.761  29.236  32.383  1.00  0.00     0.167 HD
ATOM     58  C   UNL A   1      43.557  27.123  31.778  1.00  0.00     0.074 A 
ATOM     59  C   UNL A   1      44.261  26.096  31.038  1.00  0.00     0.031 C 
ATOM     60  C   UNL A   1      43.814  27.446  33.070  1.00  0.00     0.034 A 
BRANCH  47  61
ATOM     61  C   UNL A   1      40.320  32.035  35.290  1.00  0.00     0.023 A 
ATOM     62  C   UNL A   1      39.283  31.700  36.182  1.00  0.00     0.031 A 
ATOM     63  C   UNL A   1      40.939  33.290  35.439  1.00  0.00     0.131 A 
ATOM     64  C   UNL A   1      38.873  32.624  37.154  1.00  0.00     0.055 A 
ATOM     65  C   UNL A   1      40.565  34.183  36.444  1.00  0.00     0.041 A 
ATOM     66  F   UNL A   1      41.926  33.669  34.609  1.00  0.00    -0.206 F 
ATOM     67  C   UNL A   1      39.516  33.859  37.296  1.00  0.00     0.022 A 
BRANCH  64  68
ATOM     68  S   UNL A   1      37.439  32.299  38.216  1.00  0.00     0.124 S 
ATOM     69  O   UNL A   1      36.400  33.099  37.570  1.00  0.00    -0.237 OA
ATOM     70  O   UNL A   1      37.285  30.853  38.083  1.00  0.00    -0.237 OA
ATOM     71  O   UNL A   1      37.860  32.773  39.530  1.00  0.00    -0.744 OA
ENDBRANCH  64  68
ENDBRANCH  47  61
BRANCH  48  72
ATOM     72  C   UNL A   1      42.337  26.416  27.254  1.00  0.00     0.023 A 
ATOM     73  C   UNL A   1      41.888  25.084  27.186  1.00  0.00     0.031 A 
ATOM     74  C   UNL A   1      43.159  26.887  26.215  1.00  0.00     0.131 A 
ATOM     75  C   UNL A   1      42.329  24.252  26.149  1.00  0.00     0.055 A 
ATOM     76  C   UNL A   1      43.529  26.077  25.140  1.00  0.00     0.041 A 
ATOM     77  F   UNL A   1      43.629  28.144  26.241  1.00  0.00    -0.206 F 
ATOM     78  C   UNL A   1      43.131  24.745  25.115  1.00  0.00     0.022 A 
BRANCH  75  79
ATOM     79  S   UNL A   1      42.013  22.465  26.194  1.00  0.00     0.124 S 
ATOM     80  O   UNL A   1      42.720  22.001  25.004  1.00  0.00    -0.237 OA
ATOM     81  O   UNL A   1      42.612  22.089  27.472  1.00  0.00    -0.237 OA
ATOM     82  O   UNL A   1      40.558  22.372  26.141  1.00  0.00    -0.744 OA
ENDBRANCH  75  79
ENDBRANCH  48  72
BRANCH  60  83
ATOM     83  C   UNL A   1      44.917  26.711  33.795  1.00  0.00     0.023 A 
ATOM     84  C   UNL A   1      44.647  25.496  34.453  1.00  0.00     0.031 A 
ATOM     85  C   UNL A   1      46.189  27.286  33.960  1.00  0.00     0.131 A 
ATOM     86  C   UNL A   1      45.621  24.919  35.279  1.00  0.00     0.055 A 
ATOM     87  C   UNL A   1      47.174  26.679  34.739  1.00  0.00     0.041 A 
ATOM     88  F   UNL A   1      46.492  28.453  33.368  1.00  0.00    -0.206 F 
ATOM     89  C   UNL A   1      46.886  25.497  35.416  1.00  0.00     0.022 A 
BRANCH  86  90
ATOM     90  S   UNL A   1      45.248  23.455  36.285  1.00  0.00     0.124 S 
ATOM     91  O   UNL A   1      45.021  24.045  37.602  1.00  0.00    -0.237 OA
ATOM     92  O   UNL A   1      44.058  22.924  35.625  1.00  0.00    -0.237 OA
ATOM     93  O   UNL A   1      46.448  22.633  36.170  1.00  0.00    -0.744 OA
ENDBRANCH  86  90
ENDBRANCH  60  83
ENDBRANCH  34  35
ENDBRANCH  27  29
ENDBRANCH  26  27
ENDBRANCH  25  26
ENDBRANCH   1  25
TORSDOF 18
ENDMDL
MODEL 2
REMARK VINA RESULT:     -11.2      1.265      1.727
REMARK SMILES CC(C)CSc1cc2c(cc1Cl)C=C(C(=O)OCCOC(=O)c1ccc(-c3c4nc(c(-c5cc(S(=O)(=O)[O-])ccc5F)c5ccc([nH]5)c(-c5cc(S(=O)(=O)[O-])ccc5F)c5nc(c(-c6cc(S(=O)(=O)[O-])ccc6F)c6ccc3[nH]6)C=C5)C=C4)cc1)[C@@H](C(F)(F)F)O2
REMARK SMILES IDX 18 1 17 2 15 3 16 4 14 5 6 6 7 7 11 8 8 9 10 10 12 11 9 12
REMARK SMILES IDX 91 13 13 14 86 15 5 16 4 17 2 18 1 19 3 20 87 21 88 22 89 23
REMARK SMILES IDX 90 24 19 25 20 26 21 27 22 28 23 29 24 30 85 31 25 32 84 33
REMARK SMILES IDX 26 34 27 35 28 36 78 37 29 38 83 39 77 40 79 41 30 42 82 43
REMARK SMILES IDX 76 44 75 45 31 47 63 48 43 49 62 50 44 51 47 52 61 53 80 54
REMARK SMILES IDX 45 55 46 56 60 58 81 59 48 60 32 61 33 62 41 63 34 64 40 65
REMARK SMILES IDX 42 66 39 67 35 68 36 69 37 70 38 71 64 72 65 73 73 74 66 75
REMARK SMILES IDX 72 76 74 77 71 78 67 79 68 80 69 81 70 82 49 83 50 84 58 85
REMARK SMILES IDX 51 86 57 87 59 88 56 89 52 90 53 91 54 92 55 93
REMARK H PARENT 79 46 47 57
REMARK Flexibility Score: inf
ROOT
ATOM      1  C   UNL A   1      32.100  29.793  25.169  1.00  0.00     0.275 C 
ENDROOT
BRANCH   1   2
ATOM      2  O   UNL A   1      32.296  28.385  24.907  1.00  0.00    -0.459 OA
BRANCH   2   3
ATOM      3  C   UNL A   1      31.184  27.679  24.576  1.00  0.00     0.338 C 
ATOM      4  O   UNL A   1      30.070  28.123  24.384  1.00  0.00    -0.246 OA
BRANCH   3   5
ATOM      5  C   UNL A   1      31.532  26.255  24.398  1.00  0.00     0.087 C 
ATOM      6  C   UNL A   1      33.406  21.617  25.055  1.00  0.00     0.030 A 
ATOM      7  C   UNL A   1      32.906  22.337  23.939  1.00  0.00     0.063 A 
ATOM      8  C   UNL A   1      33.255  22.200  26.321  1.00  0.00     0.055 A 
ATOM      9  C   UNL A   1      32.402  23.632  24.066  1.00  0.00     0.129 A 
ATOM     10  C   UNL A   1      32.860  23.534  26.431  1.00  0.00     0.033 A 
ATOM     11  Cl  UNL A   1      33.439  21.371  27.821  1.00  0.00    -0.083 Cl
ATOM     12  C   UNL A   1      32.476  24.252  25.300  1.00  0.00     0.019 A 
ATOM     13  O   UNL A   1      31.899  24.249  22.954  1.00  0.00    -0.475 OA
ATOM     14  C   UNL A   1      32.178  25.659  25.404  1.00  0.00     0.027 C 
ATOM     15  C   UNL A   1      31.214  25.539  23.116  1.00  0.00     0.316 C 
BRANCH   6  16
ATOM     16  S   UNL A   1      34.158  20.046  24.625  1.00  0.00    -0.124 SA
BRANCH  16  17
ATOM     17  C   UNL A   1      32.831  18.946  23.983  1.00  0.00     0.078 C 
BRANCH  17  18
ATOM     18  C   UNL A   1      33.023  17.415  23.973  1.00  0.00    -0.007 C 
ATOM     19  C   UNL A   1      34.362  16.894  23.456  1.00  0.00     0.008 C 
ATOM     20  C   UNL A   1      32.823  16.900  25.408  1.00  0.00     0.008 C 
ENDBRANCH  17  18
ENDBRANCH  16  17
ENDBRANCH   6  16
BRANCH  15  21
ATOM     21  C   UNL A   1      31.571  26.391  21.887  1.00  0.00     0.430 C 
ATOM     22  F   UNL A   1      32.765  27.012  22.049  1.00  0.00    -0.167 F 
ATOM     23  F   UNL A   1      31.683  25.642  20.763  1.00  0.00    -0.167 F 
ATOM     24  F   UNL A   1      30.647  27.348  21.643  1.00  0.00    -0.167 F 
ENDBRANCH  15  21
ENDBRANCH   3   5
ENDBRANCH   2   3
ENDBRANCH   1   2
BRANCH   1  25
ATOM     25  C   UNL A   1      32.566  30.173  26.576  1.00  0.00     0.275 C 
BRANCH  25  26
ATOM     26  O   UNL A   1      33.625  31.144  26.501  1.00  0.00    -0.458 OA
BRANCH  26  27
ATOM     27  C   UNL A   1      34.016  31.660  27.688  1.00  0.00     0.338 C 
ATOM     28  O   UNL A   1      33.334  32.277  28.488  1.00  0.00    -0.246 OA
BRANCH  27  29
ATOM     29  C   UNL A   1      35.391  31.231  27.975  1.00  0.00     0.060 A 
ATOM     30  C   UNL A   1      36.433  32.130  28.147  1.00  0.00     0.016 A 
ATOM     31  C   UNL A   1      35.585  29.888  28.266  1.00  0.00     0.016 A 
ATOM     32  C   UNL A   1      37.664  31.655  28.621  1.00  0.00     0.010 A 
ATOM     33  C   UNL A   1      36.736  29.459  28.917  1.00  0.00     0.010 A 
ATOM     34  C   UNL A   1      37.819  30.325  29.077  1.00  0.00    -0.014 A 
BRANCH  34  35
ATOM     35  C   UNL A   1      39.082  29.866  29.737  1.00  0.00     0.031 A 
ATOM     36  C   UNL A   1      39.476  30.317  31.130  1.00  0.00     0.074 A 
ATOM     37  C   UNL A   1      39.921  29.054  29.056  1.00  0.00     0.049 A 
ATOM     38  N   UNL A   1      40.489  29.923  31.864  1.00  0.00    -0.248 NA
ATOM     39  C   UNL A   1      38.672  31.372  31.768  1.00  0.00     0.031 C 
ATOM     40  C   UNL A   1      39.757  28.668  27.653  1.00  0.00     0.029 A 
ATOM     41  N   UNL A   1      41.057  28.386  29.447  1.00  0.00    -0.354 N 
ATOM     42  C   UNL A   1      40.445  30.687  33.026  1.00  0.00     0.074 A 
ATOM     43  C   UNL A   1      39.370  31.635  32.863  1.00  0.00     0.031 C 
ATOM     44  C   UNL A   1      40.684  27.756  27.333  1.00  0.00     0.029 A 
ATOM     45  C   UNL A   1      41.549  27.527  28.487  1.00  0.00     0.049 A 
ATOM     46  H   UNL A   1      41.479  28.508  30.328  1.00  0.00     0.167 HD
ATOM     47  C   UNL A   1      41.190  30.576  34.153  1.00  0.00     0.034 A 
ATOM     48  C   UNL A   1      42.561  26.634  28.529  1.00  0.00     0.034 A 
ATOM     49  C   UNL A   1      42.221  29.586  34.329  1.00  0.00     0.049 A 
ATOM     50  C   UNL A   1      43.321  26.459  29.819  1.00  0.00     0.074 A 
ATOM     51  C   UNL A   1      42.954  29.312  35.471  1.00  0.00     0.029 A 
ATOM     52  N   UNL A   1      42.659  28.705  33.353  1.00  0.00    -0.354 N 
ATOM     53  N   UNL A   1      43.154  27.080  30.964  1.00  0.00    -0.248 NA
ATOM     54  C   UNL A   1      44.393  25.455  29.835  1.00  0.00     0.031 C 
ATOM     55  C   UNL A   1      43.880  28.315  35.165  1.00  0.00     0.029 A 
ATOM     56  C   UNL A   1      43.675  27.907  33.857  1.00  0.00     0.049 A 
ATOM     57  H   UNL A   1      42.302  28.654  32.437  1.00  0.00     0.167 HD
ATOM     58  C   UNL A   1      44.094  26.536  31.835  1.00  0.00     0.074 A 
ATOM     59  C   UNL A   1      44.791  25.502  31.100  1.00  0.00     0.031 C 
ATOM     60  C   UNL A   1      44.366  26.875  33.121  1.00  0.00     0.034 A 
BRANCH  47  61
ATOM     61  C   UNL A   1      40.891  31.486  35.326  1.00  0.00     0.023 A 
ATOM     62  C   UNL A   1      39.748  31.270  36.120  1.00  0.00     0.031 A 
ATOM     63  C   UNL A   1      41.645  32.651  35.559  1.00  0.00     0.131 A 
ATOM     64  C   UNL A   1      39.373  32.223  37.078  1.00  0.00     0.055 A 
ATOM     65  C   UNL A   1      41.299  33.569  36.552  1.00  0.00     0.041 A 
ATOM     66  F   UNL A   1      42.739  32.916  34.824  1.00  0.00    -0.206 F 
ATOM     67  C   UNL A   1      40.148  33.365  37.305  1.00  0.00     0.022 A 
BRANCH  64  68
ATOM     68  S   UNL A   1      37.824  32.063  38.008  1.00  0.00     0.124 S 
ATOM     69  O   UNL A   1      38.271  32.301  39.378  1.00  0.00    -0.237 OA
ATOM     70  O   UNL A   1      37.010  33.127  37.424  1.00  0.00    -0.237 OA
ATOM     71  O   UNL A   1      37.383  30.702  37.726  1.00  0.00    -0.744 OA
ENDBRANCH  64  68
ENDBRANCH  47  61
BRANCH  48  72
ATOM     72  C   UNL A   1      42.822  25.774  27.335  1.00  0.00     0.023 A 
ATOM     73  C   UNL A   1      42.259  24.489  27.228  1.00  0.00     0.031 A 
ATOM     74  C   UNL A   1      43.740  26.174  26.348  1.00  0.00     0.131 A 
ATOM     75  C   UNL A   1      42.678  23.626  26.207  1.00  0.00     0.055 A 
ATOM     76  C   UNL A   1      44.093  25.340  25.285  1.00  0.00     0.041 A 
ATOM     77  F   UNL A   1      44.320  27.382  26.413  1.00  0.00    -0.206 F 
ATOM     78  C   UNL A   1      43.577  24.050  25.223  1.00  0.00     0.022 A 
BRANCH  75  79
ATOM     79  S   UNL A   1      42.199  21.875  26.215  1.00  0.00     0.124 S 
ATOM     80  O   UNL A   1      42.550  21.470  27.573  1.00  0.00    -0.237 OA
ATOM     81  O   UNL A   1      40.769  21.957  25.929  1.00  0.00    -0.237 OA
ATOM     82  O   UNL A   1      43.010  21.292  25.151  1.00  0.00    -0.744 OA
ENDBRANCH  75  79
ENDBRANCH  48  72
BRANCH  60  83
ATOM     83  C   UNL A   1      45.479  26.150  33.842  1.00  0.00     0.023 A 
ATOM     84  C   UNL A   1      45.200  24.999  34.602  1.00  0.00     0.031 A 
ATOM     85  C   UNL A   1      46.778  26.684  33.898  1.00  0.00     0.131 A 
ATOM     86  C   UNL A   1      46.195  24.445  35.418  1.00  0.00     0.055 A 
ATOM     87  C   UNL A   1      47.781  26.095  34.669  1.00  0.00     0.041 A 
ATOM     88  F   UNL A   1      47.092  27.791  33.205  1.00  0.00    -0.206 F 
ATOM     89  C   UNL A   1      47.486  24.979  35.446  1.00  0.00     0.022 A 
BRANCH  86  90
ATOM     90  S   UNL A   1      45.823  23.074  36.548  1.00  0.00     0.124 S 
ATOM     91  O   UNL A   1      47.142  22.474  36.736  1.00  0.00    -0.237 OA
ATOM     92  O   UNL A   1      45.285  23.773  37.713  1.00  0.00    -0.237 OA
ATOM     93  O   UNL A   1      44.867  22.257  35.810  1.00  0.00    -0.744 OA
ENDBRANCH  86  90
ENDBRANCH  60  83
ENDBRANCH  34  35
ENDBRANCH  27  29
ENDBRANCH  26  27
ENDBRANCH  25  26
ENDBRANCH   1  25
TORSDOF 18
ENDMDL
MODEL 3
REMARK VINA RESULT:     -10.8      5.969     10.865
REMARK SMILES CC(C)CSc1cc2c(cc1Cl)C=C(C(=O)OCCOC(=O)c1ccc(-c3c4nc(c(-c5cc(S(=O)(=O)[O-])ccc5F)c5ccc([nH]5)c(-c5cc(S(=O)(=O)[O-])ccc5F)c5nc(c(-c6cc(S(=O)(=O)[O-])ccc6F)c6ccc3[nH]6)C=C5)C=C4)cc1)[C@@H](C(F)(F)F)O2
REMARK SMILES IDX 18 1 17 2 15 3 16 4 14 5 6 6 7 7 11 8 8 9 10 10 12 11 9 12
REMARK SMILES IDX 91 13 13 14 86 15 5 16 4 17 2 18 1 19 3 20 87 21 88 22 89 23
REMARK SMILES IDX 90 24 19 25 20 26 21 27 22 28 23 29 24 30 85 31 25 32 84 33
REMARK SMILES IDX 26 34 27 35 28 36 78 37 29 38 83 39 77 40 79 41 30 42 82 43
REMARK SMILES IDX 76 44 75 45 31 47 63 48 43 49 62 50 44 51 47 52 61 53 80 54
REMARK SMILES IDX 45 55 46 56 60 58 81 59 48 60 32 61 33 62 41 63 34 64 40 65
REMARK SMILES IDX 42 66 39 67 35 68 36 69 37 70 38 71 64 72 65 73 73 74 66 75
REMARK SMILES IDX 72 76 74 77 71 78 67 79 68 80 69 81 70 82 49 83 50 84 58 85
REMARK SMILES IDX 51 86 57 87 59 88 56 89 52 90 53 91 54 92 55 93
REMARK H PARENT 79 46 47 57
REMARK Flexibility Score: inf
ROOT
ATOM      1  C   UNL A   1      42.680  20.632  25.963  1.00  0.00     0.275 C 
ENDROOT
BRANCH   1   2
ATOM      2  O   UNL A   1      41.473  21.413  25.809  1.00  0.00    -0.459 OA
BRANCH   2   3
ATOM      3  C   UNL A   1      40.837  21.760  26.957  1.00  0.00     0.338 C 
ATOM      4  O   UNL A   1      41.268  21.659  28.088  1.00  0.00    -0.246 OA
BRANCH   3   5
ATOM      5  C   UNL A   1      39.531  22.372  26.638  1.00  0.00     0.087 C 
ATOM      6  C   UNL A   1      34.936  23.249  24.752  1.00  0.00     0.030 A 
ATOM      7  C   UNL A   1      35.937  24.062  25.342  1.00  0.00     0.063 A 
ATOM      8  C   UNL A   1      35.125  21.861  24.784  1.00  0.00     0.055 A 
ATOM      9  C   UNL A   1      37.131  23.522  25.822  1.00  0.00     0.129 A 
ATOM     10  C   UNL A   1      36.364  21.336  25.157  1.00  0.00     0.033 A 
ATOM     11  Cl  UNL A   1      33.902  20.686  24.475  1.00  0.00    -0.083 Cl
ATOM     12  C   UNL A   1      37.371  22.174  25.634  1.00  0.00     0.019 A 
ATOM     13  O   UNL A   1      38.034  24.360  26.417  1.00  0.00    -0.475 OA
ATOM     14  C   UNL A   1      38.682  21.642  25.910  1.00  0.00     0.027 C 
ATOM     15  C   UNL A   1      39.210  23.773  27.074  1.00  0.00     0.316 C 
BRANCH   6  16
ATOM     16  S   UNL A   1      33.569  24.179  24.053  1.00  0.00    -0.124 SA
BRANCH  16  17
ATOM     17  C   UNL A   1      33.966  25.967  24.217  1.00  0.00     0.078 C 
BRANCH  17  18
ATOM     18  C   UNL A   1      33.122  26.873  25.139  1.00  0.00    -0.007 C 
ATOM     19  C   UNL A   1      32.082  27.763  24.462  1.00  0.00     0.008 C 
ATOM     20  C   UNL A   1      32.403  25.977  26.160  1.00  0.00     0.008 C 
ENDBRANCH  17  18
ENDBRANCH  16  17
ENDBRANCH   6  16
BRANCH  15  21
ATOM     21  C   UNL A   1      40.387  24.730  26.821  1.00  0.00     0.430 C 
ATOM     22  F   UNL A   1      41.056  24.397  25.691  1.00  0.00    -0.167 F 
ATOM     23  F   UNL A   1      39.975  26.011  26.655  1.00  0.00    -0.167 F 
ATOM     24  F   UNL A   1      41.279  24.722  27.837  1.00  0.00    -0.167 F 
ENDBRANCH  15  21
ENDBRANCH   3   5
ENDBRANCH   2   3
ENDBRANCH   1   2
BRANCH   1  25
ATOM     25  C   UNL A   1      43.860  21.271  25.227  1.00  0.00     0.275 C 
BRANCH  25  26
ATOM     26  O   UNL A   1      43.482  22.558  24.708  1.00  0.00    -0.458 OA
BRANCH  26  27
ATOM     27  C   UNL A   1      44.482  23.466  24.638  1.00  0.00     0.338 C 
ATOM     28  O   UNL A   1      45.429  23.465  23.870  1.00  0.00    -0.246 OA
BRANCH  27  29
ATOM     29  C   UNL A   1      44.187  24.584  25.542  1.00  0.00     0.060 A 
ATOM     30  C   UNL A   1      44.554  24.579  26.879  1.00  0.00     0.016 A 
ATOM     31  C   UNL A   1      43.696  25.748  24.967  1.00  0.00     0.016 A 
ATOM     32  C   UNL A   1      44.424  25.763  27.620  1.00  0.00     0.010 A 
ATOM     33  C   UNL A   1      43.754  26.958  25.648  1.00  0.00     0.010 A 
ATOM     34  C   UNL A   1      44.085  26.989  27.003  1.00  0.00    -0.014 A 
BRANCH  34  35
ATOM     35  C   UNL A   1      44.110  28.280  27.762  1.00  0.00     0.031 A 
ATOM     36  C   UNL A   1      45.357  29.135  27.863  1.00  0.00     0.074 A 
ATOM     37  C   UNL A   1      42.994  28.680  28.412  1.00  0.00     0.049 A 
ATOM     38  N   UNL A   1      45.498  30.322  28.402  1.00  0.00    -0.248 NA
ATOM     39  C   UNL A   1      46.618  28.580  27.343  1.00  0.00     0.031 C 
ATOM     40  C   UNL A   1      41.771  27.887  28.542  1.00  0.00     0.029 A 
ATOM     41  N   UNL A   1      42.692  29.853  29.063  1.00  0.00    -0.354 N 
ATOM     42  C   UNL A   1      46.849  30.638  28.296  1.00  0.00     0.074 A 
ATOM     43  C   UNL A   1      47.505  29.484  27.733  1.00  0.00     0.031 C 
ATOM     44  C   UNL A   1      40.822  28.628  29.128  1.00  0.00     0.029 A 
ATOM     45  C   UNL A   1      41.378  29.933  29.472  1.00  0.00     0.049 A 
ATOM     46  H   UNL A   1      43.351  30.568  29.221  1.00  0.00     0.167 HD
ATOM     47  C   UNL A   1      47.481  31.802  28.583  1.00  0.00     0.034 A 
ATOM     48  C   UNL A   1      40.683  30.946  30.033  1.00  0.00     0.034 A 
ATOM     49  C   UNL A   1      46.805  32.970  29.087  1.00  0.00     0.049 A 
ATOM     50  C   UNL A   1      41.379  32.264  30.263  1.00  0.00     0.074 A 
ATOM     51  C   UNL A   1      47.329  34.233  29.302  1.00  0.00     0.029 A 
ATOM     52  N   UNL A   1      45.467  33.027  29.445  1.00  0.00    -0.354 N 
ATOM     53  N   UNL A   1      42.622  32.595  30.002  1.00  0.00    -0.248 NA
ATOM     54  C   UNL A   1      40.581  33.351  30.846  1.00  0.00     0.031 C 
ATOM     55  C   UNL A   1      46.328  35.032  29.852  1.00  0.00     0.029 A 
ATOM     56  C   UNL A   1      45.156  34.296  29.909  1.00  0.00     0.049 A 
ATOM     57  H   UNL A   1      44.832  32.278  29.381  1.00  0.00     0.167 HD
ATOM     58  C   UNL A   1      42.751  33.928  30.382  1.00  0.00     0.074 A 
ATOM     59  C   UNL A   1      41.446  34.356  30.843  1.00  0.00     0.031 C 
ATOM     60  C   UNL A   1      43.853  34.720  30.366  1.00  0.00     0.034 A 
BRANCH  47  61
ATOM     61  C   UNL A   1      48.963  31.924  28.300  1.00  0.00     0.023 A 
ATOM     62  C   UNL A   1      49.414  32.578  27.138  1.00  0.00     0.031 A 
ATOM     63  C   UNL A   1      49.916  31.259  29.095  1.00  0.00     0.131 A 
ATOM     64  C   UNL A   1      50.770  32.519  26.784  1.00  0.00     0.055 A 
ATOM     65  C   UNL A   1      51.273  31.251  28.768  1.00  0.00     0.041 A 
ATOM     66  F   UNL A   1      49.543  30.607  30.208  1.00  0.00    -0.206 F 
ATOM     67  C   UNL A   1      51.703  31.869  27.598  1.00  0.00     0.022 A 
BRANCH  64  68
ATOM     68  S   UNL A   1      51.364  33.210  25.216  1.00  0.00     0.124 S 
ATOM     69  O   UNL A   1      52.635  33.810  25.615  1.00  0.00    -0.237 OA
ATOM     70  O   UNL A   1      51.474  32.016  24.381  1.00  0.00    -0.237 OA
ATOM     71  O   UNL A   1      50.324  34.157  24.831  1.00  0.00    -0.744 OA
ENDBRANCH  64  68
ENDBRANCH  47  61
BRANCH  48  72
ATOM     72  C   UNL A   1      39.225  30.764  30.307  1.00  0.00     0.023 A 
ATOM     73  C   UNL A   1      38.252  31.262  29.420  1.00  0.00     0.031 A 
ATOM     74  C   UNL A   1      38.785  30.204  31.519  1.00  0.00     0.131 A 
ATOM     75  C   UNL A   1      36.901  31.262  29.795  1.00  0.00     0.055 A 
ATOM     76  C   UNL A   1      37.431  30.132  31.852  1.00  0.00     0.041 A 
ATOM     77  F   UNL A   1      39.673  29.732  32.408  1.00  0.00    -0.206 F 
ATOM     78  C   UNL A   1      36.482  30.682  30.996  1.00  0.00     0.022 A 
BRANCH  75  79
ATOM     79  S   UNL A   1      35.665  32.158  28.813  1.00  0.00     0.124 S 
ATOM     80  O   UNL A   1      34.979  31.070  28.123  1.00  0.00    -0.237 OA
ATOM     81  O   UNL A   1      34.894  32.834  29.853  1.00  0.00    -0.237 OA
ATOM     82  O   UNL A   1      36.468  33.036  27.968  1.00  0.00    -0.744 OA
ENDBRANCH  75  79
ENDBRANCH  48  72
BRANCH  60  83
ATOM     83  C   UNL A   1      43.735  36.137  30.878  1.00  0.00     0.023 A 
ATOM     84  C   UNL A   1      43.629  37.211  29.974  1.00  0.00     0.031 A 
ATOM     85  C   UNL A   1      43.881  36.431  32.245  1.00  0.00     0.131 A 
ATOM     86  C   UNL A   1      43.712  38.528  30.444  1.00  0.00     0.055 A 
ATOM     87  C   UNL A   1      43.907  37.745  32.714  1.00  0.00     0.041 A 
ATOM     88  F   UNL A   1      44.004  35.443  33.146  1.00  0.00    -0.206 F 
ATOM     89  C   UNL A   1      43.838  38.800  31.810  1.00  0.00     0.022 A 
BRANCH  86  90
ATOM     90  S   UNL A   1      43.761  39.931  29.295  1.00  0.00     0.124 S 
ATOM     91  O   UNL A   1      43.977  39.263  28.014  1.00  0.00    -0.237 OA
ATOM     92  O   UNL A   1      42.438  40.523  29.475  1.00  0.00    -0.237 OA
ATOM     93  O   UNL A   1      44.879  40.739  29.772  1.00  0.00    -0.744 OA
ENDBRANCH  86  90
ENDBRANCH  60  83
ENDBRANCH  34  35
ENDBRANCH  27  29
ENDBRANCH  26  27
ENDBRANCH  25  26
ENDBRANCH   1  25
TORSDOF 18
ENDMDL
