MODEL 1
REMARK VINA RESULT:     -11.1      0.000      0.000
REMARK SMILES O=C(Cc1cccn(C(F)F)c1=O)OCCOC(=O)c1ccc(-c2c3nc(c(-c4cc(S(=O)(=O)[O-])ccc4F)c4ccc([nH]4)c(-c4cc(S(=O)(=O)[O-])ccc4F)c4nc(c(-c5cc(S(=O)(=O)[O-])ccc5F)c5ccc2[nH]5)C=C4)C=C3)cc1
REMARK SMILES IDX 16 1 15 2 14 3 2 4 1 5 3 6 4 7 5 8 12 9 6 10 8 11 13 12 7 13
REMARK SMILES IDX 9 14 10 15 11 16 17 17 18 18 19 19 20 20 21 21 82 22 22 23
REMARK SMILES IDX 81 24 23 25 24 26 25 27 75 28 26 29 80 30 74 31 76 32 27 33
REMARK SMILES IDX 79 34 73 35 72 36 28 38 60 39 40 40 59 41 41 42 44 43 58 44
REMARK SMILES IDX 77 45 42 46 43 47 57 49 78 50 45 51 29 52 30 53 38 54 31 55
REMARK SMILES IDX 37 56 39 57 36 58 32 59 33 60 34 61 35 62 61 63 62 64 70 65
REMARK SMILES IDX 63 66 69 67 71 68 68 69 64 70 65 71 66 72 67 73 46 74 47 75
REMARK SMILES IDX 55 76 48 77 54 78 56 79 53 80 49 81 50 82 51 83 52 84
REMARK H PARENT 76 37 44 48
REMARK Flexibility Score: inf
ROOT
ATOM      1  C   UNL A   1      37.382  20.481  24.985  1.00  0.00     0.275 C 
ENDROOT
BRANCH   1   2
ATOM      2  C   UNL A   1      35.881  20.762  24.882  1.00  0.00     0.274 C 
BRANCH   2   3
ATOM      3  O   UNL A   1      35.279  20.994  26.170  1.00  0.00    -0.462 OA
BRANCH   3   4
ATOM      4  C   UNL A   1      34.011  21.469  26.305  1.00  0.00     0.310 C 
ATOM      5  O   UNL A   1      33.102  20.985  25.639  1.00  0.00    -0.252 OA
BRANCH   4   6
ATOM      6  C   UNL A   1      33.811  22.664  27.221  1.00  0.00     0.164 C 
BRANCH   6   7
ATOM      7  C   UNL A   1      33.510  23.931  26.484  1.00  0.00     0.029 A 
ATOM      8  C   UNL A   1      34.372  24.512  25.630  1.00  0.00     0.011 A 
ATOM      9  C   UNL A   1      32.120  24.482  26.600  1.00  0.00     0.258 A 
ATOM     10  C   UNL A   1      34.014  25.690  24.889  1.00  0.00     0.019 A 
ATOM     11  N   UNL A   1      31.837  25.577  25.802  1.00  0.00    -0.258 N 
ATOM     12  O   UNL A   1      31.298  23.938  27.331  1.00  0.00    -0.269 OA
ATOM     13  C   UNL A   1      32.775  26.179  24.986  1.00  0.00     0.095 A 
BRANCH  11  14
ATOM     14  C   UNL A   1      30.502  26.119  25.871  1.00  0.00     0.451 C 
ATOM     15  F   UNL A   1      30.538  27.293  26.558  1.00  0.00    -0.185 F 
ATOM     16  F   UNL A   1      30.069  26.432  24.619  1.00  0.00    -0.185 F 
ENDBRANCH  11  14
ENDBRANCH   6   7
ENDBRANCH   4   6
ENDBRANCH   3   4
ENDBRANCH   2   3
ENDBRANCH   1   2
BRANCH   1  17
ATOM     17  O   UNL A   1      38.082  21.641  25.463  1.00  0.00    -0.458 OA
BRANCH  17  18
ATOM     18  C   UNL A   1      39.237  21.392  26.135  1.00  0.00     0.338 C 
ATOM     19  O   UNL A   1      39.841  20.331  26.155  1.00  0.00    -0.246 OA
BRANCH  18  20
ATOM     20  C   UNL A   1      39.775  22.663  26.683  1.00  0.00     0.060 A 
ATOM     21  C   UNL A   1      40.775  22.686  27.661  1.00  0.00     0.016 A 
ATOM     22  C   UNL A   1      39.213  23.866  26.234  1.00  0.00     0.016 A 
ATOM     23  C   UNL A   1      41.218  23.909  28.174  1.00  0.00     0.010 A 
ATOM     24  C   UNL A   1      39.664  25.088  26.743  1.00  0.00     0.010 A 
ATOM     25  C   UNL A   1      40.678  25.122  27.709  1.00  0.00    -0.014 A 
BRANCH  25  26
ATOM     26  C   UNL A   1      41.307  26.409  28.104  1.00  0.00     0.031 A 
ATOM     27  C   UNL A   1      42.729  26.747  27.769  1.00  0.00     0.074 A 
ATOM     28  C   UNL A   1      40.556  27.290  28.795  1.00  0.00     0.049 A 
ATOM     29  N   UNL A   1      43.351  27.889  27.919  1.00  0.00    -0.248 NA
ATOM     30  C   UNL A   1      43.562  25.678  27.200  1.00  0.00     0.031 C 
ATOM     31  C   UNL A   1      39.178  27.046  29.225  1.00  0.00     0.029 A 
ATOM     32  N   UNL A   1      40.830  28.556  29.247  1.00  0.00    -0.354 N 
ATOM     33  C   UNL A   1      44.643  27.690  27.449  1.00  0.00     0.074 A 
ATOM     34  C   UNL A   1      44.727  26.299  27.048  1.00  0.00     0.031 C 
ATOM     35  C   UNL A   1      38.716  28.140  29.848  1.00  0.00     0.029 A 
ATOM     36  C   UNL A   1      39.767  29.154  29.884  1.00  0.00     0.049 A 
ATOM     37  H   UNL A   1      41.704  28.995  29.126  1.00  0.00     0.167 HD
ATOM     38  C   UNL A   1      45.651  28.590  27.349  1.00  0.00     0.034 A 
ATOM     39  C   UNL A   1      39.639  30.385  30.420  1.00  0.00     0.034 A 
ATOM     40  C   UNL A   1      45.553  29.968  27.770  1.00  0.00     0.049 A 
ATOM     41  C   UNL A   1      40.780  31.361  30.303  1.00  0.00     0.074 A 
ATOM     42  C   UNL A   1      46.499  30.971  27.631  1.00  0.00     0.029 A 
ATOM     43  N   UNL A   1      44.468  30.539  28.421  1.00  0.00    -0.354 N 
ATOM     44  N   UNL A   1      41.943  31.204  29.715  1.00  0.00    -0.248 NA
ATOM     45  C   UNL A   1      40.588  32.690  30.901  1.00  0.00     0.031 C 
ATOM     46  C   UNL A   1      46.021  32.120  28.262  1.00  0.00     0.029 A 
ATOM     47  C   UNL A   1      44.740  31.865  28.723  1.00  0.00     0.049 A 
ATOM     48  H   UNL A   1      43.630  30.071  28.637  1.00  0.00     0.167 HD
ATOM     49  C   UNL A   1      42.603  32.424  29.838  1.00  0.00     0.074 A 
ATOM     50  C   UNL A   1      41.703  33.314  30.541  1.00  0.00     0.031 C 
ATOM     51  C   UNL A   1      43.841  32.768  29.404  1.00  0.00     0.034 A 
BRANCH  38  52
ATOM     52  C   UNL A   1      46.959  28.160  26.729  1.00  0.00     0.023 A 
ATOM     53  C   UNL A   1      47.127  28.199  25.331  1.00  0.00     0.031 A 
ATOM     54  C   UNL A   1      47.953  27.533  27.501  1.00  0.00     0.131 A 
ATOM     55  C   UNL A   1      48.239  27.579  24.746  1.00  0.00     0.055 A 
ATOM     56  C   UNL A   1      49.079  26.952  26.915  1.00  0.00     0.041 A 
ATOM     57  F   UNL A   1      47.834  27.459  28.837  1.00  0.00    -0.206 F 
ATOM     58  C   UNL A   1      49.217  26.959  25.530  1.00  0.00     0.022 A 
BRANCH  55  59
ATOM     59  S   UNL A   1      48.417  27.474  22.942  1.00  0.00     0.124 S 
ATOM     60  O   UNL A   1      49.727  28.087  22.735  1.00  0.00    -0.237 OA
ATOM     61  O   UNL A   1      48.359  26.033  22.713  1.00  0.00    -0.237 OA
ATOM     62  O   UNL A   1      47.286  28.241  22.433  1.00  0.00    -0.744 OA
ENDBRANCH  55  59
ENDBRANCH  38  52
BRANCH  39  63
ATOM     63  C   UNL A   1      38.332  30.776  31.022  1.00  0.00     0.023 A 
ATOM     64  C   UNL A   1      37.338  31.408  30.254  1.00  0.00     0.031 A 
ATOM     65  C   UNL A   1      38.108  30.624  32.400  1.00  0.00     0.131 A 
ATOM     66  C   UNL A   1      36.196  31.921  30.883  1.00  0.00     0.055 A 
ATOM     67  C   UNL A   1      36.936  31.073  33.011  1.00  0.00     0.041 A 
ATOM     68  F   UNL A   1      39.036  30.044  33.177  1.00  0.00    -0.206 F 
ATOM     69  C   UNL A   1      35.981  31.742  32.252  1.00  0.00     0.022 A 
BRANCH  66  70
ATOM     70  S   UNL A   1      35.021  32.958  29.970  1.00  0.00     0.124 S 
ATOM     71  O   UNL A   1      35.893  33.982  29.404  1.00  0.00    -0.237 OA
ATOM     72  O   UNL A   1      34.462  32.005  29.013  1.00  0.00    -0.237 OA
ATOM     73  O   UNL A   1      34.094  33.417  30.999  1.00  0.00    -0.744 OA
ENDBRANCH  66  70
ENDBRANCH  39  63
BRANCH  51  74
ATOM     74  C   UNL A   1      44.331  34.179  29.643  1.00  0.00     0.023 A 
ATOM     75  C   UNL A   1      44.110  35.174  28.670  1.00  0.00     0.031 A 
ATOM     76  C   UNL A   1      45.134  34.504  30.749  1.00  0.00     0.131 A 
ATOM     77  C   UNL A   1      44.713  36.432  28.803  1.00  0.00     0.055 A 
ATOM     78  C   UNL A   1      45.693  35.775  30.903  1.00  0.00     0.041 A 
ATOM     79  F   UNL A   1      45.387  33.591  31.700  1.00  0.00    -0.206 F 
ATOM     80  C   UNL A   1      45.496  36.740  29.920  1.00  0.00     0.022 A 
BRANCH  77  81
ATOM     81  S   UNL A   1      44.579  37.682  27.494  1.00  0.00     0.124 S 
ATOM     82  O   UNL A   1      45.795  37.439  26.720  1.00  0.00    -0.237 OA
ATOM     83  O   UNL A   1      43.334  37.303  26.831  1.00  0.00    -0.237 OA
ATOM     84  O   UNL A   1      44.545  38.948  28.218  1.00  0.00    -0.744 OA
ENDBRANCH  77  81
ENDBRANCH  51  74
ENDBRANCH  25  26
ENDBRANCH  18  20
ENDBRANCH  17  18
ENDBRANCH   1  17
TORSDOF 16
ENDMDL
MODEL 2
REMARK VINA RESULT:     -11.1      3.355      5.434
REMARK SMILES O=C(Cc1cccn(C(F)F)c1=O)OCCOC(=O)c1ccc(-c2c3nc(c(-c4cc(S(=O)(=O)[O-])ccc4F)c4ccc([nH]4)c(-c4cc(S(=O)(=O)[O-])ccc4F)c4nc(c(-c5cc(S(=O)(=O)[O-])ccc5F)c5ccc2[nH]5)C=C4)C=C3)cc1
REMARK SMILES IDX 16 1 15 2 14 3 2 4 1 5 3 6 4 7 5 8 12 9 6 10 8 11 13 12 7 13
REMARK SMILES IDX 9 14 10 15 11 16 17 17 18 18 19 19 20 20 21 21 82 22 22 23
REMARK SMILES IDX 81 24 23 25 24 26 25 27 75 28 26 29 80 30 74 31 76 32 27 33
REMARK SMILES IDX 79 34 73 35 72 36 28 38 60 39 40 40 59 41 41 42 44 43 58 44
REMARK SMILES IDX 77 45 42 46 43 47 57 49 78 50 45 51 29 52 30 53 38 54 31 55
REMARK SMILES IDX 37 56 39 57 36 58 32 59 33 60 34 61 35 62 61 63 62 64 70 65
REMARK SMILES IDX 63 66 69 67 71 68 68 69 64 70 65 71 66 72 67 73 46 74 47 75
REMARK SMILES IDX 55 76 48 77 54 78 56 79 53 80 49 81 50 82 51 83 52 84
REMARK H PARENT 76 37 44 48
REMARK Flexibility Score: inf
ROOT
ATOM      1  C   UNL A   1      40.484  19.579  26.095  1.00  0.00     0.275 C 
ENDROOT
BRANCH   1   2
ATOM      2  C   UNL A   1      41.885  18.963  26.144  1.00  0.00     0.274 C 
BRANCH   2   3
ATOM      3  O   UNL A   1      42.603  19.142  24.908  1.00  0.00    -0.462 OA
BRANCH   3   4
ATOM      4  C   UNL A   1      43.922  19.475  24.875  1.00  0.00     0.310 C 
ATOM      5  O   UNL A   1      44.674  18.917  24.082  1.00  0.00    -0.252 OA
BRANCH   4   6
ATOM      6  C   UNL A   1      44.414  20.468  25.914  1.00  0.00     0.164 C 
BRANCH   6   7
ATOM      7  C   UNL A   1      44.228  21.894  25.504  1.00  0.00     0.029 A 
ATOM      8  C   UNL A   1      43.022  22.463  25.334  1.00  0.00     0.011 A 
ATOM      9  C   UNL A   1      45.455  22.755  25.429  1.00  0.00     0.258 A 
ATOM     10  C   UNL A   1      42.889  23.857  25.009  1.00  0.00     0.019 A 
ATOM     11  N   UNL A   1      45.235  24.098  25.178  1.00  0.00    -0.258 N 
ATOM     12  O   UNL A   1      46.563  22.270  25.634  1.00  0.00    -0.269 OA
ATOM     13  C   UNL A   1      43.979  24.626  24.948  1.00  0.00     0.095 A 
BRANCH  11  14
ATOM     14  C   UNL A   1      46.390  24.959  25.124  1.00  0.00     0.451 C 
ATOM     15  F   UNL A   1      45.983  26.225  24.836  1.00  0.00    -0.185 F 
ATOM     16  F   UNL A   1      46.972  25.024  26.352  1.00  0.00    -0.185 F 
ENDBRANCH  11  14
ENDBRANCH   6   7
ENDBRANCH   4   6
ENDBRANCH   3   4
ENDBRANCH   2   3
ENDBRANCH   1   2
BRANCH   1  17
ATOM     17  O   UNL A   1      40.424  20.765  26.903  1.00  0.00    -0.458 OA
BRANCH  17  18
ATOM     18  C   UNL A   1      39.610  21.749  26.438  1.00  0.00     0.338 C 
ATOM     19  O   UNL A   1      38.592  21.589  25.784  1.00  0.00    -0.246 OA
BRANCH  18  20
ATOM     20  C   UNL A   1      40.028  23.052  27.015  1.00  0.00     0.060 A 
ATOM     21  C   UNL A   1      40.934  23.137  28.078  1.00  0.00     0.016 A 
ATOM     22  C   UNL A   1      39.447  24.219  26.501  1.00  0.00     0.016 A 
ATOM     23  C   UNL A   1      41.264  24.387  28.612  1.00  0.00     0.010 A 
ATOM     24  C   UNL A   1      39.784  25.469  27.031  1.00  0.00     0.010 A 
ATOM     25  C   UNL A   1      40.705  25.565  28.083  1.00  0.00    -0.014 A 
BRANCH  25  26
ATOM     26  C   UNL A   1      41.227  26.888  28.516  1.00  0.00     0.031 A 
ATOM     27  C   UNL A   1      42.685  27.236  28.459  1.00  0.00     0.074 A 
ATOM     28  C   UNL A   1      40.342  27.792  28.980  1.00  0.00     0.049 A 
ATOM     29  N   UNL A   1      43.252  28.398  28.660  1.00  0.00    -0.248 NA
ATOM     30  C   UNL A   1      43.627  26.152  28.143  1.00  0.00     0.031 C 
ATOM     31  C   UNL A   1      38.907  27.545  29.133  1.00  0.00     0.029 A 
ATOM     32  N   UNL A   1      40.506  29.089  29.396  1.00  0.00    -0.354 N 
ATOM     33  C   UNL A   1      44.614  28.199  28.478  1.00  0.00     0.074 A 
ATOM     34  C   UNL A   1      44.793  26.789  28.193  1.00  0.00     0.031 C 
ATOM     35  C   UNL A   1      38.317  28.663  29.576  1.00  0.00     0.029 A 
ATOM     36  C   UNL A   1      39.329  29.701  29.762  1.00  0.00     0.049 A 
ATOM     37  H   UNL A   1      41.381  29.539  29.429  1.00  0.00     0.167 HD
ATOM     38  C   UNL A   1      45.613  29.114  28.530  1.00  0.00     0.034 A 
ATOM     39  C   UNL A   1      39.082  30.959  30.180  1.00  0.00     0.034 A 
ATOM     40  C   UNL A   1      45.418  30.513  28.832  1.00  0.00     0.049 A 
ATOM     41  C   UNL A   1      40.214  31.952  30.238  1.00  0.00     0.074 A 
ATOM     42  C   UNL A   1      46.364  31.525  28.826  1.00  0.00     0.029 A 
ATOM     43  N   UNL A   1      44.218  31.098  29.209  1.00  0.00    -0.354 N 
ATOM     44  N   UNL A   1      41.473  31.785  29.912  1.00  0.00    -0.248 NA
ATOM     45  C   UNL A   1      39.890  33.310  30.697  1.00  0.00     0.031 C 
ATOM     46  C   UNL A   1      45.755  32.700  29.270  1.00  0.00     0.029 A 
ATOM     47  C   UNL A   1      44.409  32.445  29.474  1.00  0.00     0.049 A 
ATOM     48  H   UNL A   1      43.357  30.625  29.277  1.00  0.00     0.167 HD
ATOM     49  C   UNL A   1      42.083  33.024  30.089  1.00  0.00     0.074 A 
ATOM     50  C   UNL A   1      41.049  33.935  30.533  1.00  0.00     0.031 C 
ATOM     51  C   UNL A   1      43.381  33.368  29.897  1.00  0.00     0.034 A 
BRANCH  38  52
ATOM     52  C   UNL A   1      47.025  28.675  28.219  1.00  0.00     0.023 A 
ATOM     53  C   UNL A   1      47.467  28.602  26.884  1.00  0.00     0.031 A 
ATOM     54  C   UNL A   1      47.855  28.149  29.225  1.00  0.00     0.131 A 
ATOM     55  C   UNL A   1      48.683  27.972  26.587  1.00  0.00     0.055 A 
ATOM     56  C   UNL A   1      49.084  27.558  28.926  1.00  0.00     0.041 A 
ATOM     57  F   UNL A   1      47.474  28.184  30.513  1.00  0.00    -0.206 F 
ATOM     58  C   UNL A   1      49.494  27.452  27.601  1.00  0.00     0.022 A 
BRANCH  55  59
ATOM     59  S   UNL A   1      49.217  27.721  24.870  1.00  0.00     0.124 S 
ATOM     60  O   UNL A   1      50.395  28.582  24.795  1.00  0.00    -0.237 OA
ATOM     61  O   UNL A   1      49.490  26.287  24.843  1.00  0.00    -0.237 OA
ATOM     62  O   UNL A   1      48.074  28.161  24.079  1.00  0.00    -0.744 OA
ENDBRANCH  55  59
ENDBRANCH  38  52
BRANCH  39  63
ATOM     63  C   UNL A   1      37.675  31.358  30.475  1.00  0.00     0.023 A 
ATOM     64  C   UNL A   1      36.818  31.805  29.454  1.00  0.00     0.031 A 
ATOM     65  C   UNL A   1      37.209  31.402  31.800  1.00  0.00     0.131 A 
ATOM     66  C   UNL A   1      35.564  32.337  29.785  1.00  0.00     0.055 A 
ATOM     67  C   UNL A   1      35.932  31.867  32.116  1.00  0.00     0.041 A 
ATOM     68  F   UNL A   1      38.000  31.003  32.809  1.00  0.00    -0.206 F 
ATOM     69  C   UNL A   1      35.110  32.354  31.106  1.00  0.00     0.022 A 
BRANCH  66  70
ATOM     70  S   UNL A   1      34.541  33.152  28.527  1.00  0.00     0.124 S 
ATOM     71  O   UNL A   1      33.910  34.221  29.294  1.00  0.00    -0.237 OA
ATOM     72  O   UNL A   1      35.546  33.579  27.556  1.00  0.00    -0.237 OA
ATOM     73  O   UNL A   1      33.649  32.092  28.069  1.00  0.00    -0.744 OA
ENDBRANCH  66  70
ENDBRANCH  39  63
BRANCH  51  74
ATOM     74  C   UNL A   1      43.799  34.801  30.140  1.00  0.00     0.023 A 
ATOM     75  C   UNL A   1      43.728  35.741  29.092  1.00  0.00     0.031 A 
ATOM     76  C   UNL A   1      44.395  35.202  31.348  1.00  0.00     0.131 A 
ATOM     77  C   UNL A   1      44.278  37.019  29.259  1.00  0.00     0.055 A 
ATOM     78  C   UNL A   1      44.898  36.493  31.526  1.00  0.00     0.041 A 
ATOM     79  F   UNL A   1      44.499  34.344  32.375  1.00  0.00    -0.206 F 
ATOM     80  C   UNL A   1      44.854  37.403  30.474  1.00  0.00     0.022 A 
BRANCH  77  81
ATOM     81  S   UNL A   1      44.348  38.200  27.881  1.00  0.00     0.124 S 
ATOM     82  O   UNL A   1      43.761  39.397  28.480  1.00  0.00    -0.237 OA
ATOM     83  O   UNL A   1      45.781  38.276  27.613  1.00  0.00    -0.237 OA
ATOM     84  O   UNL A   1      43.546  37.570  26.837  1.00  0.00    -0.744 OA
ENDBRANCH  77  81
ENDBRANCH  51  74
ENDBRANCH  25  26
ENDBRANCH  18  20
ENDBRANCH  17  18
ENDBRANCH   1  17
TORSDOF 16
ENDMDL
MODEL 3
REMARK VINA RESULT:     -11.0      5.749     11.742
REMARK SMILES O=C(Cc1cccn(C(F)F)c1=O)OCCOC(=O)c1ccc(-c2c3nc(c(-c4cc(S(=O)(=O)[O-])ccc4F)c4ccc([nH]4)c(-c4cc(S(=O)(=O)[O-])ccc4F)c4nc(c(-c5cc(S(=O)(=O)[O-])ccc5F)c5ccc2[nH]5)C=C4)C=C3)cc1
REMARK SMILES IDX 16 1 15 2 14 3 2 4 1 5 3 6 4 7 5 8 12 9 6 10 8 11 13 12 7 13
REMARK SMILES IDX 9 14 10 15 11 16 17 17 18 18 19 19 20 20 21 21 82 22 22 23
REMARK SMILES IDX 81 24 23 25 24 26 25 27 75 28 26 29 80 30 74 31 76 32 27 33
REMARK SMILES IDX 79 34 73 35 72 36 28 38 60 39 40 40 59 41 41 42 44 43 58 44
REMARK SMILES IDX 77 45 42 46 43 47 57 49 78 50 45 51 29 52 30 53 38 54 31 55
REMARK SMILES IDX 37 56 39 57 36 58 32 59 33 60 34 61 35 62 61 63 62 64 70 65
REMARK SMILES IDX 63 66 69 67 71 68 68 69 64 70 65 71 66 72 67 73 46 74 47 75
REMARK SMILES IDX 55 76 48 77 54 78 56 79 53 80 49 81 50 82 51 83 52 84
REMARK H PARENT 76 37 44 48
REMARK Flexibility Score: inf
ROOT
ATOM      1  C   UNL A   1      33.423  33.814  28.273  1.00  0.00     0.275 C 
ENDROOT
BRANCH   1   2
ATOM      2  C   UNL A   1      33.987  34.394  29.572  1.00  0.00     0.274 C 
BRANCH   2   3
ATOM      3  O   UNL A   1      34.028  33.420  30.632  1.00  0.00    -0.462 OA
BRANCH   3   4
ATOM      4  C   UNL A   1      35.153  33.186  31.361  1.00  0.00     0.310 C 
ATOM      5  O   UNL A   1      35.465  32.035  31.653  1.00  0.00    -0.252 OA
BRANCH   4   6
ATOM      6  C   UNL A   1      35.919  34.397  31.864  1.00  0.00     0.164 C 
BRANCH   6   7
ATOM      7  C   UNL A   1      37.391  34.313  31.613  1.00  0.00     0.029 A 
ATOM      8  C   UNL A   1      37.931  34.301  30.382  1.00  0.00     0.011 A 
ATOM      9  C   UNL A   1      38.299  34.398  32.805  1.00  0.00     0.258 A 
ATOM     10  C   UNL A   1      39.356  34.292  30.187  1.00  0.00     0.019 A 
ATOM     11  N   UNL A   1      39.654  34.452  32.527  1.00  0.00    -0.258 N 
ATOM     12  O   UNL A   1      37.830  34.465  33.936  1.00  0.00    -0.269 OA
ATOM     13  C   UNL A   1      40.166  34.374  31.246  1.00  0.00     0.095 A 
BRANCH  11  14
ATOM     14  C   UNL A   1      40.555  34.559  33.648  1.00  0.00     0.451 C 
ATOM     15  F   UNL A   1      41.485  33.569  33.561  1.00  0.00    -0.185 F 
ATOM     16  F   UNL A   1      41.247  35.729  33.571  1.00  0.00    -0.185 F 
ENDBRANCH  11  14
ENDBRANCH   6   7
ENDBRANCH   4   6
ENDBRANCH   3   4
ENDBRANCH   2   3
ENDBRANCH   1   2
BRANCH   1  17
ATOM     17  O   UNL A   1      34.419  33.030  27.595  1.00  0.00    -0.458 OA
BRANCH  17  18
ATOM     18  C   UNL A   1      34.285  31.683  27.717  1.00  0.00     0.338 C 
ATOM     19  O   UNL A   1      33.337  31.018  27.333  1.00  0.00    -0.246 OA
BRANCH  18  20
ATOM     20  C   UNL A   1      35.561  31.102  28.209  1.00  0.00     0.060 A 
ATOM     21  C   UNL A   1      36.780  31.778  28.091  1.00  0.00     0.016 A 
ATOM     22  C   UNL A   1      35.531  29.812  28.756  1.00  0.00     0.016 A 
ATOM     23  C   UNL A   1      37.959  31.169  28.533  1.00  0.00     0.010 A 
ATOM     24  C   UNL A   1      36.710  29.208  29.205  1.00  0.00     0.010 A 
ATOM     25  C   UNL A   1      37.933  29.886  29.109  1.00  0.00    -0.014 A 
BRANCH  25  26
ATOM     26  C   UNL A   1      39.153  29.347  29.765  1.00  0.00     0.031 A 
ATOM     27  C   UNL A   1      39.585  29.775  31.136  1.00  0.00     0.074 A 
ATOM     28  C   UNL A   1      39.888  28.447  29.083  1.00  0.00     0.049 A 
ATOM     29  N   UNL A   1      40.537  29.274  31.882  1.00  0.00    -0.248 NA
ATOM     30  C   UNL A   1      38.871  30.904  31.749  1.00  0.00     0.031 C 
ATOM     31  C   UNL A   1      39.595  27.998  27.721  1.00  0.00     0.029 A 
ATOM     32  N   UNL A   1      41.013  27.744  29.433  1.00  0.00    -0.354 N 
ATOM     33  C   UNL A   1      40.530  30.008  33.061  1.00  0.00     0.074 A 
ATOM     34  C   UNL A   1      39.505  31.022  32.911  1.00  0.00     0.031 C 
ATOM     35  C   UNL A   1      40.495  27.071  27.364  1.00  0.00     0.029 A 
ATOM     36  C   UNL A   1      41.444  26.874  28.458  1.00  0.00     0.049 A 
ATOM     37  H   UNL A   1      41.468  27.851  30.300  1.00  0.00     0.167 HD
ATOM     38  C   UNL A   1      41.299  29.837  34.164  1.00  0.00     0.034 A 
ATOM     39  C   UNL A   1      42.471  26.001  28.445  1.00  0.00     0.034 A 
ATOM     40  C   UNL A   1      42.328  28.831  34.288  1.00  0.00     0.049 A 
ATOM     41  C   UNL A   1      43.315  25.839  29.683  1.00  0.00     0.074 A 
ATOM     42  C   UNL A   1      43.099  28.535  35.400  1.00  0.00     0.029 A 
ATOM     43  N   UNL A   1      42.747  27.975  33.279  1.00  0.00    -0.354 N 
ATOM     44  N   UNL A   1      43.195  26.434  30.846  1.00  0.00    -0.248 NA
ATOM     45  C   UNL A   1      44.419  24.871  29.618  1.00  0.00     0.031 C 
ATOM     46  C   UNL A   1      44.030  27.558  35.044  1.00  0.00     0.029 A 
ATOM     47  C   UNL A   1      43.789  27.181  33.733  1.00  0.00     0.049 A 
ATOM     48  H   UNL A   1      42.360  27.938  32.375  1.00  0.00     0.167 HD
ATOM     49  C   UNL A   1      44.182  25.886  31.661  1.00  0.00     0.074 A 
ATOM     50  C   UNL A   1      44.877  24.898  30.863  1.00  0.00     0.031 C 
ATOM     51  C   UNL A   1      44.476  26.178  32.953  1.00  0.00     0.034 A 
BRANCH  38  52
ATOM     52  C   UNL A   1      41.058  30.716  35.368  1.00  0.00     0.023 A 
ATOM     53  C   UNL A   1      39.798  30.727  35.998  1.00  0.00     0.031 A 
ATOM     54  C   UNL A   1      42.007  31.676  35.762  1.00  0.00     0.131 A 
ATOM     55  C   UNL A   1      39.506  31.710  36.952  1.00  0.00     0.055 A 
ATOM     56  C   UNL A   1      41.723  32.628  36.743  1.00  0.00     0.041 A 
ATOM     57  F   UNL A   1      43.219  31.715  35.184  1.00  0.00    -0.206 F 
ATOM     58  C   UNL A   1      40.462  32.658  37.331  1.00  0.00     0.022 A 
BRANCH  55  59
ATOM     59  S   UNL A   1      37.847  31.854  37.676  1.00  0.00     0.124 S 
ATOM     60  O   UNL A   1      37.170  32.708  36.704  1.00  0.00    -0.237 OA
ATOM     61  O   UNL A   1      37.403  30.463  37.701  1.00  0.00    -0.237 OA
ATOM     62  O   UNL A   1      38.084  32.465  38.979  1.00  0.00    -0.744 OA
ENDBRANCH  55  59
ENDBRANCH  38  52
BRANCH  39  63
ATOM     63  C   UNL A   1      42.677  25.147  27.240  1.00  0.00     0.023 A 
ATOM     64  C   UNL A   1      42.157  23.842  27.177  1.00  0.00     0.031 A 
ATOM     65  C   UNL A   1      43.492  25.588  26.185  1.00  0.00     0.131 A 
ATOM     66  C   UNL A   1      42.513  23.004  26.113  1.00  0.00     0.055 A 
ATOM     67  C   UNL A   1      43.787  24.772  25.091  1.00  0.00     0.041 A 
ATOM     68  F   UNL A   1      44.027  26.818  26.211  1.00  0.00    -0.206 F 
ATOM     69  C   UNL A   1      43.309  23.466  25.061  1.00  0.00     0.022 A 
BRANCH  66  70
ATOM     70  S   UNL A   1      42.069  21.245  26.127  1.00  0.00     0.124 S 
ATOM     71  O   UNL A   1      43.028  20.681  25.183  1.00  0.00    -0.237 OA
ATOM     72  O   UNL A   1      42.283  20.895  27.530  1.00  0.00    -0.237 OA
ATOM     73  O   UNL A   1      40.676  21.236  25.693  1.00  0.00    -0.744 OA
ENDBRANCH  66  70
ENDBRANCH  39  63
BRANCH  51  74
ATOM     74  C   UNL A   1      45.594  25.420  33.635  1.00  0.00     0.023 A 
ATOM     75  C   UNL A   1      45.333  24.172  34.234  1.00  0.00     0.031 A 
ATOM     76  C   UNL A   1      46.866  25.987  33.817  1.00  0.00     0.131 A 
ATOM     77  C   UNL A   1      46.315  23.551  35.017  1.00  0.00     0.055 A 
ATOM     78  C   UNL A   1      47.859  25.342  34.559  1.00  0.00     0.041 A 
ATOM     79  F   UNL A   1      47.165  27.180  33.279  1.00  0.00    -0.206 F 
ATOM     80  C   UNL A   1      47.580  24.125  35.174  1.00  0.00     0.022 A 
BRANCH  77  81
ATOM     81  S   UNL A   1      45.961  22.024  35.932  1.00  0.00     0.124 S 
ATOM     82  O   UNL A   1      44.895  21.430  35.128  1.00  0.00    -0.237 OA
ATOM     83  O   UNL A   1      47.244  21.327  35.878  1.00  0.00    -0.237 OA
ATOM     84  O   UNL A   1      45.556  22.491  37.254  1.00  0.00    -0.744 OA
ENDBRANCH  77  81
ENDBRANCH  51  74
ENDBRANCH  25  26
ENDBRANCH  18  20
ENDBRANCH  17  18
ENDBRANCH   1  17
TORSDOF 16
ENDMDL
