MODEL 1
REMARK VINA RESULT:     -10.8      0.000      0.000
REMARK SMILES COc1cc([N+](=O)[O-])cc2c1=N[C@H](C(=O)OCCOC(=O)c1ccc(-c3c4nc(c(-c5cc(S(=O)(=O)[O-])ccc5F)c5ccc([nH]5)c(-c5cc(S(=O)(=O)[O-])ccc5F)c5nc(c(-c6cc(S(=O)(=O)[O-])ccc6F)c6ccc3[nH]6)C=C5)C=C4)cc1)C=2CC[NH3+]
REMARK SMILES IDX 17 1 16 2 14 3 15 4 13 5 3 6 4 7 11 8 5 9 10 10 12 11 9 12
REMARK SMILES IDX 85 13 2 14 1 15 6 16 7 17 8 18 86 19 87 20 88 21 18 25 19 26
REMARK SMILES IDX 20 27 21 28 22 29 23 30 84 31 24 32 83 33 25 34 26 35 27 36
REMARK SMILES IDX 77 37 28 38 82 39 76 40 78 41 29 42 81 43 75 44 74 45 30 47
REMARK SMILES IDX 62 48 42 49 61 50 43 51 46 52 60 53 79 54 44 55 45 56 59 58
REMARK SMILES IDX 80 59 47 60 31 61 32 62 40 63 33 64 39 65 41 66 38 67 34 68
REMARK SMILES IDX 35 69 36 70 37 71 63 72 64 73 72 74 65 75 71 76 73 77 70 78
REMARK SMILES IDX 66 79 67 80 68 81 69 82 48 83 49 84 57 85 50 86 56 87 58 88
REMARK SMILES IDX 55 89 51 90 52 91 53 92 54 93
REMARK H PARENT 88 22 88 23 88 24 78 46 46 57
REMARK Flexibility Score: inf
ROOT
ATOM      1  C   UNL A   1      35.845  21.312  25.715  1.00  0.00     0.274 C 
ENDROOT
BRANCH   1   2
ATOM      2  O   UNL A   1      35.090  22.011  24.698  1.00  0.00    -0.460 OA
BRANCH   2   3
ATOM      3  C   UNL A   1      34.832  23.327  24.944  1.00  0.00     0.335 C 
ATOM      4  O   UNL A   1      35.695  24.196  24.871  1.00  0.00    -0.249 OA
BRANCH   3   5
ATOM      5  C   UNL A   1      33.345  23.581  25.354  1.00  0.00     0.243 C 
ATOM      6  C   UNL A   1      32.443  27.161  25.578  1.00  0.00     0.151 A 
ATOM      7  C   UNL A   1      31.575  27.804  24.766  1.00  0.00     0.134 A 
ATOM      8  C   UNL A   1      32.667  25.695  25.337  1.00  0.00     0.109 A 
ATOM      9  C   UNL A   1      30.848  27.131  23.695  1.00  0.00     0.273 A 
ATOM     10  C   UNL A   1      32.000  25.092  24.169  1.00  0.00     0.012 A 
ATOM     11  N   UNL A   1      33.349  24.888  26.092  1.00  0.00    -0.261 NA
ATOM     12  C   UNL A   1      31.050  25.835  23.392  1.00  0.00     0.096 A 
ATOM     13  C   UNL A   1      32.325  23.795  24.256  1.00  0.00    -0.019 C 
BRANCH   6  14
ATOM     14  O   UNL A   1      33.173  27.715  26.605  1.00  0.00    -0.494 OA
ATOM     15  C   UNL A   1      34.064  28.781  26.303  1.00  0.00     0.278 C 
ENDBRANCH   6  14
BRANCH   9  16
ATOM     16  N   UNL A   1      29.803  27.845  22.944  1.00  0.00     0.062 N 
ATOM     17  O   UNL A   1      30.143  28.498  21.948  1.00  0.00    -0.258 OA
ATOM     18  O   UNL A   1      28.638  27.700  23.331  1.00  0.00    -0.258 OA
ENDBRANCH   9  16
BRANCH  13  19
ATOM     19  C   UNL A   1      31.510  22.672  23.661  1.00  0.00     0.096 C 
BRANCH  19  20
ATOM     20  C   UNL A   1      32.204  21.566  22.861  1.00  0.00     0.263 C 
BRANCH  20  21
ATOM     21  N   UNL A   1      32.577  20.420  23.688  1.00  0.00    -0.357 N 
ATOM     22  H   UNL A   1      32.695  19.598  23.096  1.00  0.00     0.344 HD
ATOM     23  H   UNL A   1      31.844  20.243  24.375  1.00  0.00     0.344 HD
ATOM     24  H   UNL A   1      33.454  20.620  24.169  1.00  0.00     0.344 HD
ENDBRANCH  20  21
ENDBRANCH  19  20
ENDBRANCH  13  19
ENDBRANCH   3   5
ENDBRANCH   2   3
ENDBRANCH   1   2
BRANCH   1  25
ATOM     25  C   UNL A   1      37.165  20.795  25.148  1.00  0.00     0.275 C 
BRANCH  25  26
ATOM     26  O   UNL A   1      38.178  21.807  25.256  1.00  0.00    -0.458 OA
BRANCH  26  27
ATOM     27  C   UNL A   1      39.128  21.586  26.190  1.00  0.00     0.338 C 
ATOM     28  O   UNL A   1      39.562  20.520  26.581  1.00  0.00    -0.246 OA
BRANCH  27  29
ATOM     29  C   UNL A   1      39.626  22.877  26.661  1.00  0.00     0.060 A 
ATOM     30  C   UNL A   1      39.058  24.057  26.189  1.00  0.00     0.016 A 
ATOM     31  C   UNL A   1      40.640  22.898  27.617  1.00  0.00     0.016 A 
ATOM     32  C   UNL A   1      39.562  25.274  26.641  1.00  0.00     0.010 A 
ATOM     33  C   UNL A   1      41.082  24.108  28.129  1.00  0.00     0.010 A 
ATOM     34  C   UNL A   1      40.584  25.307  27.609  1.00  0.00    -0.014 A 
BRANCH  34  35
ATOM     35  C   UNL A   1      41.177  26.592  28.043  1.00  0.00     0.031 A 
ATOM     36  C   UNL A   1      42.602  26.914  27.689  1.00  0.00     0.074 A 
ATOM     37  C   UNL A   1      40.441  27.442  28.779  1.00  0.00     0.049 A 
ATOM     38  N   UNL A   1      43.281  28.004  27.930  1.00  0.00    -0.248 NA
ATOM     39  C   UNL A   1      43.379  25.867  27.003  1.00  0.00     0.031 C 
ATOM     40  C   UNL A   1      39.077  27.181  29.238  1.00  0.00     0.029 A 
ATOM     41  N   UNL A   1      40.726  28.692  29.267  1.00  0.00    -0.354 N 
ATOM     42  C   UNL A   1      44.562  27.767  27.441  1.00  0.00     0.074 A 
ATOM     43  C   UNL A   1      44.585  26.408  26.954  1.00  0.00     0.031 C 
ATOM     44  C   UNL A   1      38.624  28.256  29.899  1.00  0.00     0.029 A 
ATOM     45  C   UNL A   1      39.675  29.272  29.939  1.00  0.00     0.049 A 
ATOM     46  H   UNL A   1      41.598  29.132  29.147  1.00  0.00     0.167 HD
ATOM     47  C   UNL A   1      45.609  28.621  27.378  1.00  0.00     0.034 A 
ATOM     48  C   UNL A   1      39.565  30.492  30.504  1.00  0.00     0.034 A 
ATOM     49  C   UNL A   1      45.539  29.982  27.838  1.00  0.00     0.049 A 
ATOM     50  C   UNL A   1      40.721  31.450  30.379  1.00  0.00     0.074 A 
ATOM     51  C   UNL A   1      46.501  30.968  27.735  1.00  0.00     0.029 A 
ATOM     52  N   UNL A   1      44.449  30.548  28.487  1.00  0.00    -0.354 N 
ATOM     53  N   UNL A   1      41.886  31.259  29.800  1.00  0.00    -0.248 NA
ATOM     54  C   UNL A   1      40.557  32.787  30.961  1.00  0.00     0.031 C 
ATOM     55  C   UNL A   1      46.025  32.104  28.387  1.00  0.00     0.029 A 
ATOM     56  C   UNL A   1      44.730  31.860  28.823  1.00  0.00     0.049 A 
ATOM     57  H   UNL A   1      43.602  30.084  28.679  1.00  0.00     0.167 HD
ATOM     58  C   UNL A   1      42.581  32.457  29.926  1.00  0.00     0.074 A 
ATOM     59  C   UNL A   1      41.701  33.372  30.624  1.00  0.00     0.031 C 
ATOM     60  C   UNL A   1      43.833  32.768  29.502  1.00  0.00     0.034 A 
BRANCH  47  61
ATOM     61  C   UNL A   1      46.908  28.137  26.777  1.00  0.00     0.023 A 
ATOM     62  C   UNL A   1      47.083  28.150  25.381  1.00  0.00     0.031 A 
ATOM     63  C   UNL A   1      47.926  27.569  27.566  1.00  0.00     0.131 A 
ATOM     64  C   UNL A   1      48.234  27.588  24.816  1.00  0.00     0.055 A 
ATOM     65  C   UNL A   1      49.094  27.056  27.001  1.00  0.00     0.041 A 
ATOM     66  F   UNL A   1      47.807  27.519  28.903  1.00  0.00    -0.206 F 
ATOM     67  C   UNL A   1      49.246  27.053  25.619  1.00  0.00     0.022 A 
BRANCH  64  68
ATOM     68  S   UNL A   1      48.433  27.465  23.018  1.00  0.00     0.124 S 
ATOM     69  O   UNL A   1      48.347  26.021  22.804  1.00  0.00    -0.237 OA
ATOM     70  O   UNL A   1      47.292  28.235  22.531  1.00  0.00    -0.237 OA
ATOM     71  O   UNL A   1      49.744  28.053  22.767  1.00  0.00    -0.744 OA
ENDBRANCH  64  68
ENDBRANCH  47  61
BRANCH  48  72
ATOM     72  C   UNL A   1      38.261  30.875  31.120  1.00  0.00     0.023 A 
ATOM     73  C   UNL A   1      37.243  31.467  30.349  1.00  0.00     0.031 A 
ATOM     74  C   UNL A   1      38.086  30.819  32.513  1.00  0.00     0.131 A 
ATOM     75  C   UNL A   1      36.143  32.057  30.985  1.00  0.00     0.055 A 
ATOM     76  C   UNL A   1      36.953  31.345  33.136  1.00  0.00     0.041 A 
ATOM     77  F   UNL A   1      39.037  30.280  33.291  1.00  0.00    -0.206 F 
ATOM     78  C   UNL A   1      35.984  31.988  32.372  1.00  0.00     0.022 A 
BRANCH  75  79
ATOM     79  S   UNL A   1      34.958  33.065  30.050  1.00  0.00     0.124 S 
ATOM     80  O   UNL A   1      35.826  34.061  29.428  1.00  0.00    -0.237 OA
ATOM     81  O   UNL A   1      34.384  32.074  29.143  1.00  0.00    -0.237 OA
ATOM     82  O   UNL A   1      34.056  33.572  31.077  1.00  0.00    -0.744 OA
ENDBRANCH  75  79
ENDBRANCH  48  72
BRANCH  60  83
ATOM     83  C   UNL A   1      44.370  34.154  29.760  1.00  0.00     0.023 A 
ATOM     84  C   UNL A   1      44.321  35.119  28.735  1.00  0.00     0.031 A 
ATOM     85  C   UNL A   1      45.115  34.443  30.915  1.00  0.00     0.131 A 
ATOM     86  C   UNL A   1      45.065  36.298  28.854  1.00  0.00     0.055 A 
ATOM     87  C   UNL A   1      45.809  35.646  31.052  1.00  0.00     0.041 A 
ATOM     88  F   UNL A   1      45.201  33.549  31.913  1.00  0.00    -0.206 F 
ATOM     89  C   UNL A   1      45.803  36.570  30.010  1.00  0.00     0.022 A 
BRANCH  86  90
ATOM     90  S   UNL A   1      45.195  37.462  27.469  1.00  0.00     0.124 S 
ATOM     91  O   UNL A   1      43.792  37.700  27.139  1.00  0.00    -0.237 OA
ATOM     92  O   UNL A   1      45.892  38.590  28.081  1.00  0.00    -0.237 OA
ATOM     93  O   UNL A   1      45.953  36.729  26.461  1.00  0.00    -0.744 OA
ENDBRANCH  86  90
ENDBRANCH  60  83
ENDBRANCH  34  35
ENDBRANCH  27  29
ENDBRANCH  26  27
ENDBRANCH  25  26
ENDBRANCH   1  25
TORSDOF 19
ENDMDL
MODEL 2
REMARK VINA RESULT:     -10.7      4.878      9.906
REMARK SMILES COc1cc([N+](=O)[O-])cc2c1=N[C@H](C(=O)OCCOC(=O)c1ccc(-c3c4nc(c(-c5cc(S(=O)(=O)[O-])ccc5F)c5ccc([nH]5)c(-c5cc(S(=O)(=O)[O-])ccc5F)c5nc(c(-c6cc(S(=O)(=O)[O-])ccc6F)c6ccc3[nH]6)C=C5)C=C4)cc1)C=2CC[NH3+]
REMARK SMILES IDX 17 1 16 2 14 3 15 4 13 5 3 6 4 7 11 8 5 9 10 10 12 11 9 12
REMARK SMILES IDX 85 13 2 14 1 15 6 16 7 17 8 18 86 19 87 20 88 21 18 25 19 26
REMARK SMILES IDX 20 27 21 28 22 29 23 30 84 31 24 32 83 33 25 34 26 35 27 36
REMARK SMILES IDX 77 37 28 38 82 39 76 40 78 41 29 42 81 43 75 44 74 45 30 47
REMARK SMILES IDX 62 48 42 49 61 50 43 51 46 52 60 53 79 54 44 55 45 56 59 58
REMARK SMILES IDX 80 59 47 60 31 61 32 62 40 63 33 64 39 65 41 66 38 67 34 68
REMARK SMILES IDX 35 69 36 70 37 71 63 72 64 73 72 74 65 75 71 76 73 77 70 78
REMARK SMILES IDX 66 79 67 80 68 81 69 82 48 83 49 84 57 85 50 86 56 87 58 88
REMARK SMILES IDX 55 89 51 90 52 91 53 92 54 93
REMARK H PARENT 88 22 88 23 88 24 78 46 46 57
REMARK Flexibility Score: inf
ROOT
ATOM      1  C   UNL A   1      31.825  28.782  27.320  1.00  0.00     0.274 C 
ENDROOT
BRANCH   1   2
ATOM      2  O   UNL A   1      32.603  27.623  26.941  1.00  0.00    -0.460 OA
BRANCH   2   3
ATOM      3  C   UNL A   1      31.944  26.670  26.221  1.00  0.00     0.335 C 
ATOM      4  O   UNL A   1      30.802  26.309  26.488  1.00  0.00    -0.249 OA
BRANCH   3   5
ATOM      5  C   UNL A   1      32.816  26.083  25.063  1.00  0.00     0.243 C 
ATOM      6  C   UNL A   1      33.726  22.528  25.526  1.00  0.00     0.151 A 
ATOM      7  C   UNL A   1      33.299  21.503  24.758  1.00  0.00     0.134 A 
ATOM      8  C   UNL A   1      33.256  23.910  25.167  1.00  0.00     0.109 A 
ATOM      9  C   UNL A   1      32.428  21.689  23.602  1.00  0.00     0.273 A 
ATOM     10  C   UNL A   1      32.284  24.028  24.065  1.00  0.00     0.012 A 
ATOM     11  N   UNL A   1      33.666  25.022  25.698  1.00  0.00    -0.261 NA
ATOM     12  C   UNL A   1      31.927  22.893  23.265  1.00  0.00     0.096 A 
ATOM     13  C   UNL A   1      32.115  25.352  23.938  1.00  0.00    -0.019 C 
BRANCH   6  14
ATOM     14  O   UNL A   1      34.539  22.444  26.634  1.00  0.00    -0.494 OA
ATOM     15  C   UNL A   1      33.939  22.174  27.894  1.00  0.00     0.278 C 
ENDBRANCH   6  14
BRANCH   9  16
ATOM     16  N   UNL A   1      32.122  20.558  22.712  1.00  0.00     0.062 N 
ATOM     17  O   UNL A   1      31.786  20.807  21.545  1.00  0.00    -0.258 OA
ATOM     18  O   UNL A   1      32.272  19.423  23.178  1.00  0.00    -0.258 OA
ENDBRANCH   9  16
BRANCH  13  19
ATOM     19  C   UNL A   1      31.667  26.034  22.667  1.00  0.00     0.096 C 
BRANCH  19  20
ATOM     20  C   UNL A   1      32.618  26.117  21.470  1.00  0.00     0.263 C 
BRANCH  20  21
ATOM     21  N   UNL A   1      31.974  25.753  20.210  1.00  0.00    -0.357 N 
ATOM     22  H   UNL A   1      31.012  26.091  20.210  1.00  0.00     0.344 HD
ATOM     23  H   UNL A   1      31.979  24.738  20.106  1.00  0.00     0.344 HD
ATOM     24  H   UNL A   1      32.483  26.177  19.434  1.00  0.00     0.344 HD
ENDBRANCH  20  21
ENDBRANCH  19  20
ENDBRANCH  13  19
ENDBRANCH   3   5
ENDBRANCH   2   3
ENDBRANCH   1   2
BRANCH   1  25
ATOM     25  C   UNL A   1      32.092  29.946  26.368  1.00  0.00     0.275 C 
BRANCH  25  26
ATOM     26  O   UNL A   1      33.481  30.306  26.406  1.00  0.00    -0.458 OA
BRANCH  26  27
ATOM     27  C   UNL A   1      33.807  31.287  27.275  1.00  0.00     0.338 C 
ATOM     28  O   UNL A   1      33.181  32.296  27.537  1.00  0.00    -0.246 OA
BRANCH  27  29
ATOM     29  C   UNL A   1      35.063  30.928  27.931  1.00  0.00     0.060 A 
ATOM     30  C   UNL A   1      36.109  31.846  27.983  1.00  0.00     0.016 A 
ATOM     31  C   UNL A   1      35.172  29.677  28.534  1.00  0.00     0.016 A 
ATOM     32  C   UNL A   1      37.300  31.472  28.599  1.00  0.00     0.010 A 
ATOM     33  C   UNL A   1      36.329  29.339  29.220  1.00  0.00     0.010 A 
ATOM     34  C   UNL A   1      37.420  30.213  29.216  1.00  0.00    -0.014 A 
BRANCH  34  35
ATOM     35  C   UNL A   1      38.705  29.777  29.809  1.00  0.00     0.031 A 
ATOM     36  C   UNL A   1      39.110  30.282  31.166  1.00  0.00     0.074 A 
ATOM     37  C   UNL A   1      39.509  28.957  29.110  1.00  0.00     0.049 A 
ATOM     38  N   UNL A   1      40.165  29.975  31.874  1.00  0.00    -0.248 NA
ATOM     39  C   UNL A   1      38.238  31.285  31.800  1.00  0.00     0.031 C 
ATOM     40  C   UNL A   1      39.236  28.479  27.755  1.00  0.00     0.029 A 
ATOM     41  N   UNL A   1      40.709  28.379  29.435  1.00  0.00    -0.354 N 
ATOM     42  C   UNL A   1      40.089  30.757  33.022  1.00  0.00     0.074 A 
ATOM     43  C   UNL A   1      38.926  31.600  32.885  1.00  0.00     0.031 C 
ATOM     44  C   UNL A   1      40.214  27.642  27.381  1.00  0.00     0.029 A 
ATOM     45  C   UNL A   1      41.200  27.547  28.457  1.00  0.00     0.049 A 
ATOM     46  H   UNL A   1      41.173  28.543  30.287  1.00  0.00     0.167 HD
ATOM     47  C   UNL A   1      40.902  30.744  34.103  1.00  0.00     0.034 A 
ATOM     48  C   UNL A   1      42.309  26.778  28.437  1.00  0.00     0.034 A 
ATOM     49  C   UNL A   1      42.032  29.862  34.223  1.00  0.00     0.049 A 
ATOM     50  C   UNL A   1      43.175  26.735  29.669  1.00  0.00     0.074 A 
ATOM     51  C   UNL A   1      42.868  29.688  35.310  1.00  0.00     0.029 A 
ATOM     52  N   UNL A   1      42.485  29.008  33.225  1.00  0.00    -0.354 N 
ATOM     53  N   UNL A   1      43.023  27.382  30.802  1.00  0.00    -0.248 NA
ATOM     54  C   UNL A   1      44.349  25.853  29.639  1.00  0.00     0.031 C 
ATOM     55  C   UNL A   1      43.869  28.789  34.944  1.00  0.00     0.029 A 
ATOM     56  C   UNL A   1      43.612  28.332  33.659  1.00  0.00     0.049 A 
ATOM     57  H   UNL A   1      42.067  28.901  32.340  1.00  0.00     0.167 HD
ATOM     58  C   UNL A   1      44.065  26.970  31.627  1.00  0.00     0.074 A 
ATOM     59  C   UNL A   1      44.833  26.004  30.867  1.00  0.00     0.031 C 
ATOM     60  C   UNL A   1      44.356  27.356  32.895  1.00  0.00     0.034 A 
BRANCH  47  61
ATOM     61  C   UNL A   1      40.603  31.679  35.251  1.00  0.00     0.023 A 
ATOM     62  C   UNL A   1      39.518  31.413  36.108  1.00  0.00     0.031 A 
ATOM     63  C   UNL A   1      41.314  32.879  35.438  1.00  0.00     0.131 A 
ATOM     64  C   UNL A   1      39.163  32.341  37.094  1.00  0.00     0.055 A 
ATOM     65  C   UNL A   1      40.987  33.777  36.455  1.00  0.00     0.041 A 
ATOM     66  F   UNL A   1      42.350  33.190  34.642  1.00  0.00    -0.206 F 
ATOM     67  C   UNL A   1      39.900  33.515  37.281  1.00  0.00     0.022 A 
BRANCH  64  68
ATOM     68  S   UNL A   1      37.693  32.097  38.127  1.00  0.00     0.124 S 
ATOM     69  O   UNL A   1      37.319  30.723  37.797  1.00  0.00    -0.237 OA
ATOM     70  O   UNL A   1      38.229  32.290  39.472  1.00  0.00    -0.237 OA
ATOM     71  O   UNL A   1      36.764  33.123  37.666  1.00  0.00    -0.744 OA
ENDBRANCH  64  68
ENDBRANCH  47  61
BRANCH  48  72
ATOM     72  C   UNL A   1      42.557  25.919  27.243  1.00  0.00     0.023 A 
ATOM     73  C   UNL A   1      42.073  24.598  27.190  1.00  0.00     0.031 A 
ATOM     74  C   UNL A   1      43.429  26.344  26.226  1.00  0.00     0.131 A 
ATOM     75  C   UNL A   1      42.535  23.728  26.194  1.00  0.00     0.055 A 
ATOM     76  C   UNL A   1      43.830  25.494  25.195  1.00  0.00     0.041 A 
ATOM     77  F   UNL A   1      43.930  27.589  26.245  1.00  0.00    -0.206 F 
ATOM     78  C   UNL A   1      43.400  24.170  25.187  1.00  0.00     0.022 A 
BRANCH  75  79
ATOM     79  S   UNL A   1      42.151  21.955  26.255  1.00  0.00     0.124 S 
ATOM     80  O   UNL A   1      40.730  21.937  25.923  1.00  0.00    -0.237 OA
ATOM     81  O   UNL A   1      43.046  21.427  25.228  1.00  0.00    -0.237 OA
ATOM     82  O   UNL A   1      42.481  21.582  27.625  1.00  0.00    -0.744 OA
ENDBRANCH  75  79
ENDBRANCH  48  72
BRANCH  60  83
ATOM     83  C   UNL A   1      45.554  26.754  33.586  1.00  0.00     0.023 A 
ATOM     84  C   UNL A   1      45.384  25.629  34.416  1.00  0.00     0.031 A 
ATOM     85  C   UNL A   1      46.794  27.415  33.602  1.00  0.00     0.131 A 
ATOM     86  C   UNL A   1      46.413  25.241  35.282  1.00  0.00     0.055 A 
ATOM     87  C   UNL A   1      47.836  26.989  34.427  1.00  0.00     0.041 A 
ATOM     88  F   UNL A   1      46.999  28.499  32.838  1.00  0.00    -0.206 F 
ATOM     89  C   UNL A   1      47.641  25.910  35.287  1.00  0.00     0.022 A 
BRANCH  86  90
ATOM     90  S   UNL A   1      46.153  23.933  36.512  1.00  0.00     0.124 S 
ATOM     91  O   UNL A   1      46.304  22.724  35.706  1.00  0.00    -0.237 OA
ATOM     92  O   UNL A   1      47.232  24.188  37.463  1.00  0.00    -0.237 OA
ATOM     93  O   UNL A   1      44.805  24.180  37.012  1.00  0.00    -0.744 OA
ENDBRANCH  86  90
ENDBRANCH  60  83
ENDBRANCH  34  35
ENDBRANCH  27  29
ENDBRANCH  26  27
ENDBRANCH  25  26
ENDBRANCH   1  25
TORSDOF 19
ENDMDL
MODEL 3
REMARK VINA RESULT:     -10.7      1.440      2.354
REMARK SMILES COc1cc([N+](=O)[O-])cc2c1=N[C@H](C(=O)OCCOC(=O)c1ccc(-c3c4nc(c(-c5cc(S(=O)(=O)[O-])ccc5F)c5ccc([nH]5)c(-c5cc(S(=O)(=O)[O-])ccc5F)c5nc(c(-c6cc(S(=O)(=O)[O-])ccc6F)c6ccc3[nH]6)C=C5)C=C4)cc1)C=2CC[NH3+]
REMARK SMILES IDX 17 1 16 2 14 3 15 4 13 5 3 6 4 7 11 8 5 9 10 10 12 11 9 12
REMARK SMILES IDX 85 13 2 14 1 15 6 16 7 17 8 18 86 19 87 20 88 21 18 25 19 26
REMARK SMILES IDX 20 27 21 28 22 29 23 30 84 31 24 32 83 33 25 34 26 35 27 36
REMARK SMILES IDX 77 37 28 38 82 39 76 40 78 41 29 42 81 43 75 44 74 45 30 47
REMARK SMILES IDX 62 48 42 49 61 50 43 51 46 52 60 53 79 54 44 55 45 56 59 58
REMARK SMILES IDX 80 59 47 60 31 61 32 62 40 63 33 64 39 65 41 66 38 67 34 68
REMARK SMILES IDX 35 69 36 70 37 71 63 72 64 73 72 74 65 75 71 76 73 77 70 78
REMARK SMILES IDX 66 79 67 80 68 81 69 82 48 83 49 84 57 85 50 86 56 87 58 88
REMARK SMILES IDX 55 89 51 90 52 91 53 92 54 93
REMARK H PARENT 88 22 88 23 88 24 78 46 46 57
REMARK Flexibility Score: inf
ROOT
ATOM      1  C   UNL A   1      35.037  22.058  26.134  1.00  0.00     0.274 C 
ENDROOT
BRANCH   1   2
ATOM      2  O   UNL A   1      34.717  23.213  25.323  1.00  0.00    -0.460 OA
BRANCH   2   3
ATOM      3  C   UNL A   1      33.825  24.093  25.860  1.00  0.00     0.335 C 
ATOM      4  O   UNL A   1      32.892  23.738  26.574  1.00  0.00    -0.249 OA
BRANCH   3   5
ATOM      5  C   UNL A   1      34.111  25.570  25.437  1.00  0.00     0.243 C 
ATOM      6  C   UNL A   1      32.693  26.487  22.146  1.00  0.00     0.151 A 
ATOM      7  C   UNL A   1      31.699  27.378  21.941  1.00  0.00     0.134 A 
ATOM      8  C   UNL A   1      33.145  26.261  23.561  1.00  0.00     0.109 A 
ATOM      9  C   UNL A   1      31.072  28.128  23.024  1.00  0.00     0.273 A 
ATOM     10  C   UNL A   1      32.398  26.953  24.627  1.00  0.00     0.012 A 
ATOM     11  N   UNL A   1      34.168  25.556  23.937  1.00  0.00    -0.261 NA
ATOM     12  C   UNL A   1      31.392  27.926  24.317  1.00  0.00     0.096 A 
ATOM     13  C   UNL A   1      33.062  26.619  25.743  1.00  0.00    -0.019 C 
BRANCH   6  14
ATOM     14  O   UNL A   1      33.335  25.735  21.188  1.00  0.00    -0.494 OA
ATOM     15  C   UNL A   1      32.618  25.386  20.010  1.00  0.00     0.278 C 
ENDBRANCH   6  14
BRANCH   9  16
ATOM     16  N   UNL A   1      30.104  29.195  22.727  1.00  0.00     0.062 N 
ATOM     17  O   UNL A   1      29.760  29.360  21.548  1.00  0.00    -0.258 OA
ATOM     18  O   UNL A   1      29.654  29.826  23.689  1.00  0.00    -0.258 OA
ENDBRANCH   9  16
BRANCH  13  19
ATOM     19  C   UNL A   1      33.067  27.442  27.009  1.00  0.00     0.096 C 
BRANCH  19  20
ATOM     20  C   UNL A   1      33.950  28.689  27.105  1.00  0.00     0.263 C 
BRANCH  20  21
ATOM     21  N   UNL A   1      33.211  29.872  27.541  1.00  0.00    -0.357 N 
ATOM     22  H   UNL A   1      32.347  29.583  28.001  1.00  0.00     0.344 HD
ATOM     23  H   UNL A   1      32.989  30.452  26.732  1.00  0.00     0.344 HD
ATOM     24  H   UNL A   1      33.782  30.406  28.197  1.00  0.00     0.344 HD
ENDBRANCH  20  21
ENDBRANCH  19  20
ENDBRANCH  13  19
ENDBRANCH   3   5
ENDBRANCH   2   3
ENDBRANCH   1   2
BRANCH   1  25
ATOM     25  C   UNL A   1      35.917  21.081  25.358  1.00  0.00     0.275 C 
BRANCH  25  26
ATOM     26  O   UNL A   1      37.137  21.724  24.960  1.00  0.00    -0.458 OA
BRANCH  26  27
ATOM     27  C   UNL A   1      38.244  21.350  25.637  1.00  0.00     0.338 C 
ATOM     28  O   UNL A   1      38.696  20.229  25.775  1.00  0.00    -0.246 OA
BRANCH  27  29
ATOM     29  C   UNL A   1      38.889  22.547  26.173  1.00  0.00     0.060 A 
ATOM     30  C   UNL A   1      38.310  23.797  25.976  1.00  0.00     0.016 A 
ATOM     31  C   UNL A   1      40.059  22.405  26.915  1.00  0.00     0.016 A 
ATOM     32  C   UNL A   1      38.953  24.924  26.483  1.00  0.00     0.010 A 
ATOM     33  C   UNL A   1      40.653  23.518  27.491  1.00  0.00     0.010 A 
ATOM     34  C   UNL A   1      40.134  24.791  27.238  1.00  0.00    -0.014 A 
BRANCH  34  35
ATOM     35  C   UNL A   1      40.866  25.985  27.718  1.00  0.00     0.031 A 
ATOM     36  C   UNL A   1      42.288  26.212  27.289  1.00  0.00     0.074 A 
ATOM     37  C   UNL A   1      40.256  26.836  28.562  1.00  0.00     0.049 A 
ATOM     38  N   UNL A   1      43.075  27.220  27.558  1.00  0.00    -0.248 NA
ATOM     39  C   UNL A   1      42.924  25.159  26.479  1.00  0.00     0.031 C 
ATOM     40  C   UNL A   1      38.906  26.655  29.095  1.00  0.00     0.029 A 
ATOM     41  N   UNL A   1      40.681  28.016  29.115  1.00  0.00    -0.354 N 
ATOM     42  C   UNL A   1      44.296  26.914  26.966  1.00  0.00     0.074 A 
ATOM     43  C   UNL A   1      44.168  25.599  26.384  1.00  0.00     0.031 C 
ATOM     44  C   UNL A   1      38.593  27.711  29.860  1.00  0.00     0.029 A 
ATOM     45  C   UNL A   1      39.730  28.630  29.898  1.00  0.00     0.049 A 
ATOM     46  H   UNL A   1      41.579  28.389  28.966  1.00  0.00     0.167 HD
ATOM     47  C   UNL A   1      45.409  27.679  26.891  1.00  0.00     0.034 A 
ATOM     48  C   UNL A   1      39.765  29.808  30.554  1.00  0.00     0.034 A 
ATOM     49  C   UNL A   1      45.489  29.003  27.449  1.00  0.00     0.049 A 
ATOM     50  C   UNL A   1      40.992  30.672  30.416  1.00  0.00     0.074 A 
ATOM     51  C   UNL A   1      46.527  29.910  27.349  1.00  0.00     0.029 A 
ATOM     52  N   UNL A   1      44.497  29.607  28.210  1.00  0.00    -0.354 N 
ATOM     53  N   UNL A   1      42.095  30.429  29.746  1.00  0.00    -0.248 NA
ATOM     54  C   UNL A   1      40.984  31.970  31.102  1.00  0.00     0.031 C 
ATOM     55  C   UNL A   1      46.195  31.029  28.111  1.00  0.00     0.029 A 
ATOM     56  C   UNL A   1      44.914  30.862  28.618  1.00  0.00     0.049 A 
ATOM     57  H   UNL A   1      43.626  29.202  28.428  1.00  0.00     0.167 HD
ATOM     58  C   UNL A   1      42.901  31.551  29.907  1.00  0.00     0.074 A 
ATOM     59  C   UNL A   1      42.152  32.481  30.727  1.00  0.00     0.031 C 
ATOM     60  C   UNL A   1      44.146  31.787  29.420  1.00  0.00     0.034 A 
BRANCH  47  61
ATOM     61  C   UNL A   1      46.619  27.136  26.168  1.00  0.00     0.023 A 
ATOM     62  C   UNL A   1      46.941  27.610  24.883  1.00  0.00     0.031 A 
ATOM     63  C   UNL A   1      47.389  26.083  26.696  1.00  0.00     0.131 A 
ATOM     64  C   UNL A   1      47.986  27.021  24.162  1.00  0.00     0.055 A 
ATOM     65  C   UNL A   1      48.462  25.533  25.994  1.00  0.00     0.041 A 
ATOM     66  F   UNL A   1      47.120  25.583  27.913  1.00  0.00    -0.206 F 
ATOM     67  C   UNL A   1      48.757  25.993  24.715  1.00  0.00     0.022 A 
BRANCH  64  68
ATOM     68  S   UNL A   1      48.343  27.513  22.454  1.00  0.00     0.124 S 
ATOM     69  O   UNL A   1      49.592  28.257  22.611  1.00  0.00    -0.237 OA
ATOM     70  O   UNL A   1      48.469  26.222  21.783  1.00  0.00    -0.237 OA
ATOM     71  O   UNL A   1      47.187  28.313  22.068  1.00  0.00    -0.744 OA
ENDBRANCH  64  68
ENDBRANCH  47  61
BRANCH  48  72
ATOM     72  C   UNL A   1      38.542  30.250  31.285  1.00  0.00     0.023 A 
ATOM     73  C   UNL A   1      37.491  30.898  30.609  1.00  0.00     0.031 A 
ATOM     74  C   UNL A   1      38.489  30.193  32.688  1.00  0.00     0.131 A 
ATOM     75  C   UNL A   1      36.483  31.538  31.342  1.00  0.00     0.055 A 
ATOM     76  C   UNL A   1      37.443  30.770  33.411  1.00  0.00     0.041 A 
ATOM     77  F   UNL A   1      39.476  29.601  33.377  1.00  0.00    -0.206 F 
ATOM     78  C   UNL A   1      36.444  31.467  32.738  1.00  0.00     0.022 A 
BRANCH  75  79
ATOM     79  S   UNL A   1      35.272  32.612  30.520  1.00  0.00     0.124 S 
ATOM     80  O   UNL A   1      34.942  31.842  29.324  1.00  0.00    -0.237 OA
ATOM     81  O   UNL A   1      34.220  32.691  31.530  1.00  0.00    -0.237 OA
ATOM     82  O   UNL A   1      36.012  33.846  30.288  1.00  0.00    -0.744 OA
ENDBRANCH  75  79
ENDBRANCH  48  72
BRANCH  60  83
ATOM     83  C   UNL A   1      44.819  33.099  29.737  1.00  0.00     0.023 A 
ATOM     84  C   UNL A   1      44.819  34.129  28.776  1.00  0.00     0.031 A 
ATOM     85  C   UNL A   1      45.633  33.245  30.872  1.00  0.00     0.131 A 
ATOM     86  C   UNL A   1      45.673  35.227  28.932  1.00  0.00     0.055 A 
ATOM     87  C   UNL A   1      46.442  34.369  31.050  1.00  0.00     0.041 A 
ATOM     88  F   UNL A   1      45.677  32.284  31.809  1.00  0.00    -0.206 F 
ATOM     89  C   UNL A   1      46.480  35.355  30.068  1.00  0.00     0.022 A 
BRANCH  86  90
ATOM     90  S   UNL A   1      45.856  36.461  27.616  1.00  0.00     0.124 S 
ATOM     91  O   UNL A   1      44.594  37.191  27.707  1.00  0.00    -0.237 OA
ATOM     92  O   UNL A   1      47.037  37.201  28.051  1.00  0.00    -0.237 OA
ATOM     93  O   UNL A   1      46.025  35.665  26.405  1.00  0.00    -0.744 OA
ENDBRANCH  86  90
ENDBRANCH  60  83
ENDBRANCH  34  35
ENDBRANCH  27  29
ENDBRANCH  26  27
ENDBRANCH  25  26
ENDBRANCH   1  25
TORSDOF 19
ENDMDL
