MODEL 1
REMARK VINA RESULT:     -12.2      0.000      0.000
REMARK SMILES Cn1ncc(C(=O)NCc2ccc(F)cc2)c1C(=O)OCCOC(=O)c1ccc(-c2c3nc(c(-c4cc(S(=O)(=O)[O-])ccc4F)c4ccc([nH]4)c(-c4cc(S(=O)(=O)[O-])ccc4F)c4nc(c(-c5cc(S(=O)(=O)[O-])ccc5F)c5ccc2[nH]5)C=C4)C=C3)cc1
REMARK SMILES IDX 21 1 20 2 18 3 19 4 17 5 1 6 2 7 3 8 4 9 5 10 6 11 7 12 8 13
REMARK SMILES IDX 9 15 10 16 11 17 16 18 12 19 15 20 13 21 14 22 22 23 23 24
REMARK SMILES IDX 24 25 25 26 26 27 27 28 88 29 28 30 87 31 29 32 30 33 31 34
REMARK SMILES IDX 81 35 32 36 86 37 80 38 82 39 33 40 85 41 79 42 78 43 34 45
REMARK SMILES IDX 66 46 46 47 65 48 47 49 50 50 64 51 83 52 48 53 49 54 63 56
REMARK SMILES IDX 84 57 51 58 35 59 36 60 44 61 37 62 43 63 45 64 42 65 38 66
REMARK SMILES IDX 39 67 40 68 41 69 67 70 68 71 76 72 69 73 75 74 77 75 74 76
REMARK SMILES IDX 70 77 71 78 72 79 73 80 52 81 53 82 61 83 54 84 60 85 62 86
REMARK SMILES IDX 59 87 55 88 56 89 57 90 58 91
REMARK H PARENT 8 14 82 44 50 55
REMARK Flexibility Score: inf
ROOT
ATOM      1  C   UNL A   1      37.064  22.363  23.873  1.00  0.00     0.275 C 
ENDROOT
BRANCH   1   2
ATOM      2  O   UNL A   1      36.224  23.230  24.649  1.00  0.00    -0.457 OA
BRANCH   2   3
ATOM      3  C   UNL A   1      35.038  23.536  24.056  1.00  0.00     0.357 C 
ATOM      4  O   UNL A   1      34.880  23.519  22.848  1.00  0.00    -0.244 OA
BRANCH   3   5
ATOM      5  C   UNL A   1      34.037  23.836  25.039  1.00  0.00     0.159 A 
ATOM      6  C   UNL A   1      33.556  26.307  24.500  1.00  0.00     0.174 C 
ATOM      7  N   UNL A   1      33.364  25.038  25.168  1.00  0.00    -0.261 N 
ATOM      8  N   UNL A   1      32.334  24.979  26.028  1.00  0.00    -0.180 NA
ATOM      9  C   UNL A   1      32.422  23.755  26.537  1.00  0.00     0.150 A 
ATOM     10  C   UNL A   1      33.533  23.014  26.048  1.00  0.00     0.092 A 
BRANCH  10  11
ATOM     11  C   UNL A   1      33.876  21.702  26.601  1.00  0.00     0.255 C 
ATOM     12  O   UNL A   1      33.886  21.562  27.824  1.00  0.00    -0.269 OA
ATOM     13  N   UNL A   1      34.436  20.672  25.868  1.00  0.00    -0.348 N 
ATOM     14  H   UNL A   1      35.261  20.291  26.247  1.00  0.00     0.164 HD
BRANCH  13  15
ATOM     15  C   UNL A   1      33.993  20.071  24.633  1.00  0.00     0.152 C 
BRANCH  15  16
ATOM     16  C   UNL A   1      33.645  18.594  24.699  1.00  0.00    -0.029 A 
ATOM     17  C   UNL A   1      34.298  17.641  23.907  1.00  0.00     0.008 A 
ATOM     18  C   UNL A   1      32.695  18.127  25.624  1.00  0.00     0.008 A 
ATOM     19  C   UNL A   1      34.002  16.275  24.048  1.00  0.00     0.039 A 
ATOM     20  C   UNL A   1      32.370  16.775  25.744  1.00  0.00     0.039 A 
ATOM     21  C   UNL A   1      33.038  15.857  24.958  1.00  0.00     0.123 A 
ATOM     22  F   UNL A   1      32.758  14.554  25.090  1.00  0.00    -0.207 F 
ENDBRANCH  15  16
ENDBRANCH  13  15
ENDBRANCH  10  11
ENDBRANCH   3   5
ENDBRANCH   2   3
ENDBRANCH   1   2
BRANCH   1  23
ATOM     23  C   UNL A   1      37.619  21.207  24.730  1.00  0.00     0.275 C 
BRANCH  23  24
ATOM     24  O   UNL A   1      38.012  21.669  26.043  1.00  0.00    -0.458 OA
BRANCH  24  25
ATOM     25  C   UNL A   1      39.355  21.698  26.286  1.00  0.00     0.338 C 
ATOM     26  O   UNL A   1      40.112  20.751  26.174  1.00  0.00    -0.246 OA
BRANCH  25  27
ATOM     27  C   UNL A   1      39.738  23.036  26.806  1.00  0.00     0.060 A 
ATOM     28  C   UNL A   1      39.065  24.193  26.409  1.00  0.00     0.016 A 
ATOM     29  C   UNL A   1      40.808  23.147  27.698  1.00  0.00     0.016 A 
ATOM     30  C   UNL A   1      39.412  25.440  26.965  1.00  0.00     0.010 A 
ATOM     31  C   UNL A   1      41.132  24.381  28.279  1.00  0.00     0.010 A 
ATOM     32  C   UNL A   1      40.447  25.548  27.909  1.00  0.00    -0.014 A 
BRANCH  32  33
ATOM     33  C   UNL A   1      40.962  26.884  28.340  1.00  0.00     0.031 A 
ATOM     34  C   UNL A   1      42.418  27.197  28.096  1.00  0.00     0.074 A 
ATOM     35  C   UNL A   1      40.193  27.808  28.950  1.00  0.00     0.049 A 
ATOM     36  N   UNL A   1      43.075  28.309  28.302  1.00  0.00    -0.248 NA
ATOM     37  C   UNL A   1      43.242  26.100  27.564  1.00  0.00     0.031 C 
ATOM     38  C   UNL A   1      38.785  27.646  29.298  1.00  0.00     0.029 A 
ATOM     39  N   UNL A   1      40.494  29.079  29.390  1.00  0.00    -0.354 N 
ATOM     40  C   UNL A   1      44.376  28.059  27.887  1.00  0.00     0.074 A 
ATOM     41  C   UNL A   1      44.437  26.664  27.506  1.00  0.00     0.031 C 
ATOM     42  C   UNL A   1      38.340  28.770  29.887  1.00  0.00     0.029 A 
ATOM     43  C   UNL A   1      39.428  29.744  29.956  1.00  0.00     0.049 A 
ATOM     44  H   UNL A   1      41.390  29.476  29.307  1.00  0.00     0.167 HD
ATOM     45  C   UNL A   1      45.422  28.913  27.785  1.00  0.00     0.034 A 
ATOM     46  C   UNL A   1      39.331  30.996  30.454  1.00  0.00     0.034 A 
ATOM     47  C   UNL A   1      45.383  30.294  28.187  1.00  0.00     0.049 A 
ATOM     48  C   UNL A   1      40.524  31.921  30.396  1.00  0.00     0.074 A 
ATOM     49  C   UNL A   1      46.382  31.246  28.095  1.00  0.00     0.029 A 
ATOM     50  N   UNL A   1      44.293  30.914  28.780  1.00  0.00    -0.354 N 
ATOM     51  N   UNL A   1      41.726  31.689  29.925  1.00  0.00    -0.248 NA
ATOM     52  C   UNL A   1      40.341  33.284  30.921  1.00  0.00     0.031 C 
ATOM     53  C   UNL A   1      45.918  32.426  28.684  1.00  0.00     0.029 A 
ATOM     54  C   UNL A   1      44.607  32.228  29.087  1.00  0.00     0.049 A 
ATOM     55  H   UNL A   1      43.426  30.485  28.956  1.00  0.00     0.167 HD
ATOM     56  C   UNL A   1      42.428  32.885  30.063  1.00  0.00     0.074 A 
ATOM     57  C   UNL A   1      41.522  33.836  30.670  1.00  0.00     0.031 C 
ATOM     58  C   UNL A   1      43.704  33.170  29.701  1.00  0.00     0.034 A 
BRANCH  45  59
ATOM     59  C   UNL A   1      46.697  28.358  27.210  1.00  0.00     0.023 A 
ATOM     60  C   UNL A   1      46.881  28.277  25.817  1.00  0.00     0.031 A 
ATOM     61  C   UNL A   1      47.713  27.873  28.046  1.00  0.00     0.131 A 
ATOM     62  C   UNL A   1      48.026  27.655  25.303  1.00  0.00     0.055 A 
ATOM     63  C   UNL A   1      48.885  27.321  27.526  1.00  0.00     0.041 A 
ATOM     64  F   UNL A   1      47.577  27.910  29.381  1.00  0.00    -0.206 F 
ATOM     65  C   UNL A   1      49.041  27.197  26.146  1.00  0.00     0.022 A 
BRANCH  62  66
ATOM     66  S   UNL A   1      48.119  27.355  23.517  1.00  0.00     0.124 S 
ATOM     67  O   UNL A   1      49.461  27.846  23.208  1.00  0.00    -0.237 OA
ATOM     68  O   UNL A   1      47.930  25.913  23.425  1.00  0.00    -0.237 OA
ATOM     69  O   UNL A   1      47.027  28.163  22.977  1.00  0.00    -0.744 OA
ENDBRANCH  62  66
ENDBRANCH  45  59
BRANCH  46  70
ATOM     70  C   UNL A   1      38.047  31.476  31.044  1.00  0.00     0.023 A 
ATOM     71  C   UNL A   1      37.052  32.063  30.244  1.00  0.00     0.031 A 
ATOM     72  C   UNL A   1      37.817  31.390  32.428  1.00  0.00     0.131 A 
ATOM     73  C   UNL A   1      35.885  32.569  30.838  1.00  0.00     0.055 A 
ATOM     74  C   UNL A   1      36.641  31.867  33.011  1.00  0.00     0.041 A 
ATOM     75  F   UNL A   1      38.739  30.840  33.235  1.00  0.00    -0.206 F 
ATOM     76  C   UNL A   1      35.668  32.466  32.214  1.00  0.00     0.022 A 
BRANCH  73  77
ATOM     77  S   UNL A   1      34.654  33.397  29.792  1.00  0.00     0.124 S 
ATOM     78  O   UNL A   1      35.490  34.301  29.010  1.00  0.00    -0.237 OA
ATOM     79  O   UNL A   1      34.062  32.279  29.065  1.00  0.00    -0.237 OA
ATOM     80  O   UNL A   1      33.767  34.046  30.758  1.00  0.00    -0.744 OA
ENDBRANCH  73  77
ENDBRANCH  46  70
BRANCH  58  81
ATOM     81  C   UNL A   1      44.204  34.575  29.912  1.00  0.00     0.023 A 
ATOM     82  C   UNL A   1      43.999  35.583  28.956  1.00  0.00     0.031 A 
ATOM     83  C   UNL A   1      44.823  34.923  31.126  1.00  0.00     0.131 A 
ATOM     84  C   UNL A   1      44.422  36.895  29.227  1.00  0.00     0.055 A 
ATOM     85  C   UNL A   1      45.205  36.235  31.405  1.00  0.00     0.041 A 
ATOM     86  F   UNL A   1      45.035  33.996  32.074  1.00  0.00    -0.206 F 
ATOM     87  C   UNL A   1      45.008  37.230  30.451  1.00  0.00     0.022 A 
BRANCH  84  88
ATOM     88  S   UNL A   1      44.205  38.168  27.952  1.00  0.00     0.124 S 
ATOM     89  O   UNL A   1      43.046  37.668  27.219  1.00  0.00    -0.237 OA
ATOM     90  O   UNL A   1      43.986  39.375  28.743  1.00  0.00    -0.237 OA
ATOM     91  O   UNL A   1      45.466  38.135  27.215  1.00  0.00    -0.744 OA
ENDBRANCH  84  88
ENDBRANCH  58  81
ENDBRANCH  32  33
ENDBRANCH  25  27
ENDBRANCH  24  25
ENDBRANCH  23  24
ENDBRANCH   1  23
TORSDOF 17
ENDMDL
MODEL 2
REMARK VINA RESULT:     -11.8      5.450     10.612
REMARK SMILES Cn1ncc(C(=O)NCc2ccc(F)cc2)c1C(=O)OCCOC(=O)c1ccc(-c2c3nc(c(-c4cc(S(=O)(=O)[O-])ccc4F)c4ccc([nH]4)c(-c4cc(S(=O)(=O)[O-])ccc4F)c4nc(c(-c5cc(S(=O)(=O)[O-])ccc5F)c5ccc2[nH]5)C=C4)C=C3)cc1
REMARK SMILES IDX 21 1 20 2 18 3 19 4 17 5 1 6 2 7 3 8 4 9 5 10 6 11 7 12 8 13
REMARK SMILES IDX 9 15 10 16 11 17 16 18 12 19 15 20 13 21 14 22 22 23 23 24
REMARK SMILES IDX 24 25 25 26 26 27 27 28 88 29 28 30 87 31 29 32 30 33 31 34
REMARK SMILES IDX 81 35 32 36 86 37 80 38 82 39 33 40 85 41 79 42 78 43 34 45
REMARK SMILES IDX 66 46 46 47 65 48 47 49 50 50 64 51 83 52 48 53 49 54 63 56
REMARK SMILES IDX 84 57 51 58 35 59 36 60 44 61 37 62 43 63 45 64 42 65 38 66
REMARK SMILES IDX 39 67 40 68 41 69 67 70 68 71 76 72 69 73 75 74 77 75 74 76
REMARK SMILES IDX 70 77 71 78 72 79 73 80 52 81 53 82 61 83 54 84 60 85 62 86
REMARK SMILES IDX 59 87 55 88 56 89 57 90 58 91
REMARK H PARENT 8 14 82 44 50 55
REMARK Flexibility Score: inf
ROOT
ATOM      1  C   UNL A   1      33.519  29.172  25.535  1.00  0.00     0.275 C 
ENDROOT
BRANCH   1   2
ATOM      2  O   UNL A   1      32.775  27.961  25.737  1.00  0.00    -0.457 OA
BRANCH   2   3
ATOM      3  C   UNL A   1      33.058  26.976  24.843  1.00  0.00     0.357 C 
ATOM      4  O   UNL A   1      33.523  27.199  23.740  1.00  0.00    -0.244 OA
BRANCH   3   5
ATOM      5  C   UNL A   1      32.767  25.685  25.397  1.00  0.00     0.159 A 
ATOM      6  C   UNL A   1      35.108  24.613  25.378  1.00  0.00     0.174 C 
ATOM      7  N   UNL A   1      33.694  24.696  25.676  1.00  0.00    -0.261 N 
ATOM      8  N   UNL A   1      33.184  23.675  26.382  1.00  0.00    -0.180 NA
ATOM      9  C   UNL A   1      31.889  23.964  26.458  1.00  0.00     0.150 A 
ATOM     10  C   UNL A   1      31.531  25.154  25.767  1.00  0.00     0.092 A 
BRANCH  10  11
ATOM     11  C   UNL A   1      30.130  25.555  25.617  1.00  0.00     0.255 C 
ATOM     12  O   UNL A   1      29.374  25.430  26.580  1.00  0.00    -0.269 OA
ATOM     13  N   UNL A   1      29.526  25.828  24.403  1.00  0.00    -0.348 N 
ATOM     14  H   UNL A   1      28.693  25.331  24.230  1.00  0.00     0.164 HD
BRANCH  13  15
ATOM     15  C   UNL A   1      29.929  26.732  23.354  1.00  0.00     0.152 C 
BRANCH  15  16
ATOM     16  C   UNL A   1      29.285  28.106  23.374  1.00  0.00    -0.029 A 
ATOM     17  C   UNL A   1      30.034  29.275  23.561  1.00  0.00     0.008 A 
ATOM     18  C   UNL A   1      27.909  28.252  23.129  1.00  0.00     0.008 A 
ATOM     19  C   UNL A   1      29.416  30.535  23.500  1.00  0.00     0.039 A 
ATOM     20  C   UNL A   1      27.281  29.498  23.103  1.00  0.00     0.039 A 
ATOM     21  C   UNL A   1      28.047  30.633  23.279  1.00  0.00     0.123 A 
ATOM     22  F   UNL A   1      27.459  31.836  23.220  1.00  0.00    -0.207 F 
ENDBRANCH  15  16
ENDBRANCH  13  15
ENDBRANCH  10  11
ENDBRANCH   3   5
ENDBRANCH   2   3
ENDBRANCH   1   2
BRANCH   1  23
ATOM     23  C   UNL A   1      32.738  30.401  26.043  1.00  0.00     0.275 C 
BRANCH  23  24
ATOM     24  O   UNL A   1      33.025  30.667  27.435  1.00  0.00    -0.458 OA
BRANCH  24  25
ATOM     25  C   UNL A   1      33.944  31.647  27.676  1.00  0.00     0.338 C 
ATOM     26  O   UNL A   1      33.781  32.835  27.460  1.00  0.00    -0.246 OA
BRANCH  25  27
ATOM     27  C   UNL A   1      35.213  31.035  28.148  1.00  0.00     0.060 A 
ATOM     28  C   UNL A   1      35.256  29.728  28.637  1.00  0.00     0.016 A 
ATOM     29  C   UNL A   1      36.391  31.787  28.120  1.00  0.00     0.016 A 
ATOM     30  C   UNL A   1      36.484  29.154  29.020  1.00  0.00     0.010 A 
ATOM     31  C   UNL A   1      37.620  31.207  28.468  1.00  0.00     0.010 A 
ATOM     32  C   UNL A   1      37.680  29.886  28.937  1.00  0.00    -0.014 A 
BRANCH  32  33
ATOM     33  C   UNL A   1      38.947  29.366  29.538  1.00  0.00     0.031 A 
ATOM     34  C   UNL A   1      39.398  29.945  30.856  1.00  0.00     0.074 A 
ATOM     35  C   UNL A   1      39.708  28.421  28.949  1.00  0.00     0.049 A 
ATOM     36  N   UNL A   1      40.408  29.601  31.613  1.00  0.00    -0.248 NA
ATOM     37  C   UNL A   1      38.611  31.073  31.378  1.00  0.00     0.031 C 
ATOM     38  C   UNL A   1      39.437  27.794  27.660  1.00  0.00     0.029 A 
ATOM     39  N   UNL A   1      40.875  27.820  29.366  1.00  0.00    -0.354 N 
ATOM     40  C   UNL A   1      40.353  30.441  32.717  1.00  0.00     0.074 A 
ATOM     41  C   UNL A   1      39.269  31.370  32.487  1.00  0.00     0.031 C 
ATOM     42  C   UNL A   1      40.400  26.895  27.391  1.00  0.00     0.029 A 
ATOM     43  C   UNL A   1      41.360  26.869  28.494  1.00  0.00     0.049 A 
ATOM     44  H   UNL A   1      41.324  28.049  30.211  1.00  0.00     0.167 HD
ATOM     45  C   UNL A   1      41.103  30.423  33.845  1.00  0.00     0.034 A 
ATOM     46  C   UNL A   1      42.437  26.059  28.578  1.00  0.00     0.034 A 
ATOM     47  C   UNL A   1      42.202  29.524  34.074  1.00  0.00     0.049 A 
ATOM     48  C   UNL A   1      43.306  26.093  29.814  1.00  0.00     0.074 A 
ATOM     49  C   UNL A   1      43.001  29.409  35.198  1.00  0.00     0.029 A 
ATOM     50  N   UNL A   1      42.672  28.599  33.153  1.00  0.00    -0.354 N 
ATOM     51  N   UNL A   1      43.189  26.841  30.885  1.00  0.00    -0.248 NA
ATOM     52  C   UNL A   1      44.442  25.157  29.860  1.00  0.00     0.031 C 
ATOM     53  C   UNL A   1      43.990  28.457  34.935  1.00  0.00     0.029 A 
ATOM     54  C   UNL A   1      43.770  27.933  33.672  1.00  0.00     0.049 A 
ATOM     55  H   UNL A   1      42.283  28.441  32.263  1.00  0.00     0.167 HD
ATOM     56  C   UNL A   1      44.212  26.443  31.743  1.00  0.00     0.074 A 
ATOM     57  C   UNL A   1      44.944  25.395  31.066  1.00  0.00     0.031 C 
ATOM     58  C   UNL A   1      44.503  26.895  32.989  1.00  0.00     0.034 A 
BRANCH  45  59
ATOM     59  C   UNL A   1      40.741  31.417  34.915  1.00  0.00     0.023 A 
ATOM     60  C   UNL A   1      39.682  31.162  35.805  1.00  0.00     0.031 A 
ATOM     61  C   UNL A   1      41.423  32.638  35.024  1.00  0.00     0.131 A 
ATOM     62  C   UNL A   1      39.290  32.147  36.720  1.00  0.00     0.055 A 
ATOM     63  C   UNL A   1      41.074  33.586  35.987  1.00  0.00     0.041 A 
ATOM     64  F   UNL A   1      42.428  32.937  34.186  1.00  0.00    -0.206 F 
ATOM     65  C   UNL A   1      39.993  33.349  36.834  1.00  0.00     0.022 A 
BRANCH  62  66
ATOM     66  S   UNL A   1      37.778  31.880  37.684  1.00  0.00     0.124 S 
ATOM     67  O   UNL A   1      36.885  32.886  37.112  1.00  0.00    -0.237 OA
ATOM     68  O   UNL A   1      37.449  30.491  37.386  1.00  0.00    -0.237 OA
ATOM     69  O   UNL A   1      38.200  32.138  39.060  1.00  0.00    -0.744 OA
ENDBRANCH  62  66
ENDBRANCH  45  59
BRANCH  46  70
ATOM     70  C   UNL A   1      42.763  25.118  27.467  1.00  0.00     0.023 A 
ATOM     71  C   UNL A   1      42.222  23.822  27.427  1.00  0.00     0.031 A 
ATOM     72  C   UNL A   1      43.657  25.492  26.449  1.00  0.00     0.131 A 
ATOM     73  C   UNL A   1      42.603  22.935  26.407  1.00  0.00     0.055 A 
ATOM     74  C   UNL A   1      44.009  24.618  25.419  1.00  0.00     0.041 A 
ATOM     75  F   UNL A   1      44.203  26.719  26.444  1.00  0.00    -0.206 F 
ATOM     76  C   UNL A   1      43.484  23.328  25.397  1.00  0.00     0.022 A 
BRANCH  73  77
ATOM     77  S   UNL A   1      41.953  21.240  26.427  1.00  0.00     0.124 S 
ATOM     78  O   UNL A   1      42.739  20.609  25.374  1.00  0.00    -0.237 OA
ATOM     79  O   UNL A   1      42.246  20.813  27.791  1.00  0.00    -0.237 OA
ATOM     80  O   UNL A   1      40.533  21.417  26.126  1.00  0.00    -0.744 OA
ENDBRANCH  73  77
ENDBRANCH  46  70
BRANCH  58  81
ATOM     81  C   UNL A   1      45.641  26.244  33.732  1.00  0.00     0.023 A 
ATOM     82  C   UNL A   1      45.452  25.088  34.506  1.00  0.00     0.031 A 
ATOM     83  C   UNL A   1      46.947  26.748  33.593  1.00  0.00     0.131 A 
ATOM     84  C   UNL A   1      46.555  24.477  35.124  1.00  0.00     0.055 A 
ATOM     85  C   UNL A   1      48.043  26.114  34.177  1.00  0.00     0.041 A 
ATOM     86  F   UNL A   1      47.180  27.847  32.857  1.00  0.00    -0.206 F 
ATOM     87  C   UNL A   1      47.850  24.973  34.951  1.00  0.00     0.022 A 
BRANCH  84  88
ATOM     88  S   UNL A   1      46.279  23.021  36.171  1.00  0.00     0.124 S 
ATOM     89  O   UNL A   1      47.282  22.089  35.666  1.00  0.00    -0.237 OA
ATOM     90  O   UNL A   1      46.514  23.545  37.512  1.00  0.00    -0.237 OA
ATOM     91  O   UNL A   1      44.893  22.653  35.888  1.00  0.00    -0.744 OA
ENDBRANCH  84  88
ENDBRANCH  58  81
ENDBRANCH  32  33
ENDBRANCH  25  27
ENDBRANCH  24  25
ENDBRANCH  23  24
ENDBRANCH   1  23
TORSDOF 17
ENDMDL
MODEL 3
REMARK VINA RESULT:     -11.7      1.946      3.671
REMARK SMILES Cn1ncc(C(=O)NCc2ccc(F)cc2)c1C(=O)OCCOC(=O)c1ccc(-c2c3nc(c(-c4cc(S(=O)(=O)[O-])ccc4F)c4ccc([nH]4)c(-c4cc(S(=O)(=O)[O-])ccc4F)c4nc(c(-c5cc(S(=O)(=O)[O-])ccc5F)c5ccc2[nH]5)C=C4)C=C3)cc1
REMARK SMILES IDX 21 1 20 2 18 3 19 4 17 5 1 6 2 7 3 8 4 9 5 10 6 11 7 12 8 13
REMARK SMILES IDX 9 15 10 16 11 17 16 18 12 19 15 20 13 21 14 22 22 23 23 24
REMARK SMILES IDX 24 25 25 26 26 27 27 28 88 29 28 30 87 31 29 32 30 33 31 34
REMARK SMILES IDX 81 35 32 36 86 37 80 38 82 39 33 40 85 41 79 42 78 43 34 45
REMARK SMILES IDX 66 46 46 47 65 48 47 49 50 50 64 51 83 52 48 53 49 54 63 56
REMARK SMILES IDX 84 57 51 58 35 59 36 60 44 61 37 62 43 63 45 64 42 65 38 66
REMARK SMILES IDX 39 67 40 68 41 69 67 70 68 71 76 72 69 73 75 74 77 75 74 76
REMARK SMILES IDX 70 77 71 78 72 79 73 80 52 81 53 82 61 83 54 84 60 85 62 86
REMARK SMILES IDX 59 87 55 88 56 89 57 90 58 91
REMARK H PARENT 8 14 82 44 50 55
REMARK Flexibility Score: inf
ROOT
ATOM      1  C   UNL A   1      36.778  21.047  24.639  1.00  0.00     0.275 C 
ENDROOT
BRANCH   1   2
ATOM      2  O   UNL A   1      35.647  20.287  25.092  1.00  0.00    -0.457 OA
BRANCH   2   3
ATOM      3  C   UNL A   1      34.600  21.044  25.518  1.00  0.00     0.357 C 
ATOM      4  O   UNL A   1      34.473  21.404  26.675  1.00  0.00    -0.244 OA
BRANCH   3   5
ATOM      5  C   UNL A   1      33.726  21.368  24.428  1.00  0.00     0.159 A 
ATOM      6  C   UNL A   1      32.585  19.093  24.033  1.00  0.00     0.174 C 
ATOM      7  N   UNL A   1      32.813  20.509  23.841  1.00  0.00    -0.261 N 
ATOM      8  N   UNL A   1      31.978  21.126  22.989  1.00  0.00    -0.180 NA
ATOM      9  C   UNL A   1      32.437  22.372  22.948  1.00  0.00     0.150 A 
ATOM     10  C   UNL A   1      33.602  22.575  23.739  1.00  0.00     0.092 A 
BRANCH  10  11
ATOM     11  C   UNL A   1      34.334  23.843  23.705  1.00  0.00     0.255 C 
ATOM     12  O   UNL A   1      34.818  24.216  22.636  1.00  0.00    -0.269 OA
ATOM     13  N   UNL A   1      34.742  24.535  24.830  1.00  0.00    -0.348 N 
ATOM     14  H   UNL A   1      35.699  24.766  24.854  1.00  0.00     0.164 HD
BRANCH  13  15
ATOM     15  C   UNL A   1      33.979  24.971  25.974  1.00  0.00     0.152 C 
BRANCH  15  16
ATOM     16  C   UNL A   1      33.203  26.264  25.803  1.00  0.00    -0.029 A 
ATOM     17  C   UNL A   1      33.844  27.499  25.641  1.00  0.00     0.008 A 
ATOM     18  C   UNL A   1      31.799  26.249  25.728  1.00  0.00     0.008 A 
ATOM     19  C   UNL A   1      33.095  28.665  25.411  1.00  0.00     0.039 A 
ATOM     20  C   UNL A   1      31.047  27.409  25.536  1.00  0.00     0.039 A 
ATOM     21  C   UNL A   1      31.707  28.610  25.368  1.00  0.00     0.123 A 
ATOM     22  F   UNL A   1      30.995  29.723  25.148  1.00  0.00    -0.207 F 
ENDBRANCH  15  16
ENDBRANCH  13  15
ENDBRANCH  10  11
ENDBRANCH   3   5
ENDBRANCH   2   3
ENDBRANCH   1   2
BRANCH   1  23
ATOM     23  C   UNL A   1      38.063  20.638  25.388  1.00  0.00     0.275 C 
BRANCH  23  24
ATOM     24  O   UNL A   1      38.969  21.757  25.526  1.00  0.00    -0.458 OA
BRANCH  24  25
ATOM     25  C   UNL A   1      39.816  21.707  26.594  1.00  0.00     0.338 C 
ATOM     26  O   UNL A   1      40.205  20.690  27.140  1.00  0.00    -0.246 OA
BRANCH  25  27
ATOM     27  C   UNL A   1      40.117  23.087  27.056  1.00  0.00     0.060 A 
ATOM     28  C   UNL A   1      39.430  24.192  26.550  1.00  0.00     0.016 A 
ATOM     29  C   UNL A   1      41.123  23.291  28.005  1.00  0.00     0.016 A 
ATOM     30  C   UNL A   1      39.695  25.482  27.052  1.00  0.00     0.010 A 
ATOM     31  C   UNL A   1      41.364  24.568  28.531  1.00  0.00     0.010 A 
ATOM     32  C   UNL A   1      40.663  25.684  28.050  1.00  0.00    -0.014 A 
BRANCH  32  33
ATOM     33  C   UNL A   1      41.101  27.061  28.432  1.00  0.00     0.031 A 
ATOM     34  C   UNL A   1      42.533  27.452  28.165  1.00  0.00     0.074 A 
ATOM     35  C   UNL A   1      40.283  27.959  29.019  1.00  0.00     0.049 A 
ATOM     36  N   UNL A   1      43.125  28.608  28.327  1.00  0.00    -0.248 NA
ATOM     37  C   UNL A   1      43.417  26.389  27.661  1.00  0.00     0.031 C 
ATOM     38  C   UNL A   1      38.889  27.725  29.384  1.00  0.00     0.029 A 
ATOM     39  N   UNL A   1      40.511  29.259  29.413  1.00  0.00    -0.354 N 
ATOM     40  C   UNL A   1      44.436  28.421  27.909  1.00  0.00     0.074 A 
ATOM     41  C   UNL A   1      44.576  27.020  27.574  1.00  0.00     0.031 C 
ATOM     42  C   UNL A   1      38.383  28.840  29.940  1.00  0.00     0.029 A 
ATOM     43  C   UNL A   1      39.411  29.879  29.967  1.00  0.00     0.049 A 
ATOM     44  H   UNL A   1      41.381  29.706  29.309  1.00  0.00     0.167 HD
ATOM     45  C   UNL A   1      45.428  29.332  27.770  1.00  0.00     0.034 A 
ATOM     46  C   UNL A   1      39.243  31.139  30.424  1.00  0.00     0.034 A 
ATOM     47  C   UNL A   1      45.310  30.720  28.126  1.00  0.00     0.049 A 
ATOM     48  C   UNL A   1      40.379  32.130  30.325  1.00  0.00     0.074 A 
ATOM     49  C   UNL A   1      46.250  31.726  27.993  1.00  0.00     0.029 A 
ATOM     50  N   UNL A   1      44.189  31.295  28.708  1.00  0.00    -0.354 N 
ATOM     51  N   UNL A   1      41.589  31.954  29.850  1.00  0.00    -0.248 NA
ATOM     52  C   UNL A   1      40.119  33.497  30.806  1.00  0.00     0.031 C 
ATOM     53  C   UNL A   1      45.721  32.896  28.547  1.00  0.00     0.029 A 
ATOM     54  C   UNL A   1      44.427  32.634  28.968  1.00  0.00     0.049 A 
ATOM     55  H   UNL A   1      43.350  30.821  28.906  1.00  0.00     0.167 HD
ATOM     56  C   UNL A   1      42.220  33.193  29.943  1.00  0.00     0.074 A 
ATOM     57  C   UNL A   1      41.264  34.109  30.526  1.00  0.00     0.031 C 
ATOM     58  C   UNL A   1      43.474  33.541  29.560  1.00  0.00     0.034 A 
BRANCH  45  59
ATOM     59  C   UNL A   1      46.729  28.834  27.202  1.00  0.00     0.023 A 
ATOM     60  C   UNL A   1      46.853  28.552  25.829  1.00  0.00     0.031 A 
ATOM     61  C   UNL A   1      47.836  28.602  28.031  1.00  0.00     0.131 A 
ATOM     62  C   UNL A   1      48.036  27.985  25.339  1.00  0.00     0.055 A 
ATOM     63  C   UNL A   1      49.038  28.105  27.524  1.00  0.00     0.041 A 
ATOM     64  F   UNL A   1      47.763  28.837  29.351  1.00  0.00    -0.206 F 
ATOM     65  C   UNL A   1      49.139  27.781  26.172  1.00  0.00     0.022 A 
BRANCH  62  66
ATOM     66  S   UNL A   1      48.076  27.416  23.618  1.00  0.00     0.124 S 
ATOM     67  O   UNL A   1      49.433  27.786  23.220  1.00  0.00    -0.237 OA
ATOM     68  O   UNL A   1      47.815  25.988  23.747  1.00  0.00    -0.237 OA
ATOM     69  O   UNL A   1      47.012  28.188  22.978  1.00  0.00    -0.744 OA
ENDBRANCH  62  66
ENDBRANCH  45  59
BRANCH  46  70
ATOM     70  C   UNL A   1      37.938  31.561  31.009  1.00  0.00     0.023 A 
ATOM     71  C   UNL A   1      36.955  32.188  30.223  1.00  0.00     0.031 A 
ATOM     72  C   UNL A   1      37.673  31.380  32.378  1.00  0.00     0.131 A 
ATOM     73  C   UNL A   1      35.765  32.638  30.818  1.00  0.00     0.055 A 
ATOM     74  C   UNL A   1      36.475  31.801  32.959  1.00  0.00     0.041 A 
ATOM     75  F   UNL A   1      38.581  30.789  33.171  1.00  0.00    -0.206 F 
ATOM     76  C   UNL A   1      35.514  32.439  32.178  1.00  0.00     0.022 A 
BRANCH  73  77
ATOM     77  S   UNL A   1      34.551  33.518  29.796  1.00  0.00     0.124 S 
ATOM     78  O   UNL A   1      33.978  32.430  29.013  1.00  0.00    -0.237 OA
ATOM     79  O   UNL A   1      33.676  34.115  30.800  1.00  0.00    -0.237 OA
ATOM     80  O   UNL A   1      35.366  34.470  29.042  1.00  0.00    -0.744 OA
ENDBRANCH  73  77
ENDBRANCH  46  70
BRANCH  58  81
ATOM     81  C   UNL A   1      43.891  34.980  29.719  1.00  0.00     0.023 A 
ATOM     82  C   UNL A   1      43.637  35.938  28.724  1.00  0.00     0.031 A 
ATOM     83  C   UNL A   1      44.479  35.409  30.923  1.00  0.00     0.131 A 
ATOM     84  C   UNL A   1      43.982  37.281  28.947  1.00  0.00     0.055 A 
ATOM     85  C   UNL A   1      44.783  36.750  31.154  1.00  0.00     0.041 A 
ATOM     86  F   UNL A   1      44.735  34.532  31.908  1.00  0.00    -0.206 F 
ATOM     87  C   UNL A   1      44.537  37.694  30.161  1.00  0.00     0.022 A 
BRANCH  84  88
ATOM     88  S   UNL A   1      43.703  38.490  27.623  1.00  0.00     0.124 S 
ATOM     89  O   UNL A   1      42.722  37.803  26.788  1.00  0.00    -0.237 OA
ATOM     90  O   UNL A   1      43.213  39.654  28.355  1.00  0.00    -0.237 OA
ATOM     91  O   UNL A   1      45.025  38.652  27.022  1.00  0.00    -0.744 OA
ENDBRANCH  84  88
ENDBRANCH  58  81
ENDBRANCH  32  33
ENDBRANCH  25  27
ENDBRANCH  24  25
ENDBRANCH  23  24
ENDBRANCH   1  23
TORSDOF 17
ENDMDL
