MODEL 1
REMARK VINA RESULT:      -9.6      0.000      0.000
REMARK SMILES CC(C)Cc1ccc([C@H](CF)C(=O)OCCOC(=O)c2ccc(-c3c4nc(c(-c5cc(S(=O)(=O)[O-])ccc5F)c5ccc([nH]5)c(-c5cc(S(=O)(=O)[O-])ccc5F)c5nc(c(-c6cc(S(=O)(=O)[O-])ccc6F)c6ccc3[nH]6)C=C5)C=C4)cc2)cc1
REMARK SMILES IDX 15 1 14 2 12 3 13 4 9 5 8 6 5 7 6 8 84 9 7 10 83 11 4 12
REMARK SMILES IDX 2 13 1 14 3 15 10 16 11 17 16 18 17 19 18 20 19 21 20 22
REMARK SMILES IDX 21 23 82 24 22 25 81 26 23 27 24 28 25 29 75 30 26 31 80 32
REMARK SMILES IDX 74 33 76 34 27 35 79 36 73 37 72 38 28 40 60 41 40 42 59 43
REMARK SMILES IDX 41 44 44 45 58 46 77 47 42 48 43 49 57 51 78 52 45 53 29 54
REMARK SMILES IDX 30 55 38 56 31 57 37 58 39 59 36 60 32 61 33 62 34 63 35 64
REMARK SMILES IDX 61 65 62 66 70 67 63 68 69 69 71 70 68 71 64 72 65 73 66 74
REMARK SMILES IDX 67 75 46 76 47 77 55 78 48 79 54 80 56 81 53 82 49 83 50 84
REMARK SMILES IDX 51 85 52 86
REMARK H PARENT 76 39 44 50
REMARK Flexibility Score: inf
ROOT
ATOM      1  C   UNL A   1      42.441  19.708  26.080  1.00  0.00     0.274 C 
ENDROOT
BRANCH   1   2
ATOM      2  O   UNL A   1      42.946  20.849  25.357  1.00  0.00    -0.462 OA
BRANCH   2   3
ATOM      3  C   UNL A   1      44.302  20.950  25.285  1.00  0.00     0.316 C 
ATOM      4  O   UNL A   1      45.058  19.987  25.368  1.00  0.00    -0.251 OA
BRANCH   3   5
ATOM      5  C   UNL A   1      44.796  22.381  25.120  1.00  0.00     0.160 C 
BRANCH   5   6
ATOM      6  C   UNL A   1      45.287  23.031  26.416  1.00  0.00    -0.031 A 
ATOM      7  C   UNL A   1      45.973  24.526  28.734  1.00  0.00    -0.048 A 
ATOM      8  C   UNL A   1      44.853  23.692  28.727  1.00  0.00     0.004 A 
ATOM      9  C   UNL A   1      46.774  24.578  27.592  1.00  0.00     0.004 A 
ATOM     10  C   UNL A   1      44.507  22.972  27.581  1.00  0.00     0.005 A 
ATOM     11  C   UNL A   1      46.436  23.841  26.451  1.00  0.00     0.005 A 
BRANCH   7  12
ATOM     12  C   UNL A   1      46.267  25.403  29.925  1.00  0.00     0.038 C 
BRANCH  12  13
ATOM     13  C   UNL A   1      45.017  25.774  30.754  1.00  0.00    -0.013 C 
ATOM     14  C   UNL A   1      45.061  25.221  32.183  1.00  0.00     0.008 C 
ATOM     15  C   UNL A   1      44.872  27.297  30.808  1.00  0.00     0.008 C 
ENDBRANCH  12  13
ENDBRANCH   7  12
ENDBRANCH   5   6
BRANCH   5  16
ATOM     16  C   UNL A   1      43.792  23.201  24.306  1.00  0.00     0.234 C 
ATOM     17  F   UNL A   1      42.829  23.707  25.131  1.00  0.00    -0.250 F 
ENDBRANCH   5  16
ENDBRANCH   3   5
ENDBRANCH   2   3
ENDBRANCH   1   2
BRANCH   1  18
ATOM     18  C   UNL A   1      40.910  19.710  26.183  1.00  0.00     0.275 C 
BRANCH  18  19
ATOM     19  O   UNL A   1      40.420  20.733  27.068  1.00  0.00    -0.458 OA
BRANCH  19  20
ATOM     20  C   UNL A   1      39.545  21.603  26.510  1.00  0.00     0.338 C 
ATOM     21  O   UNL A   1      38.568  21.324  25.838  1.00  0.00    -0.246 OA
BRANCH  20  22
ATOM     22  C   UNL A   1      39.858  22.975  26.936  1.00  0.00     0.060 A 
ATOM     23  C   UNL A   1      39.328  24.038  26.199  1.00  0.00     0.016 A 
ATOM     24  C   UNL A   1      40.740  23.212  27.991  1.00  0.00     0.016 A 
ATOM     25  C   UNL A   1      39.678  25.349  26.509  1.00  0.00     0.010 A 
ATOM     26  C   UNL A   1      41.088  24.529  28.301  1.00  0.00     0.010 A 
ATOM     27  C   UNL A   1      40.568  25.602  27.556  1.00  0.00    -0.014 A 
BRANCH  27  28
ATOM     28  C   UNL A   1      41.022  26.985  27.832  1.00  0.00     0.031 A 
ATOM     29  C   UNL A   1      42.445  27.361  27.540  1.00  0.00     0.074 A 
ATOM     30  C   UNL A   1      40.168  27.887  28.349  1.00  0.00     0.049 A 
ATOM     31  N   UNL A   1      43.102  28.443  27.861  1.00  0.00    -0.248 NA
ATOM     32  C   UNL A   1      43.234  26.372  26.790  1.00  0.00     0.031 C 
ATOM     33  C   UNL A   1      38.745  27.656  28.595  1.00  0.00     0.029 A 
ATOM     34  N   UNL A   1      40.379  29.174  28.771  1.00  0.00    -0.354 N 
ATOM     35  C   UNL A   1      44.393  28.258  27.378  1.00  0.00     0.074 A 
ATOM     36  C   UNL A   1      44.425  26.950  26.759  1.00  0.00     0.031 C 
ATOM     37  C   UNL A   1      38.212  28.765  29.136  1.00  0.00     0.029 A 
ATOM     38  C   UNL A   1      39.267  29.755  29.334  1.00  0.00     0.049 A 
ATOM     39  H   UNL A   1      41.243  29.637  28.682  1.00  0.00     0.167 HD
ATOM     40  C   UNL A   1      45.450  29.107  27.452  1.00  0.00     0.034 A 
ATOM     41  C   UNL A   1      39.130  30.931  29.976  1.00  0.00     0.034 A 
ATOM     42  C   UNL A   1      45.387  30.406  28.077  1.00  0.00     0.049 A 
ATOM     43  C   UNL A   1      40.344  31.809  30.149  1.00  0.00     0.074 A 
ATOM     44  C   UNL A   1      46.387  31.354  28.206  1.00  0.00     0.029 A 
ATOM     45  N   UNL A   1      44.257  30.937  28.690  1.00  0.00    -0.354 N 
ATOM     46  N   UNL A   1      41.572  31.612  29.728  1.00  0.00    -0.248 NA
ATOM     47  C   UNL A   1      40.155  33.060  30.893  1.00  0.00     0.031 C 
ATOM     48  C   UNL A   1      45.882  32.426  28.951  1.00  0.00     0.029 A 
ATOM     49  C   UNL A   1      44.546  32.182  29.227  1.00  0.00     0.049 A 
ATOM     50  H   UNL A   1      43.380  30.493  28.735  1.00  0.00     0.167 HD
ATOM     51  C   UNL A   1      42.295  32.732  30.127  1.00  0.00     0.074 A 
ATOM     52  C   UNL A   1      41.366  33.598  30.826  1.00  0.00     0.031 C 
ATOM     53  C   UNL A   1      43.605  33.025  29.927  1.00  0.00     0.034 A 
BRANCH  40  54
ATOM     54  C   UNL A   1      46.768  28.612  26.909  1.00  0.00     0.023 A 
ATOM     55  C   UNL A   1      47.003  28.479  25.529  1.00  0.00     0.031 A 
ATOM     56  C   UNL A   1      47.786  28.206  27.790  1.00  0.00     0.131 A 
ATOM     57  C   UNL A   1      48.187  27.878  25.075  1.00  0.00     0.055 A 
ATOM     58  C   UNL A   1      48.997  27.686  27.330  1.00  0.00     0.041 A 
ATOM     59  F   UNL A   1      47.612  28.287  29.119  1.00  0.00    -0.206 F 
ATOM     60  C   UNL A   1      49.196  27.501  25.965  1.00  0.00     0.022 A 
BRANCH  57  61
ATOM     61  S   UNL A   1      48.322  27.442  23.318  1.00  0.00     0.124 S 
ATOM     62  O   UNL A   1      47.159  28.126  22.754  1.00  0.00    -0.237 OA
ATOM     63  O   UNL A   1      49.623  27.990  22.957  1.00  0.00    -0.237 OA
ATOM     64  O   UNL A   1      48.235  25.984  23.319  1.00  0.00    -0.744 OA
ENDBRANCH  57  61
ENDBRANCH  40  54
BRANCH  41  65
ATOM     65  C   UNL A   1      37.815  31.324  30.556  1.00  0.00     0.023 A 
ATOM     66  C   UNL A   1      36.880  32.046  29.799  1.00  0.00     0.031 A 
ATOM     67  C   UNL A   1      37.488  31.012  31.889  1.00  0.00     0.131 A 
ATOM     68  C   UNL A   1      35.675  32.459  30.389  1.00  0.00     0.055 A 
ATOM     69  C   UNL A   1      36.270  31.385  32.456  1.00  0.00     0.041 A 
ATOM     70  F   UNL A   1      38.350  30.326  32.657  1.00  0.00    -0.206 F 
ATOM     71  C   UNL A   1      35.358  32.122  31.706  1.00  0.00     0.022 A 
BRANCH  68  72
ATOM     72  S   UNL A   1      34.551  33.506  29.424  1.00  0.00     0.124 S 
ATOM     73  O   UNL A   1      33.980  32.546  28.487  1.00  0.00    -0.237 OA
ATOM     74  O   UNL A   1      33.651  34.014  30.454  1.00  0.00    -0.237 OA
ATOM     75  O   UNL A   1      35.441  34.503  28.832  1.00  0.00    -0.744 OA
ENDBRANCH  68  72
ENDBRANCH  41  65
BRANCH  53  76
ATOM     76  C   UNL A   1      44.087  34.366  30.420  1.00  0.00     0.023 A 
ATOM     77  C   UNL A   1      43.943  35.535  29.654  1.00  0.00     0.031 A 
ATOM     78  C   UNL A   1      44.702  34.466  31.681  1.00  0.00     0.131 A 
ATOM     79  C   UNL A   1      44.443  36.752  30.142  1.00  0.00     0.055 A 
ATOM     80  C   UNL A   1      45.155  35.688  32.181  1.00  0.00     0.041 A 
ATOM     81  F   UNL A   1      44.866  33.378  32.449  1.00  0.00    -0.206 F 
ATOM     82  C   UNL A   1      45.035  36.839  31.407  1.00  0.00     0.022 A 
BRANCH  79  83
ATOM     83  S   UNL A   1      44.367  38.219  29.077  1.00  0.00     0.124 S 
ATOM     84  O   UNL A   1      43.729  39.197  29.953  1.00  0.00    -0.237 OA
ATOM     85  O   UNL A   1      45.773  38.458  28.770  1.00  0.00    -0.237 OA
ATOM     86  O   UNL A   1      43.555  37.778  27.944  1.00  0.00    -0.744 OA
ENDBRANCH  79  83
ENDBRANCH  53  76
ENDBRANCH  27  28
ENDBRANCH  20  22
ENDBRANCH  19  20
ENDBRANCH  18  19
ENDBRANCH   1  18
TORSDOF 18
ENDMDL
MODEL 2
REMARK VINA RESULT:      -8.6      2.484      2.819
REMARK SMILES CC(C)Cc1ccc([C@H](CF)C(=O)OCCOC(=O)c2ccc(-c3c4nc(c(-c5cc(S(=O)(=O)[O-])ccc5F)c5ccc([nH]5)c(-c5cc(S(=O)(=O)[O-])ccc5F)c5nc(c(-c6cc(S(=O)(=O)[O-])ccc6F)c6ccc3[nH]6)C=C5)C=C4)cc2)cc1
REMARK SMILES IDX 15 1 14 2 12 3 13 4 9 5 8 6 5 7 6 8 84 9 7 10 83 11 4 12
REMARK SMILES IDX 2 13 1 14 3 15 10 16 11 17 16 18 17 19 18 20 19 21 20 22
REMARK SMILES IDX 21 23 82 24 22 25 81 26 23 27 24 28 25 29 75 30 26 31 80 32
REMARK SMILES IDX 74 33 76 34 27 35 79 36 73 37 72 38 28 40 60 41 40 42 59 43
REMARK SMILES IDX 41 44 44 45 58 46 77 47 42 48 43 49 57 51 78 52 45 53 29 54
REMARK SMILES IDX 30 55 38 56 31 57 37 58 39 59 36 60 32 61 33 62 34 63 35 64
REMARK SMILES IDX 61 65 62 66 70 67 63 68 69 69 71 70 68 71 64 72 65 73 66 74
REMARK SMILES IDX 67 75 46 76 47 77 55 78 48 79 54 80 56 81 53 82 49 83 50 84
REMARK SMILES IDX 51 85 52 86
REMARK H PARENT 76 39 44 50
REMARK Flexibility Score: inf
ROOT
ATOM      1  C   UNL A   1      43.201  20.181  25.855  1.00  0.00     0.274 C 
ENDROOT
BRANCH   1   2
ATOM      2  O   UNL A   1      43.803  21.129  24.950  1.00  0.00    -0.462 OA
BRANCH   2   3
ATOM      3  C   UNL A   1      45.052  21.554  25.286  1.00  0.00     0.316 C 
ATOM      4  O   UNL A   1      45.996  20.796  25.480  1.00  0.00    -0.251 OA
BRANCH   3   5
ATOM      5  C   UNL A   1      45.161  23.067  25.423  1.00  0.00     0.160 C 
BRANCH   5   6
ATOM      6  C   UNL A   1      45.391  23.555  26.856  1.00  0.00    -0.031 A 
ATOM      7  C   UNL A   1      45.611  24.759  29.421  1.00  0.00    -0.048 A 
ATOM      8  C   UNL A   1      44.516  23.954  29.101  1.00  0.00     0.004 A 
ATOM      9  C   UNL A   1      46.618  24.925  28.468  1.00  0.00     0.004 A 
ATOM     10  C   UNL A   1      44.400  23.377  27.834  1.00  0.00     0.005 A 
ATOM     11  C   UNL A   1      46.509  24.332  27.206  1.00  0.00     0.005 A 
BRANCH   7  12
ATOM     12  C   UNL A   1      45.667  25.487  30.740  1.00  0.00     0.038 C 
BRANCH  12  13
ATOM     13  C   UNL A   1      44.303  25.591  31.458  1.00  0.00    -0.013 C 
ATOM     14  C   UNL A   1      44.402  25.353  32.968  1.00  0.00     0.008 C 
ATOM     15  C   UNL A   1      43.694  26.972  31.204  1.00  0.00     0.008 C 
ENDBRANCH  12  13
ENDBRANCH   7  12
ENDBRANCH   5   6
BRANCH   5  16
ATOM     16  C   UNL A   1      44.024  23.756  24.663  1.00  0.00     0.234 C 
ATOM     17  F   UNL A   1      43.873  25.035  25.114  1.00  0.00    -0.250 F 
ENDBRANCH   5  16
ENDBRANCH   3   5
ENDBRANCH   2   3
ENDBRANCH   1   2
BRANCH   1  18
ATOM     18  C   UNL A   1      41.889  20.698  26.458  1.00  0.00     0.275 C 
BRANCH  18  19
ATOM     19  O   UNL A   1      41.515  21.987  25.939  1.00  0.00    -0.458 OA
BRANCH  19  20
ATOM     20  C   UNL A   1      40.314  22.449  26.361  1.00  0.00     0.338 C 
ATOM     21  O   UNL A   1      39.281  21.810  26.456  1.00  0.00    -0.246 OA
BRANCH  20  22
ATOM     22  C   UNL A   1      40.444  23.836  26.829  1.00  0.00     0.060 A 
ATOM     23  C   UNL A   1      40.537  24.854  25.875  1.00  0.00     0.016 A 
ATOM     24  C   UNL A   1      40.570  24.123  28.188  1.00  0.00     0.016 A 
ATOM     25  C   UNL A   1      40.758  26.169  26.272  1.00  0.00     0.010 A 
ATOM     26  C   UNL A   1      40.792  25.444  28.585  1.00  0.00     0.010 A 
ATOM     27  C   UNL A   1      40.897  26.471  27.630  1.00  0.00    -0.014 A 
BRANCH  27  28
ATOM     28  C   UNL A   1      41.230  27.849  28.058  1.00  0.00     0.031 A 
ATOM     29  C   UNL A   1      42.666  28.285  28.075  1.00  0.00     0.074 A 
ATOM     30  C   UNL A   1      40.254  28.694  28.436  1.00  0.00     0.049 A 
ATOM     31  N   UNL A   1      43.200  29.368  28.574  1.00  0.00    -0.248 NA
ATOM     32  C   UNL A   1      43.628  27.365  27.451  1.00  0.00     0.031 C 
ATOM     33  C   UNL A   1      38.821  28.406  28.380  1.00  0.00     0.029 A 
ATOM     34  N   UNL A   1      40.323  29.962  28.954  1.00  0.00    -0.354 N 
ATOM     35  C   UNL A   1      44.568  29.250  28.351  1.00  0.00     0.074 A 
ATOM     36  C   UNL A   1      44.777  27.980  27.688  1.00  0.00     0.031 C 
ATOM     37  C   UNL A   1      38.145  29.466  28.857  1.00  0.00     0.029 A 
ATOM     38  C   UNL A   1      39.098  30.475  29.310  1.00  0.00     0.049 A 
ATOM     39  H   UNL A   1      41.167  30.456  29.062  1.00  0.00     0.167 HD
ATOM     40  C   UNL A   1      45.553  30.126  28.676  1.00  0.00     0.034 A 
ATOM     41  C   UNL A   1      38.787  31.609  29.968  1.00  0.00     0.034 A 
ATOM     42  C   UNL A   1      45.314  31.386  29.338  1.00  0.00     0.049 A 
ATOM     43  C   UNL A   1      39.906  32.513  30.423  1.00  0.00     0.074 A 
ATOM     44  C   UNL A   1      46.228  32.355  29.710  1.00  0.00     0.029 A 
ATOM     45  N   UNL A   1      44.064  31.846  29.737  1.00  0.00    -0.354 N 
ATOM     46  N   UNL A   1      41.200  32.379  30.247  1.00  0.00    -0.248 NA
ATOM     47  C   UNL A   1      39.521  33.715  31.174  1.00  0.00     0.031 C 
ATOM     48  C   UNL A   1      45.541  33.368  30.390  1.00  0.00     0.029 A 
ATOM     49  C   UNL A   1      44.188  33.068  30.381  1.00  0.00     0.049 A 
ATOM     50  H   UNL A   1      43.214  31.374  29.583  1.00  0.00     0.167 HD
ATOM     51  C   UNL A   1      41.782  33.497  30.837  1.00  0.00     0.074 A 
ATOM     52  C   UNL A   1      40.697  34.293  31.376  1.00  0.00     0.031 C 
ATOM     53  C   UNL A   1      43.092  33.841  30.917  1.00  0.00     0.034 A 
BRANCH  40  54
ATOM     54  C   UNL A   1      46.972  29.703  28.384  1.00  0.00     0.023 A 
ATOM     55  C   UNL A   1      47.683  28.839  29.235  1.00  0.00     0.031 A 
ATOM     56  C   UNL A   1      47.647  30.226  27.266  1.00  0.00     0.131 A 
ATOM     57  C   UNL A   1      49.045  28.590  29.002  1.00  0.00     0.055 A 
ATOM     58  C   UNL A   1      48.979  29.909  26.993  1.00  0.00     0.041 A 
ATOM     59  F   UNL A   1      47.029  31.075  26.429  1.00  0.00    -0.206 F 
ATOM     60  C   UNL A   1      49.692  29.101  27.875  1.00  0.00     0.022 A 
BRANCH  57  61
ATOM     61  S   UNL A   1      50.001  27.728  30.281  1.00  0.00     0.124 S 
ATOM     62  O   UNL A   1      50.973  26.991  29.476  1.00  0.00    -0.237 OA
ATOM     63  O   UNL A   1      50.531  28.830  31.074  1.00  0.00    -0.237 OA
ATOM     64  O   UNL A   1      49.004  26.897  30.953  1.00  0.00    -0.744 OA
ENDBRANCH  57  61
ENDBRANCH  40  54
BRANCH  41  65
ATOM     65  C   UNL A   1      37.368  31.929  30.291  1.00  0.00     0.023 A 
ATOM     66  C   UNL A   1      36.557  32.614  29.375  1.00  0.00     0.031 A 
ATOM     67  C   UNL A   1      36.813  31.581  31.536  1.00  0.00     0.131 A 
ATOM     68  C   UNL A   1      35.243  32.959  29.729  1.00  0.00     0.055 A 
ATOM     69  C   UNL A   1      35.492  31.885  31.865  1.00  0.00     0.041 A 
ATOM     70  F   UNL A   1      37.549  30.927  32.450  1.00  0.00    -0.206 F 
ATOM     71  C   UNL A   1      34.701  32.587  30.961  1.00  0.00     0.022 A 
BRANCH  68  72
ATOM     72  S   UNL A   1      34.269  33.963  28.574  1.00  0.00     0.124 S 
ATOM     73  O   UNL A   1      35.078  35.172  28.475  1.00  0.00    -0.237 OA
ATOM     74  O   UNL A   1      34.233  33.114  27.389  1.00  0.00    -0.237 OA
ATOM     75  O   UNL A   1      32.989  34.124  29.262  1.00  0.00    -0.744 OA
ENDBRANCH  68  72
ENDBRANCH  41  65
BRANCH  53  76
ATOM     76  C   UNL A   1      43.411  35.166  31.561  1.00  0.00     0.023 A 
ATOM     77  C   UNL A   1      43.503  35.312  32.956  1.00  0.00     0.031 A 
ATOM     78  C   UNL A   1      43.627  36.300  30.757  1.00  0.00     0.131 A 
ATOM     79  C   UNL A   1      43.765  36.576  33.507  1.00  0.00     0.055 A 
ATOM     80  C   UNL A   1      43.935  37.544  31.310  1.00  0.00     0.041 A 
ATOM     81  F   UNL A   1      43.548  36.214  29.420  1.00  0.00    -0.206 F 
ATOM     82  C   UNL A   1      43.997  37.689  32.693  1.00  0.00     0.022 A 
BRANCH  79  83
ATOM     83  S   UNL A   1      43.742  36.764  35.312  1.00  0.00     0.124 S 
ATOM     84  O   UNL A   1      43.758  38.215  35.465  1.00  0.00    -0.237 OA
ATOM     85  O   UNL A   1      42.499  36.097  35.682  1.00  0.00    -0.237 OA
ATOM     86  O   UNL A   1      44.961  36.081  35.744  1.00  0.00    -0.744 OA
ENDBRANCH  79  83
ENDBRANCH  53  76
ENDBRANCH  27  28
ENDBRANCH  20  22
ENDBRANCH  19  20
ENDBRANCH  18  19
ENDBRANCH   1  18
TORSDOF 18
ENDMDL
MODEL 3
REMARK VINA RESULT:      -8.5      3.466      9.723
REMARK SMILES CC(C)Cc1ccc([C@H](CF)C(=O)OCCOC(=O)c2ccc(-c3c4nc(c(-c5cc(S(=O)(=O)[O-])ccc5F)c5ccc([nH]5)c(-c5cc(S(=O)(=O)[O-])ccc5F)c5nc(c(-c6cc(S(=O)(=O)[O-])ccc6F)c6ccc3[nH]6)C=C5)C=C4)cc2)cc1
REMARK SMILES IDX 15 1 14 2 12 3 13 4 9 5 8 6 5 7 6 8 84 9 7 10 83 11 4 12
REMARK SMILES IDX 2 13 1 14 3 15 10 16 11 17 16 18 17 19 18 20 19 21 20 22
REMARK SMILES IDX 21 23 82 24 22 25 81 26 23 27 24 28 25 29 75 30 26 31 80 32
REMARK SMILES IDX 74 33 76 34 27 35 79 36 73 37 72 38 28 40 60 41 40 42 59 43
REMARK SMILES IDX 41 44 44 45 58 46 77 47 42 48 43 49 57 51 78 52 45 53 29 54
REMARK SMILES IDX 30 55 38 56 31 57 37 58 39 59 36 60 32 61 33 62 34 63 35 64
REMARK SMILES IDX 61 65 62 66 70 67 63 68 69 69 71 70 68 71 64 72 65 73 66 74
REMARK SMILES IDX 67 75 46 76 47 77 55 78 48 79 54 80 56 81 53 82 49 83 50 84
REMARK SMILES IDX 51 85 52 86
REMARK H PARENT 76 39 44 50
REMARK Flexibility Score: inf
ROOT
ATOM      1  C   UNL A   1      35.290  21.409  24.896  1.00  0.00     0.274 C 
ENDROOT
BRANCH   1   2
ATOM      2  O   UNL A   1      34.185  20.488  24.801  1.00  0.00    -0.462 OA
BRANCH   2   3
ATOM      3  C   UNL A   1      32.955  21.054  24.656  1.00  0.00     0.316 C 
ATOM      4  O   UNL A   1      31.981  20.738  25.331  1.00  0.00    -0.251 OA
BRANCH   3   5
ATOM      5  C   UNL A   1      32.895  22.102  23.553  1.00  0.00     0.160 C 
BRANCH   5   6
ATOM      6  C   UNL A   1      32.709  23.536  24.056  1.00  0.00    -0.031 A 
ATOM      7  C   UNL A   1      32.043  26.199  24.794  1.00  0.00    -0.048 A 
ATOM      8  C   UNL A   1      31.553  25.111  25.521  1.00  0.00     0.004 A 
ATOM      9  C   UNL A   1      32.902  25.952  23.722  1.00  0.00     0.004 A 
ATOM     10  C   UNL A   1      31.866  23.803  25.147  1.00  0.00     0.005 A 
ATOM     11  C   UNL A   1      33.231  24.641  23.359  1.00  0.00     0.005 A 
BRANCH   7  12
ATOM     12  C   UNL A   1      31.595  27.601  25.119  1.00  0.00     0.038 C 
BRANCH  12  13
ATOM     13  C   UNL A   1      32.120  28.129  26.473  1.00  0.00    -0.013 C 
ATOM     14  C   UNL A   1      33.621  27.889  26.667  1.00  0.00     0.008 C 
ATOM     15  C   UNL A   1      31.831  29.628  26.586  1.00  0.00     0.008 C 
ENDBRANCH  12  13
ENDBRANCH   7  12
ENDBRANCH   5   6
BRANCH   5  16
ATOM     16  C   UNL A   1      31.935  21.658  22.446  1.00  0.00     0.234 C 
ATOM     17  F   UNL A   1      32.109  20.329  22.187  1.00  0.00    -0.250 F 
ENDBRANCH   5  16
ENDBRANCH   3   5
ENDBRANCH   2   3
ENDBRANCH   1   2
BRANCH   1  18
ATOM     18  C   UNL A   1      36.601  20.714  25.284  1.00  0.00     0.275 C 
BRANCH  18  19
ATOM     19  O   UNL A   1      37.746  21.571  25.125  1.00  0.00    -0.458 OA
BRANCH  19  20
ATOM     20  C   UNL A   1      38.828  21.226  25.863  1.00  0.00     0.338 C 
ATOM     21  O   UNL A   1      39.320  20.116  25.958  1.00  0.00    -0.246 OA
BRANCH  20  22
ATOM     22  C   UNL A   1      39.435  22.425  26.457  1.00  0.00     0.060 A 
ATOM     23  C   UNL A   1      38.989  23.679  26.027  1.00  0.00     0.016 A 
ATOM     24  C   UNL A   1      40.498  22.319  27.355  1.00  0.00     0.016 A 
ATOM     25  C   UNL A   1      39.603  24.839  26.492  1.00  0.00     0.010 A 
ATOM     26  C   UNL A   1      41.112  23.484  27.820  1.00  0.00     0.010 A 
ATOM     27  C   UNL A   1      40.676  24.748  27.383  1.00  0.00    -0.014 A 
BRANCH  27  28
ATOM     28  C   UNL A   1      41.399  25.969  27.808  1.00  0.00     0.031 A 
ATOM     29  C   UNL A   1      40.670  27.014  28.600  1.00  0.00     0.074 A 
ATOM     30  C   UNL A   1      42.692  26.138  27.478  1.00  0.00     0.049 A 
ATOM     31  N   UNL A   1      41.045  28.223  28.922  1.00  0.00    -0.248 NA
ATOM     32  C   UNL A   1      39.332  26.643  29.084  1.00  0.00     0.031 C 
ATOM     33  C   UNL A   1      43.521  25.152  26.784  1.00  0.00     0.029 A 
ATOM     34  N   UNL A   1      43.529  27.206  27.671  1.00  0.00    -0.354 N 
ATOM     35  C   UNL A   1      39.977  28.774  29.625  1.00  0.00     0.074 A 
ATOM     36  C   UNL A   1      38.937  27.767  29.662  1.00  0.00     0.031 C 
ATOM     37  C   UNL A   1      44.749  25.668  26.601  1.00  0.00     0.029 A 
ATOM     38  C   UNL A   1      44.770  27.039  27.103  1.00  0.00     0.049 A 
ATOM     39  H   UNL A   1      43.267  28.015  28.166  1.00  0.00     0.167 HD
ATOM     40  C   UNL A   1      39.881  30.008  30.181  1.00  0.00     0.034 A 
ATOM     41  C   UNL A   1      45.789  27.910  26.964  1.00  0.00     0.034 A 
ATOM     42  C   UNL A   1      40.936  30.992  30.126  1.00  0.00     0.049 A 
ATOM     43  C   UNL A   1      45.618  29.314  27.489  1.00  0.00     0.074 A 
ATOM     44  C   UNL A   1      40.957  32.269  30.657  1.00  0.00     0.029 A 
ATOM     45  N   UNL A   1      42.159  30.808  29.490  1.00  0.00    -0.354 N 
ATOM     46  N   UNL A   1      44.593  29.844  28.115  1.00  0.00    -0.248 NA
ATOM     47  C   UNL A   1      46.738  30.240  27.276  1.00  0.00     0.031 C 
ATOM     48  C   UNL A   1      42.162  32.878  30.288  1.00  0.00     0.029 A 
ATOM     49  C   UNL A   1      42.925  31.959  29.587  1.00  0.00     0.049 A 
ATOM     50  H   UNL A   1      42.440  29.980  29.038  1.00  0.00     0.167 HD
ATOM     51  C   UNL A   1      44.958  31.156  28.401  1.00  0.00     0.074 A 
ATOM     52  C   UNL A   1      46.296  31.337  27.876  1.00  0.00     0.031 C 
ATOM     53  C   UNL A   1      44.256  32.120  29.049  1.00  0.00     0.034 A 
BRANCH  40  54
ATOM     54  C   UNL A   1      38.564  30.373  30.822  1.00  0.00     0.023 A 
ATOM     55  C   UNL A   1      37.533  31.001  30.102  1.00  0.00     0.031 A 
ATOM     56  C   UNL A   1      38.362  30.144  32.195  1.00  0.00     0.131 A 
ATOM     57  C   UNL A   1      36.385  31.453  30.771  1.00  0.00     0.055 A 
ATOM     58  C   UNL A   1      37.183  30.522  32.839  1.00  0.00     0.041 A 
ATOM     59  F   UNL A   1      39.319  29.570  32.941  1.00  0.00    -0.206 F 
ATOM     60  C   UNL A   1      36.193  31.198  32.131  1.00  0.00     0.022 A 
BRANCH  57  61
ATOM     61  S   UNL A   1      35.224  32.524  29.879  1.00  0.00     0.124 S 
ATOM     62  O   UNL A   1      34.725  31.621  28.844  1.00  0.00    -0.237 OA
ATOM     63  O   UNL A   1      34.273  32.893  30.920  1.00  0.00    -0.237 OA
ATOM     64  O   UNL A   1      36.069  33.612  29.389  1.00  0.00    -0.744 OA
ENDBRANCH  57  61
ENDBRANCH  40  54
BRANCH  41  65
ATOM     65  C   UNL A   1      47.034  27.507  26.253  1.00  0.00     0.023 A 
ATOM     66  C   UNL A   1      47.208  27.787  24.889  1.00  0.00     0.031 A 
ATOM     67  C   UNL A   1      48.055  26.805  26.920  1.00  0.00     0.131 A 
ATOM     68  C   UNL A   1      48.362  27.339  24.227  1.00  0.00     0.055 A 
ATOM     69  C   UNL A   1      49.221  26.404  26.268  1.00  0.00     0.041 A 
ATOM     70  F   UNL A   1      47.936  26.510  28.224  1.00  0.00    -0.206 F 
ATOM     71  C   UNL A   1      49.375  26.663  24.910  1.00  0.00     0.022 A 
BRANCH  68  72
ATOM     72  S   UNL A   1      48.490  27.598  22.436  1.00  0.00     0.124 S 
ATOM     73  O   UNL A   1      49.719  28.377  22.336  1.00  0.00    -0.237 OA
ATOM     74  O   UNL A   1      48.553  26.230  21.935  1.00  0.00    -0.237 OA
ATOM     75  O   UNL A   1      47.264  28.323  22.110  1.00  0.00    -0.744 OA
ENDBRANCH  68  72
ENDBRANCH  41  65
BRANCH  53  76
ATOM     76  C   UNL A   1      44.955  33.437  29.274  1.00  0.00     0.023 A 
ATOM     77  C   UNL A   1      44.925  34.467  28.320  1.00  0.00     0.031 A 
ATOM     78  C   UNL A   1      45.662  33.657  30.470  1.00  0.00     0.131 A 
ATOM     79  C   UNL A   1      45.623  35.660  28.562  1.00  0.00     0.055 A 
ATOM     80  C   UNL A   1      46.315  34.863  30.725  1.00  0.00     0.041 A 
ATOM     81  F   UNL A   1      45.723  32.702  31.412  1.00  0.00    -0.206 F 
ATOM     82  C   UNL A   1      46.305  35.870  29.765  1.00  0.00     0.022 A 
BRANCH  79  83
ATOM     83  S   UNL A   1      45.682  36.919  27.257  1.00  0.00     0.124 S 
ATOM     84  O   UNL A   1      46.435  36.236  26.210  1.00  0.00    -0.237 OA
ATOM     85  O   UNL A   1      44.269  37.150  26.979  1.00  0.00    -0.237 OA
ATOM     86  O   UNL A   1      46.377  38.039  27.891  1.00  0.00    -0.744 OA
ENDBRANCH  79  83
ENDBRANCH  53  76
ENDBRANCH  27  28
ENDBRANCH  20  22
ENDBRANCH  19  20
ENDBRANCH  18  19
ENDBRANCH   1  18
TORSDOF 18
ENDMDL
