MODEL 1
REMARK VINA RESULT:     -10.0      0.000      0.000
REMARK SMILES CC(C)C[C@@H](C[NH3+])C(=O)N1CCOC[C@H]1C(=O)OCCOC(=O)c1ccc(-c2c3nc(c(-c4cc(S(=O)(=O)[O-])ccc4F)c4ccc([nH]4)c(-c4cc(S(=O)(=O)[O-])ccc4F)c4nc(c(-c5cc(S(=O)(=O)[O-])ccc5F)c5ccc2[nH]5)C=C4)C=C3)cc1
REMARK SMILES IDX 19 1 18 2 16 3 17 4 15 5 10 6 11 7 12 8 14 9 13 10 8 11 9 12
REMARK SMILES IDX 5 13 4 14 2 15 1 16 3 17 6 18 7 19 20 23 21 24 22 25 23 26
REMARK SMILES IDX 24 27 25 28 86 29 26 30 85 31 27 32 28 33 29 34 79 35 30 36
REMARK SMILES IDX 84 37 78 38 80 39 31 40 83 41 77 42 76 43 32 45 64 46 44 47
REMARK SMILES IDX 63 48 45 49 48 50 62 51 81 52 46 53 47 54 61 56 82 57 49 58
REMARK SMILES IDX 33 59 34 60 42 61 35 62 41 63 43 64 40 65 36 66 37 67 38 68
REMARK SMILES IDX 39 69 65 70 66 71 74 72 67 73 73 74 75 75 72 76 68 77 69 78
REMARK SMILES IDX 70 79 71 80 50 81 51 82 59 83 52 84 58 85 60 86 57 87 53 88
REMARK SMILES IDX 54 89 55 90 56 91
REMARK H PARENT 7 20 7 21 7 22 80 44 48 55
REMARK Flexibility Score: inf
ROOT
ATOM      1  C   UNL A   1      33.353  34.236  28.150  1.00  0.00     0.274 C 
ENDROOT
BRANCH   1   2
ATOM      2  O   UNL A   1      34.078  35.266  28.849  1.00  0.00    -0.460 OA
BRANCH   2   3
ATOM      3  C   UNL A   1      33.392  35.997  29.765  1.00  0.00     0.331 C 
ATOM      4  O   UNL A   1      33.088  37.178  29.610  1.00  0.00    -0.250 OA
BRANCH   3   5
ATOM      5  C   UNL A   1      33.132  35.247  31.082  1.00  0.00     0.221 C 
ATOM      6  N   UNL A   1      34.263  34.878  31.966  1.00  0.00    -0.324 N 
ATOM      7  C   UNL A   1      34.873  36.010  32.653  1.00  0.00     0.149 C 
ATOM      8  C   UNL A   1      33.814  36.817  33.403  1.00  0.00     0.181 C 
ATOM      9  C   UNL A   1      32.129  36.087  31.897  1.00  0.00     0.197 C 
ATOM     10  O   UNL A   1      32.757  37.228  32.518  1.00  0.00    -0.377 OA
BRANCH   6  11
ATOM     11  C   UNL A   1      34.555  33.536  32.107  1.00  0.00     0.232 C 
ATOM     12  O   UNL A   1      33.760  32.805  32.715  1.00  0.00    -0.274 OA
BRANCH  11  13
ATOM     13  C   UNL A   1      35.950  32.942  31.826  1.00  0.00     0.134 C 
BRANCH  13  14
ATOM     14  C   UNL A   1      37.164  33.860  31.657  1.00  0.00     0.022 C 
BRANCH  14  15
ATOM     15  C   UNL A   1      38.016  33.650  30.383  1.00  0.00    -0.016 C 
ATOM     16  C   UNL A   1      37.255  33.873  29.077  1.00  0.00     0.007 C 
ATOM     17  C   UNL A   1      39.236  34.576  30.436  1.00  0.00     0.007 C 
ENDBRANCH  14  15
ENDBRANCH  13  14
BRANCH  13  18
ATOM     18  C   UNL A   1      36.157  31.781  32.822  1.00  0.00     0.272 C 
BRANCH  18  19
ATOM     19  N   UNL A   1      37.064  32.089  33.931  1.00  0.00    -0.357 N 
ATOM     20  H   UNL A   1      36.650  31.770  34.808  1.00  0.00     0.344 HD
ATOM     21  H   UNL A   1      37.218  33.096  33.975  1.00  0.00     0.344 HD
ATOM     22  H   UNL A   1      37.956  31.616  33.784  1.00  0.00     0.344 HD
ENDBRANCH  18  19
ENDBRANCH  13  18
ENDBRANCH  11  13
ENDBRANCH   6  11
ENDBRANCH   3   5
ENDBRANCH   2   3
ENDBRANCH   1   2
BRANCH   1  23
ATOM     23  C   UNL A   1      33.854  32.855  28.570  1.00  0.00     0.275 C 
BRANCH  23  24
ATOM     24  O   UNL A   1      34.529  32.214  27.477  1.00  0.00    -0.458 OA
BRANCH  24  25
ATOM     25  C   UNL A   1      34.573  30.861  27.559  1.00  0.00     0.338 C 
ATOM     26  O   UNL A   1      33.764  30.073  27.107  1.00  0.00    -0.246 OA
BRANCH  25  27
ATOM     27  C   UNL A   1      35.843  30.476  28.193  1.00  0.00     0.060 A 
ATOM     28  C   UNL A   1      37.024  30.690  27.485  1.00  0.00     0.016 A 
ATOM     29  C   UNL A   1      35.867  29.851  29.439  1.00  0.00     0.016 A 
ATOM     30  C   UNL A   1      38.237  30.232  27.986  1.00  0.00     0.010 A 
ATOM     31  C   UNL A   1      37.091  29.419  29.960  1.00  0.00     0.010 A 
ATOM     32  C   UNL A   1      38.280  29.584  29.225  1.00  0.00    -0.014 A 
BRANCH  32  33
ATOM     33  C   UNL A   1      39.561  29.009  29.704  1.00  0.00     0.031 A 
ATOM     34  C   UNL A   1      40.252  29.628  30.884  1.00  0.00     0.074 A 
ATOM     35  C   UNL A   1      40.074  27.917  29.109  1.00  0.00     0.049 A 
ATOM     36  N   UNL A   1      41.416  29.344  31.410  1.00  0.00    -0.248 NA
ATOM     37  C   UNL A   1      39.537  30.721  31.559  1.00  0.00     0.031 C 
ATOM     38  C   UNL A   1      39.454  27.191  27.998  1.00  0.00     0.029 A 
ATOM     39  N   UNL A   1      41.229  27.220  29.359  1.00  0.00    -0.354 N 
ATOM     40  C   UNL A   1      41.584  30.234  32.466  1.00  0.00     0.074 A 
ATOM     41  C   UNL A   1      40.415  31.089  32.480  1.00  0.00     0.031 C 
ATOM     42  C   UNL A   1      40.231  26.146  27.671  1.00  0.00     0.029 A 
ATOM     43  C   UNL A   1      41.427  26.159  28.507  1.00  0.00     0.049 A 
ATOM     44  H   UNL A   1      41.857  27.457  30.079  1.00  0.00     0.167 HD
ATOM     45  C   UNL A   1      42.615  30.323  33.341  1.00  0.00     0.034 A 
ATOM     46  C   UNL A   1      42.471  25.314  28.396  1.00  0.00     0.034 A 
ATOM     47  C   UNL A   1      43.770  29.456  33.309  1.00  0.00     0.049 A 
ATOM     48  C   UNL A   1      43.643  25.482  29.328  1.00  0.00     0.074 A 
ATOM     49  C   UNL A   1      44.882  29.462  34.134  1.00  0.00     0.029 A 
ATOM     50  N   UNL A   1      43.963  28.423  32.397  1.00  0.00    -0.354 N 
ATOM     51  N   UNL A   1      43.814  26.357  30.294  1.00  0.00    -0.248 NA
ATOM     52  C   UNL A   1      44.762  24.548  29.157  1.00  0.00     0.031 C 
ATOM     53  C   UNL A   1      45.770  28.476  33.686  1.00  0.00     0.029 A 
ATOM     54  C   UNL A   1      45.183  27.804  32.626  1.00  0.00     0.049 A 
ATOM     55  H   UNL A   1      43.325  28.169  31.692  1.00  0.00     0.167 HD
ATOM     56  C   UNL A   1      45.049  26.059  30.861  1.00  0.00     0.074 A 
ATOM     57  C   UNL A   1      45.571  24.916  30.140  1.00  0.00     0.031 C 
ATOM     58  C   UNL A   1      45.694  26.672  31.887  1.00  0.00     0.034 A 
BRANCH  45  59
ATOM     59  C   UNL A   1      42.560  31.438  34.360  1.00  0.00     0.023 A 
ATOM     60  C   UNL A   1      41.679  31.403  35.456  1.00  0.00     0.031 A 
ATOM     61  C   UNL A   1      43.367  32.579  34.202  1.00  0.00     0.131 A 
ATOM     62  C   UNL A   1      41.569  32.517  36.303  1.00  0.00     0.055 A 
ATOM     63  C   UNL A   1      43.311  33.651  35.096  1.00  0.00     0.041 A 
ATOM     64  F   UNL A   1      44.212  32.682  33.165  1.00  0.00    -0.206 F 
ATOM     65  C   UNL A   1      42.397  33.631  36.145  1.00  0.00     0.022 A 
BRANCH  62  66
ATOM     66  S   UNL A   1      40.228  32.553  37.525  1.00  0.00     0.124 S 
ATOM     67  O   UNL A   1      39.354  31.491  37.037  1.00  0.00    -0.237 OA
ATOM     68  O   UNL A   1      40.930  32.282  38.774  1.00  0.00    -0.237 OA
ATOM     69  O   UNL A   1      39.684  33.905  37.397  1.00  0.00    -0.744 OA
ENDBRANCH  62  66
ENDBRANCH  45  59
BRANCH  46  70
ATOM     70  C   UNL A   1      42.481  24.261  27.340  1.00  0.00     0.023 A 
ATOM     71  C   UNL A   1      41.708  23.096  27.469  1.00  0.00     0.031 A 
ATOM     72  C   UNL A   1      43.302  24.385  26.205  1.00  0.00     0.131 A 
ATOM     73  C   UNL A   1      41.802  22.084  26.500  1.00  0.00     0.055 A 
ATOM     74  C   UNL A   1      43.352  23.400  25.218  1.00  0.00     0.041 A 
ATOM     75  F   UNL A   1      44.063  25.478  26.033  1.00  0.00    -0.206 F 
ATOM     76  C   UNL A   1      42.608  22.235  25.369  1.00  0.00     0.022 A 
BRANCH  73  77
ATOM     77  S   UNL A   1      40.914  20.527  26.779  1.00  0.00     0.124 S 
ATOM     78  O   UNL A   1      41.806  19.559  26.151  1.00  0.00    -0.237 OA
ATOM     79  O   UNL A   1      40.837  20.479  28.236  1.00  0.00    -0.237 OA
ATOM     80  O   UNL A   1      39.640  20.736  26.096  1.00  0.00    -0.744 OA
ENDBRANCH  73  77
ENDBRANCH  46  70
BRANCH  58  81
ATOM     81  C   UNL A   1      47.013  26.075  32.312  1.00  0.00     0.023 A 
ATOM     82  C   UNL A   1      48.208  26.349  31.623  1.00  0.00     0.031 A 
ATOM     83  C   UNL A   1      47.068  25.193  33.406  1.00  0.00     0.131 A 
ATOM     84  C   UNL A   1      49.395  25.700  31.996  1.00  0.00     0.055 A 
ATOM     85  C   UNL A   1      48.263  24.596  33.809  1.00  0.00     0.041 A 
ATOM     86  F   UNL A   1      45.958  24.893  34.099  1.00  0.00    -0.206 F 
ATOM     87  C   UNL A   1      49.433  24.836  33.094  1.00  0.00     0.022 A 
BRANCH  84  88
ATOM     88  S   UNL A   1      50.872  25.922  30.965  1.00  0.00     0.124 S 
ATOM     89  O   UNL A   1      51.859  25.111  31.670  1.00  0.00    -0.237 OA
ATOM     90  O   UNL A   1      50.430  25.408  29.673  1.00  0.00    -0.237 OA
ATOM     91  O   UNL A   1      51.108  27.363  31.010  1.00  0.00    -0.744 OA
ENDBRANCH  84  88
ENDBRANCH  58  81
ENDBRANCH  32  33
ENDBRANCH  25  27
ENDBRANCH  24  25
ENDBRANCH  23  24
ENDBRANCH   1  23
TORSDOF 20
ENDMDL
MODEL 2
REMARK VINA RESULT:     -10.0      1.963      2.516
REMARK SMILES CC(C)C[C@@H](C[NH3+])C(=O)N1CCOC[C@H]1C(=O)OCCOC(=O)c1ccc(-c2c3nc(c(-c4cc(S(=O)(=O)[O-])ccc4F)c4ccc([nH]4)c(-c4cc(S(=O)(=O)[O-])ccc4F)c4nc(c(-c5cc(S(=O)(=O)[O-])ccc5F)c5ccc2[nH]5)C=C4)C=C3)cc1
REMARK SMILES IDX 19 1 18 2 16 3 17 4 15 5 10 6 11 7 12 8 14 9 13 10 8 11 9 12
REMARK SMILES IDX 5 13 4 14 2 15 1 16 3 17 6 18 7 19 20 23 21 24 22 25 23 26
REMARK SMILES IDX 24 27 25 28 86 29 26 30 85 31 27 32 28 33 29 34 79 35 30 36
REMARK SMILES IDX 84 37 78 38 80 39 31 40 83 41 77 42 76 43 32 45 64 46 44 47
REMARK SMILES IDX 63 48 45 49 48 50 62 51 81 52 46 53 47 54 61 56 82 57 49 58
REMARK SMILES IDX 33 59 34 60 42 61 35 62 41 63 43 64 40 65 36 66 37 67 38 68
REMARK SMILES IDX 39 69 65 70 66 71 74 72 67 73 73 74 75 75 72 76 68 77 69 78
REMARK SMILES IDX 70 79 71 80 50 81 51 82 59 83 52 84 58 85 60 86 57 87 53 88
REMARK SMILES IDX 54 89 55 90 56 91
REMARK H PARENT 7 20 7 21 7 22 80 44 48 55
REMARK Flexibility Score: inf
ROOT
ATOM      1  C   UNL A   1      33.351  34.296  28.387  1.00  0.00     0.274 C 
ENDROOT
BRANCH   1   2
ATOM      2  O   UNL A   1      33.994  35.411  29.032  1.00  0.00    -0.460 OA
BRANCH   2   3
ATOM      3  C   UNL A   1      33.288  36.069  29.988  1.00  0.00     0.331 C 
ATOM      4  O   UNL A   1      32.890  37.226  29.872  1.00  0.00    -0.250 OA
BRANCH   3   5
ATOM      5  C   UNL A   1      33.133  35.274  31.295  1.00  0.00     0.221 C 
ATOM      6  N   UNL A   1      34.309  35.031  32.165  1.00  0.00    -0.324 N 
ATOM      7  C   UNL A   1      34.785  36.218  32.864  1.00  0.00     0.149 C 
ATOM      8  C   UNL A   1      33.644  36.881  33.635  1.00  0.00     0.181 C 
ATOM      9  C   UNL A   1      32.044  35.975  32.131  1.00  0.00     0.197 C 
ATOM     10  O   UNL A   1      32.537  37.174  32.765  1.00  0.00    -0.377 OA
BRANCH   6  11
ATOM     11  C   UNL A   1      34.761  33.732  32.282  1.00  0.00     0.232 C 
ATOM     12  O   UNL A   1      33.948  32.827  32.520  1.00  0.00    -0.274 OA
BRANCH  11  13
ATOM     13  C   UNL A   1      36.251  33.369  32.442  1.00  0.00     0.134 C 
BRANCH  13  14
ATOM     14  C   UNL A   1      36.700  32.398  33.538  1.00  0.00     0.022 C 
BRANCH  14  15
ATOM     15  C   UNL A   1      37.985  32.775  34.311  1.00  0.00    -0.016 C 
ATOM     16  C   UNL A   1      38.426  34.226  34.122  1.00  0.00     0.007 C 
ATOM     17  C   UNL A   1      37.777  32.487  35.802  1.00  0.00     0.007 C 
ENDBRANCH  14  15
ENDBRANCH  13  14
BRANCH  13  18
ATOM     18  C   UNL A   1      36.792  33.043  31.033  1.00  0.00     0.272 C 
BRANCH  18  19
ATOM     19  N   UNL A   1      36.915  34.206  30.149  1.00  0.00    -0.357 N 
ATOM     20  H   UNL A   1      37.844  34.214  29.726  1.00  0.00     0.344 HD
ATOM     21  H   UNL A   1      36.781  35.060  30.689  1.00  0.00     0.344 HD
ATOM     22  H   UNL A   1      36.208  34.154  29.416  1.00  0.00     0.344 HD
ENDBRANCH  18  19
ENDBRANCH  13  18
ENDBRANCH  11  13
ENDBRANCH   6  11
ENDBRANCH   3   5
ENDBRANCH   2   3
ENDBRANCH   1   2
BRANCH   1  23
ATOM     23  C   UNL A   1      34.002  32.984  28.823  1.00  0.00     0.275 C 
BRANCH  23  24
ATOM     24  O   UNL A   1      34.716  32.392  27.726  1.00  0.00    -0.458 OA
BRANCH  24  25
ATOM     25  C   UNL A   1      34.502  31.063  27.567  1.00  0.00     0.338 C 
ATOM     26  O   UNL A   1      33.518  30.531  27.087  1.00  0.00    -0.246 OA
BRANCH  25  27
ATOM     27  C   UNL A   1      35.721  30.344  27.967  1.00  0.00     0.060 A 
ATOM     28  C   UNL A   1      35.749  29.745  29.225  1.00  0.00     0.016 A 
ATOM     29  C   UNL A   1      36.845  30.315  27.144  1.00  0.00     0.016 A 
ATOM     30  C   UNL A   1      36.917  29.161  29.700  1.00  0.00     0.010 A 
ATOM     31  C   UNL A   1      38.012  29.699  27.607  1.00  0.00     0.010 A 
ATOM     32  C   UNL A   1      38.063  29.140  28.898  1.00  0.00    -0.014 A 
BRANCH  32  33
ATOM     33  C   UNL A   1      39.331  28.607  29.451  1.00  0.00     0.031 A 
ATOM     34  C   UNL A   1      39.899  29.202  30.707  1.00  0.00     0.074 A 
ATOM     35  C   UNL A   1      39.944  27.569  28.851  1.00  0.00     0.049 A 
ATOM     36  N   UNL A   1      41.032  28.950  31.309  1.00  0.00    -0.248 NA
ATOM     37  C   UNL A   1      39.079  30.227  31.370  1.00  0.00     0.031 C 
ATOM     38  C   UNL A   1      39.448  26.867  27.665  1.00  0.00     0.029 A 
ATOM     39  N   UNL A   1      41.111  26.919  29.160  1.00  0.00    -0.354 N 
ATOM     40  C   UNL A   1      41.074  29.797  32.412  1.00  0.00     0.074 A 
ATOM     41  C   UNL A   1      39.864  30.593  32.372  1.00  0.00     0.031 C 
ATOM     42  C   UNL A   1      40.300  25.877  27.355  1.00  0.00     0.029 A 
ATOM     43  C   UNL A   1      41.428  25.909  28.281  1.00  0.00     0.049 A 
ATOM     44  H   UNL A   1      41.669  27.151  29.937  1.00  0.00     0.167 HD
ATOM     45  C   UNL A   1      42.030  29.895  33.368  1.00  0.00     0.034 A 
ATOM     46  C   UNL A   1      42.519  25.121  28.216  1.00  0.00     0.034 A 
ATOM     47  C   UNL A   1      43.227  29.087  33.389  1.00  0.00     0.049 A 
ATOM     48  C   UNL A   1      43.607  25.302  29.243  1.00  0.00     0.074 A 
ATOM     49  C   UNL A   1      44.271  29.108  34.297  1.00  0.00     0.029 A 
ATOM     50  N   UNL A   1      43.541  28.109  32.451  1.00  0.00    -0.354 N 
ATOM     51  N   UNL A   1      43.659  26.138  30.256  1.00  0.00    -0.248 NA
ATOM     52  C   UNL A   1      44.783  24.432  29.119  1.00  0.00     0.031 C 
ATOM     53  C   UNL A   1      45.240  28.188  33.878  1.00  0.00     0.029 A 
ATOM     54  C   UNL A   1      44.771  27.538  32.748  1.00  0.00     0.049 A 
ATOM     55  H   UNL A   1      42.973  27.857  31.688  1.00  0.00     0.167 HD
ATOM     56  C   UNL A   1      44.861  25.874  30.904  1.00  0.00     0.074 A 
ATOM     57  C   UNL A   1      45.494  24.793  30.177  1.00  0.00     0.031 C 
ATOM     58  C   UNL A   1      45.395  26.469  32.003  1.00  0.00     0.034 A 
BRANCH  45  59
ATOM     59  C   UNL A   1      41.840  30.957  34.426  1.00  0.00     0.023 A 
ATOM     60  C   UNL A   1      42.218  32.295  34.215  1.00  0.00     0.031 A 
ATOM     61  C   UNL A   1      41.316  30.613  35.686  1.00  0.00     0.131 A 
ATOM     62  C   UNL A   1      42.142  33.220  35.268  1.00  0.00     0.055 A 
ATOM     63  C   UNL A   1      41.168  31.557  36.705  1.00  0.00     0.041 A 
ATOM     64  F   UNL A   1      40.958  29.349  35.956  1.00  0.00    -0.206 F 
ATOM     65  C   UNL A   1      41.597  32.865  36.505  1.00  0.00     0.022 A 
BRANCH  62  66
ATOM     66  S   UNL A   1      42.902  34.853  35.050  1.00  0.00     0.124 S 
ATOM     67  O   UNL A   1      44.014  34.546  34.155  1.00  0.00    -0.237 OA
ATOM     68  O   UNL A   1      41.814  35.635  34.475  1.00  0.00    -0.237 OA
ATOM     69  O   UNL A   1      43.293  35.234  36.407  1.00  0.00    -0.744 OA
ENDBRANCH  62  66
ENDBRANCH  45  59
BRANCH  46  70
ATOM     70  C   UNL A   1      42.663  24.121  27.120  1.00  0.00     0.023 A 
ATOM     71  C   UNL A   1      42.029  22.870  27.190  1.00  0.00     0.031 A 
ATOM     72  C   UNL A   1      43.478  24.385  26.004  1.00  0.00     0.131 A 
ATOM     73  C   UNL A   1      42.252  21.916  26.184  1.00  0.00     0.055 A 
ATOM     74  C   UNL A   1      43.653  23.453  24.980  1.00  0.00     0.041 A 
ATOM     75  F   UNL A   1      44.109  25.565  25.888  1.00  0.00    -0.206 F 
ATOM     76  C   UNL A   1      43.047  22.205  25.073  1.00  0.00     0.022 A 
BRANCH  73  77
ATOM     77  S   UNL A   1      41.547  20.257  26.387  1.00  0.00     0.124 S 
ATOM     78  O   UNL A   1      40.130  20.503  26.143  1.00  0.00    -0.237 OA
ATOM     79  O   UNL A   1      42.253  19.498  25.360  1.00  0.00    -0.237 OA
ATOM     80  O   UNL A   1      41.890  19.909  27.764  1.00  0.00    -0.744 OA
ENDBRANCH  73  77
ENDBRANCH  46  70
BRANCH  58  81
ATOM     81  C   UNL A   1      46.707  25.916  32.503  1.00  0.00     0.023 A 
ATOM     82  C   UNL A   1      46.762  24.892  33.465  1.00  0.00     0.031 A 
ATOM     83  C   UNL A   1      47.920  26.447  32.031  1.00  0.00     0.131 A 
ATOM     84  C   UNL A   1      48.002  24.473  33.969  1.00  0.00     0.055 A 
ATOM     85  C   UNL A   1      49.153  25.985  32.494  1.00  0.00     0.041 A 
ATOM     86  F   UNL A   1      47.927  27.427  31.114  1.00  0.00    -0.206 F 
ATOM     87  C   UNL A   1      49.199  25.002  33.479  1.00  0.00     0.022 A 
BRANCH  84  88
ATOM     88  S   UNL A   1      48.030  23.295  35.349  1.00  0.00     0.124 S 
ATOM     89  O   UNL A   1      49.407  22.810  35.308  1.00  0.00    -0.237 OA
ATOM     90  O   UNL A   1      47.686  24.141  36.488  1.00  0.00    -0.237 OA
ATOM     91  O   UNL A   1      47.016  22.310  34.981  1.00  0.00    -0.744 OA
ENDBRANCH  84  88
ENDBRANCH  58  81
ENDBRANCH  32  33
ENDBRANCH  25  27
ENDBRANCH  24  25
ENDBRANCH  23  24
ENDBRANCH   1  23
TORSDOF 20
ENDMDL
MODEL 3
REMARK VINA RESULT:      -9.9      5.696      9.390
REMARK SMILES CC(C)C[C@@H](C[NH3+])C(=O)N1CCOC[C@H]1C(=O)OCCOC(=O)c1ccc(-c2c3nc(c(-c4cc(S(=O)(=O)[O-])ccc4F)c4ccc([nH]4)c(-c4cc(S(=O)(=O)[O-])ccc4F)c4nc(c(-c5cc(S(=O)(=O)[O-])ccc5F)c5ccc2[nH]5)C=C4)C=C3)cc1
REMARK SMILES IDX 19 1 18 2 16 3 17 4 15 5 10 6 11 7 12 8 14 9 13 10 8 11 9 12
REMARK SMILES IDX 5 13 4 14 2 15 1 16 3 17 6 18 7 19 20 23 21 24 22 25 23 26
REMARK SMILES IDX 24 27 25 28 86 29 26 30 85 31 27 32 28 33 29 34 79 35 30 36
REMARK SMILES IDX 84 37 78 38 80 39 31 40 83 41 77 42 76 43 32 45 64 46 44 47
REMARK SMILES IDX 63 48 45 49 48 50 62 51 81 52 46 53 47 54 61 56 82 57 49 58
REMARK SMILES IDX 33 59 34 60 42 61 35 62 41 63 43 64 40 65 36 66 37 67 38 68
REMARK SMILES IDX 39 69 65 70 66 71 74 72 67 73 73 74 75 75 72 76 68 77 69 78
REMARK SMILES IDX 70 79 71 80 50 81 51 82 59 83 52 84 58 85 60 86 57 87 53 88
REMARK SMILES IDX 54 89 55 90 56 91
REMARK H PARENT 7 20 7 21 7 22 80 44 48 55
REMARK Flexibility Score: inf
ROOT
ATOM      1  C   UNL A   1      35.306  20.452  25.027  1.00  0.00     0.274 C 
ENDROOT
BRANCH   1   2
ATOM      2  O   UNL A   1      34.769  21.787  25.078  1.00  0.00    -0.460 OA
BRANCH   2   3
ATOM      3  C   UNL A   1      34.161  22.170  26.232  1.00  0.00     0.331 C 
ATOM      4  O   UNL A   1      34.126  21.481  27.249  1.00  0.00    -0.250 OA
BRANCH   3   5
ATOM      5  C   UNL A   1      33.405  23.504  26.116  1.00  0.00     0.221 C 
ATOM      6  N   UNL A   1      32.556  23.780  24.932  1.00  0.00    -0.324 N 
ATOM      7  C   UNL A   1      31.325  23.001  24.890  1.00  0.00     0.149 C 
ATOM      8  C   UNL A   1      30.542  23.162  26.192  1.00  0.00     0.181 C 
ATOM      9  C   UNL A   1      32.538  23.651  27.382  1.00  0.00     0.197 C 
ATOM     10  O   UNL A   1      31.357  22.825  27.328  1.00  0.00    -0.377 OA
BRANCH   6  11
ATOM     11  C   UNL A   1      32.967  24.775  24.067  1.00  0.00     0.232 C 
ATOM     12  O   UNL A   1      34.171  24.877  23.791  1.00  0.00    -0.274 OA
BRANCH  11  13
ATOM     13  C   UNL A   1      32.071  25.962  23.661  1.00  0.00     0.134 C 
BRANCH  13  14
ATOM     14  C   UNL A   1      32.015  27.223  24.528  1.00  0.00     0.022 C 
BRANCH  14  15
ATOM     15  C   UNL A   1      32.555  27.094  25.972  1.00  0.00    -0.016 C 
ATOM     16  C   UNL A   1      33.892  27.796  26.205  1.00  0.00     0.007 C 
ATOM     17  C   UNL A   1      31.509  27.636  26.951  1.00  0.00     0.007 C 
ENDBRANCH  14  15
ENDBRANCH  13  14
BRANCH  13  18
ATOM     18  C   UNL A   1      32.319  26.224  22.161  1.00  0.00     0.272 C 
BRANCH  18  19
ATOM     19  N   UNL A   1      32.297  25.020  21.325  1.00  0.00    -0.357 N 
ATOM     20  H   UNL A   1      31.433  24.999  20.782  1.00  0.00     0.344 HD
ATOM     21  H   UNL A   1      32.344  24.193  21.919  1.00  0.00     0.344 HD
ATOM     22  H   UNL A   1      33.096  25.029  20.691  1.00  0.00     0.344 HD
ENDBRANCH  18  19
ENDBRANCH  13  18
ENDBRANCH  11  13
ENDBRANCH   6  11
ENDBRANCH   3   5
ENDBRANCH   2   3
ENDBRANCH   1   2
BRANCH   1  23
ATOM     23  C   UNL A   1      36.814  20.496  24.783  1.00  0.00     0.275 C 
BRANCH  23  24
ATOM     24  O   UNL A   1      37.441  21.417  25.689  1.00  0.00    -0.458 OA
BRANCH  24  25
ATOM     25  C   UNL A   1      38.735  21.133  25.974  1.00  0.00     0.338 C 
ATOM     26  O   UNL A   1      39.322  20.090  25.755  1.00  0.00    -0.246 OA
BRANCH  25  27
ATOM     27  C   UNL A   1      39.374  22.351  26.496  1.00  0.00     0.060 A 
ATOM     28  C   UNL A   1      38.838  23.584  26.130  1.00  0.00     0.016 A 
ATOM     29  C   UNL A   1      40.524  22.283  27.280  1.00  0.00     0.016 A 
ATOM     30  C   UNL A   1      39.475  24.764  26.494  1.00  0.00     0.010 A 
ATOM     31  C   UNL A   1      41.149  23.470  27.675  1.00  0.00     0.010 A 
ATOM     32  C   UNL A   1      40.643  24.718  27.263  1.00  0.00    -0.014 A 
BRANCH  32  33
ATOM     33  C   UNL A   1      41.371  25.974  27.561  1.00  0.00     0.031 A 
ATOM     34  C   UNL A   1      40.718  27.023  28.415  1.00  0.00     0.074 A 
ATOM     35  C   UNL A   1      42.624  26.153  27.103  1.00  0.00     0.049 A 
ATOM     36  N   UNL A   1      41.135  28.224  28.724  1.00  0.00    -0.248 NA
ATOM     37  C   UNL A   1      39.412  26.671  28.993  1.00  0.00     0.031 C 
ATOM     38  C   UNL A   1      43.383  25.174  26.322  1.00  0.00     0.029 A 
ATOM     39  N   UNL A   1      43.483  27.214  27.233  1.00  0.00    -0.354 N 
ATOM     40  C   UNL A   1      40.137  28.780  29.517  1.00  0.00     0.074 A 
ATOM     41  C   UNL A   1      39.079  27.795  29.609  1.00  0.00     0.031 C 
ATOM     42  C   UNL A   1      44.598  25.677  26.054  1.00  0.00     0.029 A 
ATOM     43  C   UNL A   1      44.685  27.031  26.591  1.00  0.00     0.049 A 
ATOM     44  H   UNL A   1      43.260  28.029  27.739  1.00  0.00     0.167 HD
ATOM     45  C   UNL A   1      40.111  29.998  30.113  1.00  0.00     0.034 A 
ATOM     46  C   UNL A   1      45.724  27.874  26.431  1.00  0.00     0.034 A 
ATOM     47  C   UNL A   1      41.180  30.964  30.009  1.00  0.00     0.049 A 
ATOM     48  C   UNL A   1      45.640  29.252  27.036  1.00  0.00     0.074 A 
ATOM     49  C   UNL A   1      41.259  32.233  30.556  1.00  0.00     0.029 A 
ATOM     50  N   UNL A   1      42.364  30.765  29.304  1.00  0.00    -0.354 N 
ATOM     51  N   UNL A   1      44.672  29.788  27.745  1.00  0.00    -0.248 NA
ATOM     52  C   UNL A   1      46.790  30.139  26.820  1.00  0.00     0.031 C 
ATOM     53  C   UNL A   1      42.457  32.822  30.136  1.00  0.00     0.029 A 
ATOM     54  C   UNL A   1      43.164  31.895  29.386  1.00  0.00     0.049 A 
ATOM     55  H   UNL A   1      42.599  29.942  28.820  1.00  0.00     0.167 HD
ATOM     56  C   UNL A   1      45.109  31.065  28.080  1.00  0.00     0.074 A 
ATOM     57  C   UNL A   1      46.433  31.212  27.510  1.00  0.00     0.031 C 
ATOM     58  C   UNL A   1      44.478  32.030  28.798  1.00  0.00     0.034 A 
BRANCH  45  59
ATOM     59  C   UNL A   1      38.857  30.366  30.873  1.00  0.00     0.023 A 
ATOM     60  C   UNL A   1      37.770  31.006  30.251  1.00  0.00     0.031 A 
ATOM     61  C   UNL A   1      38.770  30.117  32.254  1.00  0.00     0.131 A 
ATOM     62  C   UNL A   1      36.681  31.445  31.020  1.00  0.00     0.055 A 
ATOM     63  C   UNL A   1      37.648  30.484  33.000  1.00  0.00     0.041 A 
ATOM     64  F   UNL A   1      39.784  29.530  32.909  1.00  0.00    -0.206 F 
ATOM     65  C   UNL A   1      36.602  31.166  32.387  1.00  0.00     0.022 A 
BRANCH  62  66
ATOM     66  S   UNL A   1      35.438  32.513  30.242  1.00  0.00     0.124 S 
ATOM     67  O   UNL A   1      34.372  32.502  31.239  1.00  0.00    -0.237 OA
ATOM     68  O   UNL A   1      36.156  33.773  30.086  1.00  0.00    -0.237 OA
ATOM     69  O   UNL A   1      35.121  31.819  28.994  1.00  0.00    -0.744 OA
ENDBRANCH  62  66
ENDBRANCH  45  59
BRANCH  46  70
ATOM     70  C   UNL A   1      46.914  27.462  25.633  1.00  0.00     0.023 A 
ATOM     71  C   UNL A   1      47.068  27.867  24.298  1.00  0.00     0.031 A 
ATOM     72  C   UNL A   1      47.894  26.616  26.183  1.00  0.00     0.131 A 
ATOM     73  C   UNL A   1      48.156  27.395  23.545  1.00  0.00     0.055 A 
ATOM     74  C   UNL A   1      49.001  26.192  25.446  1.00  0.00     0.041 A 
ATOM     75  F   UNL A   1      47.794  26.197  27.455  1.00  0.00    -0.206 F 
ATOM     76  C   UNL A   1      49.130  26.572  24.114  1.00  0.00     0.022 A 
BRANCH  73  77
ATOM     77  S   UNL A   1      48.237  27.809  21.781  1.00  0.00     0.124 S 
ATOM     78  O   UNL A   1      46.907  28.360  21.543  1.00  0.00    -0.237 OA
ATOM     79  O   UNL A   1      49.343  28.760  21.742  1.00  0.00    -0.237 OA
ATOM     80  O   UNL A   1      48.502  26.522  21.142  1.00  0.00    -0.744 OA
ENDBRANCH  73  77
ENDBRANCH  46  70
BRANCH  58  81
ATOM     81  C   UNL A   1      45.245  33.307  29.041  1.00  0.00     0.023 A 
ATOM     82  C   UNL A   1      45.208  34.378  28.130  1.00  0.00     0.031 A 
ATOM     83  C   UNL A   1      46.048  33.439  30.187  1.00  0.00     0.131 A 
ATOM     84  C   UNL A   1      46.009  35.509  28.350  1.00  0.00     0.055 A 
ATOM     85  C   UNL A   1      46.797  34.591  30.429  1.00  0.00     0.041 A 
ATOM     86  F   UNL A   1      46.121  32.448  31.089  1.00  0.00    -0.206 F 
ATOM     87  C   UNL A   1      46.792  35.629  29.501  1.00  0.00     0.022 A 
BRANCH  84  88
ATOM     88  S   UNL A   1      46.092  36.783  27.060  1.00  0.00     0.124 S 
ATOM     89  O   UNL A   1      47.103  37.690  27.593  1.00  0.00    -0.237 OA
ATOM     90  O   UNL A   1      46.484  36.011  25.885  1.00  0.00    -0.237 OA
ATOM     91  O   UNL A   1      44.735  37.322  27.022  1.00  0.00    -0.744 OA
ENDBRANCH  84  88
ENDBRANCH  58  81
ENDBRANCH  32  33
ENDBRANCH  25  27
ENDBRANCH  24  25
ENDBRANCH  23  24
ENDBRANCH   1  23
TORSDOF 20
ENDMDL
