MODEL 1
REMARK VINA RESULT:     -11.8      0.000      0.000
REMARK SMILES CCc1cc(OC(F)(F)F)cc2c1O[C@@H](C(F)(F)F)C(C(=O)OCCOC(=O)c1ccc(-c3c4nc(c(-c5cc(S(=O)(=O)[O-])ccc5F)c5ccc([nH]5)c(-c5cc(S(=O)(=O)[O-])ccc5F)c5nc(c(-c6cc(S(=O)(=O)[O-])ccc6F)c6ccc3[nH]6)C=C5)C=C4)cc1)=C2
REMARK SMILES IDX 25 1 24 2 23 3 21 4 22 5 20 6 3 7 4 8 13 9 5 10 12 11 14 12
REMARK SMILES IDX 11 13 92 14 15 15 2 16 1 17 6 18 7 19 8 20 9 21 10 22 16 23
REMARK SMILES IDX 17 24 18 25 19 26 26 27 27 28 28 29 29 30 30 31 91 32 31 33
REMARK SMILES IDX 90 34 32 35 33 36 34 37 84 38 35 39 89 40 83 41 85 42 36 43
REMARK SMILES IDX 88 44 82 45 81 46 37 48 69 49 49 50 68 51 50 52 53 53 67 54
REMARK SMILES IDX 86 55 51 56 52 57 66 59 87 60 54 61 38 62 39 63 47 64 40 65
REMARK SMILES IDX 46 66 48 67 45 68 41 69 42 70 43 71 44 72 70 73 71 74 79 75
REMARK SMILES IDX 72 76 78 77 80 78 77 79 73 80 74 81 75 82 76 83 55 84 56 85
REMARK SMILES IDX 64 86 57 87 63 88 65 89 62 90 58 91 59 92 60 93 61 94
REMARK H PARENT 85 47 53 58
REMARK Flexibility Score: inf
ROOT
ATOM      1  C   UNL A   1      37.034  20.476  25.025  1.00  0.00     0.275 C 
ENDROOT
BRANCH   1   2
ATOM      2  C   UNL A   1      35.585  20.902  24.773  1.00  0.00     0.275 C 
BRANCH   2   3
ATOM      3  O   UNL A   1      35.397  22.306  25.050  1.00  0.00    -0.459 OA
BRANCH   3   4
ATOM      4  C   UNL A   1      34.395  22.619  25.909  1.00  0.00     0.338 C 
ATOM      5  O   UNL A   1      34.115  22.010  26.926  1.00  0.00    -0.246 OA
BRANCH   4   6
ATOM      6  C   UNL A   1      33.674  23.835  25.476  1.00  0.00     0.087 C 
ATOM      7  C   UNL A   1      31.593  27.162  24.025  1.00  0.00    -0.002 A 
ATOM      8  C   UNL A   1      31.896  28.437  24.528  1.00  0.00     0.054 A 
ATOM      9  C   UNL A   1      32.361  26.069  24.448  1.00  0.00     0.131 A 
ATOM     10  C   UNL A   1      32.951  28.617  25.423  1.00  0.00     0.130 A 
ATOM     11  C   UNL A   1      33.377  26.222  25.396  1.00  0.00     0.021 A 
ATOM     12  O   UNL A   1      32.130  24.865  23.842  1.00  0.00    -0.475 OA
ATOM     13  C   UNL A   1      33.668  27.503  25.878  1.00  0.00     0.058 A 
ATOM     14  C   UNL A   1      34.131  25.048  25.837  1.00  0.00     0.027 C 
ATOM     15  C   UNL A   1      32.419  23.686  24.638  1.00  0.00     0.316 C 
BRANCH   7  16
ATOM     16  C   UNL A   1      30.404  26.986  23.107  1.00  0.00     0.036 C 
ATOM     17  C   UNL A   1      29.620  28.285  22.967  1.00  0.00     0.009 C 
ENDBRANCH   7  16
BRANCH  10  18
ATOM     18  O   UNL A   1      33.365  29.816  25.936  1.00  0.00    -0.406 OA
BRANCH  18  19
ATOM     19  C   UNL A   1      32.575  30.381  26.972  1.00  0.00     0.573 C 
ATOM     20  F   UNL A   1      31.761  29.463  27.535  1.00  0.00    -0.132 F 
ATOM     21  F   UNL A   1      33.349  30.945  27.923  1.00  0.00    -0.132 F 
ATOM     22  F   UNL A   1      31.796  31.351  26.440  1.00  0.00    -0.132 F 
ENDBRANCH  18  19
ENDBRANCH  10  18
BRANCH  15  23
ATOM     23  C   UNL A   1      32.310  22.469  23.702  1.00  0.00     0.430 C 
ATOM     24  F   UNL A   1      32.176  21.314  24.393  1.00  0.00    -0.167 F 
ATOM     25  F   UNL A   1      31.198  22.570  22.927  1.00  0.00    -0.167 F 
ATOM     26  F   UNL A   1      33.365  22.360  22.866  1.00  0.00    -0.167 F 
ENDBRANCH  15  23
ENDBRANCH   4   6
ENDBRANCH   3   4
ENDBRANCH   2   3
ENDBRANCH   1   2
BRANCH   1  27
ATOM     27  O   UNL A   1      37.843  21.583  25.459  1.00  0.00    -0.458 OA
BRANCH  27  28
ATOM     28  C   UNL A   1      39.013  21.239  26.050  1.00  0.00     0.338 C 
ATOM     29  O   UNL A   1      39.525  20.131  26.050  1.00  0.00    -0.246 OA
BRANCH  28  30
ATOM     30  C   UNL A   1      39.696  22.440  26.572  1.00  0.00     0.060 A 
ATOM     31  C   UNL A   1      39.296  23.674  26.051  1.00  0.00     0.016 A 
ATOM     32  C   UNL A   1      40.713  22.381  27.528  1.00  0.00     0.016 A 
ATOM     33  C   UNL A   1      39.851  24.859  26.527  1.00  0.00     0.010 A 
ATOM     34  C   UNL A   1      41.320  23.568  27.959  1.00  0.00     0.010 A 
ATOM     35  C   UNL A   1      40.887  24.811  27.464  1.00  0.00    -0.014 A 
BRANCH  35  36
ATOM     36  C   UNL A   1      41.619  26.053  27.801  1.00  0.00     0.031 A 
ATOM     37  C   UNL A   1      40.908  27.111  28.592  1.00  0.00     0.074 A 
ATOM     38  C   UNL A   1      42.902  26.218  27.433  1.00  0.00     0.049 A 
ATOM     39  N   UNL A   1      41.309  28.309  28.925  1.00  0.00    -0.248 NA
ATOM     40  C   UNL A   1      39.564  26.764  29.083  1.00  0.00     0.031 C 
ATOM     41  C   UNL A   1      43.721  25.212  26.760  1.00  0.00     0.029 A 
ATOM     42  N   UNL A   1      43.738  27.298  27.569  1.00  0.00    -0.354 N 
ATOM     43  C   UNL A   1      40.271  28.859  29.670  1.00  0.00     0.074 A 
ATOM     44  C   UNL A   1      39.220  27.867  29.728  1.00  0.00     0.031 C 
ATOM     45  C   UNL A   1      44.937  25.734  26.515  1.00  0.00     0.029 A 
ATOM     46  C   UNL A   1      44.963  27.125  26.969  1.00  0.00     0.049 A 
ATOM     47  H   UNL A   1      43.485  28.119  28.050  1.00  0.00     0.167 HD
ATOM     48  C   UNL A   1      40.201  30.085  30.243  1.00  0.00     0.034 A 
ATOM     49  C   UNL A   1      45.969  28.003  26.771  1.00  0.00     0.034 A 
ATOM     50  C   UNL A   1      41.236  31.081  30.120  1.00  0.00     0.049 A 
ATOM     51  C   UNL A   1      45.807  29.417  27.284  1.00  0.00     0.074 A 
ATOM     52  C   UNL A   1      41.250  32.378  30.601  1.00  0.00     0.029 A 
ATOM     53  N   UNL A   1      42.438  30.893  29.446  1.00  0.00    -0.354 N 
ATOM     54  N   UNL A   1      44.805  29.944  27.952  1.00  0.00    -0.248 NA
ATOM     55  C   UNL A   1      46.906  30.356  27.016  1.00  0.00     0.031 C 
ATOM     56  C   UNL A   1      42.425  32.995  30.160  1.00  0.00     0.029 A 
ATOM     57  C   UNL A   1      43.184  32.059  29.473  1.00  0.00     0.049 A 
ATOM     58  H   UNL A   1      42.716  30.055  29.014  1.00  0.00     0.167 HD
ATOM     59  C   UNL A   1      45.174  31.262  28.218  1.00  0.00     0.074 A 
ATOM     60  C   UNL A   1      46.485  31.452  27.634  1.00  0.00     0.031 C 
ATOM     61  C   UNL A   1      44.496  32.223  28.893  1.00  0.00     0.034 A 
BRANCH  48  62
ATOM     62  C   UNL A   1      38.924  30.431  30.964  1.00  0.00     0.023 A 
ATOM     63  C   UNL A   1      37.922  31.211  30.359  1.00  0.00     0.031 A 
ATOM     64  C   UNL A   1      38.733  30.028  32.297  1.00  0.00     0.131 A 
ATOM     65  C   UNL A   1      36.809  31.622  31.110  1.00  0.00     0.055 A 
ATOM     66  C   UNL A   1      37.588  30.375  33.014  1.00  0.00     0.041 A 
ATOM     67  F   UNL A   1      39.671  29.309  32.934  1.00  0.00    -0.206 F 
ATOM     68  C   UNL A   1      36.624  31.190  32.426  1.00  0.00     0.022 A 
BRANCH  65  69
ATOM     69  S   UNL A   1      35.684  32.851  30.393  1.00  0.00     0.124 S 
ATOM     70  O   UNL A   1      35.923  32.672  28.963  1.00  0.00    -0.237 OA
ATOM     71  O   UNL A   1      34.383  32.413  30.883  1.00  0.00    -0.237 OA
ATOM     72  O   UNL A   1      36.164  34.118  30.943  1.00  0.00    -0.744 OA
ENDBRANCH  65  69
ENDBRANCH  48  62
BRANCH  49  73
ATOM     73  C   UNL A   1      47.181  27.612  25.992  1.00  0.00     0.023 A 
ATOM     74  C   UNL A   1      47.295  27.895  24.622  1.00  0.00     0.031 A 
ATOM     75  C   UNL A   1      48.219  26.881  26.600  1.00  0.00     0.131 A 
ATOM     76  C   UNL A   1      48.397  27.412  23.896  1.00  0.00     0.055 A 
ATOM     77  C   UNL A   1      49.339  26.452  25.886  1.00  0.00     0.041 A 
ATOM     78  F   UNL A   1      48.158  26.570  27.905  1.00  0.00    -0.206 F 
ATOM     79  C   UNL A   1      49.427  26.706  24.522  1.00  0.00     0.022 A 
BRANCH  76  80
ATOM     80  S   UNL A   1      48.419  27.634  22.095  1.00  0.00     0.124 S 
ATOM     81  O   UNL A   1      47.103  28.214  21.852  1.00  0.00    -0.237 OA
ATOM     82  O   UNL A   1      49.558  28.527  21.912  1.00  0.00    -0.237 OA
ATOM     83  O   UNL A   1      48.606  26.276  21.587  1.00  0.00    -0.744 OA
ENDBRANCH  76  80
ENDBRANCH  49  73
BRANCH  61  84
ATOM     84  C   UNL A   1      45.190  33.545  29.109  1.00  0.00     0.023 A 
ATOM     85  C   UNL A   1      45.019  34.631  28.237  1.00  0.00     0.031 A 
ATOM     86  C   UNL A   1      46.001  33.723  30.245  1.00  0.00     0.131 A 
ATOM     87  C   UNL A   1      45.674  35.845  28.502  1.00  0.00     0.055 A 
ATOM     88  C   UNL A   1      46.611  34.944  30.528  1.00  0.00     0.041 A 
ATOM     89  F   UNL A   1      46.195  32.714  31.111  1.00  0.00    -0.206 F 
ATOM     90  C   UNL A   1      46.454  36.012  29.650  1.00  0.00     0.022 A 
BRANCH  87  91
ATOM     91  S   UNL A   1      45.525  37.201  27.306  1.00  0.00     0.124 S 
ATOM     92  O   UNL A   1      45.976  38.347  28.090  1.00  0.00    -0.237 OA
ATOM     93  O   UNL A   1      46.416  36.773  26.232  1.00  0.00    -0.237 OA
ATOM     94  O   UNL A   1      44.103  37.204  26.965  1.00  0.00    -0.744 OA
ENDBRANCH  87  91
ENDBRANCH  61  84
ENDBRANCH  35  36
ENDBRANCH  28  30
ENDBRANCH  27  28
ENDBRANCH   1  27
TORSDOF 18
ENDMDL
MODEL 2
REMARK VINA RESULT:     -11.6      4.855     10.183
REMARK SMILES CCc1cc(OC(F)(F)F)cc2c1O[C@@H](C(F)(F)F)C(C(=O)OCCOC(=O)c1ccc(-c3c4nc(c(-c5cc(S(=O)(=O)[O-])ccc5F)c5ccc([nH]5)c(-c5cc(S(=O)(=O)[O-])ccc5F)c5nc(c(-c6cc(S(=O)(=O)[O-])ccc6F)c6ccc3[nH]6)C=C5)C=C4)cc1)=C2
REMARK SMILES IDX 25 1 24 2 23 3 21 4 22 5 20 6 3 7 4 8 13 9 5 10 12 11 14 12
REMARK SMILES IDX 11 13 92 14 15 15 2 16 1 17 6 18 7 19 8 20 9 21 10 22 16 23
REMARK SMILES IDX 17 24 18 25 19 26 26 27 27 28 28 29 29 30 30 31 91 32 31 33
REMARK SMILES IDX 90 34 32 35 33 36 34 37 84 38 35 39 89 40 83 41 85 42 36 43
REMARK SMILES IDX 88 44 82 45 81 46 37 48 69 49 49 50 68 51 50 52 53 53 67 54
REMARK SMILES IDX 86 55 51 56 52 57 66 59 87 60 54 61 38 62 39 63 47 64 40 65
REMARK SMILES IDX 46 66 48 67 45 68 41 69 42 70 43 71 44 72 70 73 71 74 79 75
REMARK SMILES IDX 72 76 78 77 80 78 77 79 73 80 74 81 75 82 76 83 55 84 56 85
REMARK SMILES IDX 64 86 57 87 63 88 65 89 62 90 58 91 59 92 60 93 61 94
REMARK H PARENT 85 47 53 58
REMARK Flexibility Score: inf
ROOT
ATOM      1  C   UNL A   1      31.733  29.851  26.003  1.00  0.00     0.275 C 
ENDROOT
BRANCH   1   2
ATOM      2  C   UNL A   1      31.729  28.339  25.760  1.00  0.00     0.275 C 
BRANCH   2   3
ATOM      3  O   UNL A   1      33.035  27.869  25.366  1.00  0.00    -0.459 OA
BRANCH   3   4
ATOM      4  C   UNL A   1      33.118  27.281  24.147  1.00  0.00     0.338 C 
ATOM      5  O   UNL A   1      33.115  27.862  23.075  1.00  0.00    -0.246 OA
BRANCH   4   6
ATOM      6  C   UNL A   1      33.243  25.812  24.263  1.00  0.00     0.087 C 
ATOM      7  C   UNL A   1      33.343  21.647  24.643  1.00  0.00    -0.002 A 
ATOM      8  C   UNL A   1      34.525  21.023  25.072  1.00  0.00     0.054 A 
ATOM      9  C   UNL A   1      33.292  23.047  24.611  1.00  0.00     0.131 A 
ATOM     10  C   UNL A   1      35.626  21.781  25.473  1.00  0.00     0.130 A 
ATOM     11  C   UNL A   1      34.408  23.820  24.945  1.00  0.00     0.021 A 
ATOM     12  O   UNL A   1      32.088  23.626  24.318  1.00  0.00    -0.475 OA
ATOM     13  C   UNL A   1      35.573  23.178  25.378  1.00  0.00     0.058 A 
ATOM     14  C   UNL A   1      34.322  25.279  24.863  1.00  0.00     0.027 C 
ATOM     15  C   UNL A   1      32.148  24.934  23.691  1.00  0.00     0.316 C 
BRANCH   7  16
ATOM     16  C   UNL A   1      32.189  20.801  24.153  1.00  0.00     0.036 C 
ATOM     17  C   UNL A   1      32.672  19.437  23.675  1.00  0.00     0.009 C 
ENDBRANCH   7  16
BRANCH  10  18
ATOM     18  O   UNL A   1      36.805  21.282  25.955  1.00  0.00    -0.406 OA
BRANCH  18  19
ATOM     19  C   UNL A   1      37.615  20.552  25.045  1.00  0.00     0.573 C 
ATOM     20  F   UNL A   1      37.246  19.254  24.981  1.00  0.00    -0.132 F 
ATOM     21  F   UNL A   1      37.574  21.096  23.811  1.00  0.00    -0.132 F 
ATOM     22  F   UNL A   1      38.896  20.595  25.478  1.00  0.00    -0.132 F 
ENDBRANCH  18  19
ENDBRANCH  10  18
BRANCH  15  23
ATOM     23  C   UNL A   1      30.712  25.488  23.660  1.00  0.00     0.430 C 
ATOM     24  F   UNL A   1      30.591  26.523  22.798  1.00  0.00    -0.167 F 
ATOM     25  F   UNL A   1      29.849  24.535  23.220  1.00  0.00    -0.167 F 
ATOM     26  F   UNL A   1      30.280  25.878  24.879  1.00  0.00    -0.167 F 
ENDBRANCH  15  23
ENDBRANCH   4   6
ENDBRANCH   3   4
ENDBRANCH   2   3
ENDBRANCH   1   2
BRANCH   1  27
ATOM     27  O   UNL A   1      33.071  30.379  26.028  1.00  0.00    -0.458 OA
BRANCH  27  28
ATOM     28  C   UNL A   1      33.280  31.361  26.938  1.00  0.00     0.338 C 
ATOM     29  O   UNL A   1      32.483  32.226  27.265  1.00  0.00    -0.246 OA
BRANCH  28  30
ATOM     30  C   UNL A   1      34.570  31.155  27.628  1.00  0.00     0.060 A 
ATOM     31  C   UNL A   1      34.870  29.852  28.036  1.00  0.00     0.016 A 
ATOM     32  C   UNL A   1      35.464  32.195  27.894  1.00  0.00     0.016 A 
ATOM     33  C   UNL A   1      36.087  29.561  28.645  1.00  0.00     0.010 A 
ATOM     34  C   UNL A   1      36.660  31.915  28.568  1.00  0.00     0.010 A 
ATOM     35  C   UNL A   1      36.978  30.597  28.939  1.00  0.00    -0.014 A 
BRANCH  35  36
ATOM     36  C   UNL A   1      38.166  30.317  29.778  1.00  0.00     0.031 A 
ATOM     37  C   UNL A   1      39.187  29.341  29.270  1.00  0.00     0.074 A 
ATOM     38  C   UNL A   1      38.342  30.943  30.955  1.00  0.00     0.049 A 
ATOM     39  N   UNL A   1      40.253  28.871  29.862  1.00  0.00    -0.248 NA
ATOM     40  C   UNL A   1      38.981  28.837  27.903  1.00  0.00     0.031 C 
ATOM     41  C   UNL A   1      37.471  31.987  31.492  1.00  0.00     0.029 A 
ATOM     42  N   UNL A   1      39.310  30.784  31.915  1.00  0.00    -0.354 N 
ATOM     43  C   UNL A   1      40.850  28.021  28.938  1.00  0.00     0.074 A 
ATOM     44  C   UNL A   1      40.021  28.031  27.754  1.00  0.00     0.031 C 
ATOM     45  C   UNL A   1      37.930  32.356  32.702  1.00  0.00     0.029 A 
ATOM     46  C   UNL A   1      39.095  31.540  33.044  1.00  0.00     0.049 A 
ATOM     47  H   UNL A   1      40.085  30.187  31.806  1.00  0.00     0.167 HD
ATOM     48  C   UNL A   1      41.983  27.290  29.075  1.00  0.00     0.034 A 
ATOM     49  C   UNL A   1      39.740  31.537  34.230  1.00  0.00     0.034 A 
ATOM     50  C   UNL A   1      42.761  27.246  30.287  1.00  0.00     0.049 A 
ATOM     51  C   UNL A   1      40.911  30.598  34.416  1.00  0.00     0.074 A 
ATOM     52  C   UNL A   1      43.889  26.495  30.565  1.00  0.00     0.029 A 
ATOM     53  N   UNL A   1      42.475  27.975  31.436  1.00  0.00    -0.354 N 
ATOM     54  N   UNL A   1      41.447  29.764  33.553  1.00  0.00    -0.248 NA
ATOM     55  C   UNL A   1      41.563  30.595  35.733  1.00  0.00     0.031 C 
ATOM     56  C   UNL A   1      44.243  26.715  31.900  1.00  0.00     0.029 A 
ATOM     57  C   UNL A   1      43.386  27.667  32.432  1.00  0.00     0.049 A 
ATOM     58  H   UNL A   1      41.734  28.615  31.528  1.00  0.00     0.167 HD
ATOM     59  C   UNL A   1      42.522  29.171  34.211  1.00  0.00     0.074 A 
ATOM     60  C   UNL A   1      42.556  29.736  35.544  1.00  0.00     0.031 C 
ATOM     61  C   UNL A   1      43.408  28.252  33.753  1.00  0.00     0.034 A 
BRANCH  48  62
ATOM     62  C   UNL A   1      42.376  26.415  27.912  1.00  0.00     0.023 A 
ATOM     63  C   UNL A   1      41.871  25.111  27.765  1.00  0.00     0.031 A 
ATOM     64  C   UNL A   1      43.317  26.869  26.972  1.00  0.00     0.131 A 
ATOM     65  C   UNL A   1      42.364  24.282  26.745  1.00  0.00     0.055 A 
ATOM     66  C   UNL A   1      43.746  26.067  25.913  1.00  0.00     0.041 A 
ATOM     67  F   UNL A   1      43.856  28.094  27.082  1.00  0.00    -0.206 F 
ATOM     68  C   UNL A   1      43.280  24.760  25.804  1.00  0.00     0.022 A 
BRANCH  65  69
ATOM     69  S   UNL A   1      41.906  22.527  26.753  1.00  0.00     0.124 S 
ATOM     70  O   UNL A   1      42.172  22.146  25.368  1.00  0.00    -0.237 OA
ATOM     71  O   UNL A   1      42.808  21.969  27.754  1.00  0.00    -0.237 OA
ATOM     72  O   UNL A   1      40.493  22.543  27.126  1.00  0.00    -0.744 OA
ENDBRANCH  65  69
ENDBRANCH  48  62
BRANCH  49  73
ATOM     73  C   UNL A   1      39.258  32.384  35.361  1.00  0.00     0.023 A 
ATOM     74  C   UNL A   1      39.716  33.700  35.538  1.00  0.00     0.031 A 
ATOM     75  C   UNL A   1      38.379  31.860  36.326  1.00  0.00     0.131 A 
ATOM     76  C   UNL A   1      39.330  34.429  36.676  1.00  0.00     0.055 A 
ATOM     77  C   UNL A   1      37.953  32.609  37.425  1.00  0.00     0.041 A 
ATOM     78  F   UNL A   1      37.917  30.603  36.216  1.00  0.00    -0.206 F 
ATOM     79  C   UNL A   1      38.440  33.898  37.612  1.00  0.00     0.022 A 
BRANCH  76  80
ATOM     80  S   UNL A   1      40.087  36.052  36.969  1.00  0.00     0.124 S 
ATOM     81  O   UNL A   1      41.480  35.691  37.207  1.00  0.00    -0.237 OA
ATOM     82  O   UNL A   1      39.808  36.748  35.718  1.00  0.00    -0.237 OA
ATOM     83  O   UNL A   1      39.366  36.558  38.136  1.00  0.00    -0.744 OA
ENDBRANCH  76  80
ENDBRANCH  49  73
BRANCH  61  84
ATOM     84  C   UNL A   1      44.539  27.856  34.668  1.00  0.00     0.023 A 
ATOM     85  C   UNL A   1      44.497  26.688  35.447  1.00  0.00     0.031 A 
ATOM     86  C   UNL A   1      45.700  28.649  34.717  1.00  0.00     0.131 A 
ATOM     87  C   UNL A   1      45.591  26.360  36.265  1.00  0.00     0.055 A 
ATOM     88  C   UNL A   1      46.801  28.293  35.495  1.00  0.00     0.041 A 
ATOM     89  F   UNL A   1      45.789  29.775  33.989  1.00  0.00    -0.206 F 
ATOM     90  C   UNL A   1      46.747  27.145  36.279  1.00  0.00     0.022 A 
BRANCH  87  91
ATOM     91  S   UNL A   1      45.474  24.905  37.343  1.00  0.00     0.124 S 
ATOM     92  O   UNL A   1      46.851  24.421  37.350  1.00  0.00    -0.237 OA
ATOM     93  O   UNL A   1      44.993  25.479  38.595  1.00  0.00    -0.237 OA
ATOM     94  O   UNL A   1      44.517  24.041  36.652  1.00  0.00    -0.744 OA
ENDBRANCH  87  91
ENDBRANCH  61  84
ENDBRANCH  35  36
ENDBRANCH  28  30
ENDBRANCH  27  28
ENDBRANCH   1  27
TORSDOF 18
ENDMDL
MODEL 3
REMARK VINA RESULT:     -11.6      1.421      1.628
REMARK SMILES CCc1cc(OC(F)(F)F)cc2c1O[C@@H](C(F)(F)F)C(C(=O)OCCOC(=O)c1ccc(-c3c4nc(c(-c5cc(S(=O)(=O)[O-])ccc5F)c5ccc([nH]5)c(-c5cc(S(=O)(=O)[O-])ccc5F)c5nc(c(-c6cc(S(=O)(=O)[O-])ccc6F)c6ccc3[nH]6)C=C5)C=C4)cc1)=C2
REMARK SMILES IDX 25 1 24 2 23 3 21 4 22 5 20 6 3 7 4 8 13 9 5 10 12 11 14 12
REMARK SMILES IDX 11 13 92 14 15 15 2 16 1 17 6 18 7 19 8 20 9 21 10 22 16 23
REMARK SMILES IDX 17 24 18 25 19 26 26 27 27 28 28 29 29 30 30 31 91 32 31 33
REMARK SMILES IDX 90 34 32 35 33 36 34 37 84 38 35 39 89 40 83 41 85 42 36 43
REMARK SMILES IDX 88 44 82 45 81 46 37 48 69 49 49 50 68 51 50 52 53 53 67 54
REMARK SMILES IDX 86 55 51 56 52 57 66 59 87 60 54 61 38 62 39 63 47 64 40 65
REMARK SMILES IDX 46 66 48 67 45 68 41 69 42 70 43 71 44 72 70 73 71 74 79 75
REMARK SMILES IDX 72 76 78 77 80 78 77 79 73 80 74 81 75 82 76 83 55 84 56 85
REMARK SMILES IDX 64 86 57 87 63 88 65 89 62 90 58 91 59 92 60 93 61 94
REMARK H PARENT 85 47 53 58
REMARK Flexibility Score: inf
ROOT
ATOM      1  C   UNL A   1      36.636  20.434  25.013  1.00  0.00     0.275 C 
ENDROOT
BRANCH   1   2
ATOM      2  C   UNL A   1      35.158  20.830  24.965  1.00  0.00     0.275 C 
BRANCH   2   3
ATOM      3  O   UNL A   1      34.966  22.191  25.406  1.00  0.00    -0.459 OA
BRANCH   3   4
ATOM      4  C   UNL A   1      33.792  22.460  26.028  1.00  0.00     0.338 C 
ATOM      5  O   UNL A   1      33.281  21.786  26.905  1.00  0.00    -0.246 OA
BRANCH   4   6
ATOM      6  C   UNL A   1      33.192  23.717  25.529  1.00  0.00     0.087 C 
ATOM      7  C   UNL A   1      31.478  27.161  23.885  1.00  0.00    -0.002 A 
ATOM      8  C   UNL A   1      31.790  28.415  24.434  1.00  0.00     0.054 A 
ATOM      9  C   UNL A   1      32.131  26.024  24.382  1.00  0.00     0.131 A 
ATOM     10  C   UNL A   1      32.743  28.531  25.447  1.00  0.00     0.130 A 
ATOM     11  C   UNL A   1      33.038  26.117  25.442  1.00  0.00     0.021 A 
ATOM     12  O   UNL A   1      31.907  24.839  23.740  1.00  0.00    -0.475 OA
ATOM     13  C   UNL A   1      33.340  27.377  25.969  1.00  0.00     0.058 A 
ATOM     14  C   UNL A   1      33.670  24.900  25.954  1.00  0.00     0.027 C 
ATOM     15  C   UNL A   1      32.038  23.642  24.550  1.00  0.00     0.316 C 
BRANCH   7  16
ATOM     16  C   UNL A   1      30.396  27.055  22.834  1.00  0.00     0.036 C 
ATOM     17  C   UNL A   1      29.253  28.021  23.123  1.00  0.00     0.009 C 
ENDBRANCH   7  16
BRANCH  10  18
ATOM     18  O   UNL A   1      33.159  29.703  26.018  1.00  0.00    -0.406 OA
BRANCH  18  19
ATOM     19  C   UNL A   1      32.193  30.444  26.747  1.00  0.00     0.573 C 
ATOM     20  F   UNL A   1      31.402  31.171  25.928  1.00  0.00    -0.132 F 
ATOM     21  F   UNL A   1      31.430  29.634  27.510  1.00  0.00    -0.132 F 
ATOM     22  F   UNL A   1      32.838  31.305  27.567  1.00  0.00    -0.132 F 
ENDBRANCH  18  19
ENDBRANCH  10  18
BRANCH  15  23
ATOM     23  C   UNL A   1      31.971  22.437  23.594  1.00  0.00     0.430 C 
ATOM     24  F   UNL A   1      31.775  21.276  24.261  1.00  0.00    -0.167 F 
ATOM     25  F   UNL A   1      30.914  22.564  22.749  1.00  0.00    -0.167 F 
ATOM     26  F   UNL A   1      33.077  22.320  22.827  1.00  0.00    -0.167 F 
ENDBRANCH  15  23
ENDBRANCH   4   6
ENDBRANCH   3   4
ENDBRANCH   2   3
ENDBRANCH   1   2
BRANCH   1  27
ATOM     27  O   UNL A   1      37.453  21.500  25.529  1.00  0.00    -0.458 OA
BRANCH  27  28
ATOM     28  C   UNL A   1      38.693  21.127  25.929  1.00  0.00     0.338 C 
ATOM     29  O   UNL A   1      39.213  20.037  25.752  1.00  0.00    -0.246 OA
BRANCH  28  30
ATOM     30  C   UNL A   1      39.426  22.287  26.476  1.00  0.00     0.060 A 
ATOM     31  C   UNL A   1      39.049  23.551  26.013  1.00  0.00     0.016 A 
ATOM     32  C   UNL A   1      40.466  22.163  27.400  1.00  0.00     0.016 A 
ATOM     33  C   UNL A   1      39.651  24.701  26.517  1.00  0.00     0.010 A 
ATOM     34  C   UNL A   1      41.119  23.315  27.858  1.00  0.00     0.010 A 
ATOM     35  C   UNL A   1      40.709  24.587  27.422  1.00  0.00    -0.014 A 
BRANCH  35  36
ATOM     36  C   UNL A   1      41.488  25.794  27.785  1.00  0.00     0.031 A 
ATOM     37  C   UNL A   1      40.808  26.872  28.576  1.00  0.00     0.074 A 
ATOM     38  C   UNL A   1      42.782  25.909  27.439  1.00  0.00     0.049 A 
ATOM     39  N   UNL A   1      41.253  28.049  28.930  1.00  0.00    -0.248 NA
ATOM     40  C   UNL A   1      39.443  26.576  29.042  1.00  0.00     0.031 C 
ATOM     41  C   UNL A   1      43.569  24.877  26.767  1.00  0.00     0.029 A 
ATOM     42  N   UNL A   1      43.659  26.952  27.600  1.00  0.00    -0.354 N 
ATOM     43  C   UNL A   1      40.227  28.633  29.665  1.00  0.00     0.074 A 
ATOM     44  C   UNL A   1      39.135  27.685  29.695  1.00  0.00     0.031 C 
ATOM     45  C   UNL A   1      44.809  25.351  26.547  1.00  0.00     0.029 A 
ATOM     46  C   UNL A   1      44.886  26.734  27.017  1.00  0.00     0.049 A 
ATOM     47  H   UNL A   1      43.433  27.777  28.086  1.00  0.00     0.167 HD
ATOM     48  C   UNL A   1      40.199  29.855  30.250  1.00  0.00     0.034 A 
ATOM     49  C   UNL A   1      45.930  27.573  26.845  1.00  0.00     0.034 A 
ATOM     50  C   UNL A   1      41.276  30.808  30.155  1.00  0.00     0.049 A 
ATOM     51  C   UNL A   1      45.819  28.987  27.372  1.00  0.00     0.074 A 
ATOM     52  C   UNL A   1      41.335  32.098  30.651  1.00  0.00     0.029 A 
ATOM     53  N   UNL A   1      42.479  30.578  29.498  1.00  0.00    -0.354 N 
ATOM     54  N   UNL A   1      44.829  29.547  28.030  1.00  0.00    -0.248 NA
ATOM     55  C   UNL A   1      46.959  29.882  27.132  1.00  0.00     0.031 C 
ATOM     56  C   UNL A   1      42.542  32.670  30.235  1.00  0.00     0.029 A 
ATOM     57  C   UNL A   1      43.272  31.711  29.550  1.00  0.00     0.049 A 
ATOM     58  H   UNL A   1      42.730  29.733  29.060  1.00  0.00     0.167 HD
ATOM     59  C   UNL A   1      45.248  30.845  28.317  1.00  0.00     0.074 A 
ATOM     60  C   UNL A   1      46.575  30.987  27.755  1.00  0.00     0.031 C 
ATOM     61  C   UNL A   1      44.600  31.827  28.993  1.00  0.00     0.034 A 
BRANCH  48  62
ATOM     62  C   UNL A   1      38.925  30.246  30.956  1.00  0.00     0.023 A 
ATOM     63  C   UNL A   1      37.867  30.875  30.275  1.00  0.00     0.031 A 
ATOM     64  C   UNL A   1      38.793  30.043  32.340  1.00  0.00     0.131 A 
ATOM     65  C   UNL A   1      36.756  31.343  30.993  1.00  0.00     0.055 A 
ATOM     66  C   UNL A   1      37.651  30.441  33.036  1.00  0.00     0.041 A 
ATOM     67  F   UNL A   1      39.785  29.475  33.045  1.00  0.00    -0.206 F 
ATOM     68  C   UNL A   1      36.630  31.109  32.365  1.00  0.00     0.022 A 
BRANCH  65  69
ATOM     69  S   UNL A   1      35.548  32.392  30.139  1.00  0.00     0.124 S 
ATOM     70  O   UNL A   1      35.269  31.605  28.941  1.00  0.00    -0.237 OA
ATOM     71  O   UNL A   1      34.465  32.483  31.110  1.00  0.00    -0.237 OA
ATOM     72  O   UNL A   1      36.280  33.635  29.902  1.00  0.00    -0.744 OA
ENDBRANCH  65  69
ENDBRANCH  48  62
BRANCH  49  73
ATOM     73  C   UNL A   1      47.137  27.139  26.081  1.00  0.00     0.023 A 
ATOM     74  C   UNL A   1      48.215  26.501  26.715  1.00  0.00     0.031 A 
ATOM     75  C   UNL A   1      47.258  27.423  24.708  1.00  0.00     0.131 A 
ATOM     76  C   UNL A   1      49.383  26.209  25.989  1.00  0.00     0.055 A 
ATOM     77  C   UNL A   1      48.397  27.080  23.978  1.00  0.00     0.041 A 
ATOM     78  F   UNL A   1      46.264  28.043  24.051  1.00  0.00    -0.206 F 
ATOM     79  C   UNL A   1      49.475  26.480  24.621  1.00  0.00     0.022 A 
BRANCH  76  80
ATOM     80  S   UNL A   1      50.823  25.558  26.879  1.00  0.00     0.124 S 
ATOM     81  O   UNL A   1      50.234  24.456  27.630  1.00  0.00    -0.237 OA
ATOM     82  O   UNL A   1      51.715  25.188  25.786  1.00  0.00    -0.237 OA
ATOM     83  O   UNL A   1      51.267  26.695  27.685  1.00  0.00    -0.744 OA
ENDBRANCH  76  80
ENDBRANCH  49  73
BRANCH  61  84
ATOM     84  C   UNL A   1      45.344  33.116  29.235  1.00  0.00     0.023 A 
ATOM     85  C   UNL A   1      45.315  34.180  28.319  1.00  0.00     0.031 A 
ATOM     86  C   UNL A   1      46.057  33.288  30.436  1.00  0.00     0.131 A 
ATOM     87  C   UNL A   1      46.010  35.365  28.610  1.00  0.00     0.055 A 
ATOM     88  C   UNL A   1      46.706  34.484  30.739  1.00  0.00     0.041 A 
ATOM     89  F   UNL A   1      46.113  32.300  31.344  1.00  0.00    -0.206 F 
ATOM     90  C   UNL A   1      46.690  35.529  29.820  1.00  0.00     0.022 A 
BRANCH  87  91
ATOM     91  S   UNL A   1      46.048  36.687  27.367  1.00  0.00     0.124 S 
ATOM     92  O   UNL A   1      47.377  37.255  27.569  1.00  0.00    -0.237 OA
ATOM     93  O   UNL A   1      45.850  35.953  26.121  1.00  0.00    -0.237 OA
ATOM     94  O   UNL A   1      44.937  37.555  27.755  1.00  0.00    -0.744 OA
ENDBRANCH  87  91
ENDBRANCH  61  84
ENDBRANCH  35  36
ENDBRANCH  28  30
ENDBRANCH  27  28
ENDBRANCH   1  27
TORSDOF 18
ENDMDL
