MODEL 1
REMARK VINA RESULT:     -12.4      0.000      0.000
REMARK SMILES CC(C)C[C@H](C(=O)OCCOC(=O)c1ccc(-c2c3nc(c(-c4cc(S(=O)(=O)[O-])ccc4F)c4ccc([nH]4)c(-c4cc(S(=O)(=O)[O-])ccc4F)c4nc(c(-c5cc(S(=O)(=O)[O-])ccc5F)c5ccc2[nH]5)C=C4)C=C3)cc1)N1C(=O)/C(=C2\C(=O)Nc3ccc(Br)cc32)SC1=S
REMARK SMILES IDX 10 1 9 2 8 3 6 4 7 5 5 6 4 7 2 8 1 9 3 10 77 11 78 12 93 13
REMARK SMILES IDX 79 14 80 15 92 16 94 17 81 18 82 19 91 20 83 21 84 22 85 23
REMARK SMILES IDX 90 24 86 26 88 27 87 28 89 29 11 30 12 31 13 32 14 33 15 34
REMARK SMILES IDX 76 35 16 36 75 37 17 38 18 39 19 40 69 41 20 42 74 43 68 44
REMARK SMILES IDX 70 45 21 46 73 47 67 48 66 49 22 51 54 52 34 53 53 54 35 55
REMARK SMILES IDX 38 56 52 57 71 58 36 59 37 60 51 62 72 63 39 64 23 65 24 66
REMARK SMILES IDX 32 67 25 68 31 69 33 70 30 71 26 72 27 73 28 74 29 75 55 76
REMARK SMILES IDX 56 77 64 78 57 79 63 80 65 81 62 82 58 83 59 84 60 85 61 86
REMARK SMILES IDX 40 87 41 88 49 89 42 90 48 91 50 92 47 93 43 94 44 95 45 96
REMARK SMILES IDX 46 97
REMARK H PARENT 84 25 70 50 38 61
REMARK Flexibility Score: inf
ROOT
ATOM      1  C   UNL A   1      38.742  19.416  25.590  1.00  0.00     0.275 C 
ENDROOT
BRANCH   1   2
ATOM      2  C   UNL A   1      37.606  19.880  24.684  1.00  0.00     0.274 C 
BRANCH   2   3
ATOM      3  O   UNL A   1      36.705  20.736  25.413  1.00  0.00    -0.461 OA
BRANCH   3   4
ATOM      4  C   UNL A   1      36.014  21.662  24.709  1.00  0.00     0.329 C 
ATOM      5  O   UNL A   1      36.507  22.684  24.241  1.00  0.00    -0.250 OA
BRANCH   4   6
ATOM      6  C   UNL A   1      34.548  21.268  24.457  1.00  0.00     0.202 C 
BRANCH   6   7
ATOM      7  C   UNL A   1      34.211  19.867  25.025  1.00  0.00     0.040 C 
BRANCH   7   8
ATOM      8  C   UNL A   1      32.781  19.364  24.716  1.00  0.00    -0.015 C 
ATOM      9  C   UNL A   1      32.543  19.102  23.225  1.00  0.00     0.007 C 
ATOM     10  C   UNL A   1      32.499  18.073  25.491  1.00  0.00     0.007 C 
ENDBRANCH   7   8
ENDBRANCH   6   7
BRANCH   6  11
ATOM     11  N   UNL A   1      33.505  22.228  24.863  1.00  0.00    -0.278 N 
ATOM     12  C   UNL A   1      32.842  22.970  23.911  1.00  0.00     0.267 C 
ATOM     13  C   UNL A   1      33.295  22.655  26.154  1.00  0.00     0.149 C 
ATOM     14  O   UNL A   1      32.248  22.511  22.948  1.00  0.00    -0.268 OA
ATOM     15  C   UNL A   1      32.660  24.357  24.399  1.00  0.00     0.093 C 
ATOM     16  S   UNL A   1      32.644  24.297  26.124  1.00  0.00    -0.053 SA
ATOM     17  S   UNL A   1      33.598  21.852  27.582  1.00  0.00    -0.052 S 
ATOM     18  C   UNL A   1      32.502  25.425  23.607  1.00  0.00     0.069 C 
ATOM     19  C   UNL A   1      32.487  25.342  22.100  1.00  0.00     0.257 C 
ATOM     20  C   UNL A   1      32.175  26.820  23.943  1.00  0.00     0.013 A 
ATOM     21  O   UNL A   1      32.963  24.498  21.373  1.00  0.00    -0.269 OA
ATOM     22  N   UNL A   1      31.890  26.519  21.687  1.00  0.00    -0.321 N 
ATOM     23  C   UNL A   1      31.724  27.397  22.749  1.00  0.00     0.049 A 
ATOM     24  C   UNL A   1      32.286  27.597  25.082  1.00  0.00     0.026 A 
ATOM     25  H   UNL A   1      31.618  26.710  20.760  1.00  0.00     0.170 HD
ATOM     26  C   UNL A   1      31.268  28.696  22.664  1.00  0.00     0.028 A 
ATOM     27  C   UNL A   1      31.865  28.930  25.007  1.00  0.00     0.018 A 
ATOM     28  C   UNL A   1      31.334  29.469  23.822  1.00  0.00     0.018 A 
ATOM     29  Br  UNL A   1      32.039  30.046  26.527  1.00  0.00    -0.051 Br
ENDBRANCH   6  11
ENDBRANCH   4   6
ENDBRANCH   3   4
ENDBRANCH   2   3
ENDBRANCH   1   2
BRANCH   1  30
ATOM     30  O   UNL A   1      39.736  20.450  25.706  1.00  0.00    -0.458 OA
BRANCH  30  31
ATOM     31  C   UNL A   1      40.331  20.520  26.916  1.00  0.00     0.338 C 
ATOM     32  O   UNL A   1      40.705  19.598  27.621  1.00  0.00    -0.246 OA
BRANCH  31  33
ATOM     33  C   UNL A   1      40.552  21.922  27.286  1.00  0.00     0.060 A 
ATOM     34  C   UNL A   1      39.917  22.921  26.548  1.00  0.00     0.016 A 
ATOM     35  C   UNL A   1      41.527  22.241  28.227  1.00  0.00     0.016 A 
ATOM     36  C   UNL A   1      40.347  24.237  26.661  1.00  0.00     0.010 A 
ATOM     37  C   UNL A   1      41.874  23.581  28.420  1.00  0.00     0.010 A 
ATOM     38  C   UNL A   1      41.316  24.587  27.610  1.00  0.00    -0.014 A 
BRANCH  38  39
ATOM     39  C   UNL A   1      41.746  26.003  27.752  1.00  0.00     0.031 A 
ATOM     40  C   UNL A   1      43.062  26.459  27.184  1.00  0.00     0.074 A 
ATOM     41  C   UNL A   1      40.946  26.876  28.396  1.00  0.00     0.049 A 
ATOM     42  N   UNL A   1      43.682  27.601  27.340  1.00  0.00    -0.248 NA
ATOM     43  C   UNL A   1      43.783  25.496  26.336  1.00  0.00     0.031 C 
ATOM     44  C   UNL A   1      39.627  26.562  28.951  1.00  0.00     0.029 A 
ATOM     45  N   UNL A   1      41.124  28.202  28.698  1.00  0.00    -0.354 N 
ATOM     46  C   UNL A   1      44.880  27.484  26.643  1.00  0.00     0.074 A 
ATOM     47  C   UNL A   1      44.909  26.149  26.084  1.00  0.00     0.031 C 
ATOM     48  C   UNL A   1      39.108  27.666  29.506  1.00  0.00     0.029 A 
ATOM     49  C   UNL A   1      40.092  28.738  29.433  1.00  0.00     0.049 A 
ATOM     50  H   UNL A   1      41.913  28.719  28.417  1.00  0.00     0.167 HD
ATOM     51  C   UNL A   1      45.859  28.410  26.483  1.00  0.00     0.034 A 
ATOM     52  C   UNL A   1      39.970  29.940  30.029  1.00  0.00     0.034 A 
ATOM     53  C   UNL A   1      45.798  29.742  27.043  1.00  0.00     0.049 A 
ATOM     54  C   UNL A   1      41.101  30.925  29.902  1.00  0.00     0.074 A 
ATOM     55  C   UNL A   1      46.726  30.764  26.942  1.00  0.00     0.029 A 
ATOM     56  N   UNL A   1      44.751  30.236  27.813  1.00  0.00    -0.354 N 
ATOM     57  N   UNL A   1      42.245  30.791  29.272  1.00  0.00    -0.248 NA
ATOM     58  C   UNL A   1      40.925  32.220  30.567  1.00  0.00     0.031 C 
ATOM     59  C   UNL A   1      46.274  31.847  27.703  1.00  0.00     0.029 A 
ATOM     60  C   UNL A   1      45.025  31.536  28.216  1.00  0.00     0.049 A 
ATOM     61  H   UNL A   1      43.934  29.736  28.039  1.00  0.00     0.167 HD
ATOM     62  C   UNL A   1      42.916  31.996  29.447  1.00  0.00     0.074 A 
ATOM     63  C   UNL A   1      42.039  32.848  30.226  1.00  0.00     0.031 C 
ATOM     64  C   UNL A   1      44.145  32.367  29.005  1.00  0.00     0.034 A 
BRANCH  51  65
ATOM     65  C   UNL A   1      47.099  27.993  25.725  1.00  0.00     0.023 A 
ATOM     66  C   UNL A   1      47.233  28.201  24.342  1.00  0.00     0.031 A 
ATOM     67  C   UNL A   1      48.155  27.349  26.396  1.00  0.00     0.131 A 
ATOM     68  C   UNL A   1      48.358  27.707  23.662  1.00  0.00     0.055 A 
ATOM     69  C   UNL A   1      49.309  26.931  25.729  1.00  0.00     0.041 A 
ATOM     70  F   UNL A   1      48.079  27.101  27.713  1.00  0.00    -0.206 F 
ATOM     71  C   UNL A   1      49.408  27.095  24.351  1.00  0.00     0.022 A 
BRANCH  68  72
ATOM     72  S   UNL A   1      48.363  27.741  21.849  1.00  0.00     0.124 S 
ATOM     73  O   UNL A   1      48.595  26.335  21.526  1.00  0.00    -0.237 OA
ATOM     74  O   UNL A   1      47.034  28.256  21.539  1.00  0.00    -0.237 OA
ATOM     75  O   UNL A   1      49.470  28.638  21.524  1.00  0.00    -0.744 OA
ENDBRANCH  68  72
ENDBRANCH  51  65
BRANCH  52  76
ATOM     76  C   UNL A   1      38.765  30.249  30.850  1.00  0.00     0.023 A 
ATOM     77  C   UNL A   1      37.694  30.982  30.319  1.00  0.00     0.031 A 
ATOM     78  C   UNL A   1      38.680  29.833  32.192  1.00  0.00     0.131 A 
ATOM     79  C   UNL A   1      36.601  31.311  31.136  1.00  0.00     0.055 A 
ATOM     80  C   UNL A   1      37.564  30.111  32.982  1.00  0.00     0.041 A 
ATOM     81  F   UNL A   1      39.677  29.127  32.750  1.00  0.00    -0.206 F 
ATOM     82  C   UNL A   1      36.521  30.867  32.458  1.00  0.00     0.022 A 
BRANCH  79  83
ATOM     83  S   UNL A   1      35.319  32.406  30.468  1.00  0.00     0.124 S 
ATOM     84  O   UNL A   1      36.052  33.656  30.305  1.00  0.00    -0.237 OA
ATOM     85  O   UNL A   1      34.943  31.717  29.239  1.00  0.00    -0.237 OA
ATOM     86  O   UNL A   1      34.298  32.412  31.514  1.00  0.00    -0.744 OA
ENDBRANCH  79  83
ENDBRANCH  52  76
BRANCH  64  87
ATOM     87  C   UNL A   1      44.582  33.777  29.319  1.00  0.00     0.023 A 
ATOM     88  C   UNL A   1      44.337  34.842  28.435  1.00  0.00     0.031 A 
ATOM     89  C   UNL A   1      45.277  34.051  30.511  1.00  0.00     0.131 A 
ATOM     90  C   UNL A   1      44.836  36.121  28.729  1.00  0.00     0.055 A 
ATOM     91  C   UNL A   1      45.713  35.337  30.827  1.00  0.00     0.041 A 
ATOM     92  F   UNL A   1      45.540  33.070  31.389  1.00  0.00    -0.206 F 
ATOM     93  C   UNL A   1      45.506  36.379  29.927  1.00  0.00     0.022 A 
BRANCH  90  94
ATOM     94  S   UNL A   1      44.681  37.424  27.478  1.00  0.00     0.124 S 
ATOM     95  O   UNL A   1      43.395  37.106  26.865  1.00  0.00    -0.237 OA
ATOM     96  O   UNL A   1      44.719  38.640  28.285  1.00  0.00    -0.237 OA
ATOM     97  O   UNL A   1      45.845  37.216  26.618  1.00  0.00    -0.744 OA
ENDBRANCH  90  94
ENDBRANCH  64  87
ENDBRANCH  38  39
ENDBRANCH  31  33
ENDBRANCH  30  31
ENDBRANCH   1  30
TORSDOF 17
ENDMDL
MODEL 2
REMARK VINA RESULT:     -12.3      5.044      8.213
REMARK SMILES CC(C)C[C@H](C(=O)OCCOC(=O)c1ccc(-c2c3nc(c(-c4cc(S(=O)(=O)[O-])ccc4F)c4ccc([nH]4)c(-c4cc(S(=O)(=O)[O-])ccc4F)c4nc(c(-c5cc(S(=O)(=O)[O-])ccc5F)c5ccc2[nH]5)C=C4)C=C3)cc1)N1C(=O)/C(=C2\C(=O)Nc3ccc(Br)cc32)SC1=S
REMARK SMILES IDX 10 1 9 2 8 3 6 4 7 5 5 6 4 7 2 8 1 9 3 10 77 11 78 12 93 13
REMARK SMILES IDX 79 14 80 15 92 16 94 17 81 18 82 19 91 20 83 21 84 22 85 23
REMARK SMILES IDX 90 24 86 26 88 27 87 28 89 29 11 30 12 31 13 32 14 33 15 34
REMARK SMILES IDX 76 35 16 36 75 37 17 38 18 39 19 40 69 41 20 42 74 43 68 44
REMARK SMILES IDX 70 45 21 46 73 47 67 48 66 49 22 51 54 52 34 53 53 54 35 55
REMARK SMILES IDX 38 56 52 57 71 58 36 59 37 60 51 62 72 63 39 64 23 65 24 66
REMARK SMILES IDX 32 67 25 68 31 69 33 70 30 71 26 72 27 73 28 74 29 75 55 76
REMARK SMILES IDX 56 77 64 78 57 79 63 80 65 81 62 82 58 83 59 84 60 85 61 86
REMARK SMILES IDX 40 87 41 88 49 89 42 90 48 91 50 92 47 93 43 94 44 95 45 96
REMARK SMILES IDX 46 97
REMARK H PARENT 84 25 70 50 38 61
REMARK Flexibility Score: inf
ROOT
ATOM      1  C   UNL A   1      31.592  30.738  25.930  1.00  0.00     0.275 C 
ENDROOT
BRANCH   1   2
ATOM      2  C   UNL A   1      31.396  29.373  25.277  1.00  0.00     0.274 C 
BRANCH   2   3
ATOM      3  O   UNL A   1      32.289  28.407  25.863  1.00  0.00    -0.461 OA
BRANCH   3   4
ATOM      4  C   UNL A   1      33.283  27.919  25.085  1.00  0.00     0.329 C 
ATOM      5  O   UNL A   1      34.409  28.401  25.019  1.00  0.00    -0.250 OA
BRANCH   4   6
ATOM      6  C   UNL A   1      32.900  26.623  24.349  1.00  0.00     0.202 C 
BRANCH   6   7
ATOM      7  C   UNL A   1      33.713  26.426  23.046  1.00  0.00     0.040 C 
BRANCH   7   8
ATOM      8  C   UNL A   1      32.863  26.231  21.768  1.00  0.00    -0.015 C 
ATOM      9  C   UNL A   1      32.918  24.802  21.218  1.00  0.00     0.007 C 
ATOM     10  C   UNL A   1      31.401  26.591  22.051  1.00  0.00     0.007 C 
ENDBRANCH   7   8
ENDBRANCH   6   7
BRANCH   6  11
ATOM     11  N   UNL A   1      32.904  25.370  25.127  1.00  0.00    -0.278 N 
ATOM     12  C   UNL A   1      34.076  24.667  25.292  1.00  0.00     0.267 C 
ATOM     13  C   UNL A   1      31.776  24.680  25.504  1.00  0.00     0.149 C 
ATOM     14  O   UNL A   1      35.114  25.122  25.747  1.00  0.00    -0.268 OA
ATOM     15  C   UNL A   1      33.806  23.214  25.168  1.00  0.00     0.093 C 
ATOM     16  S   UNL A   1      32.159  22.958  25.613  1.00  0.00    -0.053 SA
ATOM     17  S   UNL A   1      30.245  25.264  25.802  1.00  0.00    -0.052 S 
ATOM     18  C   UNL A   1      34.718  22.302  24.809  1.00  0.00     0.069 C 
ATOM     19  C   UNL A   1      36.151  22.647  24.487  1.00  0.00     0.257 C 
ATOM     20  C   UNL A   1      34.634  20.834  24.779  1.00  0.00     0.013 A 
ATOM     21  O   UNL A   1      36.624  23.702  24.122  1.00  0.00    -0.269 OA
ATOM     22  N   UNL A   1      36.836  21.450  24.592  1.00  0.00    -0.321 N 
ATOM     23  C   UNL A   1      35.960  20.383  24.740  1.00  0.00     0.049 A 
ATOM     24  C   UNL A   1      33.597  19.919  24.719  1.00  0.00     0.026 A 
ATOM     25  H   UNL A   1      37.816  21.365  24.565  1.00  0.00     0.170 HD
ATOM     26  C   UNL A   1      36.304  19.048  24.757  1.00  0.00     0.028 A 
ATOM     27  C   UNL A   1      33.926  18.559  24.697  1.00  0.00     0.018 A 
ATOM     28  C   UNL A   1      35.262  18.123  24.745  1.00  0.00     0.018 A 
ATOM     29  Br  UNL A   1      32.544  17.271  24.569  1.00  0.00    -0.051 Br
ENDBRANCH   6  11
ENDBRANCH   4   6
ENDBRANCH   3   4
ENDBRANCH   2   3
ENDBRANCH   1   2
BRANCH   1  30
ATOM     30  O   UNL A   1      32.482  30.625  27.055  1.00  0.00    -0.458 OA
BRANCH  30  31
ATOM     31  C   UNL A   1      33.208  31.735  27.308  1.00  0.00     0.338 C 
ATOM     32  O   UNL A   1      32.839  32.896  27.261  1.00  0.00    -0.246 OA
BRANCH  31  33
ATOM     33  C   UNL A   1      34.561  31.363  27.735  1.00  0.00     0.060 A 
ATOM     34  C   UNL A   1      34.814  30.039  28.091  1.00  0.00     0.016 A 
ATOM     35  C   UNL A   1      35.509  32.357  27.963  1.00  0.00     0.016 A 
ATOM     36  C   UNL A   1      35.971  29.726  28.792  1.00  0.00     0.010 A 
ATOM     37  C   UNL A   1      36.721  32.015  28.566  1.00  0.00     0.010 A 
ATOM     38  C   UNL A   1      36.948  30.704  29.022  1.00  0.00    -0.014 A 
BRANCH  38  39
ATOM     39  C   UNL A   1      38.200  30.354  29.742  1.00  0.00     0.031 A 
ATOM     40  C   UNL A   1      39.186  29.395  29.132  1.00  0.00     0.074 A 
ATOM     41  C   UNL A   1      38.446  30.905  30.947  1.00  0.00     0.049 A 
ATOM     42  N   UNL A   1      40.247  28.846  29.666  1.00  0.00    -0.248 NA
ATOM     43  C   UNL A   1      38.936  28.990  27.740  1.00  0.00     0.031 C 
ATOM     44  C   UNL A   1      37.586  31.882  31.621  1.00  0.00     0.029 A 
ATOM     45  N   UNL A   1      39.484  30.719  31.825  1.00  0.00    -0.354 N 
ATOM     46  C   UNL A   1      40.774  28.004  28.692  1.00  0.00     0.074 A 
ATOM     47  C   UNL A   1      39.897  28.098  27.543  1.00  0.00     0.031 C 
ATOM     48  C   UNL A   1      38.141  32.224  32.792  1.00  0.00     0.029 A 
ATOM     49  C   UNL A   1      39.341  31.424  32.998  1.00  0.00     0.049 A 
ATOM     50  H   UNL A   1      40.255  30.138  31.633  1.00  0.00     0.167 HD
ATOM     51  C   UNL A   1      41.887  27.230  28.754  1.00  0.00     0.034 A 
ATOM     52  C   UNL A   1      40.062  31.392  34.135  1.00  0.00     0.034 A 
ATOM     53  C   UNL A   1      42.751  27.166  29.911  1.00  0.00     0.049 A 
ATOM     54  C   UNL A   1      41.250  30.471  34.209  1.00  0.00     0.074 A 
ATOM     55  C   UNL A   1      43.907  26.424  30.085  1.00  0.00     0.029 A 
ATOM     56  N   UNL A   1      42.553  27.867  31.095  1.00  0.00    -0.354 N 
ATOM     57  N   UNL A   1      41.717  29.651  33.294  1.00  0.00    -0.248 NA
ATOM     58  C   UNL A   1      42.006  30.468  35.466  1.00  0.00     0.031 C 
ATOM     59  C   UNL A   1      44.367  26.624  31.391  1.00  0.00     0.029 A 
ATOM     60  C   UNL A   1      43.547  27.553  32.010  1.00  0.00     0.049 A 
ATOM     61  H   UNL A   1      41.814  28.497  31.260  1.00  0.00     0.167 HD
ATOM     62  C   UNL A   1      42.837  29.052  33.861  1.00  0.00     0.074 A 
ATOM     63  C   UNL A   1      42.983  29.619  35.187  1.00  0.00     0.031 C 
ATOM     64  C   UNL A   1      43.670  28.118  33.335  1.00  0.00     0.034 A 
BRANCH  51  65
ATOM     65  C   UNL A   1      42.195  26.352  27.563  1.00  0.00     0.023 A 
ATOM     66  C   UNL A   1      41.718  25.034  27.464  1.00  0.00     0.031 A 
ATOM     67  C   UNL A   1      43.005  26.835  26.519  1.00  0.00     0.131 A 
ATOM     68  C   UNL A   1      42.113  24.222  26.388  1.00  0.00     0.055 A 
ATOM     69  C   UNL A   1      43.329  26.050  25.410  1.00  0.00     0.041 A 
ATOM     70  F   UNL A   1      43.510  28.078  26.564  1.00  0.00    -0.206 F 
ATOM     71  C   UNL A   1      42.895  24.730  25.348  1.00  0.00     0.022 A 
BRANCH  68  72
ATOM     72  S   UNL A   1      41.714  22.453  26.441  1.00  0.00     0.124 S 
ATOM     73  O   UNL A   1      40.258  22.474  26.329  1.00  0.00    -0.237 OA
ATOM     74  O   UNL A   1      42.435  21.932  25.286  1.00  0.00    -0.237 OA
ATOM     75  O   UNL A   1      42.226  22.024  27.741  1.00  0.00    -0.744 OA
ENDBRANCH  68  72
ENDBRANCH  51  65
BRANCH  52  76
ATOM     76  C   UNL A   1      39.642  32.206  35.311  1.00  0.00     0.023 A 
ATOM     77  C   UNL A   1      38.874  31.648  36.342  1.00  0.00     0.031 A 
ATOM     78  C   UNL A   1      39.986  33.567  35.405  1.00  0.00     0.131 A 
ATOM     79  C   UNL A   1      38.442  32.455  37.405  1.00  0.00     0.055 A 
ATOM     80  C   UNL A   1      39.604  34.351  36.495  1.00  0.00     0.041 A 
ATOM     81  F   UNL A   1      40.721  34.152  34.445  1.00  0.00    -0.206 F 
ATOM     82  C   UNL A   1      38.815  33.799  37.497  1.00  0.00     0.022 A 
BRANCH  79  83
ATOM     83  S   UNL A   1      37.308  31.744  38.628  1.00  0.00     0.124 S 
ATOM     84  O   UNL A   1      38.103  31.815  39.848  1.00  0.00    -0.237 OA
ATOM     85  O   UNL A   1      36.170  32.653  38.550  1.00  0.00    -0.237 OA
ATOM     86  O   UNL A   1      37.061  30.396  38.120  1.00  0.00    -0.744 OA
ENDBRANCH  79  83
ENDBRANCH  52  76
BRANCH  64  87
ATOM     87  C   UNL A   1      44.841  27.695  34.188  1.00  0.00     0.023 A 
ATOM     88  C   UNL A   1      44.773  26.576  35.036  1.00  0.00     0.031 A 
ATOM     89  C   UNL A   1      46.033  28.441  34.167  1.00  0.00     0.131 A 
ATOM     90  C   UNL A   1      45.857  26.270  35.875  1.00  0.00     0.055 A 
ATOM     91  C   UNL A   1      47.130  28.092  34.956  1.00  0.00     0.041 A 
ATOM     92  F   UNL A   1      46.151  29.520  33.378  1.00  0.00    -0.206 F 
ATOM     93  C   UNL A   1      47.041  27.010  35.827  1.00  0.00     0.022 A 
BRANCH  90  94
ATOM     94  S   UNL A   1      45.662  24.948  37.100  1.00  0.00     0.124 S 
ATOM     95  O   UNL A   1      44.218  24.939  37.310  1.00  0.00    -0.237 OA
ATOM     96  O   UNL A   1      46.213  23.790  36.403  1.00  0.00    -0.237 OA
ATOM     97  O   UNL A   1      46.450  25.417  38.239  1.00  0.00    -0.744 OA
ENDBRANCH  90  94
ENDBRANCH  64  87
ENDBRANCH  38  39
ENDBRANCH  31  33
ENDBRANCH  30  31
ENDBRANCH   1  30
TORSDOF 17
ENDMDL
MODEL 3
REMARK VINA RESULT:     -12.1      4.992      8.504
REMARK SMILES CC(C)C[C@H](C(=O)OCCOC(=O)c1ccc(-c2c3nc(c(-c4cc(S(=O)(=O)[O-])ccc4F)c4ccc([nH]4)c(-c4cc(S(=O)(=O)[O-])ccc4F)c4nc(c(-c5cc(S(=O)(=O)[O-])ccc5F)c5ccc2[nH]5)C=C4)C=C3)cc1)N1C(=O)/C(=C2\C(=O)Nc3ccc(Br)cc32)SC1=S
REMARK SMILES IDX 10 1 9 2 8 3 6 4 7 5 5 6 4 7 2 8 1 9 3 10 77 11 78 12 93 13
REMARK SMILES IDX 79 14 80 15 92 16 94 17 81 18 82 19 91 20 83 21 84 22 85 23
REMARK SMILES IDX 90 24 86 26 88 27 87 28 89 29 11 30 12 31 13 32 14 33 15 34
REMARK SMILES IDX 76 35 16 36 75 37 17 38 18 39 19 40 69 41 20 42 74 43 68 44
REMARK SMILES IDX 70 45 21 46 73 47 67 48 66 49 22 51 54 52 34 53 53 54 35 55
REMARK SMILES IDX 38 56 52 57 71 58 36 59 37 60 51 62 72 63 39 64 23 65 24 66
REMARK SMILES IDX 32 67 25 68 31 69 33 70 30 71 26 72 27 73 28 74 29 75 55 76
REMARK SMILES IDX 56 77 64 78 57 79 63 80 65 81 62 82 58 83 59 84 60 85 61 86
REMARK SMILES IDX 40 87 41 88 49 89 42 90 48 91 50 92 47 93 43 94 44 95 45 96
REMARK SMILES IDX 46 97
REMARK H PARENT 84 25 70 50 38 61
REMARK Flexibility Score: inf
ROOT
ATOM      1  C   UNL A   1      31.503  31.878  26.571  1.00  0.00     0.275 C 
ENDROOT
BRANCH   1   2
ATOM      2  C   UNL A   1      31.005  30.848  25.562  1.00  0.00     0.274 C 
BRANCH   2   3
ATOM      3  O   UNL A   1      31.958  29.776  25.430  1.00  0.00    -0.461 OA
BRANCH   3   4
ATOM      4  C   UNL A   1      31.515  28.514  25.632  1.00  0.00     0.329 C 
ATOM      5  O   UNL A   1      31.461  27.968  26.730  1.00  0.00    -0.250 OA
BRANCH   4   6
ATOM      6  C   UNL A   1      30.980  27.844  24.355  1.00  0.00     0.202 C 
BRANCH   6   7
ATOM      7  C   UNL A   1      30.503  28.878  23.305  1.00  0.00     0.040 C 
BRANCH   7   8
ATOM      8  C   UNL A   1      29.152  28.545  22.628  1.00  0.00    -0.015 C 
ATOM      9  C   UNL A   1      28.239  27.674  23.498  1.00  0.00     0.007 C 
ATOM     10  C   UNL A   1      28.408  29.837  22.277  1.00  0.00     0.007 C 
ENDBRANCH   7   8
ENDBRANCH   6   7
BRANCH   6  11
ATOM     11  N   UNL A   1      31.840  26.839  23.702  1.00  0.00    -0.278 N 
ATOM     12  C   UNL A   1      31.489  25.508  23.732  1.00  0.00     0.267 C 
ATOM     13  C   UNL A   1      33.125  27.072  23.269  1.00  0.00     0.149 C 
ATOM     14  O   UNL A   1      30.421  25.051  23.354  1.00  0.00    -0.268 OA
ATOM     15  C   UNL A   1      32.697  24.680  23.960  1.00  0.00     0.093 C 
ATOM     16  S   UNL A   1      34.050  25.570  23.363  1.00  0.00    -0.053 SA
ATOM     17  S   UNL A   1      33.810  28.499  22.752  1.00  0.00    -0.052 S 
ATOM     18  C   UNL A   1      32.685  23.455  24.500  1.00  0.00     0.069 C 
ATOM     19  C   UNL A   1      31.422  22.759  24.944  1.00  0.00     0.257 C 
ATOM     20  C   UNL A   1      33.770  22.474  24.657  1.00  0.00     0.013 A 
ATOM     21  O   UNL A   1      30.353  23.235  25.260  1.00  0.00    -0.269 OA
ATOM     22  N   UNL A   1      31.765  21.422  25.027  1.00  0.00    -0.321 N 
ATOM     23  C   UNL A   1      33.135  21.246  24.883  1.00  0.00     0.049 A 
ATOM     24  C   UNL A   1      35.151  22.547  24.688  1.00  0.00     0.026 A 
ATOM     25  H   UNL A   1      31.123  20.690  25.169  1.00  0.00     0.170 HD
ATOM     26  C   UNL A   1      33.819  20.057  25.028  1.00  0.00     0.028 A 
ATOM     27  C   UNL A   1      35.866  21.357  24.872  1.00  0.00     0.018 A 
ATOM     28  C   UNL A   1      35.212  20.120  25.012  1.00  0.00     0.018 A 
ATOM     29  Br  UNL A   1      37.756  21.413  24.967  1.00  0.00    -0.051 Br
ENDBRANCH   6  11
ENDBRANCH   4   6
ENDBRANCH   3   4
ENDBRANCH   2   3
ENDBRANCH   1   2
BRANCH   1  30
ATOM     30  O   UNL A   1      32.774  31.470  27.108  1.00  0.00    -0.458 OA
BRANCH  30  31
ATOM     31  C   UNL A   1      33.545  32.485  27.553  1.00  0.00     0.338 C 
ATOM     32  O   UNL A   1      33.243  33.661  27.661  1.00  0.00    -0.246 OA
BRANCH  31  33
ATOM     33  C   UNL A   1      34.850  31.973  27.982  1.00  0.00     0.060 A 
ATOM     34  C   UNL A   1      34.947  30.649  28.409  1.00  0.00     0.016 A 
ATOM     35  C   UNL A   1      35.918  32.853  28.140  1.00  0.00     0.016 A 
ATOM     36  C   UNL A   1      36.071  30.234  29.112  1.00  0.00     0.010 A 
ATOM     37  C   UNL A   1      37.091  32.397  28.745  1.00  0.00     0.010 A 
ATOM     38  C   UNL A   1      37.165  31.095  29.272  1.00  0.00    -0.014 A 
BRANCH  38  39
ATOM     39  C   UNL A   1      38.379  30.633  29.993  1.00  0.00     0.031 A 
ATOM     40  C   UNL A   1      39.315  29.644  29.353  1.00  0.00     0.074 A 
ATOM     41  C   UNL A   1      38.635  31.108  31.228  1.00  0.00     0.049 A 
ATOM     42  N   UNL A   1      40.330  29.005  29.875  1.00  0.00    -0.248 NA
ATOM     43  C   UNL A   1      39.067  29.324  27.939  1.00  0.00     0.031 C 
ATOM     44  C   UNL A   1      37.826  32.103  31.936  1.00  0.00     0.029 A 
ATOM     45  N   UNL A   1      39.643  30.815  32.112  1.00  0.00    -0.354 N 
ATOM     46  C   UNL A   1      40.822  28.180  28.869  1.00  0.00     0.074 A 
ATOM     47  C   UNL A   1      39.975  28.384  27.712  1.00  0.00     0.031 C 
ATOM     48  C   UNL A   1      38.378  32.352  33.131  1.00  0.00     0.029 A 
ATOM     49  C   UNL A   1      39.523  31.469  33.316  1.00  0.00     0.049 A 
ATOM     50  H   UNL A   1      40.381  30.197  31.904  1.00  0.00     0.167 HD
ATOM     51  C   UNL A   1      41.884  27.336  28.910  1.00  0.00     0.034 A 
ATOM     52  C   UNL A   1      40.219  31.338  34.461  1.00  0.00     0.034 A 
ATOM     53  C   UNL A   1      42.721  27.161  30.076  1.00  0.00     0.049 A 
ATOM     54  C   UNL A   1      41.346  30.341  34.508  1.00  0.00     0.074 A 
ATOM     55  C   UNL A   1      43.825  26.341  30.231  1.00  0.00     0.029 A 
ATOM     56  N   UNL A   1      42.544  27.816  31.290  1.00  0.00    -0.354 N 
ATOM     57  N   UNL A   1      41.778  29.539  33.562  1.00  0.00    -0.248 NA
ATOM     58  C   UNL A   1      42.076  30.230  35.775  1.00  0.00     0.031 C 
ATOM     59  C   UNL A   1      44.272  26.448  31.553  1.00  0.00     0.029 A 
ATOM     60  C   UNL A   1      43.499  27.396  32.204  1.00  0.00     0.049 A 
ATOM     61  H   UNL A   1      41.842  28.482  31.474  1.00  0.00     0.167 HD
ATOM     62  C   UNL A   1      42.848  28.844  34.116  1.00  0.00     0.074 A 
ATOM     63  C   UNL A   1      43.004  29.337  35.470  1.00  0.00     0.031 C 
ATOM     64  C   UNL A   1      43.632  27.887  33.557  1.00  0.00     0.034 A 
BRANCH  51  65
ATOM     65  C   UNL A   1      42.160  26.500  27.682  1.00  0.00     0.023 A 
ATOM     66  C   UNL A   1      41.821  25.137  27.616  1.00  0.00     0.031 A 
ATOM     67  C   UNL A   1      42.800  27.070  26.566  1.00  0.00     0.131 A 
ATOM     68  C   UNL A   1      42.188  24.375  26.494  1.00  0.00     0.055 A 
ATOM     69  C   UNL A   1      43.089  26.327  25.420  1.00  0.00     0.041 A 
ATOM     70  F   UNL A   1      43.168  28.361  26.575  1.00  0.00    -0.206 F 
ATOM     71  C   UNL A   1      42.798  24.967  25.385  1.00  0.00     0.022 A 
BRANCH  68  72
ATOM     72  S   UNL A   1      41.992  22.573  26.564  1.00  0.00     0.124 S 
ATOM     73  O   UNL A   1      40.596  22.443  26.977  1.00  0.00    -0.237 OA
ATOM     74  O   UNL A   1      42.293  22.169  25.195  1.00  0.00    -0.237 OA
ATOM     75  O   UNL A   1      42.972  22.160  27.566  1.00  0.00    -0.744 OA
ENDBRANCH  68  72
ENDBRANCH  51  65
BRANCH  52  76
ATOM     76  C   UNL A   1      39.828  32.118  35.669  1.00  0.00     0.023 A 
ATOM     77  C   UNL A   1      38.929  31.596  36.611  1.00  0.00     0.031 A 
ATOM     78  C   UNL A   1      40.332  33.414  35.885  1.00  0.00     0.131 A 
ATOM     79  C   UNL A   1      38.532  32.380  37.705  1.00  0.00     0.055 A 
ATOM     80  C   UNL A   1      39.981  34.166  37.007  1.00  0.00     0.041 A 
ATOM     81  F   UNL A   1      41.197  33.961  35.015  1.00  0.00    -0.206 F 
ATOM     82  C   UNL A   1      39.064  33.654  37.919  1.00  0.00     0.022 A 
BRANCH  79  83
ATOM     83  S   UNL A   1      37.240  31.741  38.805  1.00  0.00     0.124 S 
ATOM     84  O   UNL A   1      37.025  30.404  38.265  1.00  0.00    -0.237 OA
ATOM     85  O   UNL A   1      37.891  31.810  40.109  1.00  0.00    -0.237 OA
ATOM     86  O   UNL A   1      36.135  32.679  38.612  1.00  0.00    -0.744 OA
ENDBRANCH  79  83
ENDBRANCH  52  76
BRANCH  64  87
ATOM     87  C   UNL A   1      44.758  27.351  34.406  1.00  0.00     0.023 A 
ATOM     88  C   UNL A   1      44.599  26.211  35.213  1.00  0.00     0.031 A 
ATOM     89  C   UNL A   1      46.001  28.008  34.425  1.00  0.00     0.131 A 
ATOM     90  C   UNL A   1      45.647  25.797  36.051  1.00  0.00     0.055 A 
ATOM     91  C   UNL A   1      47.060  27.554  35.212  1.00  0.00     0.041 A 
ATOM     92  F   UNL A   1      46.207  29.103  33.677  1.00  0.00    -0.206 F 
ATOM     93  C   UNL A   1      46.881  26.451  36.042  1.00  0.00     0.022 A 
BRANCH  90  94
ATOM     94  S   UNL A   1      45.342  24.451  37.226  1.00  0.00     0.124 S 
ATOM     95  O   UNL A   1      45.067  23.327  36.336  1.00  0.00    -0.237 OA
ATOM     96  O   UNL A   1      46.600  24.388  37.964  1.00  0.00    -0.237 OA
ATOM     97  O   UNL A   1      44.194  24.923  38.000  1.00  0.00    -0.744 OA
ENDBRANCH  90  94
ENDBRANCH  64  87
ENDBRANCH  38  39
ENDBRANCH  31  33
ENDBRANCH  30  31
ENDBRANCH   1  30
TORSDOF 17
ENDMDL
