MODEL 1
REMARK VINA RESULT:     -12.4      0.000      0.000
REMARK SMILES O=C(OCCOC(=O)c1cc(S(=O)(=O)Nc2cc(F)ccc2F)cc2c1OCCO2)c1ccc(-c2c3nc(c(-c4cc(S(=O)(=O)[O-])ccc4F)c4ccc([nH]4)c(-c4cc(S(=O)(=O)[O-])ccc4F)c4nc(c(-c5cc(S(=O)(=O)[O-])ccc5F)c5ccc2[nH]5)C=C4)C=C3)cc1
REMARK SMILES IDX 4 1 3 2 2 3 1 4 31 5 32 6 93 7 33 8 92 9 34 10 35 11 36 12
REMARK SMILES IDX 86 13 37 14 91 15 85 16 87 17 38 18 90 19 84 20 83 21 39 23
REMARK SMILES IDX 71 24 51 25 70 26 52 27 55 28 69 29 88 30 53 31 54 32 68 34
REMARK SMILES IDX 89 35 56 36 40 37 41 38 49 39 42 40 48 41 50 42 47 43 43 44
REMARK SMILES IDX 44 45 45 46 46 47 72 48 73 49 81 50 74 51 80 52 82 53 79 54
REMARK SMILES IDX 75 55 76 56 77 57 78 58 57 59 58 60 66 61 59 62 65 63 67 64
REMARK SMILES IDX 64 65 60 66 61 67 62 68 63 69 5 70 6 71 7 72 8 73 9 74 10 75
REMARK SMILES IDX 26 76 11 77 25 78 27 79 24 80 30 81 28 82 29 83 12 84 13 85
REMARK SMILES IDX 14 86 15 87 16 89 17 90 22 91 18 92 21 93 23 94 19 95 20 96
REMARK H PARENT 87 22 55 33 15 88
REMARK Flexibility Score: inf
ROOT
ATOM      1  C   UNL A   1      31.861  29.887  26.963  1.00  0.00     0.275 C 
ENDROOT
BRANCH   1   2
ATOM      2  O   UNL A   1      32.981  30.654  26.489  1.00  0.00    -0.458 OA
BRANCH   2   3
ATOM      3  C   UNL A   1      33.653  31.496  27.299  1.00  0.00     0.338 C 
ATOM      4  O   UNL A   1      33.114  32.502  27.741  1.00  0.00    -0.246 OA
BRANCH   3   5
ATOM      5  C   UNL A   1      35.019  31.111  27.764  1.00  0.00     0.060 A 
ATOM      6  C   UNL A   1      36.062  32.008  28.014  1.00  0.00     0.016 A 
ATOM      7  C   UNL A   1      35.204  29.766  28.108  1.00  0.00     0.016 A 
ATOM      8  C   UNL A   1      37.238  31.583  28.635  1.00  0.00     0.010 A 
ATOM      9  C   UNL A   1      36.363  29.347  28.759  1.00  0.00     0.010 A 
ATOM     10  C   UNL A   1      37.383  30.256  29.041  1.00  0.00    -0.014 A 
BRANCH  10  11
ATOM     11  C   UNL A   1      38.613  29.813  29.736  1.00  0.00     0.031 A 
ATOM     12  C   UNL A   1      38.931  30.382  31.074  1.00  0.00     0.074 A 
ATOM     13  C   UNL A   1      39.433  28.915  29.158  1.00  0.00     0.049 A 
ATOM     14  N   UNL A   1      39.928  30.090  31.861  1.00  0.00    -0.248 NA
ATOM     15  C   UNL A   1      38.016  31.407  31.598  1.00  0.00     0.031 C 
ATOM     16  C   UNL A   1      39.193  28.336  27.844  1.00  0.00     0.029 A 
ATOM     17  N   UNL A   1      40.607  28.330  29.560  1.00  0.00    -0.354 N 
ATOM     18  C   UNL A   1      39.762  30.892  32.977  1.00  0.00     0.074 A 
ATOM     19  C   UNL A   1      38.601  31.722  32.742  1.00  0.00     0.031 C 
ATOM     20  C   UNL A   1      40.180  27.479  27.548  1.00  0.00     0.029 A 
ATOM     21  C   UNL A   1      41.147  27.471  28.624  1.00  0.00     0.049 A 
ATOM     22  H   UNL A   1      41.025  28.506  30.433  1.00  0.00     0.167 HD
ATOM     23  C   UNL A   1      40.508  30.905  34.104  1.00  0.00     0.034 A 
ATOM     24  C   UNL A   1      42.293  26.762  28.614  1.00  0.00     0.034 A 
ATOM     25  C   UNL A   1      41.669  30.075  34.286  1.00  0.00     0.049 A 
ATOM     26  C   UNL A   1      43.129  26.832  29.857  1.00  0.00     0.074 A 
ATOM     27  C   UNL A   1      42.479  29.963  35.399  1.00  0.00     0.029 A 
ATOM     28  N   UNL A   1      42.202  29.231  33.316  1.00  0.00    -0.354 N 
ATOM     29  N   UNL A   1      42.891  27.513  30.954  1.00  0.00    -0.248 NA
ATOM     30  C   UNL A   1      44.358  26.035  29.887  1.00  0.00     0.031 C 
ATOM     31  C   UNL A   1      43.542  29.112  35.076  1.00  0.00     0.029 A 
ATOM     32  C   UNL A   1      43.359  28.635  33.788  1.00  0.00     0.049 A 
ATOM     33  H   UNL A   1      41.813  29.081  32.424  1.00  0.00     0.167 HD
ATOM     34  C   UNL A   1      43.938  27.223  31.811  1.00  0.00     0.074 A 
ATOM     35  C   UNL A   1      44.784  26.266  31.120  1.00  0.00     0.031 C 
ATOM     36  C   UNL A   1      44.188  27.708  33.053  1.00  0.00     0.034 A 
BRANCH  23  37
ATOM     37  C   UNL A   1      40.100  31.881  35.170  1.00  0.00     0.023 A 
ATOM     38  C   UNL A   1      39.281  31.496  36.245  1.00  0.00     0.031 A 
ATOM     39  C   UNL A   1      40.474  33.230  35.068  1.00  0.00     0.131 A 
ATOM     40  C   UNL A   1      38.802  32.465  37.137  1.00  0.00     0.055 A 
ATOM     41  C   UNL A   1      40.056  34.177  36.003  1.00  0.00     0.041 A 
ATOM     42  F   UNL A   1      41.224  33.656  34.039  1.00  0.00    -0.206 F 
ATOM     43  C   UNL A   1      39.204  33.798  37.039  1.00  0.00     0.022 A 
BRANCH  40  44
ATOM     44  S   UNL A   1      37.539  31.982  38.347  1.00  0.00     0.124 S 
ATOM     45  O   UNL A   1      38.269  32.121  39.605  1.00  0.00    -0.237 OA
ATOM     46  O   UNL A   1      36.482  32.960  38.113  1.00  0.00    -0.237 OA
ATOM     47  O   UNL A   1      37.212  30.608  37.970  1.00  0.00    -0.744 OA
ENDBRANCH  40  44
ENDBRANCH  23  37
BRANCH  24  48
ATOM     48  C   UNL A   1      42.714  25.963  27.418  1.00  0.00     0.023 A 
ATOM     49  C   UNL A   1      42.356  24.613  27.264  1.00  0.00     0.031 A 
ATOM     50  C   UNL A   1      43.525  26.533  26.416  1.00  0.00     0.131 A 
ATOM     51  C   UNL A   1      42.838  23.871  26.169  1.00  0.00     0.055 A 
ATOM     52  C   UNL A   1      43.952  25.810  25.299  1.00  0.00     0.041 A 
ATOM     53  F   UNL A   1      43.906  27.818  26.501  1.00  0.00    -0.206 F 
ATOM     54  C   UNL A   1      43.622  24.465  25.178  1.00  0.00     0.022 A 
BRANCH  51  55
ATOM     55  S   UNL A   1      42.514  22.086  26.109  1.00  0.00     0.124 S 
ATOM     56  O   UNL A   1      43.358  21.663  24.998  1.00  0.00    -0.237 OA
ATOM     57  O   UNL A   1      42.941  21.660  27.438  1.00  0.00    -0.237 OA
ATOM     58  O   UNL A   1      41.075  22.009  25.864  1.00  0.00    -0.744 OA
ENDBRANCH  51  55
ENDBRANCH  24  48
BRANCH  36  59
ATOM     59  C   UNL A   1      45.439  27.202  33.711  1.00  0.00     0.023 A 
ATOM     60  C   UNL A   1      45.415  26.045  34.505  1.00  0.00     0.031 A 
ATOM     61  C   UNL A   1      46.650  27.898  33.571  1.00  0.00     0.131 A 
ATOM     62  C   UNL A   1      46.569  25.652  35.189  1.00  0.00     0.055 A 
ATOM     63  C   UNL A   1      47.816  27.459  34.195  1.00  0.00     0.041 A 
ATOM     64  F   UNL A   1      46.716  29.015  32.829  1.00  0.00    -0.206 F 
ATOM     65  C   UNL A   1      47.776  26.337  35.021  1.00  0.00     0.022 A 
BRANCH  62  66
ATOM     66  S   UNL A   1      46.444  24.295  36.382  1.00  0.00     0.124 S 
ATOM     67  O   UNL A   1      47.783  24.282  36.962  1.00  0.00    -0.237 OA
ATOM     68  O   UNL A   1      45.372  24.748  37.263  1.00  0.00    -0.237 OA
ATOM     69  O   UNL A   1      46.115  23.139  35.550  1.00  0.00    -0.744 OA
ENDBRANCH  62  66
ENDBRANCH  36  59
ENDBRANCH  10  11
ENDBRANCH   3   5
ENDBRANCH   2   3
ENDBRANCH   1   2
BRANCH   1  70
ATOM     70  C   UNL A   1      31.590  28.521  26.310  1.00  0.00     0.275 C 
BRANCH  70  71
ATOM     71  O   UNL A   1      32.675  27.592  26.445  1.00  0.00    -0.458 OA
BRANCH  71  72
ATOM     72  C   UNL A   1      32.364  26.267  26.354  1.00  0.00     0.342 C 
ATOM     73  O   UNL A   1      31.466  25.682  26.921  1.00  0.00    -0.246 OA
BRANCH  72  74
ATOM     74  C   UNL A   1      33.257  25.631  25.359  1.00  0.00     0.107 A 
ATOM     75  C   UNL A   1      34.423  24.974  25.799  1.00  0.00     0.042 A 
ATOM     76  C   UNL A   1      32.925  25.666  24.006  1.00  0.00     0.175 A 
ATOM     77  C   UNL A   1      35.246  24.316  24.879  1.00  0.00     0.092 A 
ATOM     78  C   UNL A   1      33.811  25.108  23.080  1.00  0.00     0.163 A 
ATOM     79  O   UNL A   1      31.734  26.236  23.630  1.00  0.00    -0.485 OA
ATOM     80  C   UNL A   1      34.948  24.412  23.510  1.00  0.00     0.072 A 
ATOM     81  O   UNL A   1      33.593  25.146  21.728  1.00  0.00    -0.486 OA
ATOM     82  C   UNL A   1      31.306  25.733  22.360  1.00  0.00     0.271 C 
ATOM     83  C   UNL A   1      32.430  25.898  21.353  1.00  0.00     0.271 C 
BRANCH  77  84
ATOM     84  S   UNL A   1      36.566  23.207  25.360  1.00  0.00     0.262 S 
ATOM     85  O   UNL A   1      37.181  22.692  24.158  1.00  0.00    -0.201 OA
ATOM     86  O   UNL A   1      37.366  23.903  26.347  1.00  0.00    -0.201 OA
BRANCH  84  87
ATOM     87  N   UNL A   1      35.942  21.893  26.210  1.00  0.00    -0.277 N 
ATOM     88  H   UNL A   1      36.318  21.669  27.091  1.00  0.00     0.180 HD
BRANCH  87  89
ATOM     89  C   UNL A   1      34.882  21.094  25.686  1.00  0.00     0.087 A 
ATOM     90  C   UNL A   1      33.539  21.458  25.755  1.00  0.00     0.069 A 
ATOM     91  C   UNL A   1      35.240  19.917  25.015  1.00  0.00     0.147 A 
ATOM     92  C   UNL A   1      32.575  20.570  25.275  1.00  0.00     0.125 A 
ATOM     93  C   UNL A   1      34.276  19.036  24.539  1.00  0.00     0.044 A 
ATOM     94  F   UNL A   1      36.535  19.605  24.860  1.00  0.00    -0.205 F 
ATOM     95  F   UNL A   1      31.277  20.869  25.421  1.00  0.00    -0.207 F 
ATOM     96  C   UNL A   1      32.930  19.355  24.692  1.00  0.00     0.042 A 
ENDBRANCH  87  89
ENDBRANCH  84  87
ENDBRANCH  77  84
ENDBRANCH  72  74
ENDBRANCH  71  72
ENDBRANCH  70  71
ENDBRANCH   1  70
TORSDOF 17
ENDMDL
MODEL 2
REMARK VINA RESULT:     -12.4      1.454      2.075
REMARK SMILES O=C(OCCOC(=O)c1cc(S(=O)(=O)Nc2cc(F)ccc2F)cc2c1OCCO2)c1ccc(-c2c3nc(c(-c4cc(S(=O)(=O)[O-])ccc4F)c4ccc([nH]4)c(-c4cc(S(=O)(=O)[O-])ccc4F)c4nc(c(-c5cc(S(=O)(=O)[O-])ccc5F)c5ccc2[nH]5)C=C4)C=C3)cc1
REMARK SMILES IDX 4 1 3 2 2 3 1 4 31 5 32 6 93 7 33 8 92 9 34 10 35 11 36 12
REMARK SMILES IDX 86 13 37 14 91 15 85 16 87 17 38 18 90 19 84 20 83 21 39 23
REMARK SMILES IDX 71 24 51 25 70 26 52 27 55 28 69 29 88 30 53 31 54 32 68 34
REMARK SMILES IDX 89 35 56 36 40 37 41 38 49 39 42 40 48 41 50 42 47 43 43 44
REMARK SMILES IDX 44 45 45 46 46 47 72 48 73 49 81 50 74 51 80 52 82 53 79 54
REMARK SMILES IDX 75 55 76 56 77 57 78 58 57 59 58 60 66 61 59 62 65 63 67 64
REMARK SMILES IDX 64 65 60 66 61 67 62 68 63 69 5 70 6 71 7 72 8 73 9 74 10 75
REMARK SMILES IDX 26 76 11 77 25 78 27 79 24 80 30 81 28 82 29 83 12 84 13 85
REMARK SMILES IDX 14 86 15 87 16 89 17 90 22 91 18 92 21 93 23 94 19 95 20 96
REMARK H PARENT 87 22 55 33 15 88
REMARK Flexibility Score: inf
ROOT
ATOM      1  C   UNL A   1      31.964  29.897  26.844  1.00  0.00     0.275 C 
ENDROOT
BRANCH   1   2
ATOM      2  O   UNL A   1      33.217  30.503  26.486  1.00  0.00    -0.458 OA
BRANCH   2   3
ATOM      3  C   UNL A   1      33.846  31.363  27.313  1.00  0.00     0.338 C 
ATOM      4  O   UNL A   1      33.265  32.346  27.752  1.00  0.00    -0.246 OA
BRANCH   3   5
ATOM      5  C   UNL A   1      35.218  31.023  27.797  1.00  0.00     0.060 A 
ATOM      6  C   UNL A   1      36.248  31.947  27.994  1.00  0.00     0.016 A 
ATOM      7  C   UNL A   1      35.421  29.703  28.215  1.00  0.00     0.016 A 
ATOM      8  C   UNL A   1      37.430  31.575  28.636  1.00  0.00     0.010 A 
ATOM      9  C   UNL A   1      36.587  29.337  28.886  1.00  0.00     0.010 A 
ATOM     10  C   UNL A   1      37.595  30.275  29.116  1.00  0.00    -0.014 A 
BRANCH  10  11
ATOM     11  C   UNL A   1      38.830  29.888  29.833  1.00  0.00     0.031 A 
ATOM     12  C   UNL A   1      39.079  30.441  31.192  1.00  0.00     0.074 A 
ATOM     13  C   UNL A   1      39.718  29.056  29.256  1.00  0.00     0.049 A 
ATOM     14  N   UNL A   1      40.073  30.190  31.998  1.00  0.00    -0.248 NA
ATOM     15  C   UNL A   1      38.091  31.396  31.716  1.00  0.00     0.031 C 
ATOM     16  C   UNL A   1      39.547  28.498  27.923  1.00  0.00     0.029 A 
ATOM     17  N   UNL A   1      40.915  28.532  29.675  1.00  0.00    -0.354 N 
ATOM     18  C   UNL A   1      39.830  30.951  33.128  1.00  0.00     0.074 A 
ATOM     19  C   UNL A   1      38.627  31.716  32.882  1.00  0.00     0.031 C 
ATOM     20  C   UNL A   1      40.591  27.709  27.633  1.00  0.00     0.029 A 
ATOM     21  C   UNL A   1      41.529  27.732  28.733  1.00  0.00     0.049 A 
ATOM     22  H   UNL A   1      41.299  28.711  30.563  1.00  0.00     0.167 HD
ATOM     23  C   UNL A   1      40.544  30.980  34.275  1.00  0.00     0.034 A 
ATOM     24  C   UNL A   1      42.716  27.093  28.737  1.00  0.00     0.034 A 
ATOM     25  C   UNL A   1      41.749  30.216  34.469  1.00  0.00     0.049 A 
ATOM     26  C   UNL A   1      43.514  27.181  30.004  1.00  0.00     0.074 A 
ATOM     27  C   UNL A   1      42.536  30.125  35.600  1.00  0.00     0.029 A 
ATOM     28  N   UNL A   1      42.356  29.431  33.493  1.00  0.00    -0.354 N 
ATOM     29  N   UNL A   1      43.208  27.818  31.110  1.00  0.00    -0.248 NA
ATOM     30  C   UNL A   1      44.788  26.458  30.048  1.00  0.00     0.031 C 
ATOM     31  C   UNL A   1      43.656  29.348  35.286  1.00  0.00     0.029 A 
ATOM     32  C   UNL A   1      43.535  28.893  33.981  1.00  0.00     0.049 A 
ATOM     33  H   UNL A   1      41.999  29.281  32.587  1.00  0.00     0.167 HD
ATOM     34  C   UNL A   1      44.248  27.569  31.988  1.00  0.00     0.074 A 
ATOM     35  C   UNL A   1      45.168  26.683  31.297  1.00  0.00     0.031 C 
ATOM     36  C   UNL A   1      44.437  28.037  33.247  1.00  0.00     0.034 A 
BRANCH  23  37
ATOM     37  C   UNL A   1      40.052  31.902  35.353  1.00  0.00     0.023 A 
ATOM     38  C   UNL A   1      39.216  31.445  36.387  1.00  0.00     0.031 A 
ATOM     39  C   UNL A   1      40.360  33.271  35.302  1.00  0.00     0.131 A 
ATOM     40  C   UNL A   1      38.658  32.362  37.288  1.00  0.00     0.055 A 
ATOM     41  C   UNL A   1      39.863  34.167  36.248  1.00  0.00     0.041 A 
ATOM     42  F   UNL A   1      41.123  33.764  34.314  1.00  0.00    -0.206 F 
ATOM     43  C   UNL A   1      38.996  33.716  37.242  1.00  0.00     0.022 A 
BRANCH  40  44
ATOM     44  S   UNL A   1      37.381  31.782  38.438  1.00  0.00     0.124 S 
ATOM     45  O   UNL A   1      36.283  32.700  38.147  1.00  0.00    -0.237 OA
ATOM     46  O   UNL A   1      37.181  30.398  38.021  1.00  0.00    -0.237 OA
ATOM     47  O   UNL A   1      38.000  31.953  39.751  1.00  0.00    -0.744 OA
ENDBRANCH  40  44
ENDBRANCH  23  37
BRANCH  24  48
ATOM     48  C   UNL A   1      43.215  26.351  27.534  1.00  0.00     0.023 A 
ATOM     49  C   UNL A   1      43.071  24.959  27.409  1.00  0.00     0.031 A 
ATOM     50  C   UNL A   1      43.886  27.026  26.496  1.00  0.00     0.131 A 
ATOM     51  C   UNL A   1      43.624  24.285  26.304  1.00  0.00     0.055 A 
ATOM     52  C   UNL A   1      44.383  26.362  25.371  1.00  0.00     0.041 A 
ATOM     53  F   UNL A   1      44.061  28.356  26.553  1.00  0.00    -0.206 F 
ATOM     54  C   UNL A   1      44.266  24.979  25.277  1.00  0.00     0.022 A 
BRANCH  51  55
ATOM     55  S   UNL A   1      43.587  22.470  26.275  1.00  0.00     0.124 S 
ATOM     56  O   UNL A   1      42.778  22.204  25.091  1.00  0.00    -0.237 OA
ATOM     57  O   UNL A   1      45.006  22.144  26.170  1.00  0.00    -0.237 OA
ATOM     58  O   UNL A   1      42.961  22.122  27.549  1.00  0.00    -0.744 OA
ENDBRANCH  51  55
ENDBRANCH  24  48
BRANCH  36  59
ATOM     59  C   UNL A   1      45.699  27.590  33.927  1.00  0.00     0.023 A 
ATOM     60  C   UNL A   1      45.727  26.409  34.685  1.00  0.00     0.031 A 
ATOM     61  C   UNL A   1      46.867  28.364  33.842  1.00  0.00     0.131 A 
ATOM     62  C   UNL A   1      46.885  26.068  35.391  1.00  0.00     0.055 A 
ATOM     63  C   UNL A   1      48.040  27.980  34.487  1.00  0.00     0.041 A 
ATOM     64  F   UNL A   1      46.882  29.506  33.136  1.00  0.00    -0.206 F 
ATOM     65  C   UNL A   1      48.050  26.833  35.278  1.00  0.00     0.022 A 
BRANCH  62  66
ATOM     66  S   UNL A   1      46.813  24.670  36.539  1.00  0.00     0.124 S 
ATOM     67  O   UNL A   1      46.480  23.566  35.645  1.00  0.00    -0.237 OA
ATOM     68  O   UNL A   1      48.161  24.653  37.099  1.00  0.00    -0.237 OA
ATOM     69  O   UNL A   1      45.759  25.052  37.476  1.00  0.00    -0.744 OA
ENDBRANCH  62  66
ENDBRANCH  36  59
ENDBRANCH  10  11
ENDBRANCH   3   5
ENDBRANCH   2   3
ENDBRANCH   1   2
BRANCH   1  70
ATOM     70  C   UNL A   1      31.996  28.532  27.552  1.00  0.00     0.275 C 
BRANCH  70  71
ATOM     71  O   UNL A   1      32.720  27.524  26.832  1.00  0.00    -0.458 OA
BRANCH  71  72
ATOM     72  C   UNL A   1      32.032  26.395  26.496  1.00  0.00     0.342 C 
ATOM     73  O   UNL A   1      30.926  26.070  26.871  1.00  0.00    -0.246 OA
BRANCH  72  74
ATOM     74  C   UNL A   1      32.818  25.631  25.501  1.00  0.00     0.107 A 
ATOM     75  C   UNL A   1      33.456  24.438  25.894  1.00  0.00     0.042 A 
ATOM     76  C   UNL A   1      32.901  26.085  24.186  1.00  0.00     0.175 A 
ATOM     77  C   UNL A   1      34.153  23.673  24.953  1.00  0.00     0.092 A 
ATOM     78  C   UNL A   1      33.694  25.378  23.277  1.00  0.00     0.163 A 
ATOM     79  O   UNL A   1      32.189  27.202  23.824  1.00  0.00    -0.485 OA
ATOM     80  C   UNL A   1      34.293  24.166  23.646  1.00  0.00     0.072 A 
ATOM     81  O   UNL A   1      33.877  25.780  21.981  1.00  0.00    -0.486 OA
ATOM     82  C   UNL A   1      31.947  27.217  22.412  1.00  0.00     0.271 C 
ATOM     83  C   UNL A   1      33.264  27.041  21.678  1.00  0.00     0.271 C 
BRANCH  77  84
ATOM     84  S   UNL A   1      34.730  22.010  25.274  1.00  0.00     0.262 S 
ATOM     85  O   UNL A   1      34.721  21.800  26.704  1.00  0.00    -0.201 OA
ATOM     86  O   UNL A   1      33.983  21.125  24.403  1.00  0.00    -0.201 OA
BRANCH  84  87
ATOM     87  N   UNL A   1      36.321  21.833  24.748  1.00  0.00    -0.277 N 
ATOM     88  H   UNL A   1      36.497  21.358  23.904  1.00  0.00     0.180 HD
BRANCH  87  89
ATOM     89  C   UNL A   1      37.421  22.353  25.494  1.00  0.00     0.087 A 
ATOM     90  C   UNL A   1      37.453  23.644  26.016  1.00  0.00     0.069 A 
ATOM     91  C   UNL A   1      38.486  21.481  25.755  1.00  0.00     0.147 A 
ATOM     92  C   UNL A   1      38.608  24.078  26.669  1.00  0.00     0.125 A 
ATOM     93  C   UNL A   1      39.633  21.918  26.405  1.00  0.00     0.044 A 
ATOM     94  F   UNL A   1      38.423  20.207  25.337  1.00  0.00    -0.205 F 
ATOM     95  F   UNL A   1      38.685  25.347  27.093  1.00  0.00    -0.207 F 
ATOM     96  C   UNL A   1      39.704  23.236  26.845  1.00  0.00     0.042 A 
ENDBRANCH  87  89
ENDBRANCH  84  87
ENDBRANCH  77  84
ENDBRANCH  72  74
ENDBRANCH  71  72
ENDBRANCH  70  71
ENDBRANCH   1  70
TORSDOF 17
ENDMDL
MODEL 3
REMARK VINA RESULT:     -12.3      1.823      2.208
REMARK SMILES O=C(OCCOC(=O)c1cc(S(=O)(=O)Nc2cc(F)ccc2F)cc2c1OCCO2)c1ccc(-c2c3nc(c(-c4cc(S(=O)(=O)[O-])ccc4F)c4ccc([nH]4)c(-c4cc(S(=O)(=O)[O-])ccc4F)c4nc(c(-c5cc(S(=O)(=O)[O-])ccc5F)c5ccc2[nH]5)C=C4)C=C3)cc1
REMARK SMILES IDX 4 1 3 2 2 3 1 4 31 5 32 6 93 7 33 8 92 9 34 10 35 11 36 12
REMARK SMILES IDX 86 13 37 14 91 15 85 16 87 17 38 18 90 19 84 20 83 21 39 23
REMARK SMILES IDX 71 24 51 25 70 26 52 27 55 28 69 29 88 30 53 31 54 32 68 34
REMARK SMILES IDX 89 35 56 36 40 37 41 38 49 39 42 40 48 41 50 42 47 43 43 44
REMARK SMILES IDX 44 45 45 46 46 47 72 48 73 49 81 50 74 51 80 52 82 53 79 54
REMARK SMILES IDX 75 55 76 56 77 57 78 58 57 59 58 60 66 61 59 62 65 63 67 64
REMARK SMILES IDX 64 65 60 66 61 67 62 68 63 69 5 70 6 71 7 72 8 73 9 74 10 75
REMARK SMILES IDX 26 76 11 77 25 78 27 79 24 80 30 81 28 82 29 83 12 84 13 85
REMARK SMILES IDX 14 86 15 87 16 89 17 90 22 91 18 92 21 93 23 94 19 95 20 96
REMARK H PARENT 87 22 55 33 15 88
REMARK Flexibility Score: inf
ROOT
ATOM      1  C   UNL A   1      31.780  29.831  26.838  1.00  0.00     0.275 C 
ENDROOT
BRANCH   1   2
ATOM      2  O   UNL A   1      33.035  30.418  26.457  1.00  0.00    -0.458 OA
BRANCH   2   3
ATOM      3  C   UNL A   1      33.654  31.327  27.237  1.00  0.00     0.338 C 
ATOM      4  O   UNL A   1      33.090  32.367  27.553  1.00  0.00    -0.246 OA
BRANCH   3   5
ATOM      5  C   UNL A   1      34.983  30.985  27.828  1.00  0.00     0.060 A 
ATOM      6  C   UNL A   1      36.054  31.874  27.957  1.00  0.00     0.016 A 
ATOM      7  C   UNL A   1      35.093  29.721  28.419  1.00  0.00     0.016 A 
ATOM      8  C   UNL A   1      37.185  31.528  28.698  1.00  0.00     0.010 A 
ATOM      9  C   UNL A   1      36.207  29.387  29.188  1.00  0.00     0.010 A 
ATOM     10  C   UNL A   1      37.255  30.294  29.346  1.00  0.00    -0.014 A 
BRANCH  10  11
ATOM     11  C   UNL A   1      38.436  29.942  30.167  1.00  0.00     0.031 A 
ATOM     12  C   UNL A   1      38.591  30.561  31.512  1.00  0.00     0.074 A 
ATOM     13  C   UNL A   1      39.358  29.081  29.695  1.00  0.00     0.049 A 
ATOM     14  N   UNL A   1      39.524  30.348  32.397  1.00  0.00    -0.248 NA
ATOM     15  C   UNL A   1      37.573  31.541  31.916  1.00  0.00     0.031 C 
ATOM     16  C   UNL A   1      39.279  28.459  28.382  1.00  0.00     0.029 A 
ATOM     17  N   UNL A   1      40.520  28.578  30.222  1.00  0.00    -0.354 N 
ATOM     18  C   UNL A   1      39.206  31.165  33.468  1.00  0.00     0.074 A 
ATOM     19  C   UNL A   1      38.027  31.918  33.101  1.00  0.00     0.031 C 
ATOM     20  C   UNL A   1      40.336  27.655  28.205  1.00  0.00     0.029 A 
ATOM     21  C   UNL A   1      41.195  27.731  29.367  1.00  0.00     0.049 A 
ATOM     22  H   UNL A   1      40.842  28.800  31.125  1.00  0.00     0.167 HD
ATOM     23  C   UNL A   1      39.839  31.249  34.659  1.00  0.00     0.034 A 
ATOM     24  C   UNL A   1      42.376  27.092  29.485  1.00  0.00     0.034 A 
ATOM     25  C   UNL A   1      41.023  30.495  34.975  1.00  0.00     0.049 A 
ATOM     26  C   UNL A   1      43.084  27.241  30.799  1.00  0.00     0.074 A 
ATOM     27  C   UNL A   1      41.728  30.459  36.162  1.00  0.00     0.029 A 
ATOM     28  N   UNL A   1      41.694  29.662  34.083  1.00  0.00    -0.354 N 
ATOM     29  N   UNL A   1      42.703  27.933  31.849  1.00  0.00    -0.248 NA
ATOM     30  C   UNL A   1      44.348  26.520  30.968  1.00  0.00     0.031 C 
ATOM     31  C   UNL A   1      42.864  29.665  35.965  1.00  0.00     0.029 A 
ATOM     32  C   UNL A   1      42.833  29.147  34.679  1.00  0.00     0.049 A 
ATOM     33  H   UNL A   1      41.401  29.468  33.164  1.00  0.00     0.167 HD
ATOM     34  C   UNL A   1      43.678  27.726  32.808  1.00  0.00     0.074 A 
ATOM     35  C   UNL A   1      44.640  26.806  32.228  1.00  0.00     0.031 C 
ATOM     36  C   UNL A   1      43.780  28.255  34.054  1.00  0.00     0.034 A 
BRANCH  23  37
ATOM     37  C   UNL A   1      39.276  32.224  35.654  1.00  0.00     0.023 A 
ATOM     38  C   UNL A   1      39.713  33.559  35.702  1.00  0.00     0.031 A 
ATOM     39  C   UNL A   1      38.347  31.792  36.613  1.00  0.00     0.131 A 
ATOM     40  C   UNL A   1      39.275  34.398  36.737  1.00  0.00     0.055 A 
ATOM     41  C   UNL A   1      37.855  32.654  37.594  1.00  0.00     0.041 A 
ATOM     42  F   UNL A   1      37.926  30.518  36.633  1.00  0.00    -0.206 F 
ATOM     43  C   UNL A   1      38.330  33.962  37.667  1.00  0.00     0.022 A 
BRANCH  40  44
ATOM     44  S   UNL A   1      40.058  36.023  36.927  1.00  0.00     0.124 S 
ATOM     45  O   UNL A   1      41.431  35.651  37.260  1.00  0.00    -0.237 OA
ATOM     46  O   UNL A   1      39.863  36.627  35.614  1.00  0.00    -0.237 OA
ATOM     47  O   UNL A   1      39.303  36.641  38.015  1.00  0.00    -0.744 OA
ENDBRANCH  40  44
ENDBRANCH  23  37
BRANCH  24  48
ATOM     48  C   UNL A   1      42.955  26.291  28.358  1.00  0.00     0.023 A 
ATOM     49  C   UNL A   1      42.495  24.999  28.054  1.00  0.00     0.031 A 
ATOM     50  C   UNL A   1      44.016  26.798  27.582  1.00  0.00     0.131 A 
ATOM     51  C   UNL A   1      43.118  24.245  27.042  1.00  0.00     0.055 A 
ATOM     52  C   UNL A   1      44.592  26.069  26.538  1.00  0.00     0.041 A 
ATOM     53  F   UNL A   1      44.505  28.025  27.820  1.00  0.00    -0.206 F 
ATOM     54  C   UNL A   1      44.153  24.777  26.272  1.00  0.00     0.022 A 
BRANCH  51  55
ATOM     55  S   UNL A   1      42.625  22.513  26.810  1.00  0.00     0.124 S 
ATOM     56  O   UNL A   1      42.765  21.976  28.159  1.00  0.00    -0.237 OA
ATOM     57  O   UNL A   1      41.260  22.654  26.314  1.00  0.00    -0.237 OA
ATOM     58  O   UNL A   1      43.592  22.010  25.836  1.00  0.00    -0.744 OA
ENDBRANCH  51  55
ENDBRANCH  24  48
BRANCH  36  59
ATOM     59  C   UNL A   1      44.989  27.840  34.841  1.00  0.00     0.023 A 
ATOM     60  C   UNL A   1      44.955  26.704  35.665  1.00  0.00     0.031 A 
ATOM     61  C   UNL A   1      46.167  28.603  34.793  1.00  0.00     0.131 A 
ATOM     62  C   UNL A   1      46.060  26.398  36.465  1.00  0.00     0.055 A 
ATOM     63  C   UNL A   1      47.291  28.249  35.536  1.00  0.00     0.041 A 
ATOM     64  F   UNL A   1      46.241  29.702  34.026  1.00  0.00    -0.206 F 
ATOM     65  C   UNL A   1      47.237  27.149  36.389  1.00  0.00     0.022 A 
BRANCH  62  66
ATOM     66  S   UNL A   1      45.898  25.067  37.683  1.00  0.00     0.124 S 
ATOM     67  O   UNL A   1      45.253  24.020  36.897  1.00  0.00    -0.237 OA
ATOM     68  O   UNL A   1      47.285  24.817  38.062  1.00  0.00    -0.237 OA
ATOM     69  O   UNL A   1      45.068  25.661  38.729  1.00  0.00    -0.744 OA
ENDBRANCH  62  66
ENDBRANCH  36  59
ENDBRANCH  10  11
ENDBRANCH   3   5
ENDBRANCH   2   3
ENDBRANCH   1   2
BRANCH   1  70
ATOM     70  C   UNL A   1      31.807  28.491  27.594  1.00  0.00     0.275 C 
BRANCH  70  71
ATOM     71  O   UNL A   1      32.408  27.421  26.850  1.00  0.00    -0.458 OA
BRANCH  71  72
ATOM     72  C   UNL A   1      31.574  26.438  26.405  1.00  0.00     0.342 C 
ATOM     73  O   UNL A   1      30.373  26.372  26.549  1.00  0.00    -0.246 OA
BRANCH  72  74
ATOM     74  C   UNL A   1      32.359  25.465  25.611  1.00  0.00     0.107 A 
ATOM     75  C   UNL A   1      32.849  24.301  26.236  1.00  0.00     0.042 A 
ATOM     76  C   UNL A   1      32.585  25.697  24.255  1.00  0.00     0.175 A 
ATOM     77  C   UNL A   1      33.541  23.343  25.487  1.00  0.00     0.092 A 
ATOM     78  C   UNL A   1      33.375  24.793  23.540  1.00  0.00     0.163 A 
ATOM     79  O   UNL A   1      32.011  26.797  23.667  1.00  0.00    -0.485 OA
ATOM     80  C   UNL A   1      33.828  23.610  24.139  1.00  0.00     0.072 A 
ATOM     81  O   UNL A   1      33.694  24.970  22.219  1.00  0.00    -0.486 OA
ATOM     82  C   UNL A   1      31.881  26.608  22.253  1.00  0.00     0.271 C 
ATOM     83  C   UNL A   1      33.228  26.212  21.676  1.00  0.00     0.271 C 
BRANCH  77  84
ATOM     84  S   UNL A   1      33.933  21.710  26.106  1.00  0.00     0.262 S 
ATOM     85  O   UNL A   1      35.003  21.169  25.299  1.00  0.00    -0.201 OA
ATOM     86  O   UNL A   1      34.090  21.826  27.541  1.00  0.00    -0.201 OA
BRANCH  84  87
ATOM     87  N   UNL A   1      32.604  20.688  25.933  1.00  0.00    -0.277 N 
ATOM     88  H   UNL A   1      31.782  20.881  26.438  1.00  0.00     0.180 HD
BRANCH  87  89
ATOM     89  C   UNL A   1      32.640  19.548  25.075  1.00  0.00     0.087 A 
ATOM     90  C   UNL A   1      32.858  18.250  25.530  1.00  0.00     0.069 A 
ATOM     91  C   UNL A   1      32.377  19.763  23.716  1.00  0.00     0.147 A 
ATOM     92  C   UNL A   1      32.945  17.215  24.598  1.00  0.00     0.125 A 
ATOM     93  C   UNL A   1      32.466  18.729  22.792  1.00  0.00     0.044 A 
ATOM     94  F   UNL A   1      32.073  20.995  23.281  1.00  0.00    -0.205 F 
ATOM     95  F   UNL A   1      33.247  15.978  25.017  1.00  0.00    -0.207 F 
ATOM     96  C   UNL A   1      32.777  17.447  23.235  1.00  0.00     0.042 A 
ENDBRANCH  87  89
ENDBRANCH  84  87
ENDBRANCH  77  84
ENDBRANCH  72  74
ENDBRANCH  71  72
ENDBRANCH  70  71
ENDBRANCH   1  70
TORSDOF 17
ENDMDL
