MODEL 1
REMARK VINA RESULT:     -11.7      0.000      0.000
REMARK SMILES CO[C@@H]1C[C@H](C(=O)OCCOC(=O)c2ccc(-c3c4nc(c(-c5cc(S(=O)(=O)[O-])ccc5F)c5ccc([nH]5)c(-c5cc(S(=O)(=O)[O-])ccc5F)c5nc(c(-c6cc(S(=O)(=O)[O-])ccc6F)c6ccc3[nH]6)C=C5)C=C4)cc2)N(C(=O)c2ccn(C)c(=O)c2)C1
REMARK SMILES IDX 10 1 9 2 8 3 6 4 7 5 5 6 3 7 4 8 88 9 77 10 2 11 1 12 78 13
REMARK SMILES IDX 79 14 80 15 81 16 87 17 82 18 85 19 83 20 86 21 84 22 11 23
REMARK SMILES IDX 12 24 13 25 14 26 15 27 76 28 16 29 75 30 17 31 18 32 19 33
REMARK SMILES IDX 69 34 20 35 74 36 68 37 70 38 21 39 73 40 67 41 66 42 22 44
REMARK SMILES IDX 54 45 34 46 53 47 35 48 38 49 52 50 71 51 36 52 37 53 51 55
REMARK SMILES IDX 72 56 39 57 23 58 24 59 32 60 25 61 31 62 33 63 30 64 26 65
REMARK SMILES IDX 27 66 28 67 29 68 55 69 56 70 64 71 57 72 63 73 65 74 62 75
REMARK SMILES IDX 58 76 59 77 60 78 61 79 40 80 41 81 49 82 42 83 48 84 50 85
REMARK SMILES IDX 47 86 43 87 44 88 45 89 46 90
REMARK H PARENT 70 43 38 54
REMARK Flexibility Score: inf
ROOT
ATOM      1  C   UNL A   1      36.427  20.787  25.375  1.00  0.00     0.275 C 
ENDROOT
BRANCH   1   2
ATOM      2  C   UNL A   1      35.316  21.836  25.331  1.00  0.00     0.274 C 
BRANCH   2   3
ATOM      3  O   UNL A   1      35.325  22.505  24.059  1.00  0.00    -0.461 OA
BRANCH   3   4
ATOM      4  C   UNL A   1      34.635  23.666  23.962  1.00  0.00     0.329 C 
ATOM      5  O   UNL A   1      34.799  24.627  24.709  1.00  0.00    -0.250 OA
BRANCH   4   6
ATOM      6  C   UNL A   1      33.622  23.675  22.798  1.00  0.00     0.198 C 
ATOM      7  C   UNL A   1      31.450  23.173  23.693  1.00  0.00     0.140 C 
ATOM      8  C   UNL A   1      32.548  22.590  22.804  1.00  0.00     0.071 C 
ATOM      9  C   UNL A   1      31.546  24.687  23.447  1.00  0.00     0.152 C 
ATOM     10  N   UNL A   1      32.847  24.916  22.840  1.00  0.00    -0.322 N 
BRANCH   7  11
ATOM     11  O   UNL A   1      31.738  22.803  25.042  1.00  0.00    -0.380 OA
ATOM     12  C   UNL A   1      31.850  21.403  25.235  1.00  0.00     0.195 C 
ENDBRANCH   7  11
BRANCH  10  13
ATOM     13  C   UNL A   1      33.219  26.174  22.428  1.00  0.00     0.254 C 
ATOM     14  O   UNL A   1      33.819  26.363  21.370  1.00  0.00    -0.269 OA
BRANCH  13  15
ATOM     15  C   UNL A   1      32.898  27.334  23.307  1.00  0.00     0.046 A 
ATOM     16  C   UNL A   1      33.771  27.695  24.399  1.00  0.00     0.032 A 
ATOM     17  C   UNL A   1      31.721  27.953  23.143  1.00  0.00     0.085 A 
ATOM     18  C   UNL A   1      33.401  28.652  25.258  1.00  0.00     0.089 A 
ATOM     19  C   UNL A   1      31.330  29.059  24.054  1.00  0.00     0.251 A 
ATOM     20  N   UNL A   1      32.200  29.322  25.108  1.00  0.00    -0.319 N 
ATOM     21  O   UNL A   1      30.285  29.657  23.820  1.00  0.00    -0.269 OA
ATOM     22  C   UNL A   1      31.830  30.319  26.103  1.00  0.00     0.153 C 
ENDBRANCH  13  15
ENDBRANCH  10  13
ENDBRANCH   4   6
ENDBRANCH   3   4
ENDBRANCH   2   3
ENDBRANCH   1   2
BRANCH   1  23
ATOM     23  O   UNL A   1      37.680  21.346  24.935  1.00  0.00    -0.458 OA
BRANCH  23  24
ATOM     24  C   UNL A   1      38.737  21.029  25.720  1.00  0.00     0.338 C 
ATOM     25  O   UNL A   1      39.259  19.936  25.856  1.00  0.00    -0.246 OA
BRANCH  24  26
ATOM     26  C   UNL A   1      39.302  22.248  26.310  1.00  0.00     0.060 A 
ATOM     27  C   UNL A   1      38.770  23.471  25.899  1.00  0.00     0.016 A 
ATOM     28  C   UNL A   1      40.415  22.201  27.147  1.00  0.00     0.016 A 
ATOM     29  C   UNL A   1      39.371  24.661  26.286  1.00  0.00     0.010 A 
ATOM     30  C   UNL A   1      41.014  23.400  27.550  1.00  0.00     0.010 A 
ATOM     31  C   UNL A   1      40.512  24.634  27.097  1.00  0.00    -0.014 A 
BRANCH  31  32
ATOM     32  C   UNL A   1      41.213  25.908  27.383  1.00  0.00     0.031 A 
ATOM     33  C   UNL A   1      40.574  26.920  28.288  1.00  0.00     0.074 A 
ATOM     34  C   UNL A   1      42.445  26.114  26.882  1.00  0.00     0.049 A 
ATOM     35  N   UNL A   1      41.001  28.106  28.638  1.00  0.00    -0.248 NA
ATOM     36  C   UNL A   1      39.272  26.554  28.864  1.00  0.00     0.031 C 
ATOM     37  C   UNL A   1      43.169  25.177  26.024  1.00  0.00     0.029 A 
ATOM     38  N   UNL A   1      43.313  27.162  27.041  1.00  0.00    -0.354 N 
ATOM     39  C   UNL A   1      40.004  28.646  29.444  1.00  0.00     0.074 A 
ATOM     40  C   UNL A   1      38.946  27.659  29.519  1.00  0.00     0.031 C 
ATOM     41  C   UNL A   1      44.388  25.676  25.764  1.00  0.00     0.029 A 
ATOM     42  C   UNL A   1      44.518  26.980  26.405  1.00  0.00     0.049 A 
ATOM     43  H   UNL A   1      43.096  27.969  27.562  1.00  0.00     0.167 HD
ATOM     44  C   UNL A   1      39.975  29.857  30.055  1.00  0.00     0.034 A 
ATOM     45  C   UNL A   1      45.602  27.779  26.341  1.00  0.00     0.034 A 
ATOM     46  C   UNL A   1      41.053  30.816  29.978  1.00  0.00     0.049 A 
ATOM     47  C   UNL A   1      45.551  29.112  27.041  1.00  0.00     0.074 A 
ATOM     48  C   UNL A   1      41.127  32.081  30.533  1.00  0.00     0.029 A 
ATOM     49  N   UNL A   1      42.252  30.609  29.304  1.00  0.00    -0.354 N 
ATOM     50  N   UNL A   1      44.577  29.636  27.752  1.00  0.00    -0.248 NA
ATOM     51  C   UNL A   1      46.738  29.965  26.919  1.00  0.00     0.031 C 
ATOM     52  C   UNL A   1      42.346  32.659  30.151  1.00  0.00     0.029 A 
ATOM     53  C   UNL A   1      43.061  31.731  29.411  1.00  0.00     0.049 A 
ATOM     54  H   UNL A   1      42.492  29.786  28.821  1.00  0.00     0.167 HD
ATOM     55  C   UNL A   1      45.033  30.886  28.153  1.00  0.00     0.074 A 
ATOM     56  C   UNL A   1      46.386  31.015  27.647  1.00  0.00     0.031 C 
ATOM     57  C   UNL A   1      44.391  31.851  28.863  1.00  0.00     0.034 A 
BRANCH  44  58
ATOM     58  C   UNL A   1      38.706  30.229  30.783  1.00  0.00     0.023 A 
ATOM     59  C   UNL A   1      37.643  30.894  30.146  1.00  0.00     0.031 A 
ATOM     60  C   UNL A   1      38.586  29.967  32.160  1.00  0.00     0.131 A 
ATOM     61  C   UNL A   1      36.544  31.339  30.898  1.00  0.00     0.055 A 
ATOM     62  C   UNL A   1      37.456  30.344  32.887  1.00  0.00     0.041 A 
ATOM     63  F   UNL A   1      39.579  29.359  32.828  1.00  0.00    -0.206 F 
ATOM     64  C   UNL A   1      36.434  31.048  32.260  1.00  0.00     0.022 A 
BRANCH  61  65
ATOM     65  S   UNL A   1      35.332  32.432  30.106  1.00  0.00     0.124 S 
ATOM     66  O   UNL A   1      34.353  32.612  31.176  1.00  0.00    -0.237 OA
ATOM     67  O   UNL A   1      36.132  33.602  29.767  1.00  0.00    -0.237 OA
ATOM     68  O   UNL A   1      34.857  31.649  28.967  1.00  0.00    -0.744 OA
ENDBRANCH  61  65
ENDBRANCH  44  58
BRANCH  45  69
ATOM     69  C   UNL A   1      46.806  27.363  25.568  1.00  0.00     0.023 A 
ATOM     70  C   UNL A   1      46.997  27.784  24.241  1.00  0.00     0.031 A 
ATOM     71  C   UNL A   1      47.770  26.509  26.133  1.00  0.00     0.131 A 
ATOM     72  C   UNL A   1      48.105  27.322  23.514  1.00  0.00     0.055 A 
ATOM     73  C   UNL A   1      48.898  26.095  25.422  1.00  0.00     0.041 A 
ATOM     74  F   UNL A   1      47.640  26.080  27.398  1.00  0.00    -0.206 F 
ATOM     75  C   UNL A   1      49.063  26.492  24.099  1.00  0.00     0.022 A 
BRANCH  72  76
ATOM     76  S   UNL A   1      48.239  27.761  21.759  1.00  0.00     0.124 S 
ATOM     77  O   UNL A   1      49.356  28.699  21.769  1.00  0.00    -0.237 OA
ATOM     78  O   UNL A   1      48.495  26.463  21.144  1.00  0.00    -0.237 OA
ATOM     79  O   UNL A   1      46.935  28.346  21.453  1.00  0.00    -0.744 OA
ENDBRANCH  72  76
ENDBRANCH  45  69
BRANCH  57  80
ATOM     80  C   UNL A   1      45.161  33.125  29.106  1.00  0.00     0.023 A 
ATOM     81  C   UNL A   1      45.115  34.190  28.189  1.00  0.00     0.031 A 
ATOM     82  C   UNL A   1      45.976  33.259  30.242  1.00  0.00     0.131 A 
ATOM     83  C   UNL A   1      45.923  35.318  28.389  1.00  0.00     0.055 A 
ATOM     84  C   UNL A   1      46.736  34.410  30.464  1.00  0.00     0.041 A 
ATOM     85  F   UNL A   1      46.056  32.273  31.148  1.00  0.00    -0.206 F 
ATOM     86  C   UNL A   1      46.723  35.440  29.527  1.00  0.00     0.022 A 
BRANCH  83  87
ATOM     87  S   UNL A   1      45.992  36.580  27.087  1.00  0.00     0.124 S 
ATOM     88  O   UNL A   1      44.612  37.051  27.046  1.00  0.00    -0.237 OA
ATOM     89  O   UNL A   1      46.973  37.522  27.616  1.00  0.00    -0.237 OA
ATOM     90  O   UNL A   1      46.426  35.832  25.908  1.00  0.00    -0.744 OA
ENDBRANCH  83  87
ENDBRANCH  57  80
ENDBRANCH  31  32
ENDBRANCH  24  26
ENDBRANCH  23  24
ENDBRANCH   1  23
TORSDOF 17
ENDMDL
MODEL 2
REMARK VINA RESULT:     -11.5      5.044      7.466
REMARK SMILES CO[C@@H]1C[C@H](C(=O)OCCOC(=O)c2ccc(-c3c4nc(c(-c5cc(S(=O)(=O)[O-])ccc5F)c5ccc([nH]5)c(-c5cc(S(=O)(=O)[O-])ccc5F)c5nc(c(-c6cc(S(=O)(=O)[O-])ccc6F)c6ccc3[nH]6)C=C5)C=C4)cc2)N(C(=O)c2ccn(C)c(=O)c2)C1
REMARK SMILES IDX 10 1 9 2 8 3 6 4 7 5 5 6 3 7 4 8 88 9 77 10 2 11 1 12 78 13
REMARK SMILES IDX 79 14 80 15 81 16 87 17 82 18 85 19 83 20 86 21 84 22 11 23
REMARK SMILES IDX 12 24 13 25 14 26 15 27 76 28 16 29 75 30 17 31 18 32 19 33
REMARK SMILES IDX 69 34 20 35 74 36 68 37 70 38 21 39 73 40 67 41 66 42 22 44
REMARK SMILES IDX 54 45 34 46 53 47 35 48 38 49 52 50 71 51 36 52 37 53 51 55
REMARK SMILES IDX 72 56 39 57 23 58 24 59 32 60 25 61 31 62 33 63 30 64 26 65
REMARK SMILES IDX 27 66 28 67 29 68 55 69 56 70 64 71 57 72 63 73 65 74 62 75
REMARK SMILES IDX 58 76 59 77 60 78 61 79 40 80 41 81 49 82 42 83 48 84 50 85
REMARK SMILES IDX 47 86 43 87 44 88 45 89 46 90
REMARK H PARENT 70 43 38 54
REMARK Flexibility Score: inf
ROOT
ATOM      1  C   UNL A   1      31.899  31.264  26.533  1.00  0.00     0.275 C 
ENDROOT
BRANCH   1   2
ATOM      2  C   UNL A   1      31.730  30.014  25.670  1.00  0.00     0.274 C 
BRANCH   2   3
ATOM      3  O   UNL A   1      31.750  28.841  26.500  1.00  0.00    -0.461 OA
BRANCH   3   4
ATOM      4  C   UNL A   1      31.342  27.677  25.941  1.00  0.00     0.329 C 
ATOM      5  O   UNL A   1      30.862  26.742  26.576  1.00  0.00    -0.250 OA
BRANCH   4   6
ATOM      6  C   UNL A   1      31.521  27.643  24.409  1.00  0.00     0.198 C 
ATOM      7  C   UNL A   1      32.361  25.475  23.803  1.00  0.00     0.140 C 
ATOM      8  C   UNL A   1      32.769  26.946  23.872  1.00  0.00     0.071 C 
ATOM      9  C   UNL A   1      30.857  25.527  23.494  1.00  0.00     0.152 C 
ATOM     10  N   UNL A   1      30.426  26.879  23.811  1.00  0.00    -0.322 N 
BRANCH   7  11
ATOM     11  O   UNL A   1      32.654  24.881  25.068  1.00  0.00    -0.380 OA
ATOM     12  C   UNL A   1      34.000  25.058  25.480  1.00  0.00     0.195 C 
ENDBRANCH   7  11
BRANCH  10  13
ATOM     13  C   UNL A   1      29.131  27.277  23.575  1.00  0.00     0.254 C 
ATOM     14  O   UNL A   1      28.172  26.535  23.785  1.00  0.00    -0.269 OA
BRANCH  13  15
ATOM     15  C   UNL A   1      28.895  28.644  23.031  1.00  0.00     0.046 A 
ATOM     16  C   UNL A   1      29.727  29.170  21.974  1.00  0.00     0.032 A 
ATOM     17  C   UNL A   1      27.982  29.421  23.629  1.00  0.00     0.085 A 
ATOM     18  C   UNL A   1      29.590  30.445  21.590  1.00  0.00     0.089 A 
ATOM     19  C   UNL A   1      27.779  30.818  23.167  1.00  0.00     0.251 A 
ATOM     20  N   UNL A   1      28.645  31.270  22.176  1.00  0.00    -0.319 N 
ATOM     21  O   UNL A   1      26.876  31.471  23.682  1.00  0.00    -0.269 OA
ATOM     22  C   UNL A   1      28.577  32.661  21.750  1.00  0.00     0.153 C 
ENDBRANCH  13  15
ENDBRANCH  10  13
ENDBRANCH   4   6
ENDBRANCH   3   4
ENDBRANCH   2   3
ENDBRANCH   1   2
BRANCH   1  23
ATOM     23  O   UNL A   1      32.905  31.061  27.543  1.00  0.00    -0.458 OA
BRANCH  23  24
ATOM     24  C   UNL A   1      33.740  32.113  27.718  1.00  0.00     0.338 C 
ATOM     25  O   UNL A   1      33.449  33.297  27.727  1.00  0.00    -0.246 OA
BRANCH  24  26
ATOM     26  C   UNL A   1      35.084  31.632  28.055  1.00  0.00     0.060 A 
ATOM     27  C   UNL A   1      35.229  30.276  28.353  1.00  0.00     0.016 A 
ATOM     28  C   UNL A   1      36.154  32.512  28.207  1.00  0.00     0.016 A 
ATOM     29  C   UNL A   1      36.433  29.792  28.845  1.00  0.00     0.010 A 
ATOM     30  C   UNL A   1      37.373  32.023  28.689  1.00  0.00     0.010 A 
ATOM     31  C   UNL A   1      37.509  30.667  29.038  1.00  0.00    -0.014 A 
BRANCH  31  32
ATOM     32  C   UNL A   1      38.736  30.155  29.691  1.00  0.00     0.031 A 
ATOM     33  C   UNL A   1      39.064  30.579  31.093  1.00  0.00     0.074 A 
ATOM     34  C   UNL A   1      39.509  29.261  29.046  1.00  0.00     0.049 A 
ATOM     35  N   UNL A   1      40.100  30.276  31.831  1.00  0.00    -0.248 NA
ATOM     36  C   UNL A   1      38.101  31.479  31.746  1.00  0.00     0.031 C 
ATOM     37  C   UNL A   1      39.257  28.756  27.697  1.00  0.00     0.029 A 
ATOM     38  N   UNL A   1      40.643  28.604  29.444  1.00  0.00    -0.354 N 
ATOM     39  C   UNL A   1      39.937  30.977  33.022  1.00  0.00     0.074 A 
ATOM     40  C   UNL A   1      38.706  31.730  32.898  1.00  0.00     0.031 C 
ATOM     41  C   UNL A   1      40.188  27.837  27.395  1.00  0.00     0.029 A 
ATOM     42  C   UNL A   1      41.121  27.716  28.510  1.00  0.00     0.049 A 
ATOM     43  H   UNL A   1      41.075  28.753  30.316  1.00  0.00     0.167 HD
ATOM     44  C   UNL A   1      40.748  30.994  34.109  1.00  0.00     0.034 A 
ATOM     45  C   UNL A   1      42.194  26.901  28.549  1.00  0.00     0.034 A 
ATOM     46  C   UNL A   1      41.963  30.220  34.212  1.00  0.00     0.049 A 
ATOM     47  C   UNL A   1      43.069  26.927  29.774  1.00  0.00     0.074 A 
ATOM     48  C   UNL A   1      42.875  30.174  35.251  1.00  0.00     0.029 A 
ATOM     49  N   UNL A   1      42.431  29.346  33.236  1.00  0.00    -0.354 N 
ATOM     50  N   UNL A   1      42.936  27.640  30.870  1.00  0.00    -0.248 NA
ATOM     51  C   UNL A   1      44.245  26.050  29.762  1.00  0.00     0.031 C 
ATOM     52  C   UNL A   1      43.921  29.316  34.882  1.00  0.00     0.029 A 
ATOM     53  C   UNL A   1      43.630  28.775  33.640  1.00  0.00     0.049 A 
ATOM     54  H   UNL A   1      41.979  29.160  32.382  1.00  0.00     0.167 HD
ATOM     55  C   UNL A   1      44.019  27.302  31.674  1.00  0.00     0.074 A 
ATOM     56  C   UNL A   1      44.767  26.288  30.956  1.00  0.00     0.031 C 
ATOM     57  C   UNL A   1      44.377  27.795  32.888  1.00  0.00     0.034 A 
BRANCH  44  58
ATOM     58  C   UNL A   1      40.380  31.941  35.226  1.00  0.00     0.023 A 
ATOM     59  C   UNL A   1      39.407  31.622  36.190  1.00  0.00     0.031 A 
ATOM     60  C   UNL A   1      40.973  33.215  35.288  1.00  0.00     0.131 A 
ATOM     61  C   UNL A   1      39.004  32.590  37.124  1.00  0.00     0.055 A 
ATOM     62  C   UNL A   1      40.623  34.146  36.267  1.00  0.00     0.041 A 
ATOM     63  F   UNL A   1      41.890  33.587  34.379  1.00  0.00    -0.206 F 
ATOM     64  C   UNL A   1      39.622  33.841  37.183  1.00  0.00     0.022 A 
BRANCH  61  65
ATOM     65  S   UNL A   1      37.559  32.246  38.166  1.00  0.00     0.124 S 
ATOM     66  O   UNL A   1      37.385  30.809  37.966  1.00  0.00    -0.237 OA
ATOM     67  O   UNL A   1      38.016  32.657  39.488  1.00  0.00    -0.237 OA
ATOM     68  O   UNL A   1      36.509  33.078  37.582  1.00  0.00    -0.744 OA
ENDBRANCH  61  65
ENDBRANCH  44  58
BRANCH  45  69
ATOM     69  C   UNL A   1      42.520  26.022  27.390  1.00  0.00     0.023 A 
ATOM     70  C   UNL A   1      42.092  24.685  27.352  1.00  0.00     0.031 A 
ATOM     71  C   UNL A   1      43.292  26.498  26.315  1.00  0.00     0.131 A 
ATOM     72  C   UNL A   1      42.471  23.860  26.281  1.00  0.00     0.055 A 
ATOM     73  C   UNL A   1      43.622  25.688  25.227  1.00  0.00     0.041 A 
ATOM     74  F   UNL A   1      43.724  27.768  26.298  1.00  0.00    -0.206 F 
ATOM     75  C   UNL A   1      43.221  24.356  25.212  1.00  0.00     0.022 A 
BRANCH  72  76
ATOM     76  S   UNL A   1      42.033  22.100  26.338  1.00  0.00     0.124 S 
ATOM     77  O   UNL A   1      40.586  22.146  26.164  1.00  0.00    -0.237 OA
ATOM     78  O   UNL A   1      42.799  21.564  25.219  1.00  0.00    -0.237 OA
ATOM     79  O   UNL A   1      42.490  21.679  27.661  1.00  0.00    -0.744 OA
ENDBRANCH  72  76
ENDBRANCH  45  69
BRANCH  57  80
ATOM     80  C   UNL A   1      45.644  27.237  33.489  1.00  0.00     0.023 A 
ATOM     81  C   UNL A   1      45.624  26.076  34.282  1.00  0.00     0.031 A 
ATOM     82  C   UNL A   1      46.872  27.893  33.300  1.00  0.00     0.131 A 
ATOM     83  C   UNL A   1      46.798  25.642  34.914  1.00  0.00     0.055 A 
ATOM     84  C   UNL A   1      48.048  27.423  33.886  1.00  0.00     0.041 A 
ATOM     85  F   UNL A   1      46.946  29.004  32.553  1.00  0.00    -0.206 F 
ATOM     86  C   UNL A   1      48.012  26.301  34.711  1.00  0.00     0.022 A 
BRANCH  83  87
ATOM     87  S   UNL A   1      46.694  24.263  36.089  1.00  0.00     0.124 S 
ATOM     88  O   UNL A   1      48.000  24.316  36.737  1.00  0.00    -0.237 OA
ATOM     89  O   UNL A   1      45.555  24.644  36.917  1.00  0.00    -0.237 OA
ATOM     90  O   UNL A   1      46.474  23.099  35.232  1.00  0.00    -0.744 OA
ENDBRANCH  83  87
ENDBRANCH  57  80
ENDBRANCH  31  32
ENDBRANCH  24  26
ENDBRANCH  23  24
ENDBRANCH   1  23
TORSDOF 17
ENDMDL
MODEL 3
REMARK VINA RESULT:     -11.5      5.001      7.674
REMARK SMILES CO[C@@H]1C[C@H](C(=O)OCCOC(=O)c2ccc(-c3c4nc(c(-c5cc(S(=O)(=O)[O-])ccc5F)c5ccc([nH]5)c(-c5cc(S(=O)(=O)[O-])ccc5F)c5nc(c(-c6cc(S(=O)(=O)[O-])ccc6F)c6ccc3[nH]6)C=C5)C=C4)cc2)N(C(=O)c2ccn(C)c(=O)c2)C1
REMARK SMILES IDX 10 1 9 2 8 3 6 4 7 5 5 6 3 7 4 8 88 9 77 10 2 11 1 12 78 13
REMARK SMILES IDX 79 14 80 15 81 16 87 17 82 18 85 19 83 20 86 21 84 22 11 23
REMARK SMILES IDX 12 24 13 25 14 26 15 27 76 28 16 29 75 30 17 31 18 32 19 33
REMARK SMILES IDX 69 34 20 35 74 36 68 37 70 38 21 39 73 40 67 41 66 42 22 44
REMARK SMILES IDX 54 45 34 46 53 47 35 48 38 49 52 50 71 51 36 52 37 53 51 55
REMARK SMILES IDX 72 56 39 57 23 58 24 59 32 60 25 61 31 62 33 63 30 64 26 65
REMARK SMILES IDX 27 66 28 67 29 68 55 69 56 70 64 71 57 72 63 73 65 74 62 75
REMARK SMILES IDX 58 76 59 77 60 78 61 79 40 80 41 81 49 82 42 83 48 84 50 85
REMARK SMILES IDX 47 86 43 87 44 88 45 89 46 90
REMARK H PARENT 70 43 38 54
REMARK Flexibility Score: inf
ROOT
ATOM      1  C   UNL A   1      31.785  30.799  26.168  1.00  0.00     0.275 C 
ENDROOT
BRANCH   1   2
ATOM      2  C   UNL A   1      31.508  29.493  25.424  1.00  0.00     0.274 C 
BRANCH   2   3
ATOM      3  O   UNL A   1      31.635  28.380  26.326  1.00  0.00    -0.461 OA
BRANCH   3   4
ATOM      4  C   UNL A   1      31.982  27.185  25.793  1.00  0.00     0.329 C 
ATOM      5  O   UNL A   1      33.111  26.915  25.391  1.00  0.00    -0.250 OA
BRANCH   4   6
ATOM      6  C   UNL A   1      30.816  26.175  25.755  1.00  0.00     0.198 C 
ATOM      7  C   UNL A   1      30.433  25.561  23.465  1.00  0.00     0.140 C 
ATOM      8  C   UNL A   1      29.802  26.329  24.625  1.00  0.00     0.071 C 
ATOM      9  C   UNL A   1      31.215  24.433  24.154  1.00  0.00     0.152 C 
ATOM     10  N   UNL A   1      31.350  24.828  25.547  1.00  0.00    -0.322 N 
BRANCH   7  11
ATOM     11  O   UNL A   1      31.271  26.468  22.746  1.00  0.00    -0.380 OA
ATOM     12  C   UNL A   1      30.619  27.671  22.376  1.00  0.00     0.195 C 
ENDBRANCH   7  11
BRANCH  10  13
ATOM     13  C   UNL A   1      31.947  23.991  26.461  1.00  0.00     0.254 C 
ATOM     14  O   UNL A   1      31.492  23.831  27.593  1.00  0.00    -0.269 OA
BRANCH  13  15
ATOM     15  C   UNL A   1      33.193  23.278  26.063  1.00  0.00     0.046 A 
ATOM     16  C   UNL A   1      33.216  21.838  25.955  1.00  0.00     0.032 A 
ATOM     17  C   UNL A   1      34.322  23.988  25.933  1.00  0.00     0.085 A 
ATOM     18  C   UNL A   1      34.373  21.206  25.729  1.00  0.00     0.089 A 
ATOM     19  C   UNL A   1      35.600  23.301  25.620  1.00  0.00     0.251 A 
ATOM     20  N   UNL A   1      35.555  21.910  25.574  1.00  0.00    -0.319 N 
ATOM     21  O   UNL A   1      36.595  23.992  25.424  1.00  0.00    -0.269 OA
ATOM     22  C   UNL A   1      36.790  21.164  25.379  1.00  0.00     0.153 C 
ENDBRANCH  13  15
ENDBRANCH  10  13
ENDBRANCH   4   6
ENDBRANCH   3   4
ENDBRANCH   2   3
ENDBRANCH   1   2
BRANCH   1  23
ATOM     23  O   UNL A   1      32.744  30.597  27.224  1.00  0.00    -0.458 OA
BRANCH  23  24
ATOM     24  C   UNL A   1      33.499  31.686  27.507  1.00  0.00     0.338 C 
ATOM     25  O   UNL A   1      33.134  32.848  27.556  1.00  0.00    -0.246 OA
BRANCH  24  26
ATOM     26  C   UNL A   1      34.846  31.267  27.908  1.00  0.00     0.060 A 
ATOM     27  C   UNL A   1      35.036  29.922  28.229  1.00  0.00     0.016 A 
ATOM     28  C   UNL A   1      35.870  32.195  28.093  1.00  0.00     0.016 A 
ATOM     29  C   UNL A   1      36.237  29.497  28.779  1.00  0.00     0.010 A 
ATOM     30  C   UNL A   1      37.087  31.765  28.634  1.00  0.00     0.010 A 
ATOM     31  C   UNL A   1      37.265  30.420  29.006  1.00  0.00    -0.014 A 
BRANCH  31  32
ATOM     32  C   UNL A   1      38.484  29.968  29.718  1.00  0.00     0.031 A 
ATOM     33  C   UNL A   1      38.724  30.411  31.132  1.00  0.00     0.074 A 
ATOM     34  C   UNL A   1      39.328  29.112  29.113  1.00  0.00     0.049 A 
ATOM     35  N   UNL A   1      39.738  30.160  31.919  1.00  0.00    -0.248 NA
ATOM     36  C   UNL A   1      37.690  31.264  31.736  1.00  0.00     0.031 C 
ATOM     37  C   UNL A   1      39.165  28.593  27.756  1.00  0.00     0.029 A 
ATOM     38  N   UNL A   1      40.473  28.511  29.566  1.00  0.00    -0.354 N 
ATOM     39  C   UNL A   1      39.486  30.854  33.098  1.00  0.00     0.074 A 
ATOM     40  C   UNL A   1      38.227  31.546  32.914  1.00  0.00     0.031 C 
ATOM     41  C   UNL A   1      40.152  27.720  27.501  1.00  0.00     0.029 A 
ATOM     42  C   UNL A   1      41.036  27.645  28.660  1.00  0.00     0.049 A 
ATOM     43  H   UNL A   1      40.856  28.682  30.457  1.00  0.00     0.167 HD
ATOM     44  C   UNL A   1      40.244  30.912  34.221  1.00  0.00     0.034 A 
ATOM     45  C   UNL A   1      42.144  26.884  28.751  1.00  0.00     0.034 A 
ATOM     46  C   UNL A   1      41.488  30.197  34.384  1.00  0.00     0.049 A 
ATOM     47  C   UNL A   1      42.959  26.954  30.016  1.00  0.00     0.074 A 
ATOM     48  C   UNL A   1      42.352  30.197  35.464  1.00  0.00     0.029 A 
ATOM     49  N   UNL A   1      42.043  29.346  33.435  1.00  0.00    -0.354 N 
ATOM     50  N   UNL A   1      42.740  27.662  31.102  1.00  0.00    -0.248 NA
ATOM     51  C   UNL A   1      44.175  26.135  30.062  1.00  0.00     0.031 C 
ATOM     52  C   UNL A   1      43.454  29.391  35.148  1.00  0.00     0.029 A 
ATOM     53  C   UNL A   1      43.248  28.834  33.896  1.00  0.00     0.049 A 
ATOM     54  H   UNL A   1      41.641  29.136  32.562  1.00  0.00     0.167 HD
ATOM     55  C   UNL A   1      43.800  27.378  31.957  1.00  0.00     0.074 A 
ATOM     56  C   UNL A   1      44.628  26.400  31.279  1.00  0.00     0.031 C 
ATOM     57  C   UNL A   1      44.076  27.890  33.184  1.00  0.00     0.034 A 
BRANCH  44  58
ATOM     58  C   UNL A   1      39.778  31.842  35.316  1.00  0.00     0.023 A 
ATOM     59  C   UNL A   1      39.027  31.390  36.415  1.00  0.00     0.031 A 
ATOM     60  C   UNL A   1      40.042  33.221  35.222  1.00  0.00     0.131 A 
ATOM     61  C   UNL A   1      38.503  32.315  37.333  1.00  0.00     0.055 A 
ATOM     62  C   UNL A   1      39.583  34.127  36.180  1.00  0.00     0.041 A 
ATOM     63  F   UNL A   1      40.732  33.715  34.182  1.00  0.00    -0.206 F 
ATOM     64  C   UNL A   1      38.796  33.678  37.234  1.00  0.00     0.022 A 
BRANCH  61  65
ATOM     65  S   UNL A   1      37.311  31.734  38.571  1.00  0.00     0.124 S 
ATOM     66  O   UNL A   1      36.226  32.699  38.413  1.00  0.00    -0.237 OA
ATOM     67  O   UNL A   1      37.029  30.375  38.127  1.00  0.00    -0.237 OA
ATOM     68  O   UNL A   1      38.047  31.839  39.830  1.00  0.00    -0.744 OA
ENDBRANCH  61  65
ENDBRANCH  44  58
BRANCH  45  69
ATOM     69  C   UNL A   1      42.566  26.020  27.612  1.00  0.00     0.023 A 
ATOM     70  C   UNL A   1      42.097  24.701  27.490  1.00  0.00     0.031 A 
ATOM     71  C   UNL A   1      43.471  26.489  26.644  1.00  0.00     0.131 A 
ATOM     72  C   UNL A   1      42.563  23.887  26.446  1.00  0.00     0.055 A 
ATOM     73  C   UNL A   1      43.891  25.692  25.577  1.00  0.00     0.041 A 
ATOM     74  F   UNL A   1      43.948  27.741  26.710  1.00  0.00    -0.206 F 
ATOM     75  C   UNL A   1      43.446  24.378  25.482  1.00  0.00     0.022 A 
BRANCH  72  76
ATOM     76  S   UNL A   1      42.057  22.145  26.406  1.00  0.00     0.124 S 
ATOM     77  O   UNL A   1      42.676  21.681  25.170  1.00  0.00    -0.237 OA
ATOM     78  O   UNL A   1      42.635  21.636  27.645  1.00  0.00    -0.237 OA
ATOM     79  O   UNL A   1      40.597  22.215  26.385  1.00  0.00    -0.744 OA
ENDBRANCH  72  76
ENDBRANCH  45  69
BRANCH  57  80
ATOM     80  C   UNL A   1      45.338  27.395  33.846  1.00  0.00     0.023 A 
ATOM     81  C   UNL A   1      45.330  26.258  34.674  1.00  0.00     0.031 A 
ATOM     82  C   UNL A   1      46.549  28.087  33.680  1.00  0.00     0.131 A 
ATOM     83  C   UNL A   1      46.494  25.884  35.359  1.00  0.00     0.055 A 
ATOM     84  C   UNL A   1      47.719  27.677  34.321  1.00  0.00     0.041 A 
ATOM     85  F   UNL A   1      46.612  29.178  32.901  1.00  0.00    -0.206 F 
ATOM     86  C   UNL A   1      47.692  26.579  35.178  1.00  0.00     0.022 A 
BRANCH  83  87
ATOM     87  S   UNL A   1      46.395  24.538  36.571  1.00  0.00     0.124 S 
ATOM     88  O   UNL A   1      47.068  23.448  35.873  1.00  0.00    -0.237 OA
ATOM     89  O   UNL A   1      47.106  25.097  37.716  1.00  0.00    -0.237 OA
ATOM     90  O   UNL A   1      44.958  24.356  36.764  1.00  0.00    -0.744 OA
ENDBRANCH  83  87
ENDBRANCH  57  80
ENDBRANCH  31  32
ENDBRANCH  24  26
ENDBRANCH  23  24
ENDBRANCH   1  23
TORSDOF 17
ENDMDL
