MODEL 1
REMARK VINA RESULT:     -12.7      0.000      0.000
REMARK SMILES O=C(OCCOC(=O)c1ccsc1NC(=O)c1cc2c(F)cccc2s1)c1ccc(-c2c3nc(c(-c4cc(S(=O)(=O)[O-])ccc4F)c4ccc([nH]4)c(-c4cc(S(=O)(=O)[O-])ccc4F)c4nc(c(-c5cc(S(=O)(=O)[O-])ccc5F)c5ccc2[nH]5)C=C4)C=C3)cc1
REMARK SMILES IDX 4 1 3 2 2 3 1 4 27 5 28 6 89 7 29 8 88 9 30 10 31 11 32 12
REMARK SMILES IDX 82 13 33 14 87 15 81 16 83 17 34 18 86 19 80 20 79 21 35 23
REMARK SMILES IDX 67 24 47 25 66 26 48 27 51 28 65 29 84 30 49 31 50 32 64 34
REMARK SMILES IDX 85 35 52 36 36 37 37 38 45 39 38 40 44 41 46 42 43 43 39 44
REMARK SMILES IDX 40 45 41 46 42 47 68 48 69 49 77 50 70 51 76 52 78 53 75 54
REMARK SMILES IDX 71 55 72 56 73 57 74 58 53 59 54 60 62 61 55 62 61 63 63 64
REMARK SMILES IDX 60 65 56 66 57 67 58 68 59 69 5 70 6 71 7 72 8 73 9 74 10 75
REMARK SMILES IDX 13 76 11 77 12 78 14 79 15 80 16 82 17 83 18 84 26 85 19 86
REMARK SMILES IDX 25 87 20 88 24 89 21 90 22 91 23 92
REMARK H PARENT 83 22 51 33 14 81
REMARK Flexibility Score: inf
ROOT
ATOM      1  C   UNL A   1      36.484  19.856  24.951  1.00  0.00     0.275 C 
ENDROOT
BRANCH   1   2
ATOM      2  O   UNL A   1      37.798  20.399  24.739  1.00  0.00    -0.458 OA
BRANCH   2   3
ATOM      3  C   UNL A   1      38.815  19.939  25.493  1.00  0.00     0.338 C 
ATOM      4  O   UNL A   1      39.200  18.777  25.484  1.00  0.00    -0.246 OA
BRANCH   3   5
ATOM      5  C   UNL A   1      39.587  20.991  26.177  1.00  0.00     0.060 A 
ATOM      6  C   UNL A   1      40.757  20.774  26.909  1.00  0.00     0.016 A 
ATOM      7  C   UNL A   1      39.108  22.289  25.986  1.00  0.00     0.016 A 
ATOM      8  C   UNL A   1      41.379  21.850  27.527  1.00  0.00     0.010 A 
ATOM      9  C   UNL A   1      39.792  23.367  26.501  1.00  0.00     0.010 A 
ATOM     10  C   UNL A   1      40.865  23.139  27.350  1.00  0.00    -0.014 A 
BRANCH  10  11
ATOM     11  C   UNL A   1      41.440  24.253  28.084  1.00  0.00     0.031 A 
ATOM     12  C   UNL A   1      40.604  25.479  28.149  1.00  0.00     0.074 A 
ATOM     13  C   UNL A   1      42.618  24.142  28.731  1.00  0.00     0.049 A 
ATOM     14  N   UNL A   1      40.745  26.570  27.471  1.00  0.00    -0.248 NA
ATOM     15  C   UNL A   1      39.372  25.430  28.943  1.00  0.00     0.031 C 
ATOM     16  C   UNL A   1      43.417  22.941  29.010  1.00  0.00     0.029 A 
ATOM     17  N   UNL A   1      43.333  25.119  29.343  1.00  0.00    -0.354 N 
ATOM     18  C   UNL A   1      39.742  27.431  27.914  1.00  0.00     0.074 A 
ATOM     19  C   UNL A   1      38.828  26.619  28.678  1.00  0.00     0.031 C 
ATOM     20  C   UNL A   1      44.372  23.233  29.921  1.00  0.00     0.029 A 
ATOM     21  C   UNL A   1      44.375  24.667  30.138  1.00  0.00     0.049 A 
ATOM     22  H   UNL A   1      43.128  26.075  29.231  1.00  0.00     0.167 HD
ATOM     23  C   UNL A   1      39.850  28.786  27.788  1.00  0.00     0.034 A 
ATOM     24  C   UNL A   1      45.169  25.423  30.934  1.00  0.00     0.034 A 
ATOM     25  C   UNL A   1      40.954  29.141  26.938  1.00  0.00     0.049 A 
ATOM     26  C   UNL A   1      45.065  26.822  30.451  1.00  0.00     0.074 A 
ATOM     27  C   UNL A   1      41.242  28.960  25.601  1.00  0.00     0.029 A 
ATOM     28  N   UNL A   1      42.152  29.419  27.554  1.00  0.00    -0.354 N 
ATOM     29  N   UNL A   1      45.525  27.224  29.298  1.00  0.00    -0.248 NA
ATOM     30  C   UNL A   1      44.025  27.657  31.035  1.00  0.00     0.031 C 
ATOM     31  C   UNL A   1      42.635  28.664  25.565  1.00  0.00     0.029 A 
ATOM     32  C   UNL A   1      43.139  28.761  26.865  1.00  0.00     0.049 A 
ATOM     33  H   UNL A   1      42.279  29.989  28.346  1.00  0.00     0.167 HD
ATOM     34  C   UNL A   1      44.547  28.078  28.810  1.00  0.00     0.074 A 
ATOM     35  C   UNL A   1      43.690  28.372  29.959  1.00  0.00     0.031 C 
ATOM     36  C   UNL A   1      44.348  28.236  27.468  1.00  0.00     0.034 A 
BRANCH  23  37
ATOM     37  C   UNL A   1      39.168  29.790  28.681  1.00  0.00     0.023 A 
ATOM     38  C   UNL A   1      37.926  30.369  28.358  1.00  0.00     0.031 A 
ATOM     39  C   UNL A   1      39.641  30.030  29.987  1.00  0.00     0.131 A 
ATOM     40  C   UNL A   1      37.229  31.165  29.275  1.00  0.00     0.055 A 
ATOM     41  C   UNL A   1      38.911  30.771  30.927  1.00  0.00     0.041 A 
ATOM     42  F   UNL A   1      40.806  29.511  30.405  1.00  0.00    -0.206 F 
ATOM     43  C   UNL A   1      37.697  31.346  30.572  1.00  0.00     0.022 A 
BRANCH  40  44
ATOM     44  S   UNL A   1      35.671  31.962  28.796  1.00  0.00     0.124 S 
ATOM     45  O   UNL A   1      35.170  32.443  30.079  1.00  0.00    -0.237 OA
ATOM     46  O   UNL A   1      36.141  32.992  27.872  1.00  0.00    -0.237 OA
ATOM     47  O   UNL A   1      34.912  30.880  28.179  1.00  0.00    -0.744 OA
ENDBRANCH  40  44
ENDBRANCH  23  37
BRANCH  24  48
ATOM     48  C   UNL A   1      45.562  25.107  32.327  1.00  0.00     0.023 A 
ATOM     49  C   UNL A   1      44.573  24.815  33.286  1.00  0.00     0.031 A 
ATOM     50  C   UNL A   1      46.850  25.413  32.799  1.00  0.00     0.131 A 
ATOM     51  C   UNL A   1      44.862  24.905  34.654  1.00  0.00     0.055 A 
ATOM     52  C   UNL A   1      47.141  25.486  34.166  1.00  0.00     0.041 A 
ATOM     53  F   UNL A   1      47.832  25.725  31.939  1.00  0.00    -0.206 F 
ATOM     54  C   UNL A   1      46.139  25.248  35.102  1.00  0.00     0.022 A 
BRANCH  51  55
ATOM     55  S   UNL A   1      43.551  24.652  35.882  1.00  0.00     0.124 S 
ATOM     56  O   UNL A   1      44.310  24.373  37.099  1.00  0.00    -0.237 OA
ATOM     57  O   UNL A   1      42.866  25.939  35.851  1.00  0.00    -0.237 OA
ATOM     58  O   UNL A   1      42.805  23.516  35.349  1.00  0.00    -0.744 OA
ENDBRANCH  51  55
ENDBRANCH  24  48
BRANCH  36  59
ATOM     59  C   UNL A   1      45.351  27.628  26.511  1.00  0.00     0.023 A 
ATOM     60  C   UNL A   1      45.129  26.300  26.119  1.00  0.00     0.031 A 
ATOM     61  C   UNL A   1      46.594  28.204  26.182  1.00  0.00     0.131 A 
ATOM     62  C   UNL A   1      46.137  25.574  25.475  1.00  0.00     0.055 A 
ATOM     63  C   UNL A   1      47.578  27.495  25.482  1.00  0.00     0.041 A 
ATOM     64  F   UNL A   1      46.929  29.430  26.599  1.00  0.00    -0.206 F 
ATOM     65  C   UNL A   1      47.358  26.166  25.141  1.00  0.00     0.022 A 
BRANCH  62  66
ATOM     66  S   UNL A   1      45.930  23.801  25.182  1.00  0.00     0.124 S 
ATOM     67  O   UNL A   1      46.643  23.610  23.922  1.00  0.00    -0.237 OA
ATOM     68  O   UNL A   1      46.570  23.219  26.360  1.00  0.00    -0.237 OA
ATOM     69  O   UNL A   1      44.483  23.620  25.112  1.00  0.00    -0.744 OA
ENDBRANCH  62  66
ENDBRANCH  36  59
ENDBRANCH  10  11
ENDBRANCH   3   5
ENDBRANCH   2   3
ENDBRANCH   1   2
BRANCH   1  70
ATOM     70  C   UNL A   1      35.419  20.823  25.476  1.00  0.00     0.275 C 
BRANCH  70  71
ATOM     71  O   UNL A   1      34.452  21.121  24.457  1.00  0.00    -0.458 OA
BRANCH  71  72
ATOM     72  C   UNL A   1      34.398  22.398  23.978  1.00  0.00     0.341 C 
ATOM     73  O   UNL A   1      35.353  23.048  23.556  1.00  0.00    -0.246 OA
BRANCH  72  74
ATOM     74  C   UNL A   1      33.060  22.925  24.115  1.00  0.00     0.094 A 
ATOM     75  C   UNL A   1      32.207  22.502  25.199  1.00  0.00     0.029 A 
ATOM     76  C   UNL A   1      32.429  23.834  23.269  1.00  0.00     0.110 A 
ATOM     77  C   UNL A   1      30.939  23.006  25.092  1.00  0.00     0.068 A 
ATOM     78  S   UNL A   1      30.790  23.926  23.687  1.00  0.00    -0.126 S 
BRANCH  76  79
ATOM     79  N   UNL A   1      32.934  24.492  22.145  1.00  0.00    -0.312 N 
ATOM     80  C   UNL A   1      32.948  25.831  21.727  1.00  0.00     0.266 C 
ATOM     81  H   UNL A   1      33.375  23.884  21.509  1.00  0.00     0.171 HD
ATOM     82  O   UNL A   1      33.329  26.055  20.575  1.00  0.00    -0.268 OA
BRANCH  80  83
ATOM     83  C   UNL A   1      32.722  26.911  22.651  1.00  0.00     0.094 A 
ATOM     84  C   UNL A   1      33.656  27.634  23.370  1.00  0.00     0.037 A 
ATOM     85  S   UNL A   1      31.181  27.614  22.927  1.00  0.00    -0.130 S 
ATOM     86  C   UNL A   1      33.055  28.089  24.593  1.00  0.00     0.029 A 
ATOM     87  C   UNL A   1      31.678  27.850  24.574  1.00  0.00     0.038 A 
ATOM     88  C   UNL A   1      33.655  28.417  25.817  1.00  0.00     0.131 A 
ATOM     89  C   UNL A   1      30.935  27.696  25.754  1.00  0.00     0.020 A 
ATOM     90  F   UNL A   1      34.940  28.798  25.874  1.00  0.00    -0.206 F 
ATOM     91  C   UNL A   1      32.994  28.053  26.986  1.00  0.00     0.040 A 
ATOM     92  C   UNL A   1      31.667  27.633  26.944  1.00  0.00     0.005 A 
ENDBRANCH  80  83
ENDBRANCH  76  79
ENDBRANCH  72  74
ENDBRANCH  71  72
ENDBRANCH  70  71
ENDBRANCH   1  70
TORSDOF 16
ENDMDL
MODEL 2
REMARK VINA RESULT:     -12.6      3.498      7.844
REMARK SMILES O=C(OCCOC(=O)c1ccsc1NC(=O)c1cc2c(F)cccc2s1)c1ccc(-c2c3nc(c(-c4cc(S(=O)(=O)[O-])ccc4F)c4ccc([nH]4)c(-c4cc(S(=O)(=O)[O-])ccc4F)c4nc(c(-c5cc(S(=O)(=O)[O-])ccc5F)c5ccc2[nH]5)C=C4)C=C3)cc1
REMARK SMILES IDX 4 1 3 2 2 3 1 4 27 5 28 6 89 7 29 8 88 9 30 10 31 11 32 12
REMARK SMILES IDX 82 13 33 14 87 15 81 16 83 17 34 18 86 19 80 20 79 21 35 23
REMARK SMILES IDX 67 24 47 25 66 26 48 27 51 28 65 29 84 30 49 31 50 32 64 34
REMARK SMILES IDX 85 35 52 36 36 37 37 38 45 39 38 40 44 41 46 42 43 43 39 44
REMARK SMILES IDX 40 45 41 46 42 47 68 48 69 49 77 50 70 51 76 52 78 53 75 54
REMARK SMILES IDX 71 55 72 56 73 57 74 58 53 59 54 60 62 61 55 62 61 63 63 64
REMARK SMILES IDX 60 65 56 66 57 67 58 68 59 69 5 70 6 71 7 72 8 73 9 74 10 75
REMARK SMILES IDX 13 76 11 77 12 78 14 79 15 80 16 82 17 83 18 84 26 85 19 86
REMARK SMILES IDX 25 87 20 88 24 89 21 90 22 91 23 92
REMARK H PARENT 83 22 51 33 14 81
REMARK Flexibility Score: inf
ROOT
ATOM      1  C   UNL A   1      32.925  31.500  27.107  1.00  0.00     0.275 C 
ENDROOT
BRANCH   1   2
ATOM      2  O   UNL A   1      34.007  31.220  28.011  1.00  0.00    -0.458 OA
BRANCH   2   3
ATOM      3  C   UNL A   1      35.152  31.917  27.883  1.00  0.00     0.338 C 
ATOM      4  O   UNL A   1      35.198  33.113  27.626  1.00  0.00    -0.246 OA
BRANCH   3   5
ATOM      5  C   UNL A   1      36.361  31.180  28.292  1.00  0.00     0.060 A 
ATOM      6  C   UNL A   1      37.499  31.763  28.854  1.00  0.00     0.016 A 
ATOM      7  C   UNL A   1      36.278  29.793  28.152  1.00  0.00     0.016 A 
ATOM      8  C   UNL A   1      38.583  30.959  29.178  1.00  0.00     0.010 A 
ATOM      9  C   UNL A   1      37.308  28.986  28.582  1.00  0.00     0.010 A 
ATOM     10  C   UNL A   1      38.492  29.574  28.999  1.00  0.00    -0.014 A 
BRANCH  10  11
ATOM     11  C   UNL A   1      39.659  28.739  29.225  1.00  0.00     0.031 A 
ATOM     12  C   UNL A   1      39.996  28.477  30.647  1.00  0.00     0.074 A 
ATOM     13  C   UNL A   1      40.334  28.173  28.203  1.00  0.00     0.049 A 
ATOM     14  N   UNL A   1      40.933  29.021  31.352  1.00  0.00    -0.248 NA
ATOM     15  C   UNL A   1      39.085  27.631  31.426  1.00  0.00     0.031 C 
ATOM     16  C   UNL A   1      39.971  28.089  26.782  1.00  0.00     0.029 A 
ATOM     17  N   UNL A   1      41.502  27.485  28.250  1.00  0.00    -0.354 N 
ATOM     18  C   UNL A   1      40.867  28.422  32.609  1.00  0.00     0.074 A 
ATOM     19  C   UNL A   1      39.610  27.717  32.649  1.00  0.00     0.031 C 
ATOM     20  C   UNL A   1      40.779  27.201  26.159  1.00  0.00     0.029 A 
ATOM     21  C   UNL A   1      41.825  26.808  27.083  1.00  0.00     0.049 A 
ATOM     22  H   UNL A   1      42.074  27.466  29.050  1.00  0.00     0.167 HD
ATOM     23  C   UNL A   1      41.945  28.383  33.445  1.00  0.00     0.034 A 
ATOM     24  C   UNL A   1      42.873  25.968  26.903  1.00  0.00     0.034 A 
ATOM     25  C   UNL A   1      42.999  29.240  32.972  1.00  0.00     0.049 A 
ATOM     26  C   UNL A   1      43.861  26.267  27.969  1.00  0.00     0.074 A 
ATOM     27  C   UNL A   1      43.135  30.603  32.803  1.00  0.00     0.029 A 
ATOM     28  N   UNL A   1      43.976  28.660  32.197  1.00  0.00    -0.354 N 
ATOM     29  N   UNL A   1      44.532  27.384  28.038  1.00  0.00    -0.248 NA
ATOM     30  C   UNL A   1      43.743  25.529  29.217  1.00  0.00     0.031 C 
ATOM     31  C   UNL A   1      43.857  30.749  31.584  1.00  0.00     0.029 A 
ATOM     32  C   UNL A   1      44.195  29.476  31.117  1.00  0.00     0.049 A 
ATOM     33  H   UNL A   1      44.437  27.810  32.385  1.00  0.00     0.167 HD
ATOM     34  C   UNL A   1      44.530  27.709  29.386  1.00  0.00     0.074 A 
ATOM     35  C   UNL A   1      44.105  26.489  30.072  1.00  0.00     0.031 C 
ATOM     36  C   UNL A   1      44.588  29.008  29.803  1.00  0.00     0.034 A 
BRANCH  23  37
ATOM     37  C   UNL A   1      42.175  27.337  34.505  1.00  0.00     0.023 A 
ATOM     38  C   UNL A   1      42.900  26.157  34.258  1.00  0.00     0.031 A 
ATOM     39  C   UNL A   1      41.858  27.597  35.853  1.00  0.00     0.131 A 
ATOM     40  C   UNL A   1      43.250  25.282  35.294  1.00  0.00     0.055 A 
ATOM     41  C   UNL A   1      42.265  26.756  36.898  1.00  0.00     0.041 A 
ATOM     42  F   UNL A   1      41.182  28.704  36.202  1.00  0.00    -0.206 F 
ATOM     43  C   UNL A   1      42.964  25.588  36.620  1.00  0.00     0.022 A 
BRANCH  40  44
ATOM     44  S   UNL A   1      44.114  23.729  34.929  1.00  0.00     0.124 S 
ATOM     45  O   UNL A   1      43.069  22.948  34.277  1.00  0.00    -0.237 OA
ATOM     46  O   UNL A   1      45.195  24.193  34.063  1.00  0.00    -0.237 OA
ATOM     47  O   UNL A   1      44.536  23.259  36.245  1.00  0.00    -0.744 OA
ENDBRANCH  40  44
ENDBRANCH  23  37
BRANCH  24  48
ATOM     48  C   UNL A   1      42.826  24.648  26.232  1.00  0.00     0.023 A 
ATOM     49  C   UNL A   1      41.831  23.716  26.584  1.00  0.00     0.031 A 
ATOM     50  C   UNL A   1      43.930  24.170  25.504  1.00  0.00     0.131 A 
ATOM     51  C   UNL A   1      41.989  22.358  26.278  1.00  0.00     0.055 A 
ATOM     52  C   UNL A   1      44.077  22.816  25.184  1.00  0.00     0.041 A 
ATOM     53  F   UNL A   1      44.925  25.001  25.157  1.00  0.00    -0.206 F 
ATOM     54  C   UNL A   1      43.111  21.898  25.587  1.00  0.00     0.022 A 
BRANCH  51  55
ATOM     55  S   UNL A   1      40.765  21.146  26.847  1.00  0.00     0.124 S 
ATOM     56  O   UNL A   1      41.340  19.882  26.393  1.00  0.00    -0.237 OA
ATOM     57  O   UNL A   1      40.784  21.362  28.289  1.00  0.00    -0.237 OA
ATOM     58  O   UNL A   1      39.545  21.550  26.155  1.00  0.00    -0.744 OA
ENDBRANCH  51  55
ENDBRANCH  24  48
BRANCH  36  59
ATOM     59  C   UNL A   1      44.869  30.085  28.778  1.00  0.00     0.023 A 
ATOM     60  C   UNL A   1      46.200  30.511  28.653  1.00  0.00     0.031 A 
ATOM     61  C   UNL A   1      43.879  30.846  28.124  1.00  0.00     0.131 A 
ATOM     62  C   UNL A   1      46.506  31.680  27.948  1.00  0.00     0.055 A 
ATOM     63  C   UNL A   1      44.196  31.981  27.367  1.00  0.00     0.041 A 
ATOM     64  F   UNL A   1      42.578  30.571  28.266  1.00  0.00    -0.206 F 
ATOM     65  C   UNL A   1      45.514  32.414  27.292  1.00  0.00     0.022 A 
BRANCH  62  66
ATOM     66  S   UNL A   1      48.187  32.348  27.988  1.00  0.00     0.124 S 
ATOM     67  O   UNL A   1      48.634  32.144  26.613  1.00  0.00    -0.237 OA
ATOM     68  O   UNL A   1      47.956  33.739  28.372  1.00  0.00    -0.237 OA
ATOM     69  O   UNL A   1      48.868  31.535  28.991  1.00  0.00    -0.744 OA
ENDBRANCH  62  66
ENDBRANCH  36  59
ENDBRANCH  10  11
ENDBRANCH   3   5
ENDBRANCH   2   3
ENDBRANCH   1   2
BRANCH   1  70
ATOM     70  C   UNL A   1      31.923  30.368  26.865  1.00  0.00     0.275 C 
BRANCH  70  71
ATOM     71  O   UNL A   1      32.405  29.466  25.858  1.00  0.00    -0.458 OA
BRANCH  71  72
ATOM     72  C   UNL A   1      32.158  28.134  26.020  1.00  0.00     0.341 C 
ATOM     73  O   UNL A   1      32.690  27.399  26.852  1.00  0.00    -0.246 OA
BRANCH  72  74
ATOM     74  C   UNL A   1      31.234  27.672  25.011  1.00  0.00     0.094 A 
ATOM     75  C   UNL A   1      31.101  28.371  23.755  1.00  0.00     0.029 A 
ATOM     76  C   UNL A   1      30.374  26.579  25.100  1.00  0.00     0.110 A 
ATOM     77  C   UNL A   1      30.092  27.867  22.981  1.00  0.00     0.068 A 
ATOM     78  S   UNL A   1      29.304  26.613  23.788  1.00  0.00    -0.126 S 
BRANCH  76  79
ATOM     79  N   UNL A   1      30.237  25.646  26.131  1.00  0.00    -0.312 N 
ATOM     80  C   UNL A   1      30.577  24.292  26.268  1.00  0.00     0.266 C 
ATOM     81  H   UNL A   1      29.808  26.020  26.934  1.00  0.00     0.171 HD
ATOM     82  O   UNL A   1      30.150  23.705  27.266  1.00  0.00    -0.268 OA
BRANCH  80  83
ATOM     83  C   UNL A   1      31.539  23.665  25.400  1.00  0.00     0.094 A 
ATOM     84  C   UNL A   1      31.349  23.174  24.122  1.00  0.00     0.037 A 
ATOM     85  S   UNL A   1      33.210  23.540  25.773  1.00  0.00    -0.130 S 
ATOM     86  C   UNL A   1      32.267  22.092  23.895  1.00  0.00     0.029 A 
ATOM     87  C   UNL A   1      33.195  22.017  24.938  1.00  0.00     0.038 A 
ATOM     88  C   UNL A   1      32.167  21.005  23.015  1.00  0.00     0.131 A 
ATOM     89  C   UNL A   1      33.846  20.820  25.267  1.00  0.00     0.020 A 
ATOM     90  F   UNL A   1      31.403  21.076  21.916  1.00  0.00    -0.206 F 
ATOM     91  C   UNL A   1      32.626  19.767  23.454  1.00  0.00     0.040 A 
ATOM     92  C   UNL A   1      33.402  19.670  24.607  1.00  0.00     0.005 A 
ENDBRANCH  80  83
ENDBRANCH  76  79
ENDBRANCH  72  74
ENDBRANCH  71  72
ENDBRANCH  70  71
ENDBRANCH   1  70
TORSDOF 16
ENDMDL
MODEL 3
REMARK VINA RESULT:     -12.3      3.169      7.414
REMARK SMILES O=C(OCCOC(=O)c1ccsc1NC(=O)c1cc2c(F)cccc2s1)c1ccc(-c2c3nc(c(-c4cc(S(=O)(=O)[O-])ccc4F)c4ccc([nH]4)c(-c4cc(S(=O)(=O)[O-])ccc4F)c4nc(c(-c5cc(S(=O)(=O)[O-])ccc5F)c5ccc2[nH]5)C=C4)C=C3)cc1
REMARK SMILES IDX 4 1 3 2 2 3 1 4 27 5 28 6 89 7 29 8 88 9 30 10 31 11 32 12
REMARK SMILES IDX 82 13 33 14 87 15 81 16 83 17 34 18 86 19 80 20 79 21 35 23
REMARK SMILES IDX 67 24 47 25 66 26 48 27 51 28 65 29 84 30 49 31 50 32 64 34
REMARK SMILES IDX 85 35 52 36 36 37 37 38 45 39 38 40 44 41 46 42 43 43 39 44
REMARK SMILES IDX 40 45 41 46 42 47 68 48 69 49 77 50 70 51 76 52 78 53 75 54
REMARK SMILES IDX 71 55 72 56 73 57 74 58 53 59 54 60 62 61 55 62 61 63 63 64
REMARK SMILES IDX 60 65 56 66 57 67 58 68 59 69 5 70 6 71 7 72 8 73 9 74 10 75
REMARK SMILES IDX 13 76 11 77 12 78 14 79 15 80 16 82 17 83 18 84 26 85 19 86
REMARK SMILES IDX 25 87 20 88 24 89 21 90 22 91 23 92
REMARK H PARENT 83 22 51 33 14 81
REMARK Flexibility Score: inf
ROOT
ATOM      1  C   UNL A   1      38.740  21.544  25.751  1.00  0.00     0.275 C 
ENDROOT
BRANCH   1   2
ATOM      2  O   UNL A   1      40.032  22.107  26.035  1.00  0.00    -0.458 OA
BRANCH   2   3
ATOM      3  C   UNL A   1      40.422  22.213  27.320  1.00  0.00     0.338 C 
ATOM      4  O   UNL A   1      40.755  21.261  28.013  1.00  0.00    -0.246 OA
BRANCH   3   5
ATOM      5  C   UNL A   1      40.632  23.597  27.778  1.00  0.00     0.060 A 
ATOM      6  C   UNL A   1      41.808  24.076  28.361  1.00  0.00     0.016 A 
ATOM      7  C   UNL A   1      39.572  24.469  27.519  1.00  0.00     0.016 A 
ATOM      8  C   UNL A   1      41.871  25.400  28.771  1.00  0.00     0.010 A 
ATOM      9  C   UNL A   1      39.681  25.808  27.819  1.00  0.00     0.010 A 
ATOM     10  C   UNL A   1      40.785  26.249  28.532  1.00  0.00    -0.014 A 
BRANCH  10  11
ATOM     11  C   UNL A   1      40.797  27.603  29.059  1.00  0.00     0.031 A 
ATOM     12  C   UNL A   1      41.752  28.536  28.409  1.00  0.00     0.074 A 
ATOM     13  C   UNL A   1      39.934  27.997  30.017  1.00  0.00     0.049 A 
ATOM     14  N   UNL A   1      42.894  28.941  28.859  1.00  0.00    -0.248 NA
ATOM     15  C   UNL A   1      41.482  28.944  27.026  1.00  0.00     0.031 C 
ATOM     16  C   UNL A   1      38.755  27.302  30.552  1.00  0.00     0.029 A 
ATOM     17  N   UNL A   1      39.911  29.174  30.691  1.00  0.00    -0.354 N 
ATOM     18  C   UNL A   1      43.390  29.830  27.907  1.00  0.00     0.074 A 
ATOM     19  C   UNL A   1      42.574  29.653  26.732  1.00  0.00     0.031 C 
ATOM     20  C   UNL A   1      38.016  28.161  31.289  1.00  0.00     0.029 A 
ATOM     21  C   UNL A   1      38.762  29.396  31.436  1.00  0.00     0.049 A 
ATOM     22  H   UNL A   1      40.651  29.822  30.652  1.00  0.00     0.167 HD
ATOM     23  C   UNL A   1      44.306  30.790  28.228  1.00  0.00     0.034 A 
ATOM     24  C   UNL A   1      38.444  30.528  32.110  1.00  0.00     0.034 A 
ATOM     25  C   UNL A   1      44.845  30.574  29.543  1.00  0.00     0.049 A 
ATOM     26  C   UNL A   1      39.706  31.280  32.319  1.00  0.00     0.074 A 
ATOM     27  C   UNL A   1      45.622  29.591  30.120  1.00  0.00     0.029 A 
ATOM     28  N   UNL A   1      44.245  31.245  30.582  1.00  0.00    -0.354 N 
ATOM     29  N   UNL A   1      40.670  30.870  33.096  1.00  0.00    -0.248 NA
ATOM     30  C   UNL A   1      40.092  32.238  31.294  1.00  0.00     0.031 C 
ATOM     31  C   UNL A   1      45.081  29.415  31.425  1.00  0.00     0.029 A 
ATOM     32  C   UNL A   1      44.059  30.352  31.607  1.00  0.00     0.049 A 
ATOM     33  H   UNL A   1      43.994  32.197  30.590  1.00  0.00     0.167 HD
ATOM     34  C   UNL A   1      41.831  31.156  32.393  1.00  0.00     0.074 A 
ATOM     35  C   UNL A   1      41.417  32.074  31.332  1.00  0.00     0.031 C 
ATOM     36  C   UNL A   1      42.959  30.403  32.550  1.00  0.00     0.034 A 
BRANCH  23  37
ATOM     37  C   UNL A   1      44.477  32.095  27.494  1.00  0.00     0.023 A 
ATOM     38  C   UNL A   1      43.801  33.270  27.871  1.00  0.00     0.031 A 
ATOM     39  C   UNL A   1      45.491  32.249  26.527  1.00  0.00     0.131 A 
ATOM     40  C   UNL A   1      44.101  34.508  27.289  1.00  0.00     0.055 A 
ATOM     41  C   UNL A   1      45.838  33.498  25.993  1.00  0.00     0.041 A 
ATOM     42  F   UNL A   1      46.210  31.196  26.108  1.00  0.00    -0.206 F 
ATOM     43  C   UNL A   1      45.139  34.637  26.372  1.00  0.00     0.022 A 
BRANCH  40  44
ATOM     44  S   UNL A   1      43.153  35.986  27.741  1.00  0.00     0.124 S 
ATOM     45  O   UNL A   1      44.210  36.927  28.096  1.00  0.00    -0.237 OA
ATOM     46  O   UNL A   1      42.442  36.270  26.496  1.00  0.00    -0.237 OA
ATOM     47  O   UNL A   1      42.311  35.526  28.840  1.00  0.00    -0.744 OA
ENDBRANCH  40  44
ENDBRANCH  23  37
BRANCH  24  48
ATOM     48  C   UNL A   1      37.125  31.204  32.105  1.00  0.00     0.023 A 
ATOM     49  C   UNL A   1      36.500  31.513  30.882  1.00  0.00     0.031 A 
ATOM     50  C   UNL A   1      36.638  31.840  33.260  1.00  0.00     0.131 A 
ATOM     51  C   UNL A   1      35.483  32.476  30.829  1.00  0.00     0.055 A 
ATOM     52  C   UNL A   1      35.611  32.789  33.206  1.00  0.00     0.041 A 
ATOM     53  F   UNL A   1      37.206  31.608  34.454  1.00  0.00    -0.206 F 
ATOM     54  C   UNL A   1      35.040  33.124  31.982  1.00  0.00     0.022 A 
BRANCH  51  55
ATOM     55  S   UNL A   1      34.770  32.962  29.233  1.00  0.00     0.124 S 
ATOM     56  O   UNL A   1      33.673  33.840  29.634  1.00  0.00    -0.237 OA
ATOM     57  O   UNL A   1      35.902  33.623  28.593  1.00  0.00    -0.237 OA
ATOM     58  O   UNL A   1      34.357  31.690  28.647  1.00  0.00    -0.744 OA
ENDBRANCH  51  55
ENDBRANCH  24  48
BRANCH  36  59
ATOM     59  C   UNL A   1      42.996  29.377  33.661  1.00  0.00     0.023 A 
ATOM     60  C   UNL A   1      43.630  29.755  34.854  1.00  0.00     0.031 A 
ATOM     61  C   UNL A   1      42.662  28.017  33.505  1.00  0.00     0.131 A 
ATOM     62  C   UNL A   1      43.960  28.795  35.816  1.00  0.00     0.055 A 
ATOM     63  C   UNL A   1      42.936  27.068  34.498  1.00  0.00     0.041 A 
ATOM     64  F   UNL A   1      42.143  27.550  32.364  1.00  0.00    -0.206 F 
ATOM     65  C   UNL A   1      43.606  27.452  35.654  1.00  0.00     0.022 A 
BRANCH  62  66
ATOM     66  S   UNL A   1      44.980  29.250  37.238  1.00  0.00     0.124 S 
ATOM     67  O   UNL A   1      44.560  28.280  38.245  1.00  0.00    -0.237 OA
ATOM     68  O   UNL A   1      46.333  29.067  36.717  1.00  0.00    -0.237 OA
ATOM     69  O   UNL A   1      44.606  30.635  37.514  1.00  0.00    -0.744 OA
ENDBRANCH  62  66
ENDBRANCH  36  59
ENDBRANCH  10  11
ENDBRANCH   3   5
ENDBRANCH   2   3
ENDBRANCH   1   2
BRANCH   1  70
ATOM     70  C   UNL A   1      37.600  22.534  25.500  1.00  0.00     0.275 C 
BRANCH  70  71
ATOM     71  O   UNL A   1      36.584  21.945  24.674  1.00  0.00    -0.458 OA
BRANCH  71  72
ATOM     72  C   UNL A   1      35.915  22.757  23.804  1.00  0.00     0.341 C 
ATOM     73  O   UNL A   1      36.301  23.082  22.682  1.00  0.00    -0.246 OA
BRANCH  72  74
ATOM     74  C   UNL A   1      34.711  23.263  24.421  1.00  0.00     0.094 A 
ATOM     75  C   UNL A   1      34.340  22.861  25.757  1.00  0.00     0.029 A 
ATOM     76  C   UNL A   1      33.780  24.130  23.852  1.00  0.00     0.110 A 
ATOM     77  C   UNL A   1      33.110  23.337  26.122  1.00  0.00     0.068 A 
ATOM     78  S   UNL A   1      32.416  24.204  24.853  1.00  0.00    -0.126 S 
BRANCH  76  79
ATOM     79  N   UNL A   1      33.806  24.757  22.605  1.00  0.00    -0.312 N 
ATOM     80  C   UNL A   1      33.345  25.994  22.129  1.00  0.00     0.266 C 
ATOM     81  H   UNL A   1      34.241  24.214  21.909  1.00  0.00     0.171 HD
ATOM     82  O   UNL A   1      33.371  26.170  20.908  1.00  0.00    -0.268 OA
BRANCH  80  83
ATOM     83  C   UNL A   1      33.044  27.080  23.024  1.00  0.00     0.094 A 
ATOM     84  C   UNL A   1      33.922  27.847  23.767  1.00  0.00     0.037 A 
ATOM     85  S   UNL A   1      31.469  27.733  23.225  1.00  0.00    -0.130 S 
ATOM     86  C   UNL A   1      33.255  28.301  24.957  1.00  0.00     0.029 A 
ATOM     87  C   UNL A   1      31.889  28.012  24.886  1.00  0.00     0.038 A 
ATOM     88  C   UNL A   1      33.793  28.669  26.199  1.00  0.00     0.131 A 
ATOM     89  C   UNL A   1      31.104  27.852  26.037  1.00  0.00     0.020 A 
ATOM     90  F   UNL A   1      35.060  29.096  26.301  1.00  0.00    -0.206 F 
ATOM     91  C   UNL A   1      33.097  28.301  27.345  1.00  0.00     0.040 A 
ATOM     92  C   UNL A   1      31.788  27.834  27.257  1.00  0.00     0.005 A 
ENDBRANCH  80  83
ENDBRANCH  76  79
ENDBRANCH  72  74
ENDBRANCH  71  72
ENDBRANCH  70  71
ENDBRANCH   1  70
TORSDOF 16
ENDMDL
