MODEL 1
REMARK VINA RESULT:     -11.4      0.000      0.000
REMARK SMILES CC(C)C[C@H](NC(=O)c1cc(Cl)nnc1Cl)C(=O)OCCOC(=O)c1ccc(-c2c3nc(c(-c4cc(S(=O)(=O)[O-])ccc4F)c4ccc([nH]4)c(-c4cc(S(=O)(=O)[O-])ccc4F)c4nc(c(-c5cc(S(=O)(=O)[O-])ccc5F)c5ccc2[nH]5)C=C4)C=C3)cc1
REMARK SMILES IDX 21 1 20 2 19 3 17 4 18 5 5 6 4 7 2 8 1 9 3 10 6 11 7 12 8 14
REMARK SMILES IDX 9 15 10 16 15 17 11 18 14 19 16 20 12 21 13 22 22 23 23 24
REMARK SMILES IDX 24 25 25 26 26 27 87 28 27 29 86 30 28 31 29 32 30 33 80 34
REMARK SMILES IDX 31 35 85 36 79 37 81 38 32 39 84 40 78 41 77 42 33 44 65 45
REMARK SMILES IDX 45 46 64 47 46 48 49 49 63 50 82 51 47 52 48 53 62 55 83 56
REMARK SMILES IDX 50 57 34 58 35 59 43 60 36 61 42 62 44 63 41 64 37 65 38 66
REMARK SMILES IDX 39 67 40 68 66 69 67 70 75 71 68 72 74 73 76 74 73 75 69 76
REMARK SMILES IDX 70 77 71 78 72 79 51 80 52 81 60 82 53 83 59 84 61 85 58 86
REMARK SMILES IDX 54 87 55 88 56 89 57 90
REMARK H PARENT 6 13 81 43 49 54
REMARK Flexibility Score: inf
ROOT
ATOM      1  C   UNL A   1      36.984  20.639  25.263  1.00  0.00     0.275 C 
ENDROOT
BRANCH   1   2
ATOM      2  C   UNL A   1      35.663  21.153  24.676  1.00  0.00     0.274 C 
BRANCH   2   3
ATOM      3  O   UNL A   1      35.517  22.573  24.866  1.00  0.00    -0.461 OA
BRANCH   3   4
ATOM      4  C   UNL A   1      35.354  23.325  23.739  1.00  0.00     0.328 C 
ATOM      5  O   UNL A   1      36.082  23.272  22.755  1.00  0.00    -0.250 OA
BRANCH   4   6
ATOM      6  C   UNL A   1      34.153  24.287  23.858  1.00  0.00     0.192 C 
BRANCH   6   7
ATOM      7  C   UNL A   1      33.269  23.900  25.056  1.00  0.00     0.040 C 
BRANCH   7   8
ATOM      8  C   UNL A   1      31.941  23.170  24.763  1.00  0.00    -0.015 C 
ATOM      9  C   UNL A   1      32.038  21.658  25.020  1.00  0.00     0.007 C 
ATOM     10  C   UNL A   1      30.842  23.724  25.676  1.00  0.00     0.007 C 
ENDBRANCH   7   8
ENDBRANCH   6   7
BRANCH   6  11
ATOM     11  N   UNL A   1      33.539  24.506  22.534  1.00  0.00    -0.338 N 
ATOM     12  C   UNL A   1      33.082  25.636  21.919  1.00  0.00     0.255 C 
ATOM     13  H   UNL A   1      33.440  23.687  21.995  1.00  0.00     0.164 HD
ATOM     14  O   UNL A   1      33.177  25.792  20.706  1.00  0.00    -0.269 OA
BRANCH  12  15
ATOM     15  C   UNL A   1      32.233  26.562  22.644  1.00  0.00     0.082 A 
ATOM     16  C   UNL A   1      30.918  26.155  22.868  1.00  0.00     0.060 A 
ATOM     17  C   UNL A   1      32.634  27.830  23.011  1.00  0.00     0.164 A 
ATOM     18  C   UNL A   1      30.084  27.041  23.504  1.00  0.00     0.152 A 
ATOM     19  N   UNL A   1      31.788  28.662  23.655  1.00  0.00    -0.136 NA
ATOM     20  Cl  UNL A   1      34.215  28.445  22.788  1.00  0.00    -0.059 Cl
ATOM     21  Cl  UNL A   1      28.459  26.643  23.854  1.00  0.00    -0.060 Cl
ATOM     22  N   UNL A   1      30.493  28.259  23.908  1.00  0.00    -0.137 NA
ENDBRANCH  12  15
ENDBRANCH   6  11
ENDBRANCH   4   6
ENDBRANCH   3   4
ENDBRANCH   2   3
ENDBRANCH   1   2
BRANCH   1  23
ATOM     23  O   UNL A   1      38.009  21.648  25.262  1.00  0.00    -0.458 OA
BRANCH  23  24
ATOM     24  C   UNL A   1      39.109  21.347  25.993  1.00  0.00     0.338 C 
ATOM     25  O   UNL A   1      39.705  20.283  26.015  1.00  0.00    -0.246 OA
BRANCH  24  26
ATOM     26  C   UNL A   1      39.617  22.559  26.653  1.00  0.00     0.060 A 
ATOM     27  C   UNL A   1      39.131  23.795  26.215  1.00  0.00     0.016 A 
ATOM     28  C   UNL A   1      40.625  22.492  27.614  1.00  0.00     0.016 A 
ATOM     29  C   UNL A   1      39.675  24.975  26.698  1.00  0.00     0.010 A 
ATOM     30  C   UNL A   1      41.175  23.681  28.101  1.00  0.00     0.010 A 
ATOM     31  C   UNL A   1      40.722  24.921  27.618  1.00  0.00    -0.014 A 
BRANCH  31  32
ATOM     32  C   UNL A   1      41.417  26.170  27.984  1.00  0.00     0.031 A 
ATOM     33  C   UNL A   1      40.675  27.211  28.765  1.00  0.00     0.074 A 
ATOM     34  C   UNL A   1      42.706  26.346  27.647  1.00  0.00     0.049 A 
ATOM     35  N   UNL A   1      41.068  28.402  29.127  1.00  0.00    -0.248 NA
ATOM     36  C   UNL A   1      39.311  26.865  29.200  1.00  0.00     0.031 C 
ATOM     37  C   UNL A   1      43.531  25.358  26.953  1.00  0.00     0.029 A 
ATOM     38  N   UNL A   1      43.540  27.416  27.833  1.00  0.00    -0.354 N 
ATOM     39  C   UNL A   1      39.992  28.962  29.802  1.00  0.00     0.074 A 
ATOM     40  C   UNL A   1      38.929  27.983  29.800  1.00  0.00     0.031 C 
ATOM     41  C   UNL A   1      44.751  25.877  26.755  1.00  0.00     0.029 A 
ATOM     42  C   UNL A   1      44.778  27.250  27.263  1.00  0.00     0.049 A 
ATOM     43  H   UNL A   1      43.278  28.227  28.328  1.00  0.00     0.167 HD
ATOM     44  C   UNL A   1      39.909  30.187  30.366  1.00  0.00     0.034 A 
ATOM     45  C   UNL A   1      45.802  28.116  27.131  1.00  0.00     0.034 A 
ATOM     46  C   UNL A   1      40.989  31.134  30.375  1.00  0.00     0.049 A 
ATOM     47  C   UNL A   1      45.667  29.498  27.717  1.00  0.00     0.074 A 
ATOM     48  C   UNL A   1      41.019  32.385  30.964  1.00  0.00     0.029 A 
ATOM     49  N   UNL A   1      42.220  30.945  29.765  1.00  0.00    -0.354 N 
ATOM     50  N   UNL A   1      44.660  30.009  28.387  1.00  0.00    -0.248 NA
ATOM     51  C   UNL A   1      46.793  30.423  27.531  1.00  0.00     0.031 C 
ATOM     52  C   UNL A   1      42.245  32.975  30.657  1.00  0.00     0.029 A 
ATOM     53  C   UNL A   1      43.005  32.072  29.929  1.00  0.00     0.049 A 
ATOM     54  H   UNL A   1      42.494  30.130  29.286  1.00  0.00     0.167 HD
ATOM     55  C   UNL A   1      45.036  31.306  28.719  1.00  0.00     0.074 A 
ATOM     56  C   UNL A   1      46.368  31.501  28.183  1.00  0.00     0.031 C 
ATOM     57  C   UNL A   1      44.338  32.247  29.404  1.00  0.00     0.034 A 
BRANCH  44  58
ATOM     58  C   UNL A   1      38.608  30.599  30.996  1.00  0.00     0.023 A 
ATOM     59  C   UNL A   1      37.640  31.253  30.213  1.00  0.00     0.031 A 
ATOM     60  C   UNL A   1      38.365  30.442  32.370  1.00  0.00     0.131 A 
ATOM     61  C   UNL A   1      36.481  31.752  30.817  1.00  0.00     0.055 A 
ATOM     62  C   UNL A   1      37.194  30.915  32.963  1.00  0.00     0.041 A 
ATOM     63  F   UNL A   1      39.260  29.817  33.153  1.00  0.00    -0.206 F 
ATOM     64  C   UNL A   1      36.250  31.581  32.186  1.00  0.00     0.022 A 
BRANCH  61  65
ATOM     65  S   UNL A   1      35.247  32.667  29.855  1.00  0.00     0.124 S 
ATOM     66  O   UNL A   1      34.196  32.893  30.847  1.00  0.00    -0.237 OA
ATOM     67  O   UNL A   1      35.993  33.855  29.454  1.00  0.00    -0.237 OA
ATOM     68  O   UNL A   1      34.890  31.749  28.778  1.00  0.00    -0.744 OA
ENDBRANCH  61  65
ENDBRANCH  44  58
BRANCH  45  69
ATOM     69  C   UNL A   1      47.029  27.665  26.420  1.00  0.00     0.023 A 
ATOM     70  C   UNL A   1      47.223  27.971  25.060  1.00  0.00     0.031 A 
ATOM     71  C   UNL A   1      47.947  26.808  27.046  1.00  0.00     0.131 A 
ATOM     72  C   UNL A   1      48.264  27.359  24.351  1.00  0.00     0.055 A 
ATOM     73  C   UNL A   1      49.022  26.250  26.350  1.00  0.00     0.041 A 
ATOM     74  F   UNL A   1      47.795  26.482  28.339  1.00  0.00    -0.206 F 
ATOM     75  C   UNL A   1      49.174  26.512  24.991  1.00  0.00     0.022 A 
BRANCH  72  76
ATOM     76  S   UNL A   1      48.404  27.558  22.553  1.00  0.00     0.124 S 
ATOM     77  O   UNL A   1      49.656  28.298  22.421  1.00  0.00    -0.237 OA
ATOM     78  O   UNL A   1      48.441  26.169  22.106  1.00  0.00    -0.237 OA
ATOM     79  O   UNL A   1      47.199  28.298  22.194  1.00  0.00    -0.744 OA
ENDBRANCH  72  76
ENDBRANCH  45  69
BRANCH  57  80
ATOM     80  C   UNL A   1      44.972  33.593  29.643  1.00  0.00     0.023 A 
ATOM     81  C   UNL A   1      44.873  34.593  28.658  1.00  0.00     0.031 A 
ATOM     82  C   UNL A   1      45.835  33.804  30.731  1.00  0.00     0.131 A 
ATOM     83  C   UNL A   1      45.676  35.736  28.747  1.00  0.00     0.055 A 
ATOM     84  C   UNL A   1      46.600  34.966  30.838  1.00  0.00     0.041 A 
ATOM     85  F   UNL A   1      45.966  32.872  31.688  1.00  0.00    -0.206 F 
ATOM     86  C   UNL A   1      46.536  35.930  29.834  1.00  0.00     0.022 A 
BRANCH  83  87
ATOM     87  S   UNL A   1      45.696  36.966  27.415  1.00  0.00     0.124 S 
ATOM     88  O   UNL A   1      44.282  37.320  27.305  1.00  0.00    -0.237 OA
ATOM     89  O   UNL A   1      46.557  38.005  27.972  1.00  0.00    -0.237 OA
ATOM     90  O   UNL A   1      46.241  36.240  26.274  1.00  0.00    -0.744 OA
ENDBRANCH  83  87
ENDBRANCH  57  80
ENDBRANCH  31  32
ENDBRANCH  24  26
ENDBRANCH  23  24
ENDBRANCH   1  23
TORSDOF 18
ENDMDL
MODEL 2
REMARK VINA RESULT:     -11.4      5.083     10.068
REMARK SMILES CC(C)C[C@H](NC(=O)c1cc(Cl)nnc1Cl)C(=O)OCCOC(=O)c1ccc(-c2c3nc(c(-c4cc(S(=O)(=O)[O-])ccc4F)c4ccc([nH]4)c(-c4cc(S(=O)(=O)[O-])ccc4F)c4nc(c(-c5cc(S(=O)(=O)[O-])ccc5F)c5ccc2[nH]5)C=C4)C=C3)cc1
REMARK SMILES IDX 21 1 20 2 19 3 17 4 18 5 5 6 4 7 2 8 1 9 3 10 6 11 7 12 8 14
REMARK SMILES IDX 9 15 10 16 15 17 11 18 14 19 16 20 12 21 13 22 22 23 23 24
REMARK SMILES IDX 24 25 25 26 26 27 87 28 27 29 86 30 28 31 29 32 30 33 80 34
REMARK SMILES IDX 31 35 85 36 79 37 81 38 32 39 84 40 78 41 77 42 33 44 65 45
REMARK SMILES IDX 45 46 64 47 46 48 49 49 63 50 82 51 47 52 48 53 62 55 83 56
REMARK SMILES IDX 50 57 34 58 35 59 43 60 36 61 42 62 44 63 41 64 37 65 38 66
REMARK SMILES IDX 39 67 40 68 66 69 67 70 75 71 68 72 74 73 76 74 73 75 69 76
REMARK SMILES IDX 70 77 71 78 72 79 51 80 52 81 60 82 53 83 59 84 61 85 58 86
REMARK SMILES IDX 54 87 55 88 56 89 57 90
REMARK H PARENT 6 13 81 43 49 54
REMARK Flexibility Score: inf
ROOT
ATOM      1  C   UNL A   1      31.850  31.484  26.508  1.00  0.00     0.275 C 
ENDROOT
BRANCH   1   2
ATOM      2  C   UNL A   1      31.761  30.144  25.767  1.00  0.00     0.274 C 
BRANCH   2   3
ATOM      3  O   UNL A   1      32.520  29.119  26.436  1.00  0.00    -0.461 OA
BRANCH   3   4
ATOM      4  C   UNL A   1      31.818  28.038  26.886  1.00  0.00     0.328 C 
ATOM      5  O   UNL A   1      31.319  27.947  28.001  1.00  0.00    -0.250 OA
BRANCH   4   6
ATOM      6  C   UNL A   1      31.753  26.914  25.830  1.00  0.00     0.192 C 
BRANCH   6   7
ATOM      7  C   UNL A   1      30.313  26.390  25.689  1.00  0.00     0.040 C 
BRANCH   7   8
ATOM      8  C   UNL A   1      29.659  26.456  24.292  1.00  0.00    -0.015 C 
ATOM      9  C   UNL A   1      30.209  27.614  23.444  1.00  0.00     0.007 C 
ATOM     10  C   UNL A   1      29.942  25.154  23.535  1.00  0.00     0.007 C 
ENDBRANCH   7   8
ENDBRANCH   6   7
BRANCH   6  11
ATOM     11  N   UNL A   1      32.864  25.962  26.026  1.00  0.00    -0.338 N 
ATOM     12  C   UNL A   1      33.865  25.550  25.195  1.00  0.00     0.255 C 
ATOM     13  H   UNL A   1      32.886  25.547  26.919  1.00  0.00     0.164 HD
ATOM     14  O   UNL A   1      34.984  25.281  25.620  1.00  0.00    -0.269 OA
BRANCH  12  15
ATOM     15  C   UNL A   1      33.561  25.162  23.830  1.00  0.00     0.082 A 
ATOM     16  C   UNL A   1      33.255  23.818  23.620  1.00  0.00     0.060 A 
ATOM     17  C   UNL A   1      33.666  26.022  22.757  1.00  0.00     0.164 A 
ATOM     18  C   UNL A   1      33.019  23.422  22.326  1.00  0.00     0.152 A 
ATOM     19  N   UNL A   1      33.403  25.596  21.503  1.00  0.00    -0.136 NA
ATOM     20  Cl  UNL A   1      34.037  27.688  22.886  1.00  0.00    -0.059 Cl
ATOM     21  Cl  UNL A   1      32.612  21.805  21.949  1.00  0.00    -0.060 Cl
ATOM     22  N   UNL A   1      33.071  24.275  21.286  1.00  0.00    -0.137 NA
ENDBRANCH  12  15
ENDBRANCH   6  11
ENDBRANCH   4   6
ENDBRANCH   3   4
ENDBRANCH   2   3
ENDBRANCH   1   2
BRANCH   1  23
ATOM     23  O   UNL A   1      32.757  31.430  27.624  1.00  0.00    -0.458 OA
BRANCH  23  24
ATOM     24  C   UNL A   1      33.644  32.452  27.691  1.00  0.00     0.338 C 
ATOM     25  O   UNL A   1      33.397  33.643  27.593  1.00  0.00    -0.246 OA
BRANCH  24  26
ATOM     26  C   UNL A   1      34.966  31.940  28.083  1.00  0.00     0.060 A 
ATOM     27  C   UNL A   1      35.055  30.608  28.496  1.00  0.00     0.016 A 
ATOM     28  C   UNL A   1      36.079  32.778  28.140  1.00  0.00     0.016 A 
ATOM     29  C   UNL A   1      36.242  30.109  29.011  1.00  0.00     0.010 A 
ATOM     30  C   UNL A   1      37.275  32.278  28.660  1.00  0.00     0.010 A 
ATOM     31  C   UNL A   1      37.347  30.954  29.125  1.00  0.00    -0.014 A 
BRANCH  31  32
ATOM     32  C   UNL A   1      38.543  30.472  29.842  1.00  0.00     0.031 A 
ATOM     33  C   UNL A   1      39.435  29.472  29.175  1.00  0.00     0.074 A 
ATOM     34  C   UNL A   1      38.837  30.956  31.061  1.00  0.00     0.049 A 
ATOM     35  N   UNL A   1      40.489  28.866  29.649  1.00  0.00    -0.248 NA
ATOM     36  C   UNL A   1      39.099  29.105  27.788  1.00  0.00     0.031 C 
ATOM     37  C   UNL A   1      38.069  31.987  31.758  1.00  0.00     0.029 A 
ATOM     38  N   UNL A   1      39.849  30.640  31.928  1.00  0.00    -0.354 N 
ATOM     39  C   UNL A   1      40.924  28.023  28.635  1.00  0.00     0.074 A 
ATOM     40  C   UNL A   1      40.022  28.193  27.519  1.00  0.00     0.031 C 
ATOM     41  C   UNL A   1      38.629  32.206  32.957  1.00  0.00     0.029 A 
ATOM     42  C   UNL A   1      39.763  31.296  33.131  1.00  0.00     0.049 A 
ATOM     43  H   UNL A   1      40.569  30.005  31.710  1.00  0.00     0.167 HD
ATOM     44  C   UNL A   1      41.983  27.183  28.647  1.00  0.00     0.034 A 
ATOM     45  C   UNL A   1      40.489  31.154  34.258  1.00  0.00     0.034 A 
ATOM     46  C   UNL A   1      42.881  27.049  29.760  1.00  0.00     0.049 A 
ATOM     47  C   UNL A   1      41.630  30.170  34.268  1.00  0.00     0.074 A 
ATOM     48  C   UNL A   1      44.013  26.260  29.851  1.00  0.00     0.029 A 
ATOM     49  N   UNL A   1      42.749  27.708  30.973  1.00  0.00    -0.354 N 
ATOM     50  N   UNL A   1      42.060  29.402  33.293  1.00  0.00    -0.248 NA
ATOM     51  C   UNL A   1      42.383  30.022  35.521  1.00  0.00     0.031 C 
ATOM     52  C   UNL A   1      44.529  26.395  31.139  1.00  0.00     0.029 A 
ATOM     53  C   UNL A   1      43.757  27.314  31.835  1.00  0.00     0.049 A 
ATOM     54  H   UNL A   1      42.043  28.359  31.190  1.00  0.00     0.167 HD
ATOM     55  C   UNL A   1      43.142  28.695  33.807  1.00  0.00     0.074 A 
ATOM     56  C   UNL A   1      43.309  29.132  35.178  1.00  0.00     0.031 C 
ATOM     57  C   UNL A   1      43.923  27.770  33.194  1.00  0.00     0.034 A 
BRANCH  44  58
ATOM     58  C   UNL A   1      42.224  26.318  27.442  1.00  0.00     0.023 A 
ATOM     59  C   UNL A   1      41.808  24.974  27.464  1.00  0.00     0.031 A 
ATOM     60  C   UNL A   1      42.944  26.779  26.328  1.00  0.00     0.131 A 
ATOM     61  C   UNL A   1      42.139  24.128  26.400  1.00  0.00     0.055 A 
ATOM     62  C   UNL A   1      43.245  25.939  25.255  1.00  0.00     0.041 A 
ATOM     63  F   UNL A   1      43.353  28.056  26.262  1.00  0.00    -0.206 F 
ATOM     64  C   UNL A   1      42.850  24.604  25.293  1.00  0.00     0.022 A 
BRANCH  61  65
ATOM     65  S   UNL A   1      41.687  22.373  26.428  1.00  0.00     0.124 S 
ATOM     66  O   UNL A   1      42.396  21.859  25.257  1.00  0.00    -0.237 OA
ATOM     67  O   UNL A   1      42.217  21.943  27.718  1.00  0.00    -0.237 OA
ATOM     68  O   UNL A   1      40.233  22.383  26.312  1.00  0.00    -0.744 OA
ENDBRANCH  61  65
ENDBRANCH  44  58
BRANCH  45  69
ATOM     69  C   UNL A   1      40.139  31.985  35.441  1.00  0.00     0.023 A 
ATOM     70  C   UNL A   1      39.214  31.521  36.395  1.00  0.00     0.031 A 
ATOM     71  C   UNL A   1      40.609  33.303  35.557  1.00  0.00     0.131 A 
ATOM     72  C   UNL A   1      38.730  32.395  37.377  1.00  0.00     0.055 A 
ATOM     73  C   UNL A   1      40.171  34.151  36.577  1.00  0.00     0.041 A 
ATOM     74  F   UNL A   1      41.484  33.790  34.663  1.00  0.00    -0.206 F 
ATOM     75  C   UNL A   1      39.213  33.702  37.483  1.00  0.00     0.022 A 
BRANCH  72  76
ATOM     76  S   UNL A   1      37.378  31.894  38.478  1.00  0.00     0.124 S 
ATOM     77  O   UNL A   1      36.345  32.878  38.166  1.00  0.00    -0.237 OA
ATOM     78  O   UNL A   1      37.114  30.534  38.017  1.00  0.00    -0.237 OA
ATOM     79  O   UNL A   1      37.961  32.000  39.810  1.00  0.00    -0.744 OA
ENDBRANCH  72  76
ENDBRANCH  45  69
BRANCH  57  80
ATOM     80  C   UNL A   1      45.052  27.142  33.970  1.00  0.00     0.023 A 
ATOM     81  C   UNL A   1      44.820  25.965  34.706  1.00  0.00     0.031 A 
ATOM     82  C   UNL A   1      46.271  27.816  34.146  1.00  0.00     0.131 A 
ATOM     83  C   UNL A   1      45.771  25.530  35.636  1.00  0.00     0.055 A 
ATOM     84  C   UNL A   1      47.236  27.352  35.042  1.00  0.00     0.041 A 
ATOM     85  F   UNL A   1      46.529  28.946  33.471  1.00  0.00    -0.206 F 
ATOM     86  C   UNL A   1      46.980  26.215  35.804  1.00  0.00     0.022 A 
BRANCH  83  87
ATOM     87  S   UNL A   1      45.436  24.113  36.717  1.00  0.00     0.124 S 
ATOM     88  O   UNL A   1      46.783  23.624  37.006  1.00  0.00    -0.237 OA
ATOM     89  O   UNL A   1      44.746  24.742  37.840  1.00  0.00    -0.237 OA
ATOM     90  O   UNL A   1      44.622  23.227  35.893  1.00  0.00    -0.744 OA
ENDBRANCH  83  87
ENDBRANCH  57  80
ENDBRANCH  31  32
ENDBRANCH  24  26
ENDBRANCH  23  24
ENDBRANCH   1  23
TORSDOF 18
ENDMDL
MODEL 3
REMARK VINA RESULT:     -11.3      5.121      9.871
REMARK SMILES CC(C)C[C@H](NC(=O)c1cc(Cl)nnc1Cl)C(=O)OCCOC(=O)c1ccc(-c2c3nc(c(-c4cc(S(=O)(=O)[O-])ccc4F)c4ccc([nH]4)c(-c4cc(S(=O)(=O)[O-])ccc4F)c4nc(c(-c5cc(S(=O)(=O)[O-])ccc5F)c5ccc2[nH]5)C=C4)C=C3)cc1
REMARK SMILES IDX 21 1 20 2 19 3 17 4 18 5 5 6 4 7 2 8 1 9 3 10 6 11 7 12 8 14
REMARK SMILES IDX 9 15 10 16 15 17 11 18 14 19 16 20 12 21 13 22 22 23 23 24
REMARK SMILES IDX 24 25 25 26 26 27 87 28 27 29 86 30 28 31 29 32 30 33 80 34
REMARK SMILES IDX 31 35 85 36 79 37 81 38 32 39 84 40 78 41 77 42 33 44 65 45
REMARK SMILES IDX 45 46 64 47 46 48 49 49 63 50 82 51 47 52 48 53 62 55 83 56
REMARK SMILES IDX 50 57 34 58 35 59 43 60 36 61 42 62 44 63 41 64 37 65 38 66
REMARK SMILES IDX 39 67 40 68 66 69 67 70 75 71 68 72 74 73 76 74 73 75 69 76
REMARK SMILES IDX 70 77 71 78 72 79 51 80 52 81 60 82 53 83 59 84 61 85 58 86
REMARK SMILES IDX 54 87 55 88 56 89 57 90
REMARK H PARENT 6 13 81 43 49 54
REMARK Flexibility Score: inf
ROOT
ATOM      1  C   UNL A   1      32.652  30.289  25.767  1.00  0.00     0.275 C 
ENDROOT
BRANCH   1   2
ATOM      2  C   UNL A   1      31.745  29.097  25.440  1.00  0.00     0.274 C 
BRANCH   2   3
ATOM      3  O   UNL A   1      32.409  27.843  25.690  1.00  0.00    -0.461 OA
BRANCH   3   4
ATOM      4  C   UNL A   1      31.650  26.850  26.238  1.00  0.00     0.328 C 
ATOM      5  O   UNL A   1      30.696  27.034  26.985  1.00  0.00    -0.250 OA
BRANCH   4   6
ATOM      6  C   UNL A   1      32.154  25.450  25.833  1.00  0.00     0.192 C 
BRANCH   6   7
ATOM      7  C   UNL A   1      33.587  25.533  25.279  1.00  0.00     0.040 C 
BRANCH   7   8
ATOM      8  C   UNL A   1      34.328  24.207  25.003  1.00  0.00    -0.015 C 
ATOM      9  C   UNL A   1      34.393  23.876  23.504  1.00  0.00     0.007 C 
ATOM     10  C   UNL A   1      35.769  24.313  25.514  1.00  0.00     0.007 C 
ENDBRANCH   7   8
ENDBRANCH   6   7
BRANCH   6  11
ATOM     11  N   UNL A   1      31.114  24.730  25.073  1.00  0.00    -0.338 N 
ATOM     12  C   UNL A   1      30.645  24.887  23.801  1.00  0.00     0.255 C 
ATOM     13  H   UNL A   1      30.678  24.004  25.576  1.00  0.00     0.164 HD
ATOM     14  O   UNL A   1      30.279  23.930  23.127  1.00  0.00    -0.269 OA
BRANCH  12  15
ATOM     15  C   UNL A   1      30.315  26.212  23.308  1.00  0.00     0.082 A 
ATOM     16  C   UNL A   1      29.050  26.699  23.637  1.00  0.00     0.060 A 
ATOM     17  C   UNL A   1      31.135  26.934  22.467  1.00  0.00     0.164 A 
ATOM     18  C   UNL A   1      28.699  27.927  23.133  1.00  0.00     0.152 A 
ATOM     19  N   UNL A   1      30.761  28.149  22.013  1.00  0.00    -0.136 NA
ATOM     20  Cl  UNL A   1      32.704  26.442  21.991  1.00  0.00    -0.059 Cl
ATOM     21  Cl  UNL A   1      27.184  28.636  23.487  1.00  0.00    -0.060 Cl
ATOM     22  N   UNL A   1      29.523  28.654  22.354  1.00  0.00    -0.137 NA
ENDBRANCH  12  15
ENDBRANCH   6  11
ENDBRANCH   4   6
ENDBRANCH   3   4
ENDBRANCH   2   3
ENDBRANCH   1   2
BRANCH   1  23
ATOM     23  O   UNL A   1      32.642  30.615  27.168  1.00  0.00    -0.458 OA
BRANCH  23  24
ATOM     24  C   UNL A   1      33.348  31.721  27.504  1.00  0.00     0.338 C 
ATOM     25  O   UNL A   1      32.923  32.861  27.594  1.00  0.00    -0.246 OA
BRANCH  24  26
ATOM     26  C   UNL A   1      34.703  31.339  27.930  1.00  0.00     0.060 A 
ATOM     27  C   UNL A   1      34.907  30.022  28.356  1.00  0.00     0.016 A 
ATOM     28  C   UNL A   1      35.730  32.277  28.006  1.00  0.00     0.016 A 
ATOM     29  C   UNL A   1      36.123  29.641  28.902  1.00  0.00     0.010 A 
ATOM     30  C   UNL A   1      36.956  31.895  28.557  1.00  0.00     0.010 A 
ATOM     31  C   UNL A   1      37.141  30.586  29.034  1.00  0.00    -0.014 A 
BRANCH  31  32
ATOM     32  C   UNL A   1      38.360  30.223  29.783  1.00  0.00     0.031 A 
ATOM     33  C   UNL A   1      39.327  29.259  29.169  1.00  0.00     0.074 A 
ATOM     34  C   UNL A   1      38.604  30.781  30.981  1.00  0.00     0.049 A 
ATOM     35  N   UNL A   1      40.416  28.751  29.680  1.00  0.00    -0.248 NA
ATOM     36  C   UNL A   1      39.033  28.808  27.798  1.00  0.00     0.031 C 
ATOM     37  C   UNL A   1      37.758  31.785  31.624  1.00  0.00     0.029 A 
ATOM     38  N   UNL A   1      39.626  30.577  31.869  1.00  0.00    -0.354 N 
ATOM     39  C   UNL A   1      40.921  27.897  28.708  1.00  0.00     0.074 A 
ATOM     40  C   UNL A   1      40.021  27.952  27.579  1.00  0.00     0.031 C 
ATOM     41  C   UNL A   1      38.288  32.097  32.816  1.00  0.00     0.029 A 
ATOM     42  C   UNL A   1      39.480  31.279  33.040  1.00  0.00     0.049 A 
ATOM     43  H   UNL A   1      40.392  29.985  31.687  1.00  0.00     0.167 HD
ATOM     44  C   UNL A   1      42.036  27.135  28.767  1.00  0.00     0.034 A 
ATOM     45  C   UNL A   1      40.202  31.239  34.178  1.00  0.00     0.034 A 
ATOM     46  C   UNL A   1      42.928  27.116  29.893  1.00  0.00     0.049 A 
ATOM     47  C   UNL A   1      41.409  30.340  34.243  1.00  0.00     0.074 A 
ATOM     48  C   UNL A   1      44.112  26.413  30.029  1.00  0.00     0.029 A 
ATOM     49  N   UNL A   1      42.736  27.817  31.074  1.00  0.00    -0.354 N 
ATOM     50  N   UNL A   1      41.903  29.561  33.308  1.00  0.00    -0.248 NA
ATOM     51  C   UNL A   1      42.156  30.302  35.508  1.00  0.00     0.031 C 
ATOM     52  C   UNL A   1      44.603  26.642  31.314  1.00  0.00     0.029 A 
ATOM     53  C   UNL A   1      43.760  27.535  31.961  1.00  0.00     0.049 A 
ATOM     54  H   UNL A   1      41.984  28.426  31.254  1.00  0.00     0.167 HD
ATOM     55  C   UNL A   1      43.026  28.957  33.862  1.00  0.00     0.074 A 
ATOM     56  C   UNL A   1      43.146  29.466  35.213  1.00  0.00     0.031 C 
ATOM     57  C   UNL A   1      43.877  28.062  33.299  1.00  0.00     0.034 A 
BRANCH  44  58
ATOM     58  C   UNL A   1      42.351  26.236  27.606  1.00  0.00     0.023 A 
ATOM     59  C   UNL A   1      41.878  24.911  27.611  1.00  0.00     0.031 A 
ATOM     60  C   UNL A   1      43.190  26.644  26.556  1.00  0.00     0.131 A 
ATOM     61  C   UNL A   1      42.270  24.030  26.598  1.00  0.00     0.055 A 
ATOM     62  C   UNL A   1      43.554  25.770  25.531  1.00  0.00     0.041 A 
ATOM     63  F   UNL A   1      43.659  27.902  26.507  1.00  0.00    -0.206 F 
ATOM     64  C   UNL A   1      43.100  24.453  25.555  1.00  0.00     0.022 A 
BRANCH  61  65
ATOM     65  S   UNL A   1      41.743  22.296  26.613  1.00  0.00     0.124 S 
ATOM     66  O   UNL A   1      42.368  21.800  27.837  1.00  0.00    -0.237 OA
ATOM     67  O   UNL A   1      40.289  22.420  26.659  1.00  0.00    -0.237 OA
ATOM     68  O   UNL A   1      42.293  21.751  25.376  1.00  0.00    -0.744 OA
ENDBRANCH  61  65
ENDBRANCH  44  58
BRANCH  45  69
ATOM     69  C   UNL A   1      39.781  32.096  35.319  1.00  0.00     0.023 A 
ATOM     70  C   UNL A   1      39.018  31.561  36.375  1.00  0.00     0.031 A 
ATOM     71  C   UNL A   1      40.009  33.481  35.300  1.00  0.00     0.131 A 
ATOM     72  C   UNL A   1      38.444  32.418  37.322  1.00  0.00     0.055 A 
ATOM     73  C   UNL A   1      39.488  34.325  36.284  1.00  0.00     0.041 A 
ATOM     74  F   UNL A   1      40.722  34.034  34.307  1.00  0.00    -0.206 F 
ATOM     75  C   UNL A   1      38.687  33.795  37.292  1.00  0.00     0.022 A 
BRANCH  72  76
ATOM     76  S   UNL A   1      37.278  31.785  38.559  1.00  0.00     0.124 S 
ATOM     77  O   UNL A   1      38.036  31.924  39.799  1.00  0.00    -0.237 OA
ATOM     78  O   UNL A   1      36.154  32.703  38.399  1.00  0.00    -0.237 OA
ATOM     79  O   UNL A   1      37.031  30.413  38.128  1.00  0.00    -0.744 OA
ENDBRANCH  72  76
ENDBRANCH  45  69
BRANCH  57  80
ATOM     80  C   UNL A   1      45.038  27.552  34.112  1.00  0.00     0.023 A 
ATOM     81  C   UNL A   1      44.855  26.455  34.975  1.00  0.00     0.031 A 
ATOM     82  C   UNL A   1      46.242  28.272  34.187  1.00  0.00     0.131 A 
ATOM     83  C   UNL A   1      45.836  26.148  35.924  1.00  0.00     0.055 A 
ATOM     84  C   UNL A   1      47.236  27.933  35.106  1.00  0.00     0.041 A 
ATOM     85  F   UNL A   1      46.454  29.330  33.389  1.00  0.00    -0.206 F 
ATOM     86  C   UNL A   1      47.028  26.878  35.991  1.00  0.00     0.022 A 
BRANCH  83  87
ATOM     87  S   UNL A   1      45.563  24.847  37.158  1.00  0.00     0.124 S 
ATOM     88  O   UNL A   1      45.166  25.620  38.334  1.00  0.00    -0.237 OA
ATOM     89  O   UNL A   1      44.501  24.059  36.541  1.00  0.00    -0.237 OA
ATOM     90  O   UNL A   1      46.859  24.186  37.264  1.00  0.00    -0.744 OA
ENDBRANCH  83  87
ENDBRANCH  57  80
ENDBRANCH  31  32
ENDBRANCH  24  26
ENDBRANCH  23  24
ENDBRANCH   1  23
TORSDOF 18
ENDMDL
