MODEL 1
REMARK VINA RESULT:     -12.4      0.000      0.000
REMARK SMILES Cc1coc2c(C)c3oc(=O)c(CC(=O)NCC(=O)N[C@H](C(=O)OCCOC(=O)c4ccc(-c5c6nc(c(-c7cc(S(=O)(=O)[O-])ccc7F)c7ccc([nH]7)c(-c7cc(S(=O)(=O)[O-])ccc7F)c7nc(c(-c8cc(S(=O)(=O)[O-])ccc8F)c8ccc5[nH]8)C=C7)C=C6)cc4)C(C)C)c(C)c3cc12
REMARK SMILES IDX 25 1 24 2 22 3 23 4 21 5 20 6 18 7 19 8 17 10 16 11 14 12
REMARK SMILES IDX 15 13 13 15 12 16 1 17 2 18 3 19 100 20 4 21 5 22 99 23 6 24
REMARK SMILES IDX 98 25 7 26 8 27 96 28 9 29 97 30 10 31 11 32 93 33 94 34
REMARK SMILES IDX 95 35 26 36 27 37 28 38 29 39 30 40 31 41 92 42 32 43 91 44
REMARK SMILES IDX 33 45 34 46 35 47 85 48 36 49 90 50 84 51 86 52 37 53 89 54
REMARK SMILES IDX 83 55 82 56 38 58 70 59 50 60 69 61 51 62 54 63 68 64 87 65
REMARK SMILES IDX 52 66 53 67 67 69 88 70 55 71 39 72 40 73 48 74 41 75 47 76
REMARK SMILES IDX 49 77 46 78 42 79 43 80 44 81 45 82 71 83 72 84 80 85 73 86
REMARK SMILES IDX 79 87 81 88 78 89 74 90 75 91 76 92 77 93 56 94 57 95 65 96
REMARK SMILES IDX 58 97 64 98 66 99 63 100 59 101 60 102 61 103 62 104
REMARK H PARENT 20 9 16 14 86 57 54 68
REMARK Flexibility Score: inf
ROOT
ATOM      1  C   UNL A   1      33.377  29.693  26.183  1.00  0.00     0.274 C 
ENDROOT
BRANCH   1   2
ATOM      2  O   UNL A   1      31.975  29.382  26.349  1.00  0.00    -0.461 OA
BRANCH   2   3
ATOM      3  C   UNL A   1      31.483  28.238  25.751  1.00  0.00     0.329 C 
ATOM      4  O   UNL A   1      31.004  27.299  26.336  1.00  0.00    -0.250 OA
BRANCH   3   5
ATOM      5  C   UNL A   1      31.841  28.248  24.236  1.00  0.00     0.194 C 
BRANCH   5   6
ATOM      6  N   UNL A   1      32.264  26.995  23.533  1.00  0.00    -0.341 N 
ATOM      7  C   UNL A   1      31.595  25.821  23.211  1.00  0.00     0.240 C 
ATOM      8  O   UNL A   1      32.046  25.273  22.188  1.00  0.00    -0.273 OA
ATOM      9  H   UNL A   1      33.203  27.006  23.239  1.00  0.00     0.164 HD
BRANCH   7  10
ATOM     10  C   UNL A   1      30.213  25.153  23.872  1.00  0.00     0.216 C 
BRANCH  10  11
ATOM     11  N   UNL A   1      30.000  24.663  25.291  1.00  0.00    -0.347 N 
ATOM     12  C   UNL A   1      30.303  23.675  26.191  1.00  0.00     0.225 C 
ATOM     13  O   UNL A   1      29.672  23.817  27.254  1.00  0.00    -0.275 OA
ATOM     14  H   UNL A   1      29.413  25.311  25.745  1.00  0.00     0.164 HD
BRANCH  12  15
ATOM     15  C   UNL A   1      31.331  22.463  26.150  1.00  0.00     0.143 C 
BRANCH  15  16
ATOM     16  C   UNL A   1      32.768  22.507  25.545  1.00  0.00     0.051 A 
ATOM     17  C   UNL A   1      39.271  24.921  27.078  1.00  0.00     0.048 C 
ATOM     18  C   UNL A   1      38.861  23.614  26.510  1.00  0.00    -0.005 A 
ATOM     19  C   UNL A   1      39.677  22.509  26.364  1.00  0.00     0.199 A 
ATOM     20  C   UNL A   1      37.570  23.217  26.017  1.00  0.00     0.024 A 
ATOM     21  O   UNL A   1      38.989  21.464  25.850  1.00  0.00    -0.464 OA
ATOM     22  C   UNL A   1      37.712  21.889  25.632  1.00  0.00     0.140 A 
ATOM     23  C   UNL A   1      36.281  23.808  25.906  1.00  0.00     0.024 A 
ATOM     24  C   UNL A   1      36.685  21.096  25.120  1.00  0.00     0.036 A 
ATOM     25  C   UNL A   1      35.179  23.062  25.408  1.00  0.00     0.022 A 
ATOM     26  C   UNL A   1      36.878  19.635  24.854  1.00  0.00     0.052 C 
ATOM     27  C   UNL A   1      35.442  21.762  24.970  1.00  0.00     0.145 A 
ATOM     28  C   UNL A   1      33.735  23.469  25.599  1.00  0.00    -0.029 A 
ATOM     29  O   UNL A   1      34.383  20.997  24.439  1.00  0.00    -0.422 OA
ATOM     30  C   UNL A   1      33.500  24.881  26.086  1.00  0.00     0.046 C 
ATOM     31  C   UNL A   1      33.057  21.320  24.678  1.00  0.00     0.340 A 
ATOM     32  O   UNL A   1      32.163  20.604  24.235  1.00  0.00    -0.246 OA
ENDBRANCH  15  16
ENDBRANCH  12  15
ENDBRANCH  10  11
ENDBRANCH   7  10
ENDBRANCH   5   6
BRANCH   5  33
ATOM     33  C   UNL A   1      30.851  28.888  23.325  1.00  0.00     0.017 C 
ATOM     34  C   UNL A   1      29.837  29.868  23.812  1.00  0.00     0.010 C 
ATOM     35  C   UNL A   1      31.653  29.238  22.086  1.00  0.00     0.010 C 
ENDBRANCH   5  33
ENDBRANCH   3   5
ENDBRANCH   2   3
ENDBRANCH   1   2
BRANCH   1  36
ATOM     36  C   UNL A   1      33.968  30.582  27.272  1.00  0.00     0.275 C 
BRANCH  36  37
ATOM     37  O   UNL A   1      34.873  29.851  28.090  1.00  0.00    -0.458 OA
BRANCH  37  38
ATOM     38  C   UNL A   1      35.696  30.685  28.754  1.00  0.00     0.338 C 
ATOM     39  O   UNL A   1      35.390  31.715  29.337  1.00  0.00    -0.246 OA
BRANCH  38  40
ATOM     40  C   UNL A   1      37.084  30.327  28.543  1.00  0.00     0.060 A 
ATOM     41  C   UNL A   1      37.426  28.989  28.322  1.00  0.00     0.016 A 
ATOM     42  C   UNL A   1      37.975  31.267  29.051  1.00  0.00     0.016 A 
ATOM     43  C   UNL A   1      38.634  28.536  28.799  1.00  0.00     0.010 A 
ATOM     44  C   UNL A   1      39.190  30.820  29.498  1.00  0.00     0.010 A 
ATOM     45  C   UNL A   1      39.483  29.450  29.425  1.00  0.00    -0.014 A 
BRANCH  45  46
ATOM     46  C   UNL A   1      40.837  29.027  29.735  1.00  0.00     0.031 A 
ATOM     47  C   UNL A   1      41.079  28.965  31.206  1.00  0.00     0.074 A 
ATOM     48  C   UNL A   1      41.618  28.488  28.776  1.00  0.00     0.049 A 
ATOM     49  N   UNL A   1      42.078  29.421  31.886  1.00  0.00    -0.248 NA
ATOM     50  C   UNL A   1      39.971  28.466  32.056  1.00  0.00     0.031 C 
ATOM     51  C   UNL A   1      41.282  28.306  27.360  1.00  0.00     0.029 A 
ATOM     52  N   UNL A   1      42.787  27.807  28.900  1.00  0.00    -0.354 N 
ATOM     53  C   UNL A   1      41.822  29.066  33.208  1.00  0.00     0.074 A 
ATOM     54  C   UNL A   1      40.443  28.682  33.279  1.00  0.00     0.031 C 
ATOM     55  C   UNL A   1      42.073  27.343  26.840  1.00  0.00     0.029 A 
ATOM     56  C   UNL A   1      43.027  26.920  27.851  1.00  0.00     0.049 A 
ATOM     57  H   UNL A   1      43.406  27.928  29.657  1.00  0.00     0.167 HD
ATOM     58  C   UNL A   1      42.827  28.850  34.095  1.00  0.00     0.034 A 
ATOM     59  C   UNL A   1      43.864  25.846  27.864  1.00  0.00     0.034 A 
ATOM     60  C   UNL A   1      44.042  29.497  33.676  1.00  0.00     0.049 A 
ATOM     61  C   UNL A   1      44.814  26.074  28.985  1.00  0.00     0.074 A 
ATOM     62  C   UNL A   1      44.392  30.810  33.432  1.00  0.00     0.029 A 
ATOM     63  N   UNL A   1      44.996  28.727  33.054  1.00  0.00    -0.354 N 
ATOM     64  N   UNL A   1      45.643  27.083  29.038  1.00  0.00    -0.248 NA
ATOM     65  C   UNL A   1      44.517  25.457  30.271  1.00  0.00     0.031 C 
ATOM     66  C   UNL A   1      45.245  30.756  32.293  1.00  0.00     0.029 A 
ATOM     67  C   UNL A   1      45.426  29.414  31.946  1.00  0.00     0.049 A 
ATOM     68  H   UNL A   1      45.313  27.843  33.349  1.00  0.00     0.167 HD
ATOM     69  C   UNL A   1      45.628  27.493  30.363  1.00  0.00     0.074 A 
ATOM     70  C   UNL A   1      45.006  26.390  31.092  1.00  0.00     0.031 C 
ATOM     71  C   UNL A   1      45.854  28.797  30.705  1.00  0.00     0.034 A 
BRANCH  58  72
ATOM     72  C   UNL A   1      42.794  27.758  35.134  1.00  0.00     0.023 A 
ATOM     73  C   UNL A   1      43.532  26.590  34.880  1.00  0.00     0.031 A 
ATOM     74  C   UNL A   1      41.868  27.687  36.204  1.00  0.00     0.131 A 
ATOM     75  C   UNL A   1      43.292  25.418  35.616  1.00  0.00     0.055 A 
ATOM     76  C   UNL A   1      41.685  26.541  36.977  1.00  0.00     0.041 A 
ATOM     77  F   UNL A   1      41.021  28.682  36.498  1.00  0.00    -0.206 F 
ATOM     78  C   UNL A   1      42.378  25.387  36.667  1.00  0.00     0.022 A 
BRANCH  75  79
ATOM     79  S   UNL A   1      44.087  23.885  35.074  1.00  0.00     0.124 S 
ATOM     80  O   UNL A   1      42.938  23.080  34.676  1.00  0.00    -0.237 OA
ATOM     81  O   UNL A   1      44.950  24.357  33.998  1.00  0.00    -0.237 OA
ATOM     82  O   UNL A   1      44.785  23.425  36.274  1.00  0.00    -0.744 OA
ENDBRANCH  75  79
ENDBRANCH  58  72
BRANCH  59  83
ATOM     83  C   UNL A   1      43.667  24.525  27.188  1.00  0.00     0.023 A 
ATOM     84  C   UNL A   1      44.472  24.098  26.108  1.00  0.00     0.031 A 
ATOM     85  C   UNL A   1      42.805  23.549  27.741  1.00  0.00     0.131 A 
ATOM     86  C   UNL A   1      44.385  22.768  25.627  1.00  0.00     0.055 A 
ATOM     87  C   UNL A   1      42.710  22.243  27.251  1.00  0.00     0.041 A 
ATOM     88  F   UNL A   1      42.078  23.795  28.842  1.00  0.00    -0.206 F 
ATOM     89  C   UNL A   1      43.507  21.843  26.195  1.00  0.00     0.022 A 
BRANCH  86  90
ATOM     90  S   UNL A   1      45.507  22.178  24.316  1.00  0.00     0.124 S 
ATOM     91  O   UNL A   1      46.475  21.391  25.072  1.00  0.00    -0.237 OA
ATOM     92  O   UNL A   1      44.608  21.434  23.442  1.00  0.00    -0.237 OA
ATOM     93  O   UNL A   1      46.035  23.415  23.738  1.00  0.00    -0.744 OA
ENDBRANCH  86  90
ENDBRANCH  59  83
BRANCH  71  94
ATOM     94  C   UNL A   1      46.395  29.742  29.652  1.00  0.00     0.023 A 
ATOM     95  C   UNL A   1      45.601  30.463  28.730  1.00  0.00     0.031 A 
ATOM     96  C   UNL A   1      47.759  30.065  29.737  1.00  0.00     0.131 A 
ATOM     97  C   UNL A   1      46.188  31.474  27.940  1.00  0.00     0.055 A 
ATOM     98  C   UNL A   1      48.329  31.082  28.973  1.00  0.00     0.041 A 
ATOM     99  F   UNL A   1      48.552  29.436  30.621  1.00  0.00    -0.206 F 
ATOM    100  C   UNL A   1      47.544  31.792  28.073  1.00  0.00     0.022 A 
BRANCH  97 101
ATOM    101  S   UNL A   1      45.183  32.433  26.756  1.00  0.00     0.124 S 
ATOM    102  O   UNL A   1      44.510  33.408  27.608  1.00  0.00    -0.237 OA
ATOM    103  O   UNL A   1      46.179  32.965  25.833  1.00  0.00    -0.237 OA
ATOM    104  O   UNL A   1      44.293  31.427  26.169  1.00  0.00    -0.744 OA
ENDBRANCH  97 101
ENDBRANCH  71  94
ENDBRANCH  45  46
ENDBRANCH  38  40
ENDBRANCH  37  38
ENDBRANCH  36  37
ENDBRANCH   1  36
TORSDOF 20
ENDMDL
MODEL 2
REMARK VINA RESULT:     -12.2      2.229      6.513
REMARK SMILES Cc1coc2c(C)c3oc(=O)c(CC(=O)NCC(=O)N[C@H](C(=O)OCCOC(=O)c4ccc(-c5c6nc(c(-c7cc(S(=O)(=O)[O-])ccc7F)c7ccc([nH]7)c(-c7cc(S(=O)(=O)[O-])ccc7F)c7nc(c(-c8cc(S(=O)(=O)[O-])ccc8F)c8ccc5[nH]8)C=C7)C=C6)cc4)C(C)C)c(C)c3cc12
REMARK SMILES IDX 25 1 24 2 22 3 23 4 21 5 20 6 18 7 19 8 17 10 16 11 14 12
REMARK SMILES IDX 15 13 13 15 12 16 1 17 2 18 3 19 100 20 4 21 5 22 99 23 6 24
REMARK SMILES IDX 98 25 7 26 8 27 96 28 9 29 97 30 10 31 11 32 93 33 94 34
REMARK SMILES IDX 95 35 26 36 27 37 28 38 29 39 30 40 31 41 92 42 32 43 91 44
REMARK SMILES IDX 33 45 34 46 35 47 85 48 36 49 90 50 84 51 86 52 37 53 89 54
REMARK SMILES IDX 83 55 82 56 38 58 70 59 50 60 69 61 51 62 54 63 68 64 87 65
REMARK SMILES IDX 52 66 53 67 67 69 88 70 55 71 39 72 40 73 48 74 41 75 47 76
REMARK SMILES IDX 49 77 46 78 42 79 43 80 44 81 45 82 71 83 72 84 80 85 73 86
REMARK SMILES IDX 79 87 81 88 78 89 74 90 75 91 76 92 77 93 56 94 57 95 65 96
REMARK SMILES IDX 58 97 64 98 66 99 63 100 59 101 60 102 61 103 62 104
REMARK H PARENT 20 9 16 14 86 57 54 68
REMARK Flexibility Score: inf
ROOT
ATOM      1  C   UNL A   1      33.583  29.539  26.179  1.00  0.00     0.274 C 
ENDROOT
BRANCH   1   2
ATOM      2  O   UNL A   1      33.594  28.095  26.244  1.00  0.00    -0.461 OA
BRANCH   2   3
ATOM      3  C   UNL A   1      32.670  27.399  25.490  1.00  0.00     0.329 C 
ATOM      4  O   UNL A   1      31.618  26.973  25.900  1.00  0.00    -0.250 OA
BRANCH   3   5
ATOM      5  C   UNL A   1      33.284  27.053  24.102  1.00  0.00     0.194 C 
BRANCH   5   6
ATOM      6  N   UNL A   1      33.338  25.639  23.610  1.00  0.00    -0.341 N 
ATOM      7  C   UNL A   1      32.355  24.698  23.334  1.00  0.00     0.240 C 
ATOM      8  O   UNL A   1      32.696  23.888  22.452  1.00  0.00    -0.273 OA
ATOM      9  H   UNL A   1      34.253  25.313  23.450  1.00  0.00     0.164 HD
BRANCH   7  10
ATOM     10  C   UNL A   1      30.774  24.601  23.869  1.00  0.00     0.216 C 
BRANCH  10  11
ATOM     11  N   UNL A   1      30.280  24.316  25.274  1.00  0.00    -0.347 N 
ATOM     12  C   UNL A   1      30.541  23.636  26.435  1.00  0.00     0.225 C 
ATOM     13  O   UNL A   1      29.609  23.753  27.251  1.00  0.00    -0.275 OA
ATOM     14  H   UNL A   1      29.443  24.818  25.402  1.00  0.00     0.164 HD
BRANCH  12  15
ATOM     15  C   UNL A   1      31.805  22.812  26.937  1.00  0.00     0.143 C 
BRANCH  15  16
ATOM     16  C   UNL A   1      32.998  22.342  26.048  1.00  0.00     0.051 A 
ATOM     17  C   UNL A   1      40.096  22.067  26.126  1.00  0.00     0.048 C 
ATOM     18  C   UNL A   1      39.118  21.037  25.700  1.00  0.00    -0.005 A 
ATOM     19  C   UNL A   1      39.410  19.715  25.428  1.00  0.00     0.199 A 
ATOM     20  C   UNL A   1      37.701  21.176  25.498  1.00  0.00     0.024 A 
ATOM     21  O   UNL A   1      38.290  19.029  25.102  1.00  0.00    -0.464 OA
ATOM     22  C   UNL A   1      37.252  19.912  25.137  1.00  0.00     0.140 A 
ATOM     23  C   UNL A   1      36.736  22.212  25.634  1.00  0.00     0.024 A 
ATOM     24  C   UNL A   1      35.920  19.586  24.876  1.00  0.00     0.036 A 
ATOM     25  C   UNL A   1      35.358  21.958  25.399  1.00  0.00     0.022 A 
ATOM     26  C   UNL A   1      35.491  18.173  24.626  1.00  0.00     0.052 C 
ATOM     27  C   UNL A   1      35.017  20.676  24.961  1.00  0.00     0.145 A 
ATOM     28  C   UNL A   1      34.245  22.868  25.868  1.00  0.00    -0.029 A 
ATOM     29  O   UNL A   1      33.664  20.390  24.687  1.00  0.00    -0.422 OA
ATOM     30  C   UNL A   1      34.663  24.241  26.344  1.00  0.00     0.046 C 
ATOM     31  C   UNL A   1      32.635  21.175  25.182  1.00  0.00     0.340 A 
ATOM     32  O   UNL A   1      31.468  20.868  24.957  1.00  0.00    -0.246 OA
ENDBRANCH  15  16
ENDBRANCH  12  15
ENDBRANCH  10  11
ENDBRANCH   7  10
ENDBRANCH   5   6
BRANCH   5  33
ATOM     33  C   UNL A   1      32.791  27.848  22.943  1.00  0.00     0.017 C 
ATOM     34  C   UNL A   1      31.497  28.588  22.976  1.00  0.00     0.010 C 
ATOM     35  C   UNL A   1      34.023  28.574  22.436  1.00  0.00     0.010 C 
ENDBRANCH   5  33
ENDBRANCH   3   5
ENDBRANCH   2   3
ENDBRANCH   1   2
BRANCH   1  36
ATOM     36  C   UNL A   1      34.313  30.236  27.322  1.00  0.00     0.275 C 
BRANCH  36  37
ATOM     37  O   UNL A   1      35.254  29.362  27.934  1.00  0.00    -0.458 OA
BRANCH  37  38
ATOM     38  C   UNL A   1      36.408  30.007  28.186  1.00  0.00     0.338 C 
ATOM     39  O   UNL A   1      36.583  31.216  28.239  1.00  0.00    -0.246 OA
BRANCH  38  40
ATOM     40  C   UNL A   1      37.527  29.087  28.207  1.00  0.00     0.060 A 
ATOM     41  C   UNL A   1      37.835  28.401  29.387  1.00  0.00     0.016 A 
ATOM     42  C   UNL A   1      38.460  29.335  27.206  1.00  0.00     0.016 A 
ATOM     43  C   UNL A   1      39.155  28.123  29.656  1.00  0.00     0.010 A 
ATOM     44  C   UNL A   1      39.770  29.030  27.462  1.00  0.00     0.010 A 
ATOM     45  C   UNL A   1      40.114  28.485  28.708  1.00  0.00    -0.014 A 
BRANCH  45  46
ATOM     46  C   UNL A   1      41.472  28.004  28.889  1.00  0.00     0.031 A 
ATOM     47  C   UNL A   1      41.684  26.678  28.237  1.00  0.00     0.074 A 
ATOM     48  C   UNL A   1      42.435  28.836  29.334  1.00  0.00     0.049 A 
ATOM     49  N   UNL A   1      42.256  25.622  28.711  1.00  0.00    -0.248 NA
ATOM     50  C   UNL A   1      41.022  26.450  26.930  1.00  0.00     0.031 C 
ATOM     51  C   UNL A   1      42.277  30.238  29.736  1.00  0.00     0.029 A 
ATOM     52  N   UNL A   1      43.784  28.672  29.330  1.00  0.00    -0.354 N 
ATOM     53  C   UNL A   1      42.217  24.684  27.682  1.00  0.00     0.074 A 
ATOM     54  C   UNL A   1      41.278  25.165  26.712  1.00  0.00     0.031 C 
ATOM     55  C   UNL A   1      43.477  30.854  29.662  1.00  0.00     0.029 A 
ATOM     56  C   UNL A   1      44.490  29.875  29.309  1.00  0.00     0.049 A 
ATOM     57  H   UNL A   1      44.221  27.789  29.341  1.00  0.00     0.167 HD
ATOM     58  C   UNL A   1      43.161  23.715  27.566  1.00  0.00     0.034 A 
ATOM     59  C   UNL A   1      45.780  30.058  28.915  1.00  0.00     0.034 A 
ATOM     60  C   UNL A   1      43.823  23.478  28.820  1.00  0.00     0.049 A 
ATOM     61  C   UNL A   1      46.428  28.722  28.982  1.00  0.00     0.074 A 
ATOM     62  C   UNL A   1      43.395  23.065  30.065  1.00  0.00     0.029 A 
ATOM     63  N   UNL A   1      45.054  24.061  29.014  1.00  0.00    -0.354 N 
ATOM     64  N   UNL A   1      46.563  28.038  30.087  1.00  0.00    -0.248 NA
ATOM     65  C   UNL A   1      46.501  27.934  27.759  1.00  0.00     0.031 C 
ATOM     66  C   UNL A   1      44.155  23.838  30.989  1.00  0.00     0.029 A 
ATOM     67  C   UNL A   1      45.051  24.628  30.264  1.00  0.00     0.049 A 
ATOM     68  H   UNL A   1      45.801  24.069  28.373  1.00  0.00     0.167 HD
ATOM     69  C   UNL A   1      46.304  26.722  29.731  1.00  0.00     0.074 A 
ATOM     70  C   UNL A   1      46.381  26.705  28.271  1.00  0.00     0.031 C 
ATOM     71  C   UNL A   1      45.768  25.838  30.623  1.00  0.00     0.034 A 
BRANCH  58  72
ATOM     72  C   UNL A   1      43.718  23.257  26.242  1.00  0.00     0.023 A 
ATOM     73  C   UNL A   1      43.706  21.878  25.969  1.00  0.00     0.031 A 
ATOM     74  C   UNL A   1      44.504  24.054  25.374  1.00  0.00     0.131 A 
ATOM     75  C   UNL A   1      44.493  21.347  24.933  1.00  0.00     0.055 A 
ATOM     76  C   UNL A   1      45.228  23.529  24.304  1.00  0.00     0.041 A 
ATOM     77  F   UNL A   1      44.698  25.364  25.570  1.00  0.00    -0.206 F 
ATOM     78  C   UNL A   1      45.249  22.163  24.094  1.00  0.00     0.022 A 
BRANCH  75  79
ATOM     79  S   UNL A   1      44.633  19.548  24.796  1.00  0.00     0.124 S 
ATOM     80  O   UNL A   1      44.505  19.350  23.357  1.00  0.00    -0.237 OA
ATOM     81  O   UNL A   1      45.953  19.304  25.366  1.00  0.00    -0.237 OA
ATOM     82  O   UNL A   1      43.511  19.060  25.596  1.00  0.00    -0.744 OA
ENDBRANCH  75  79
ENDBRANCH  58  72
BRANCH  59  83
ATOM     83  C   UNL A   1      46.354  31.233  28.186  1.00  0.00     0.023 A 
ATOM     84  C   UNL A   1      45.661  31.894  27.148  1.00  0.00     0.031 A 
ATOM     85  C   UNL A   1      47.528  31.872  28.652  1.00  0.00     0.131 A 
ATOM     86  C   UNL A   1      46.149  33.116  26.620  1.00  0.00     0.055 A 
ATOM     87  C   UNL A   1      48.015  33.068  28.115  1.00  0.00     0.041 A 
ATOM     88  F   UNL A   1      48.209  31.407  29.710  1.00  0.00    -0.206 F 
ATOM     89  C   UNL A   1      47.322  33.701  27.101  1.00  0.00     0.022 A 
BRANCH  86  90
ATOM     90  S   UNL A   1      45.195  34.035  25.367  1.00  0.00     0.124 S 
ATOM     91  O   UNL A   1      46.242  34.757  24.653  1.00  0.00    -0.237 OA
ATOM     92  O   UNL A   1      44.528  32.967  24.632  1.00  0.00    -0.237 OA
ATOM     93  O   UNL A   1      44.302  34.875  26.167  1.00  0.00    -0.744 OA
ENDBRANCH  86  90
ENDBRANCH  59  83
BRANCH  71  94
ATOM     94  C   UNL A   1      45.715  26.223  32.087  1.00  0.00     0.023 A 
ATOM     95  C   UNL A   1      44.595  26.801  32.730  1.00  0.00     0.031 A 
ATOM     96  C   UNL A   1      46.782  25.792  32.892  1.00  0.00     0.131 A 
ATOM     97  C   UNL A   1      44.578  26.921  34.135  1.00  0.00     0.055 A 
ATOM     98  C   UNL A   1      46.749  25.888  34.281  1.00  0.00     0.041 A 
ATOM     99  F   UNL A   1      47.855  25.202  32.336  1.00  0.00    -0.206 F 
ATOM    100  C   UNL A   1      45.645  26.451  34.908  1.00  0.00     0.022 A 
BRANCH  97 101
ATOM    101  S   UNL A   1      43.138  27.647  34.991  1.00  0.00     0.124 S 
ATOM    102  O   UNL A   1      43.268  29.072  34.706  1.00  0.00    -0.237 OA
ATOM    103  O   UNL A   1      42.008  26.967  34.368  1.00  0.00    -0.237 OA
ATOM    104  O   UNL A   1      43.358  27.288  36.395  1.00  0.00    -0.744 OA
ENDBRANCH  97 101
ENDBRANCH  71  94
ENDBRANCH  45  46
ENDBRANCH  38  40
ENDBRANCH  37  38
ENDBRANCH  36  37
ENDBRANCH   1  36
TORSDOF 20
ENDMDL
MODEL 3
REMARK VINA RESULT:     -12.1      3.631      7.235
REMARK SMILES Cc1coc2c(C)c3oc(=O)c(CC(=O)NCC(=O)N[C@H](C(=O)OCCOC(=O)c4ccc(-c5c6nc(c(-c7cc(S(=O)(=O)[O-])ccc7F)c7ccc([nH]7)c(-c7cc(S(=O)(=O)[O-])ccc7F)c7nc(c(-c8cc(S(=O)(=O)[O-])ccc8F)c8ccc5[nH]8)C=C7)C=C6)cc4)C(C)C)c(C)c3cc12
REMARK SMILES IDX 25 1 24 2 22 3 23 4 21 5 20 6 18 7 19 8 17 10 16 11 14 12
REMARK SMILES IDX 15 13 13 15 12 16 1 17 2 18 3 19 100 20 4 21 5 22 99 23 6 24
REMARK SMILES IDX 98 25 7 26 8 27 96 28 9 29 97 30 10 31 11 32 93 33 94 34
REMARK SMILES IDX 95 35 26 36 27 37 28 38 29 39 30 40 31 41 92 42 32 43 91 44
REMARK SMILES IDX 33 45 34 46 35 47 85 48 36 49 90 50 84 51 86 52 37 53 89 54
REMARK SMILES IDX 83 55 82 56 38 58 70 59 50 60 69 61 51 62 54 63 68 64 87 65
REMARK SMILES IDX 52 66 53 67 67 69 88 70 55 71 39 72 40 73 48 74 41 75 47 76
REMARK SMILES IDX 49 77 46 78 42 79 43 80 44 81 45 82 71 83 72 84 80 85 73 86
REMARK SMILES IDX 79 87 81 88 78 89 74 90 75 91 76 92 77 93 56 94 57 95 65 96
REMARK SMILES IDX 58 97 64 98 66 99 63 100 59 101 60 102 61 103 62 104
REMARK H PARENT 20 9 16 14 86 57 54 68
REMARK Flexibility Score: inf
ROOT
ATOM      1  C   UNL A   1      32.194  29.221  26.031  1.00  0.00     0.274 C 
ENDROOT
BRANCH   1   2
ATOM      2  O   UNL A   1      31.303  28.268  26.652  1.00  0.00    -0.461 OA
BRANCH   2   3
ATOM      3  C   UNL A   1      30.995  27.112  25.961  1.00  0.00     0.329 C 
ATOM      4  O   UNL A   1      30.800  26.033  26.463  1.00  0.00    -0.250 OA
BRANCH   3   5
ATOM      5  C   UNL A   1      31.154  27.362  24.433  1.00  0.00     0.194 C 
BRANCH   5   6
ATOM      6  N   UNL A   1      32.054  26.504  23.599  1.00  0.00    -0.341 N 
ATOM      7  C   UNL A   1      31.899  25.246  23.030  1.00  0.00     0.240 C 
ATOM      8  O   UNL A   1      32.572  25.100  21.992  1.00  0.00    -0.273 OA
ATOM      9  H   UNL A   1      32.931  26.913  23.417  1.00  0.00     0.164 HD
BRANCH   7  10
ATOM     10  C   UNL A   1      30.848  24.008  23.423  1.00  0.00     0.216 C 
BRANCH  10  11
ATOM     11  N   UNL A   1      30.442  23.532  24.804  1.00  0.00    -0.347 N 
ATOM     12  C   UNL A   1      30.761  22.688  25.836  1.00  0.00     0.225 C 
ATOM     13  O   UNL A   1      29.889  22.703  26.723  1.00  0.00    -0.275 OA
ATOM     14  H   UNL A   1      29.628  24.023  25.060  1.00  0.00     0.164 HD
BRANCH  12  15
ATOM     15  C   UNL A   1      32.034  21.781  26.126  1.00  0.00     0.143 C 
BRANCH  15  16
ATOM     16  C   UNL A   1      33.468  22.012  25.557  1.00  0.00     0.051 A 
ATOM     17  C   UNL A   1      39.540  25.306  27.211  1.00  0.00     0.048 C 
ATOM     18  C   UNL A   1      39.326  23.949  26.654  1.00  0.00    -0.005 A 
ATOM     19  C   UNL A   1      40.288  22.964  26.546  1.00  0.00     0.199 A 
ATOM     20  C   UNL A   1      38.115  23.374  26.136  1.00  0.00     0.024 A 
ATOM     21  O   UNL A   1      39.762  21.828  26.032  1.00  0.00    -0.464 OA
ATOM     22  C   UNL A   1      38.446  22.073  25.776  1.00  0.00     0.140 A 
ATOM     23  C   UNL A   1      36.761  23.783  25.984  1.00  0.00     0.024 A 
ATOM     24  C   UNL A   1      37.549  21.141  25.251  1.00  0.00     0.036 A 
ATOM     25  C   UNL A   1      35.784  22.888  25.471  1.00  0.00     0.022 A 
ATOM     26  C   UNL A   1      37.946  19.717  25.013  1.00  0.00     0.052 C 
ATOM     27  C   UNL A   1      36.232  21.630  25.059  1.00  0.00     0.145 A 
ATOM     28  C   UNL A   1      34.294  23.098  25.619  1.00  0.00    -0.029 A 
ATOM     29  O   UNL A   1      35.301  20.722  24.515  1.00  0.00    -0.422 OA
ATOM     30  C   UNL A   1      33.857  24.471  26.077  1.00  0.00     0.046 C 
ATOM     31  C   UNL A   1      33.937  20.865  24.716  1.00  0.00     0.340 A 
ATOM     32  O   UNL A   1      33.161  20.029  24.263  1.00  0.00    -0.246 OA
ENDBRANCH  15  16
ENDBRANCH  12  15
ENDBRANCH  10  11
ENDBRANCH   7  10
ENDBRANCH   5   6
BRANCH   5  33
ATOM     33  C   UNL A   1      29.894  27.481  23.646  1.00  0.00     0.017 C 
ATOM     34  C   UNL A   1      28.642  26.770  24.033  1.00  0.00     0.010 C 
ATOM     35  C   UNL A   1      29.808  28.955  23.299  1.00  0.00     0.010 C 
ENDBRANCH   5  33
ENDBRANCH   3   5
ENDBRANCH   2   3
ENDBRANCH   1   2
BRANCH   1  36
ATOM     36  C   UNL A   1      32.086  30.644  26.569  1.00  0.00     0.275 C 
BRANCH  36  37
ATOM     37  O   UNL A   1      33.180  30.949  27.425  1.00  0.00    -0.458 OA
BRANCH  37  38
ATOM     38  C   UNL A   1      33.154  32.245  27.788  1.00  0.00     0.338 C 
ATOM     39  O   UNL A   1      32.320  33.083  27.476  1.00  0.00    -0.246 OA
BRANCH  38  40
ATOM     40  C   UNL A   1      34.376  32.623  28.468  1.00  0.00     0.060 A 
ATOM     41  C   UNL A   1      35.403  33.244  27.748  1.00  0.00     0.016 A 
ATOM     42  C   UNL A   1      34.593  31.909  29.642  1.00  0.00     0.016 A 
ATOM     43  C   UNL A   1      36.704  32.983  28.110  1.00  0.00     0.010 A 
ATOM     44  C   UNL A   1      35.889  31.676  30.018  1.00  0.00     0.010 A 
ATOM     45  C   UNL A   1      36.932  32.161  29.216  1.00  0.00    -0.014 A 
BRANCH  45  46
ATOM     46  C   UNL A   1      38.287  32.060  29.727  1.00  0.00     0.031 A 
ATOM     47  C   UNL A   1      38.873  30.708  29.487  1.00  0.00     0.074 A 
ATOM     48  C   UNL A   1      38.965  33.169  30.083  1.00  0.00     0.049 A 
ATOM     49  N   UNL A   1      39.519  29.946  30.305  1.00  0.00    -0.248 NA
ATOM     50  C   UNL A   1      38.552  30.048  28.199  1.00  0.00     0.031 C 
ATOM     51  C   UNL A   1      38.470  34.550  30.073  1.00  0.00     0.029 A 
ATOM     52  N   UNL A   1      40.292  33.325  30.333  1.00  0.00    -0.354 N 
ATOM     53  C   UNL A   1      39.870  28.819  29.565  1.00  0.00     0.074 A 
ATOM     54  C   UNL A   1      39.082  28.840  28.369  1.00  0.00     0.031 C 
ATOM     55  C   UNL A   1      39.523  35.395  30.028  1.00  0.00     0.029 A 
ATOM     56  C   UNL A   1      40.751  34.623  30.108  1.00  0.00     0.049 A 
ATOM     57  H   UNL A   1      40.873  32.593  30.644  1.00  0.00     0.167 HD
ATOM     58  C   UNL A   1      40.980  28.093  29.857  1.00  0.00     0.034 A 
ATOM     59  C   UNL A   1      42.038  35.007  29.886  1.00  0.00     0.034 A 
ATOM     60  C   UNL A   1      41.398  28.302  31.217  1.00  0.00     0.049 A 
ATOM     61  C   UNL A   1      42.895  33.906  30.402  1.00  0.00     0.074 A 
ATOM     62  C   UNL A   1      40.804  28.090  32.444  1.00  0.00     0.029 A 
ATOM     63  N   UNL A   1      42.432  29.182  31.441  1.00  0.00    -0.354 N 
ATOM     64  N   UNL A   1      42.920  33.536  31.655  1.00  0.00    -0.248 NA
ATOM     65  C   UNL A   1      43.365  32.904  29.456  1.00  0.00     0.031 C 
ATOM     66  C   UNL A   1      41.197  29.204  33.239  1.00  0.00     0.029 A 
ATOM     67  C   UNL A   1      42.063  29.997  32.481  1.00  0.00     0.049 A 
ATOM     68  H   UNL A   1      43.281  29.219  30.945  1.00  0.00     0.167 HD
ATOM     69  C   UNL A   1      42.989  32.151  31.620  1.00  0.00     0.074 A 
ATOM     70  C   UNL A   1      43.372  31.827  30.247  1.00  0.00     0.031 C 
ATOM     71  C   UNL A   1      42.452  31.389  32.618  1.00  0.00     0.034 A 
BRANCH  58  72
ATOM     72  C   UNL A   1      41.876  27.493  28.803  1.00  0.00     0.023 A 
ATOM     73  C   UNL A   1      42.277  26.156  28.970  1.00  0.00     0.031 A 
ATOM     74  C   UNL A   1      42.575  28.232  27.817  1.00  0.00     0.131 A 
ATOM     75  C   UNL A   1      43.356  25.636  28.235  1.00  0.00     0.055 A 
ATOM     76  C   UNL A   1      43.599  27.689  27.042  1.00  0.00     0.041 A 
ATOM     77  F   UNL A   1      42.379  29.541  27.618  1.00  0.00    -0.206 F 
ATOM     78  C   UNL A   1      44.015  26.390  27.267  1.00  0.00     0.022 A 
BRANCH  75  79
ATOM     79  S   UNL A   1      43.984  23.997  28.676  1.00  0.00     0.124 S 
ATOM     80  O   UNL A   1      45.322  24.314  29.161  1.00  0.00    -0.237 OA
ATOM     81  O   UNL A   1      43.019  23.563  29.679  1.00  0.00    -0.237 OA
ATOM     82  O   UNL A   1      43.937  23.266  27.411  1.00  0.00    -0.744 OA
ENDBRANCH  75  79
ENDBRANCH  58  72
BRANCH  59  83
ATOM     83  C   UNL A   1      42.524  36.090  28.973  1.00  0.00     0.023 A 
ATOM     84  C   UNL A   1      43.623  36.917  29.297  1.00  0.00     0.031 A 
ATOM     85  C   UNL A   1      42.041  36.192  27.647  1.00  0.00     0.131 A 
ATOM     86  C   UNL A   1      44.174  37.794  28.329  1.00  0.00     0.055 A 
ATOM     87  C   UNL A   1      42.577  37.072  26.702  1.00  0.00     0.041 A 
ATOM     88  F   UNL A   1      41.081  35.377  27.184  1.00  0.00    -0.206 F 
ATOM     89  C   UNL A   1      43.653  37.872  27.036  1.00  0.00     0.022 A 
BRANCH  86  90
ATOM     90  S   UNL A   1      45.666  38.773  28.703  1.00  0.00     0.124 S 
ATOM     91  O   UNL A   1      46.725  37.945  28.136  1.00  0.00    -0.237 OA
ATOM     92  O   UNL A   1      45.395  40.034  28.023  1.00  0.00    -0.237 OA
ATOM     93  O   UNL A   1      45.662  38.854  30.164  1.00  0.00    -0.744 OA
ENDBRANCH  86  90
ENDBRANCH  59  83
BRANCH  71  94
ATOM     94  C   UNL A   1      42.024  32.068  33.903  1.00  0.00     0.023 A 
ATOM     95  C   UNL A   1      40.772  32.693  34.107  1.00  0.00     0.031 A 
ATOM     96  C   UNL A   1      42.856  31.886  35.020  1.00  0.00     0.131 A 
ATOM     97  C   UNL A   1      40.396  33.103  35.403  1.00  0.00     0.055 A 
ATOM     98  C   UNL A   1      42.470  32.269  36.302  1.00  0.00     0.041 A 
ATOM     99  F   UNL A   1      44.041  31.265  34.889  1.00  0.00    -0.206 F 
ATOM    100  C   UNL A   1      41.236  32.877  36.499  1.00  0.00     0.022 A 
BRANCH  97 101
ATOM    101  S   UNL A   1      38.778  33.896  35.698  1.00  0.00     0.124 S 
ATOM    102  O   UNL A   1      37.832  32.925  35.158  1.00  0.00    -0.237 OA
ATOM    103  O   UNL A   1      38.759  34.076  37.145  1.00  0.00    -0.237 OA
ATOM    104  O   UNL A   1      38.864  35.144  34.935  1.00  0.00    -0.744 OA
ENDBRANCH  97 101
ENDBRANCH  71  94
ENDBRANCH  45  46
ENDBRANCH  38  40
ENDBRANCH  37  38
ENDBRANCH  36  37
ENDBRANCH   1  36
TORSDOF 20
ENDMDL
