MODEL 1
REMARK VINA RESULT:     -10.8      0.000      0.000
REMARK SMILES C=CCN(CC(=O)OCCOC(=O)c1ccc(-c2c3nc(c(-c4cc(S(=O)(=O)[O-])ccc4F)c4ccc([nH]4)c(-c4cc(S(=O)(=O)[O-])ccc4F)c4nc(c(-c5cc(S(=O)(=O)[O-])ccc5F)c5ccc2[nH]5)C=C4)C=C3)cc1)C(=O)[C@@H]1Oc2ccccc2O[C@H]1C
REMARK SMILES IDX 9 1 8 2 6 3 7 4 5 5 4 6 3 7 2 8 1 9 77 10 78 11 79 12 80 13
REMARK SMILES IDX 88 14 81 15 87 16 89 17 82 18 86 19 83 20 85 21 84 22 10 23
REMARK SMILES IDX 11 24 12 25 13 26 14 27 15 28 76 29 16 30 75 31 17 32 18 33
REMARK SMILES IDX 19 34 69 35 20 36 74 37 68 38 70 39 21 40 73 41 67 42 66 43
REMARK SMILES IDX 22 45 54 46 34 47 53 48 35 49 38 50 52 51 71 52 36 53 37 54
REMARK SMILES IDX 51 56 72 57 39 58 23 59 24 60 32 61 25 62 31 63 33 64 30 65
REMARK SMILES IDX 26 66 27 67 28 68 29 69 55 70 56 71 64 72 57 73 63 74 65 75
REMARK SMILES IDX 62 76 58 77 59 78 60 79 61 80 40 81 41 82 49 83 42 84 48 85
REMARK SMILES IDX 50 86 47 87 43 88 44 89 45 90 46 91
REMARK H PARENT 70 44 38 55
REMARK Flexibility Score: inf
ROOT
ATOM      1  C   UNL A   1      35.743  19.674  24.885  1.00  0.00     0.274 C 
ENDROOT
BRANCH   1   2
ATOM      2  O   UNL A   1      34.734  20.699  24.720  1.00  0.00    -0.461 OA
BRANCH   2   3
ATOM      3  C   UNL A   1      33.445  20.297  24.889  1.00  0.00     0.325 C 
ATOM      4  O   UNL A   1      33.102  19.425  25.684  1.00  0.00    -0.250 OA
BRANCH   3   5
ATOM      5  C   UNL A   1      32.421  21.009  23.993  1.00  0.00     0.242 C 
BRANCH   5   6
ATOM      6  N   UNL A   1      31.978  22.371  24.339  1.00  0.00    -0.325 N 
BRANCH   6   7
ATOM      7  C   UNL A   1      31.601  23.199  23.207  1.00  0.00     0.147 C 
BRANCH   7   8
ATOM      8  C   UNL A   1      32.832  23.890  22.686  1.00  0.00    -0.014 C 
ATOM      9  C   UNL A   1      32.848  25.112  22.139  1.00  0.00     0.006 C 
ENDBRANCH   7   8
ENDBRANCH   6   7
BRANCH   6  10
ATOM     10  C   UNL A   1      31.456  22.594  25.620  1.00  0.00     0.268 C 
ATOM     11  O   UNL A   1      30.609  21.817  26.079  1.00  0.00    -0.270 OA
BRANCH  10  12
ATOM     12  C   UNL A   1      32.022  23.731  26.545  1.00  0.00     0.302 C 
ATOM     13  O   UNL A   1      31.262  24.937  26.612  1.00  0.00    -0.473 OA
ATOM     14  C   UNL A   1      33.528  23.892  26.205  1.00  0.00     0.221 C 
ATOM     15  C   UNL A   1      31.849  26.017  26.021  1.00  0.00     0.162 A 
ATOM     16  O   UNL A   1      34.070  25.210  26.349  1.00  0.00    -0.482 OA
ATOM     17  C   UNL A   1      34.405  22.979  27.072  1.00  0.00     0.057 C 
ATOM     18  C   UNL A   1      31.008  27.039  25.588  1.00  0.00     0.050 A 
ATOM     19  C   UNL A   1      33.213  26.110  25.800  1.00  0.00     0.161 A 
ATOM     20  C   UNL A   1      31.522  28.082  24.819  1.00  0.00     0.004 A 
ATOM     21  C   UNL A   1      33.742  27.156  25.051  1.00  0.00     0.050 A 
ATOM     22  C   UNL A   1      32.887  28.126  24.528  1.00  0.00     0.004 A 
ENDBRANCH  10  12
ENDBRANCH   6  10
ENDBRANCH   5   6
ENDBRANCH   3   5
ENDBRANCH   2   3
ENDBRANCH   1   2
BRANCH   1  23
ATOM     23  C   UNL A   1      37.180  20.200  24.701  1.00  0.00     0.275 C 
BRANCH  23  24
ATOM     24  O   UNL A   1      37.502  21.334  25.537  1.00  0.00    -0.458 OA
BRANCH  24  25
ATOM     25  C   UNL A   1      38.755  21.254  26.028  1.00  0.00     0.338 C 
ATOM     26  O   UNL A   1      39.426  20.241  26.065  1.00  0.00    -0.246 OA
BRANCH  25  27
ATOM     27  C   UNL A   1      39.338  22.488  26.530  1.00  0.00     0.060 A 
ATOM     28  C   UNL A   1      38.822  23.684  26.026  1.00  0.00     0.016 A 
ATOM     29  C   UNL A   1      40.563  22.452  27.197  1.00  0.00     0.016 A 
ATOM     30  C   UNL A   1      39.536  24.861  26.177  1.00  0.00     0.010 A 
ATOM     31  C   UNL A   1      41.266  23.643  27.379  1.00  0.00     0.010 A 
ATOM     32  C   UNL A   1      40.754  24.847  26.868  1.00  0.00    -0.014 A 
BRANCH  32  33
ATOM     33  C   UNL A   1      41.400  26.132  27.190  1.00  0.00     0.031 A 
ATOM     34  C   UNL A   1      42.774  26.466  26.708  1.00  0.00     0.074 A 
ATOM     35  C   UNL A   1      40.679  26.991  27.931  1.00  0.00     0.049 A 
ATOM     36  N   UNL A   1      43.491  27.532  26.954  1.00  0.00    -0.248 NA
ATOM     37  C   UNL A   1      43.431  25.479  25.843  1.00  0.00     0.031 C 
ATOM     38  C   UNL A   1      39.313  26.742  28.404  1.00  0.00     0.029 A 
ATOM     39  N   UNL A   1      40.981  28.231  28.415  1.00  0.00    -0.354 N 
ATOM     40  C   UNL A   1      44.693  27.347  26.279  1.00  0.00     0.074 A 
ATOM     41  C   UNL A   1      44.609  26.053  25.629  1.00  0.00     0.031 C 
ATOM     42  C   UNL A   1      38.894  27.801  29.107  1.00  0.00     0.029 A 
ATOM     43  C   UNL A   1      39.976  28.773  29.176  1.00  0.00     0.049 A 
ATOM     44  H   UNL A   1      41.834  28.690  28.236  1.00  0.00     0.167 HD
ATOM     45  C   UNL A   1      45.757  28.187  26.222  1.00  0.00     0.034 A 
ATOM     46  C   UNL A   1      39.942  29.918  29.877  1.00  0.00     0.034 A 
ATOM     47  C   UNL A   1      45.802  29.460  26.908  1.00  0.00     0.049 A 
ATOM     48  C   UNL A   1      41.148  30.804  29.840  1.00  0.00     0.074 A 
ATOM     49  C   UNL A   1      46.820  30.399  26.936  1.00  0.00     0.029 A 
ATOM     50  N   UNL A   1      44.779  29.972  27.703  1.00  0.00    -0.354 N 
ATOM     51  N   UNL A   1      42.289  30.611  29.220  1.00  0.00    -0.248 NA
ATOM     52  C   UNL A   1      41.060  32.060  30.585  1.00  0.00     0.031 C 
ATOM     53  C   UNL A   1      46.436  31.444  27.788  1.00  0.00     0.029 A 
ATOM     54  C   UNL A   1      45.152  31.193  28.246  1.00  0.00     0.049 A 
ATOM     55  H   UNL A   1      43.913  29.528  27.858  1.00  0.00     0.167 HD
ATOM     56  C   UNL A   1      43.062  31.729  29.497  1.00  0.00     0.074 A 
ATOM     57  C   UNL A   1      42.244  32.599  30.325  1.00  0.00     0.031 C 
ATOM     58  C   UNL A   1      44.328  32.017  29.102  1.00  0.00     0.034 A 
BRANCH  45  59
ATOM     59  C   UNL A   1      46.970  27.719  25.450  1.00  0.00     0.023 A 
ATOM     60  C   UNL A   1      47.164  28.042  24.094  1.00  0.00     0.031 A 
ATOM     61  C   UNL A   1      47.933  26.906  26.074  1.00  0.00     0.131 A 
ATOM     62  C   UNL A   1      48.257  27.506  23.393  1.00  0.00     0.055 A 
ATOM     63  C   UNL A   1      49.054  26.429  25.388  1.00  0.00     0.041 A 
ATOM     64  F   UNL A   1      47.795  26.545  27.359  1.00  0.00    -0.206 F 
ATOM     65  C   UNL A   1      49.214  26.716  24.037  1.00  0.00     0.022 A 
BRANCH  62  66
ATOM     66  S   UNL A   1      48.348  27.744  21.596  1.00  0.00     0.124 S 
ATOM     67  O   UNL A   1      49.426  28.723  21.479  1.00  0.00    -0.237 OA
ATOM     68  O   UNL A   1      48.648  26.401  21.115  1.00  0.00    -0.237 OA
ATOM     69  O   UNL A   1      47.021  28.248  21.249  1.00  0.00    -0.744 OA
ENDBRANCH  62  66
ENDBRANCH  45  59
BRANCH  46  70
ATOM     70  C   UNL A   1      38.736  30.244  30.678  1.00  0.00     0.023 A 
ATOM     71  C   UNL A   1      37.729  31.069  30.163  1.00  0.00     0.031 A 
ATOM     72  C   UNL A   1      38.546  29.668  31.949  1.00  0.00     0.131 A 
ATOM     73  C   UNL A   1      36.570  31.303  30.920  1.00  0.00     0.055 A 
ATOM     74  C   UNL A   1      37.379  29.879  32.682  1.00  0.00     0.041 A 
ATOM     75  F   UNL A   1      39.476  28.852  32.469  1.00  0.00    -0.206 F 
ATOM     76  C   UNL A   1      36.384  30.704  32.170  1.00  0.00     0.022 A 
BRANCH  73  77
ATOM     77  S   UNL A   1      35.307  32.416  30.248  1.00  0.00     0.124 S 
ATOM     78  O   UNL A   1      34.386  32.537  31.372  1.00  0.00    -0.237 OA
ATOM     79  O   UNL A   1      36.089  33.605  29.927  1.00  0.00    -0.237 OA
ATOM     80  O   UNL A   1      34.789  31.684  29.093  1.00  0.00    -0.744 OA
ENDBRANCH  73  77
ENDBRANCH  46  70
BRANCH  58  81
ATOM     81  C   UNL A   1      44.871  33.339  29.569  1.00  0.00     0.023 A 
ATOM     82  C   UNL A   1      44.702  34.506  28.804  1.00  0.00     0.031 A 
ATOM     83  C   UNL A   1      45.622  33.418  30.753  1.00  0.00     0.131 A 
ATOM     84  C   UNL A   1      45.334  35.694  29.200  1.00  0.00     0.055 A 
ATOM     85  C   UNL A   1      46.206  34.615  31.168  1.00  0.00     0.041 A 
ATOM     86  F   UNL A   1      45.815  32.328  31.513  1.00  0.00    -0.206 F 
ATOM     87  C   UNL A   1      46.076  35.758  30.383  1.00  0.00     0.022 A 
BRANCH  84  88
ATOM     88  S   UNL A   1      45.256  37.129  28.095  1.00  0.00     0.124 S 
ATOM     89  O   UNL A   1      46.641  37.241  27.645  1.00  0.00    -0.237 OA
ATOM     90  O   UNL A   1      44.292  36.698  27.088  1.00  0.00    -0.237 OA
ATOM     91  O   UNL A   1      44.800  38.209  28.966  1.00  0.00    -0.744 OA
ENDBRANCH  84  88
ENDBRANCH  58  81
ENDBRANCH  32  33
ENDBRANCH  25  27
ENDBRANCH  24  25
ENDBRANCH  23  24
ENDBRANCH   1  23
TORSDOF 19
ENDMDL
MODEL 2
REMARK VINA RESULT:     -10.8      0.991      7.729
REMARK SMILES C=CCN(CC(=O)OCCOC(=O)c1ccc(-c2c3nc(c(-c4cc(S(=O)(=O)[O-])ccc4F)c4ccc([nH]4)c(-c4cc(S(=O)(=O)[O-])ccc4F)c4nc(c(-c5cc(S(=O)(=O)[O-])ccc5F)c5ccc2[nH]5)C=C4)C=C3)cc1)C(=O)[C@@H]1Oc2ccccc2O[C@H]1C
REMARK SMILES IDX 9 1 8 2 6 3 7 4 5 5 4 6 3 7 2 8 1 9 77 10 78 11 79 12 80 13
REMARK SMILES IDX 88 14 81 15 87 16 89 17 82 18 86 19 83 20 85 21 84 22 10 23
REMARK SMILES IDX 11 24 12 25 13 26 14 27 15 28 76 29 16 30 75 31 17 32 18 33
REMARK SMILES IDX 19 34 69 35 20 36 74 37 68 38 70 39 21 40 73 41 67 42 66 43
REMARK SMILES IDX 22 45 54 46 34 47 53 48 35 49 38 50 52 51 71 52 36 53 37 54
REMARK SMILES IDX 51 56 72 57 39 58 23 59 24 60 32 61 25 62 31 63 33 64 30 65
REMARK SMILES IDX 26 66 27 67 28 68 29 69 55 70 56 71 64 72 57 73 63 74 65 75
REMARK SMILES IDX 62 76 58 77 59 78 60 79 61 80 40 81 41 82 49 83 42 84 48 85
REMARK SMILES IDX 50 86 47 87 43 88 44 89 45 90 46 91
REMARK H PARENT 70 44 38 55
REMARK Flexibility Score: inf
ROOT
ATOM      1  C   UNL A   1      35.616  19.975  24.977  1.00  0.00     0.274 C 
ENDROOT
BRANCH   1   2
ATOM      2  O   UNL A   1      34.779  21.120  24.689  1.00  0.00    -0.461 OA
BRANCH   2   3
ATOM      3  C   UNL A   1      33.450  20.864  24.541  1.00  0.00     0.325 C 
ATOM      4  O   UNL A   1      32.930  19.785  24.817  1.00  0.00    -0.250 OA
BRANCH   3   5
ATOM      5  C   UNL A   1      32.623  22.030  23.982  1.00  0.00     0.242 C 
BRANCH   5   6
ATOM      6  N   UNL A   1      33.040  23.415  24.262  1.00  0.00    -0.325 N 
BRANCH   6   7
ATOM      7  C   UNL A   1      33.160  23.747  25.670  1.00  0.00     0.147 C 
BRANCH   7   8
ATOM      8  C   UNL A   1      31.816  23.569  26.323  1.00  0.00    -0.014 C 
ATOM      9  C   UNL A   1      30.788  24.417  26.197  1.00  0.00     0.006 C 
ENDBRANCH   7   8
ENDBRANCH   6   7
BRANCH   6  10
ATOM     10  C   UNL A   1      33.767  24.101  23.279  1.00  0.00     0.268 C 
ATOM     11  O   UNL A   1      34.458  23.463  22.474  1.00  0.00    -0.270 OA
BRANCH  10  12
ATOM     12  C   UNL A   1      33.620  25.653  23.090  1.00  0.00     0.302 C 
ATOM     13  O   UNL A   1      34.215  26.479  24.091  1.00  0.00    -0.473 OA
ATOM     14  C   UNL A   1      32.126  25.937  22.773  1.00  0.00     0.221 C 
ATOM     15  C   UNL A   1      33.329  27.144  24.886  1.00  0.00     0.162 A 
ATOM     16  O   UNL A   1      31.612  27.193  23.231  1.00  0.00    -0.482 OA
ATOM     17  C   UNL A   1      31.851  25.894  21.264  1.00  0.00     0.057 C 
ATOM     18  C   UNL A   1      33.773  27.525  26.150  1.00  0.00     0.050 A 
ATOM     19  C   UNL A   1      32.024  27.408  24.508  1.00  0.00     0.161 A 
ATOM     20  C   UNL A   1      32.869  28.045  27.075  1.00  0.00     0.004 A 
ATOM     21  C   UNL A   1      31.116  27.944  25.415  1.00  0.00     0.050 A 
ATOM     22  C   UNL A   1      31.533  28.230  26.715  1.00  0.00     0.004 A 
ENDBRANCH  10  12
ENDBRANCH   6  10
ENDBRANCH   5   6
ENDBRANCH   3   5
ENDBRANCH   2   3
ENDBRANCH   1   2
BRANCH   1  23
ATOM     23  C   UNL A   1      37.123  20.294  24.918  1.00  0.00     0.275 C 
BRANCH  23  24
ATOM     24  O   UNL A   1      37.508  21.458  25.682  1.00  0.00    -0.458 OA
BRANCH  24  25
ATOM     25  C   UNL A   1      38.800  21.399  26.066  1.00  0.00     0.338 C 
ATOM     26  O   UNL A   1      39.511  20.418  25.970  1.00  0.00    -0.246 OA
BRANCH  25  27
ATOM     27  C   UNL A   1      39.371  22.616  26.621  1.00  0.00     0.060 A 
ATOM     28  C   UNL A   1      38.997  23.821  26.022  1.00  0.00     0.016 A 
ATOM     29  C   UNL A   1      40.485  22.538  27.457  1.00  0.00     0.016 A 
ATOM     30  C   UNL A   1      39.745  24.965  26.249  1.00  0.00     0.010 A 
ATOM     31  C   UNL A   1      41.218  23.697  27.713  1.00  0.00     0.010 A 
ATOM     32  C   UNL A   1      40.849  24.909  27.108  1.00  0.00    -0.014 A 
BRANCH  32  33
ATOM     33  C   UNL A   1      41.512  26.169  27.491  1.00  0.00     0.031 A 
ATOM     34  C   UNL A   1      40.829  27.195  28.335  1.00  0.00     0.074 A 
ATOM     35  C   UNL A   1      42.771  26.336  27.049  1.00  0.00     0.049 A 
ATOM     36  N   UNL A   1      41.266  28.370  28.708  1.00  0.00    -0.248 NA
ATOM     37  C   UNL A   1      39.484  26.864  28.820  1.00  0.00     0.031 C 
ATOM     38  C   UNL A   1      43.512  25.354  26.251  1.00  0.00     0.029 A 
ATOM     39  N   UNL A   1      43.645  27.374  27.200  1.00  0.00    -0.354 N 
ATOM     40  C   UNL A   1      40.247  28.931  29.471  1.00  0.00     0.074 A 
ATOM     41  C   UNL A   1      39.163  27.967  29.488  1.00  0.00     0.031 C 
ATOM     42  C   UNL A   1      44.732  25.837  25.986  1.00  0.00     0.029 A 
ATOM     43  C   UNL A   1      44.837  27.175  26.550  1.00  0.00     0.049 A 
ATOM     44  H   UNL A   1      43.440  28.183  27.723  1.00  0.00     0.167 HD
ATOM     45  C   UNL A   1      40.233  30.139  30.088  1.00  0.00     0.034 A 
ATOM     46  C   UNL A   1      45.889  27.995  26.402  1.00  0.00     0.034 A 
ATOM     47  C   UNL A   1      41.333  31.078  30.022  1.00  0.00     0.049 A 
ATOM     48  C   UNL A   1      45.830  29.344  27.050  1.00  0.00     0.074 A 
ATOM     49  C   UNL A   1      41.441  32.334  30.596  1.00  0.00     0.029 A 
ATOM     50  N   UNL A   1      42.520  30.864  29.326  1.00  0.00    -0.354 N 
ATOM     51  N   UNL A   1      44.853  29.876  27.748  1.00  0.00    -0.248 NA
ATOM     52  C   UNL A   1      47.009  30.196  26.897  1.00  0.00     0.031 C 
ATOM     53  C   UNL A   1      42.663  32.897  30.201  1.00  0.00     0.029 A 
ATOM     54  C   UNL A   1      43.350  31.971  29.431  1.00  0.00     0.049 A 
ATOM     55  H   UNL A   1      42.739  30.042  28.829  1.00  0.00     0.167 HD
ATOM     56  C   UNL A   1      45.303  31.132  28.127  1.00  0.00     0.074 A 
ATOM     57  C   UNL A   1      46.648  31.266  27.592  1.00  0.00     0.031 C 
ATOM     58  C   UNL A   1      44.669  32.089  28.852  1.00  0.00     0.034 A 
BRANCH  45  59
ATOM     59  C   UNL A   1      38.970  30.530  30.820  1.00  0.00     0.023 A 
ATOM     60  C   UNL A   1      37.943  31.266  30.201  1.00  0.00     0.031 A 
ATOM     61  C   UNL A   1      38.805  30.188  32.175  1.00  0.00     0.131 A 
ATOM     62  C   UNL A   1      36.831  31.688  30.949  1.00  0.00     0.055 A 
ATOM     63  C   UNL A   1      37.666  30.555  32.897  1.00  0.00     0.041 A 
ATOM     64  F   UNL A   1      39.757  29.505  32.829  1.00  0.00    -0.206 F 
ATOM     65  C   UNL A   1      36.677  31.320  32.288  1.00  0.00     0.022 A 
BRANCH  62  66
ATOM     66  S   UNL A   1      35.647  32.834  30.188  1.00  0.00     0.124 S 
ATOM     67  O   UNL A   1      34.876  31.939  29.328  1.00  0.00    -0.237 OA
ATOM     68  O   UNL A   1      34.942  33.373  31.345  1.00  0.00    -0.237 OA
ATOM     69  O   UNL A   1      36.498  33.786  29.478  1.00  0.00    -0.744 OA
ENDBRANCH  62  66
ENDBRANCH  45  59
BRANCH  46  70
ATOM     70  C   UNL A   1      47.046  27.552  25.586  1.00  0.00     0.023 A 
ATOM     71  C   UNL A   1      47.118  27.843  24.217  1.00  0.00     0.031 A 
ATOM     72  C   UNL A   1      48.135  26.893  26.187  1.00  0.00     0.131 A 
ATOM     73  C   UNL A   1      48.257  27.469  23.488  1.00  0.00     0.055 A 
ATOM     74  C   UNL A   1      49.277  26.553  25.465  1.00  0.00     0.041 A 
ATOM     75  F   UNL A   1      48.117  26.617  27.501  1.00  0.00    -0.206 F 
ATOM     76  C   UNL A   1      49.340  26.837  24.105  1.00  0.00     0.022 A 
BRANCH  73  77
ATOM     77  S   UNL A   1      48.298  27.813  21.709  1.00  0.00     0.124 S 
ATOM     78  O   UNL A   1      48.500  26.482  21.150  1.00  0.00    -0.237 OA
ATOM     79  O   UNL A   1      46.987  28.411  21.484  1.00  0.00    -0.237 OA
ATOM     80  O   UNL A   1      49.429  28.728  21.566  1.00  0.00    -0.744 OA
ENDBRANCH  73  77
ENDBRANCH  46  70
BRANCH  58  81
ATOM     81  C   UNL A   1      45.456  33.346  29.102  1.00  0.00     0.023 A 
ATOM     82  C   UNL A   1      45.412  34.423  28.201  1.00  0.00     0.031 A 
ATOM     83  C   UNL A   1      46.310  33.436  30.214  1.00  0.00     0.131 A 
ATOM     84  C   UNL A   1      46.259  35.524  28.393  1.00  0.00     0.055 A 
ATOM     85  C   UNL A   1      47.113  34.557  30.426  1.00  0.00     0.041 A 
ATOM     86  F   UNL A   1      46.390  32.429  31.097  1.00  0.00    -0.206 F 
ATOM     87  C   UNL A   1      47.102  35.602  29.505  1.00  0.00     0.022 A 
BRANCH  84  88
ATOM     88  S   UNL A   1      46.319  36.807  27.113  1.00  0.00     0.124 S 
ATOM     89  O   UNL A   1      46.503  36.017  25.899  1.00  0.00    -0.237 OA
ATOM     90  O   UNL A   1      45.021  37.457  27.260  1.00  0.00    -0.237 OA
ATOM     91  O   UNL A   1      47.467  37.624  27.500  1.00  0.00    -0.744 OA
ENDBRANCH  84  88
ENDBRANCH  58  81
ENDBRANCH  32  33
ENDBRANCH  25  27
ENDBRANCH  24  25
ENDBRANCH  23  24
ENDBRANCH   1  23
TORSDOF 19
ENDMDL
MODEL 3
REMARK VINA RESULT:     -10.8      5.707      8.720
REMARK SMILES C=CCN(CC(=O)OCCOC(=O)c1ccc(-c2c3nc(c(-c4cc(S(=O)(=O)[O-])ccc4F)c4ccc([nH]4)c(-c4cc(S(=O)(=O)[O-])ccc4F)c4nc(c(-c5cc(S(=O)(=O)[O-])ccc5F)c5ccc2[nH]5)C=C4)C=C3)cc1)C(=O)[C@@H]1Oc2ccccc2O[C@H]1C
REMARK SMILES IDX 9 1 8 2 6 3 7 4 5 5 4 6 3 7 2 8 1 9 77 10 78 11 79 12 80 13
REMARK SMILES IDX 88 14 81 15 87 16 89 17 82 18 86 19 83 20 85 21 84 22 10 23
REMARK SMILES IDX 11 24 12 25 13 26 14 27 15 28 76 29 16 30 75 31 17 32 18 33
REMARK SMILES IDX 19 34 69 35 20 36 74 37 68 38 70 39 21 40 73 41 67 42 66 43
REMARK SMILES IDX 22 45 54 46 34 47 53 48 35 49 38 50 52 51 71 52 36 53 37 54
REMARK SMILES IDX 51 56 72 57 39 58 23 59 24 60 32 61 25 62 31 63 33 64 30 65
REMARK SMILES IDX 26 66 27 67 28 68 29 69 55 70 56 71 64 72 57 73 63 74 65 75
REMARK SMILES IDX 62 76 58 77 59 78 60 79 61 80 40 81 41 82 49 83 42 84 48 85
REMARK SMILES IDX 50 86 47 87 43 88 44 89 45 90 46 91
REMARK H PARENT 70 44 38 55
REMARK Flexibility Score: inf
ROOT
ATOM      1  C   UNL A   1      33.331  31.567  27.431  1.00  0.00     0.274 C 
ENDROOT
BRANCH   1   2
ATOM      2  O   UNL A   1      32.448  30.457  27.142  1.00  0.00    -0.461 OA
BRANCH   2   3
ATOM      3  C   UNL A   1      32.998  29.216  27.243  1.00  0.00     0.325 C 
ATOM      4  O   UNL A   1      34.208  29.012  27.315  1.00  0.00    -0.250 OA
BRANCH   3   5
ATOM      5  C   UNL A   1      31.990  28.058  27.249  1.00  0.00     0.242 C 
BRANCH   5   6
ATOM      6  N   UNL A   1      32.009  27.074  26.152  1.00  0.00    -0.325 N 
BRANCH   6   7
ATOM      7  C   UNL A   1      32.598  25.790  26.490  1.00  0.00     0.147 C 
BRANCH   7   8
ATOM      8  C   UNL A   1      33.600  25.426  25.430  1.00  0.00    -0.014 C 
ATOM      9  C   UNL A   1      34.572  24.517  25.578  1.00  0.00     0.006 C 
ENDBRANCH   7   8
ENDBRANCH   6   7
BRANCH   6  10
ATOM     10  C   UNL A   1      31.062  27.204  25.128  1.00  0.00     0.268 C 
ATOM     11  O   UNL A   1      29.982  26.606  25.216  1.00  0.00    -0.270 OA
BRANCH  10  12
ATOM     12  C   UNL A   1      31.284  28.198  23.932  1.00  0.00     0.302 C 
ATOM     13  O   UNL A   1      30.981  29.570  24.177  1.00  0.00    -0.473 OA
ATOM     14  C   UNL A   1      30.615  27.566  22.681  1.00  0.00     0.221 C 
ATOM     15  C   UNL A   1      29.883  30.042  23.519  1.00  0.00     0.162 A 
ATOM     16  O   UNL A   1      30.074  28.483  21.723  1.00  0.00    -0.482 OA
ATOM     17  C   UNL A   1      31.594  26.675  21.905  1.00  0.00     0.057 C 
ATOM     18  C   UNL A   1      29.235  31.142  24.073  1.00  0.00     0.050 A 
ATOM     19  C   UNL A   1      29.378  29.452  22.373  1.00  0.00     0.161 A 
ATOM     20  C   UNL A   1      28.010  31.560  23.555  1.00  0.00     0.004 A 
ATOM     21  C   UNL A   1      28.167  29.872  21.833  1.00  0.00     0.050 A 
ATOM     22  C   UNL A   1      27.463  30.907  22.449  1.00  0.00     0.004 A 
ENDBRANCH  10  12
ENDBRANCH   6  10
ENDBRANCH   5   6
ENDBRANCH   3   5
ENDBRANCH   2   3
ENDBRANCH   1   2
BRANCH   1  23
ATOM     23  C   UNL A   1      32.638  32.939  27.326  1.00  0.00     0.275 C 
BRANCH  23  24
ATOM     24  O   UNL A   1      32.468  33.611  28.594  1.00  0.00    -0.458 OA
BRANCH  24  25
ATOM     25  C   UNL A   1      33.468  34.483  28.835  1.00  0.00     0.338 C 
ATOM     26  O   UNL A   1      33.493  35.637  28.455  1.00  0.00    -0.246 OA
BRANCH  25  27
ATOM     27  C   UNL A   1      34.585  33.991  29.626  1.00  0.00     0.060 A 
ATOM     28  C   UNL A   1      35.868  34.259  29.143  1.00  0.00     0.016 A 
ATOM     29  C   UNL A   1      34.366  33.018  30.600  1.00  0.00     0.016 A 
ATOM     30  C   UNL A   1      36.950  33.543  29.629  1.00  0.00     0.010 A 
ATOM     31  C   UNL A   1      35.460  32.321  31.115  1.00  0.00     0.010 A 
ATOM     32  C   UNL A   1      36.751  32.582  30.629  1.00  0.00    -0.014 A 
BRANCH  32  33
ATOM     33  C   UNL A   1      37.930  31.973  31.271  1.00  0.00     0.031 A 
ATOM     34  C   UNL A   1      38.721  30.894  30.607  1.00  0.00     0.074 A 
ATOM     35  C   UNL A   1      38.261  32.453  32.482  1.00  0.00     0.049 A 
ATOM     36  N   UNL A   1      39.747  30.228  31.070  1.00  0.00    -0.248 NA
ATOM     37  C   UNL A   1      38.307  30.508  29.253  1.00  0.00     0.031 C 
ATOM     38  C   UNL A   1      37.551  33.536  33.173  1.00  0.00     0.029 A 
ATOM     39  N   UNL A   1      39.259  32.104  33.344  1.00  0.00    -0.354 N 
ATOM     40  C   UNL A   1      40.105  29.334  30.067  1.00  0.00     0.074 A 
ATOM     41  C   UNL A   1      39.169  29.535  28.978  1.00  0.00     0.031 C 
ATOM     42  C   UNL A   1      38.143  33.764  34.352  1.00  0.00     0.029 A 
ATOM     43  C   UNL A   1      39.234  32.814  34.518  1.00  0.00     0.049 A 
ATOM     44  H   UNL A   1      39.932  31.412  33.143  1.00  0.00     0.167 HD
ATOM     45  C   UNL A   1      41.121  28.434  30.074  1.00  0.00     0.034 A 
ATOM     46  C   UNL A   1      39.990  32.692  35.621  1.00  0.00     0.034 A 
ATOM     47  C   UNL A   1      42.016  28.254  31.197  1.00  0.00     0.049 A 
ATOM     48  C   UNL A   1      41.073  31.657  35.623  1.00  0.00     0.074 A 
ATOM     49  C   UNL A   1      43.078  27.375  31.332  1.00  0.00     0.029 A 
ATOM     50  N   UNL A   1      41.946  28.967  32.391  1.00  0.00    -0.354 N 
ATOM     51  N   UNL A   1      41.389  30.799  34.681  1.00  0.00    -0.248 NA
ATOM     52  C   UNL A   1      41.900  31.579  36.827  1.00  0.00     0.031 C 
ATOM     53  C   UNL A   1      43.610  27.518  32.621  1.00  0.00     0.029 A 
ATOM     54  C   UNL A   1      42.923  28.529  33.275  1.00  0.00     0.049 A 
ATOM     55  H   UNL A   1      41.295  29.681  32.582  1.00  0.00     0.167 HD
ATOM     56  C   UNL A   1      42.463  30.075  35.177  1.00  0.00     0.074 A 
ATOM     57  C   UNL A   1      42.749  30.615  36.496  1.00  0.00     0.031 C 
ATOM     58  C   UNL A   1      43.155  29.060  34.598  1.00  0.00     0.034 A 
BRANCH  45  59
ATOM     59  C   UNL A   1      41.264  27.540  28.863  1.00  0.00     0.023 A 
ATOM     60  C   UNL A   1      42.254  27.757  27.887  1.00  0.00     0.031 A 
ATOM     61  C   UNL A   1      40.371  26.471  28.664  1.00  0.00     0.131 A 
ATOM     62  C   UNL A   1      42.288  26.958  26.731  1.00  0.00     0.055 A 
ATOM     63  C   UNL A   1      40.451  25.640  27.544  1.00  0.00     0.041 A 
ATOM     64  F   UNL A   1      39.392  26.226  29.548  1.00  0.00    -0.206 F 
ATOM     65  C   UNL A   1      41.404  25.889  26.563  1.00  0.00     0.022 A 
BRANCH  62  66
ATOM     66  S   UNL A   1      43.417  27.413  25.385  1.00  0.00     0.124 S 
ATOM     67  O   UNL A   1      44.052  26.132  25.083  1.00  0.00    -0.237 OA
ATOM     68  O   UNL A   1      42.507  27.931  24.370  1.00  0.00    -0.237 OA
ATOM     69  O   UNL A   1      44.298  28.406  25.996  1.00  0.00    -0.744 OA
ENDBRANCH  62  66
ENDBRANCH  45  59
BRANCH  46  70
ATOM     70  C   UNL A   1      39.710  33.557  36.793  1.00  0.00     0.023 A 
ATOM     71  C   UNL A   1      39.041  33.055  37.916  1.00  0.00     0.031 A 
ATOM     72  C   UNL A   1      40.179  34.884  36.831  1.00  0.00     0.131 A 
ATOM     73  C   UNL A   1      38.851  33.880  39.036  1.00  0.00     0.055 A 
ATOM     74  C   UNL A   1      40.016  35.687  37.958  1.00  0.00     0.041 A 
ATOM     75  F   UNL A   1      40.847  35.396  35.785  1.00  0.00    -0.206 F 
ATOM     76  C   UNL A   1      39.345  35.187  39.068  1.00  0.00     0.022 A 
BRANCH  73  77
ATOM     77  S   UNL A   1      37.937  33.218  40.454  1.00  0.00     0.124 S 
ATOM     78  O   UNL A   1      36.650  32.887  39.854  1.00  0.00    -0.237 OA
ATOM     79  O   UNL A   1      38.769  32.088  40.852  1.00  0.00    -0.237 OA
ATOM     80  O   UNL A   1      37.917  34.336  41.396  1.00  0.00    -0.744 OA
ENDBRANCH  73  77
ENDBRANCH  46  70
BRANCH  58  81
ATOM     81  C   UNL A   1      44.289  28.500  35.412  1.00  0.00     0.023 A 
ATOM     82  C   UNL A   1      44.072  27.494  36.369  1.00  0.00     0.031 A 
ATOM     83  C   UNL A   1      45.585  29.025  35.275  1.00  0.00     0.131 A 
ATOM     84  C   UNL A   1      45.124  27.089  37.202  1.00  0.00     0.055 A 
ATOM     85  C   UNL A   1      46.639  28.581  36.073  1.00  0.00     0.041 A 
ATOM     86  F   UNL A   1      45.839  29.991  34.378  1.00  0.00    -0.206 F 
ATOM     87  C   UNL A   1      46.409  27.618  37.053  1.00  0.00     0.022 A 
BRANCH  84  88
ATOM     88  S   UNL A   1      44.766  25.933  38.552  1.00  0.00     0.124 S 
ATOM     89  O   UNL A   1      43.563  26.514  39.140  1.00  0.00    -0.237 OA
ATOM     90  O   UNL A   1      44.583  24.670  37.844  1.00  0.00    -0.237 OA
ATOM     91  O   UNL A   1      45.962  26.003  39.390  1.00  0.00    -0.744 OA
ENDBRANCH  84  88
ENDBRANCH  58  81
ENDBRANCH  32  33
ENDBRANCH  25  27
ENDBRANCH  24  25
ENDBRANCH  23  24
ENDBRANCH   1  23
TORSDOF 19
ENDMDL
