MODEL 1
REMARK VINA RESULT:     -11.8      0.000      0.000
REMARK SMILES O=C(OCCOC(=O)[C@@H]1CSCN1C(=O)c1cccc(Cl)c1)c1ccc(-c2c3nc(c(-c4cc(S(=O)(=O)[O-])ccc4F)c4ccc([nH]4)c(-c4cc(S(=O)(=O)[O-])ccc4F)c4nc(c(-c5cc(S(=O)(=O)[O-])ccc5F)c5ccc2[nH]5)C=C4)C=C3)cc1
REMARK SMILES IDX 4 1 3 2 2 3 1 4 23 5 24 6 85 7 25 8 84 9 26 10 27 11 28 12
REMARK SMILES IDX 78 13 29 14 83 15 77 16 79 17 30 18 82 19 76 20 75 21 31 23
REMARK SMILES IDX 63 24 43 25 62 26 44 27 47 28 61 29 80 30 45 31 46 32 60 34
REMARK SMILES IDX 81 35 48 36 32 37 33 38 41 39 34 40 40 41 42 42 39 43 35 44
REMARK SMILES IDX 36 45 37 46 38 47 64 48 65 49 73 50 66 51 72 52 74 53 71 54
REMARK SMILES IDX 67 55 68 56 69 57 70 58 49 59 50 60 58 61 51 62 57 63 59 64
REMARK SMILES IDX 56 65 52 66 53 67 54 68 55 69 5 70 6 71 7 72 8 73 9 74 10 75
REMARK SMILES IDX 13 76 11 77 12 78 14 79 15 80 16 81 17 82 22 83 18 84 20 85
REMARK SMILES IDX 19 86 21 87
REMARK H PARENT 79 22 47 33
REMARK Flexibility Score: inf
ROOT
ATOM      1  C   UNL A   1      31.343  31.882  26.776  1.00  0.00     0.275 C 
ENDROOT
BRANCH   1   2
ATOM      2  O   UNL A   1      32.293  32.968  26.799  1.00  0.00    -0.458 OA
BRANCH   2   3
ATOM      3  C   UNL A   1      33.021  33.492  27.816  1.00  0.00     0.338 C 
ATOM      4  O   UNL A   1      32.715  34.613  28.220  1.00  0.00    -0.246 OA
BRANCH   3   5
ATOM      5  C   UNL A   1      34.260  32.869  28.392  1.00  0.00     0.060 A 
ATOM      6  C   UNL A   1      34.339  31.641  29.048  1.00  0.00     0.016 A 
ATOM      7  C   UNL A   1      35.463  33.585  28.209  1.00  0.00     0.016 A 
ATOM      8  C   UNL A   1      35.570  31.100  29.424  1.00  0.00     0.010 A 
ATOM      9  C   UNL A   1      36.704  33.042  28.570  1.00  0.00     0.010 A 
ATOM     10  C   UNL A   1      36.760  31.790  29.187  1.00  0.00    -0.014 A 
BRANCH  10  11
ATOM     11  C   UNL A   1      38.009  31.260  29.783  1.00  0.00     0.031 A 
ATOM     12  C   UNL A   1      38.331  31.656  31.193  1.00  0.00     0.074 A 
ATOM     13  C   UNL A   1      38.749  30.342  29.130  1.00  0.00     0.049 A 
ATOM     14  N   UNL A   1      39.274  31.218  31.983  1.00  0.00    -0.248 NA
ATOM     15  C   UNL A   1      37.458  32.673  31.802  1.00  0.00     0.031 C 
ATOM     16  C   UNL A   1      38.481  29.862  27.776  1.00  0.00     0.029 A 
ATOM     17  N   UNL A   1      39.849  29.623  29.523  1.00  0.00    -0.354 N 
ATOM     18  C   UNL A   1      39.082  31.877  33.191  1.00  0.00     0.074 A 
ATOM     19  C   UNL A   1      37.993  32.807  33.002  1.00  0.00     0.031 C 
ATOM     20  C   UNL A   1      39.379  28.916  27.453  1.00  0.00     0.029 A 
ATOM     21  C   UNL A   1      40.300  28.733  28.571  1.00  0.00     0.049 A 
ATOM     22  H   UNL A   1      40.278  29.733  30.401  1.00  0.00     0.167 HD
ATOM     23  C   UNL A   1      39.729  31.690  34.366  1.00  0.00     0.034 A 
ATOM     24  C   UNL A   1      41.337  27.868  28.609  1.00  0.00     0.034 A 
ATOM     25  C   UNL A   1      40.839  30.789  34.518  1.00  0.00     0.049 A 
ATOM     26  C   UNL A   1      42.124  27.770  29.898  1.00  0.00     0.074 A 
ATOM     27  C   UNL A   1      41.633  30.572  35.628  1.00  0.00     0.029 A 
ATOM     28  N   UNL A   1      41.319  29.956  33.512  1.00  0.00    -0.354 N 
ATOM     29  N   UNL A   1      41.929  28.402  31.036  1.00  0.00    -0.248 NA
ATOM     30  C   UNL A   1      43.254  26.834  29.919  1.00  0.00     0.031 C 
ATOM     31  C   UNL A   1      42.630  29.655  35.274  1.00  0.00     0.029 A 
ATOM     32  C   UNL A   1      42.411  29.239  33.968  1.00  0.00     0.049 A 
ATOM     33  H   UNL A   1      40.937  29.888  32.606  1.00  0.00     0.167 HD
ATOM     34  C   UNL A   1      42.891  27.912  31.915  1.00  0.00     0.074 A 
ATOM     35  C   UNL A   1      43.645  26.914  31.182  1.00  0.00     0.031 C 
ATOM     36  C   UNL A   1      43.139  28.251  33.208  1.00  0.00     0.034 A 
BRANCH  23  37
ATOM     37  C   UNL A   1      39.258  32.523  35.531  1.00  0.00     0.023 A 
ATOM     38  C   UNL A   1      39.646  33.870  35.665  1.00  0.00     0.031 A 
ATOM     39  C   UNL A   1      38.508  31.946  36.568  1.00  0.00     0.131 A 
ATOM     40  C   UNL A   1      39.363  34.564  36.850  1.00  0.00     0.055 A 
ATOM     41  C   UNL A   1      38.155  32.670  37.708  1.00  0.00     0.041 A 
ATOM     42  F   UNL A   1      38.139  30.657  36.509  1.00  0.00    -0.206 F 
ATOM     43  C   UNL A   1      38.598  33.982  37.863  1.00  0.00     0.022 A 
BRANCH  40  44
ATOM     44  S   UNL A   1      40.157  36.174  37.122  1.00  0.00     0.124 S 
ATOM     45  O   UNL A   1      41.514  35.774  37.487  1.00  0.00    -0.237 OA
ATOM     46  O   UNL A   1      40.011  36.822  35.823  1.00  0.00    -0.237 OA
ATOM     47  O   UNL A   1      39.374  36.763  38.206  1.00  0.00    -0.744 OA
ENDBRANCH  40  44
ENDBRANCH  23  37
BRANCH  24  48
ATOM     48  C   UNL A   1      41.718  27.054  27.410  1.00  0.00     0.023 A 
ATOM     49  C   UNL A   1      41.489  25.668  27.350  1.00  0.00     0.031 A 
ATOM     50  C   UNL A   1      42.415  27.644  26.338  1.00  0.00     0.131 A 
ATOM     51  C   UNL A   1      42.012  24.913  26.285  1.00  0.00     0.055 A 
ATOM     52  C   UNL A   1      42.874  26.899  25.249  1.00  0.00     0.041 A 
ATOM     53  F   UNL A   1      42.675  28.961  26.337  1.00  0.00    -0.206 F 
ATOM     54  C   UNL A   1      42.692  25.521  25.228  1.00  0.00     0.022 A 
BRANCH  51  55
ATOM     55  S   UNL A   1      41.913  23.100  26.366  1.00  0.00     0.124 S 
ATOM     56  O   UNL A   1      42.557  22.711  25.117  1.00  0.00    -0.237 OA
ATOM     57  O   UNL A   1      42.654  22.811  27.589  1.00  0.00    -0.237 OA
ATOM     58  O   UNL A   1      40.475  22.841  26.433  1.00  0.00    -0.744 OA
ENDBRANCH  51  55
ENDBRANCH  24  48
BRANCH  36  59
ATOM     59  C   UNL A   1      44.244  27.500  33.909  1.00  0.00     0.023 A 
ATOM     60  C   UNL A   1      43.985  26.350  34.674  1.00  0.00     0.031 A 
ATOM     61  C   UNL A   1      45.573  27.949  33.815  1.00  0.00     0.131 A 
ATOM     62  C   UNL A   1      45.029  25.726  35.370  1.00  0.00     0.055 A 
ATOM     63  C   UNL A   1      46.619  27.280  34.450  1.00  0.00     0.041 A 
ATOM     64  F   UNL A   1      45.877  29.043  33.098  1.00  0.00    -0.206 F 
ATOM     65  C   UNL A   1      46.348  26.172  35.247  1.00  0.00     0.022 A 
BRANCH  62  66
ATOM     66  S   UNL A   1      44.623  24.390  36.525  1.00  0.00     0.124 S 
ATOM     67  O   UNL A   1      44.419  23.261  35.622  1.00  0.00    -0.237 OA
ATOM     68  O   UNL A   1      45.816  24.327  37.362  1.00  0.00    -0.237 OA
ATOM     69  O   UNL A   1      43.418  24.873  37.196  1.00  0.00    -0.744 OA
ENDBRANCH  62  66
ENDBRANCH  36  59
ENDBRANCH  10  11
ENDBRANCH   3   5
ENDBRANCH   2   3
ENDBRANCH   1   2
BRANCH   1  70
ATOM     70  C   UNL A   1      31.992  30.499  26.723  1.00  0.00     0.274 C 
BRANCH  70  71
ATOM     71  O   UNL A   1      32.175  30.074  25.368  1.00  0.00    -0.461 OA
BRANCH  71  72
ATOM     72  C   UNL A   1      32.543  28.782  25.148  1.00  0.00     0.329 C 
ATOM     73  O   UNL A   1      33.684  28.402  24.912  1.00  0.00    -0.250 OA
BRANCH  72  74
ATOM     74  C   UNL A   1      31.321  27.862  25.262  1.00  0.00     0.206 C 
ATOM     75  C   UNL A   1      31.443  26.978  26.501  1.00  0.00     0.108 C 
ATOM     76  N   UNL A   1      31.175  27.012  24.089  1.00  0.00    -0.315 N 
ATOM     77  S   UNL A   1      31.858  25.302  25.941  1.00  0.00    -0.138 SA
ATOM     78  C   UNL A   1      31.857  25.744  24.196  1.00  0.00     0.191 C 
BRANCH  76  79
ATOM     79  C   UNL A   1      30.650  27.568  22.936  1.00  0.00     0.255 C 
ATOM     80  O   UNL A   1      31.111  27.337  21.824  1.00  0.00    -0.269 OA
BRANCH  79  81
ATOM     81  C   UNL A   1      29.478  28.454  23.046  1.00  0.00     0.041 A 
ATOM     82  C   UNL A   1      28.198  27.927  23.256  1.00  0.00     0.014 A 
ATOM     83  C   UNL A   1      29.678  29.833  22.963  1.00  0.00     0.034 A 
ATOM     84  C   UNL A   1      27.098  28.781  23.289  1.00  0.00     0.002 A 
ATOM     85  C   UNL A   1      28.575  30.677  23.004  1.00  0.00     0.041 A 
ATOM     86  C   UNL A   1      27.286  30.157  23.148  1.00  0.00     0.020 A 
ATOM     87  Cl  UNL A   1      28.796  32.375  22.843  1.00  0.00    -0.084 Cl
ENDBRANCH  79  81
ENDBRANCH  76  79
ENDBRANCH  72  74
ENDBRANCH  71  72
ENDBRANCH  70  71
ENDBRANCH   1  70
TORSDOF 16
ENDMDL
MODEL 2
REMARK VINA RESULT:     -11.7      6.210     12.180
REMARK SMILES O=C(OCCOC(=O)[C@@H]1CSCN1C(=O)c1cccc(Cl)c1)c1ccc(-c2c3nc(c(-c4cc(S(=O)(=O)[O-])ccc4F)c4ccc([nH]4)c(-c4cc(S(=O)(=O)[O-])ccc4F)c4nc(c(-c5cc(S(=O)(=O)[O-])ccc5F)c5ccc2[nH]5)C=C4)C=C3)cc1
REMARK SMILES IDX 4 1 3 2 2 3 1 4 23 5 24 6 85 7 25 8 84 9 26 10 27 11 28 12
REMARK SMILES IDX 78 13 29 14 83 15 77 16 79 17 30 18 82 19 76 20 75 21 31 23
REMARK SMILES IDX 63 24 43 25 62 26 44 27 47 28 61 29 80 30 45 31 46 32 60 34
REMARK SMILES IDX 81 35 48 36 32 37 33 38 41 39 34 40 40 41 42 42 39 43 35 44
REMARK SMILES IDX 36 45 37 46 38 47 64 48 65 49 73 50 66 51 72 52 74 53 71 54
REMARK SMILES IDX 67 55 68 56 69 57 70 58 49 59 50 60 58 61 51 62 57 63 59 64
REMARK SMILES IDX 56 65 52 66 53 67 54 68 55 69 5 70 6 71 7 72 8 73 9 74 10 75
REMARK SMILES IDX 13 76 11 77 12 78 14 79 15 80 16 81 17 82 22 83 18 84 20 85
REMARK SMILES IDX 19 86 21 87
REMARK H PARENT 79 22 47 33
REMARK Flexibility Score: inf
ROOT
ATOM      1  C   UNL A   1      40.832  21.172  27.608  1.00  0.00     0.275 C 
ENDROOT
BRANCH   1   2
ATOM      2  O   UNL A   1      39.740  21.446  26.706  1.00  0.00    -0.458 OA
BRANCH   2   3
ATOM      3  C   UNL A   1      39.044  22.586  26.472  1.00  0.00     0.338 C 
ATOM      4  O   UNL A   1      38.047  22.510  25.755  1.00  0.00    -0.246 OA
BRANCH   3   5
ATOM      5  C   UNL A   1      39.476  23.958  26.904  1.00  0.00     0.060 A 
ATOM      6  C   UNL A   1      39.967  24.967  26.077  1.00  0.00     0.016 A 
ATOM      7  C   UNL A   1      39.327  24.258  28.274  1.00  0.00     0.016 A 
ATOM      8  C   UNL A   1      40.211  26.251  26.569  1.00  0.00     0.010 A 
ATOM      9  C   UNL A   1      39.554  25.548  28.774  1.00  0.00     0.010 A 
ATOM     10  C   UNL A   1      40.005  26.555  27.916  1.00  0.00    -0.014 A 
BRANCH  10  11
ATOM     11  C   UNL A   1      40.468  27.870  28.418  1.00  0.00     0.031 A 
ATOM     12  C   UNL A   1      41.924  28.199  28.271  1.00  0.00     0.074 A 
ATOM     13  C   UNL A   1      39.585  28.790  28.855  1.00  0.00     0.049 A 
ATOM     14  N   UNL A   1      42.545  29.325  28.494  1.00  0.00    -0.248 NA
ATOM     15  C   UNL A   1      42.794  27.113  27.792  1.00  0.00     0.031 C 
ATOM     16  C   UNL A   1      38.145  28.572  28.983  1.00  0.00     0.029 A 
ATOM     17  N   UNL A   1      39.756  30.096  29.238  1.00  0.00    -0.354 N 
ATOM     18  C   UNL A   1      43.870  29.093  28.144  1.00  0.00     0.074 A 
ATOM     19  C   UNL A   1      43.979  27.698  27.783  1.00  0.00     0.031 C 
ATOM     20  C   UNL A   1      37.559  29.708  29.396  1.00  0.00     0.029 A 
ATOM     21  C   UNL A   1      38.582  30.733  29.582  1.00  0.00     0.049 A 
ATOM     22  H   UNL A   1      40.635  30.538  29.265  1.00  0.00     0.167 HD
ATOM     23  C   UNL A   1      44.895  29.976  28.087  1.00  0.00     0.034 A 
ATOM     24  C   UNL A   1      38.368  32.001  29.994  1.00  0.00     0.034 A 
ATOM     25  C   UNL A   1      44.773  31.350  28.493  1.00  0.00     0.049 A 
ATOM     26  C   UNL A   1      39.558  32.935  30.042  1.00  0.00     0.074 A 
ATOM     27  C   UNL A   1      45.752  32.322  28.566  1.00  0.00     0.029 A 
ATOM     28  N   UNL A   1      43.585  31.944  28.910  1.00  0.00    -0.354 N 
ATOM     29  N   UNL A   1      40.808  32.700  29.706  1.00  0.00    -0.248 NA
ATOM     30  C   UNL A   1      39.310  34.307  30.502  1.00  0.00     0.031 C 
ATOM     31  C   UNL A   1      45.169  33.485  29.084  1.00  0.00     0.029 A 
ATOM     32  C   UNL A   1      43.811  33.263  29.260  1.00  0.00     0.049 A 
ATOM     33  H   UNL A   1      42.712  31.491  28.949  1.00  0.00     0.167 HD
ATOM     34  C   UNL A   1      41.484  33.904  29.882  1.00  0.00     0.074 A 
ATOM     35  C   UNL A   1      40.497  34.867  30.328  1.00  0.00     0.031 C 
ATOM     36  C   UNL A   1      42.800  34.196  29.700  1.00  0.00     0.034 A 
BRANCH  23  37
ATOM     37  C   UNL A   1      46.220  29.436  27.613  1.00  0.00     0.023 A 
ATOM     38  C   UNL A   1      46.430  29.109  26.260  1.00  0.00     0.031 A 
ATOM     39  C   UNL A   1      47.244  29.145  28.529  1.00  0.00     0.131 A 
ATOM     40  C   UNL A   1      47.594  28.426  25.879  1.00  0.00     0.055 A 
ATOM     41  C   UNL A   1      48.438  28.543  28.127  1.00  0.00     0.041 A 
ATOM     42  F   UNL A   1      47.086  29.404  29.836  1.00  0.00    -0.206 F 
ATOM     43  C   UNL A   1      48.611  28.162  26.798  1.00  0.00     0.022 A 
BRANCH  40  44
ATOM     44  S   UNL A   1      47.682  27.733  24.203  1.00  0.00     0.124 S 
ATOM     45  O   UNL A   1      46.775  28.616  23.473  1.00  0.00    -0.237 OA
ATOM     46  O   UNL A   1      49.098  27.865  23.880  1.00  0.00    -0.237 OA
ATOM     47  O   UNL A   1      47.204  26.362  24.373  1.00  0.00    -0.744 OA
ENDBRANCH  40  44
ENDBRANCH  23  37
BRANCH  24  48
ATOM     48  C   UNL A   1      37.008  32.464  30.420  1.00  0.00     0.023 A 
ATOM     49  C   UNL A   1      36.060  32.934  29.495  1.00  0.00     0.031 A 
ATOM     50  C   UNL A   1      36.672  32.534  31.785  1.00  0.00     0.131 A 
ATOM     51  C   UNL A   1      34.862  33.516  29.946  1.00  0.00     0.055 A 
ATOM     52  C   UNL A   1      35.452  33.051  32.226  1.00  0.00     0.041 A 
ATOM     53  F   UNL A   1      37.536  32.110  32.722  1.00  0.00    -0.206 F 
ATOM     54  C   UNL A   1      34.547  33.567  31.306  1.00  0.00     0.022 A 
BRANCH  51  55
ATOM     55  S   UNL A   1      33.777  34.336  28.740  1.00  0.00     0.124 S 
ATOM     56  O   UNL A   1      33.474  33.244  27.823  1.00  0.00    -0.237 OA
ATOM     57  O   UNL A   1      32.678  34.792  29.584  1.00  0.00    -0.237 OA
ATOM     58  O   UNL A   1      34.621  35.396  28.190  1.00  0.00    -0.744 OA
ENDBRANCH  51  55
ENDBRANCH  24  48
BRANCH  36  59
ATOM     59  C   UNL A   1      43.222  35.623  29.945  1.00  0.00     0.023 A 
ATOM     60  C   UNL A   1      43.650  36.060  31.209  1.00  0.00     0.031 A 
ATOM     61  C   UNL A   1      43.187  36.560  28.895  1.00  0.00     0.131 A 
ATOM     62  C   UNL A   1      43.962  37.412  31.411  1.00  0.00     0.055 A 
ATOM     63  C   UNL A   1      43.570  37.887  29.085  1.00  0.00     0.041 A 
ATOM     64  F   UNL A   1      42.787  36.196  27.666  1.00  0.00    -0.206 F 
ATOM     65  C   UNL A   1      43.944  38.324  30.352  1.00  0.00     0.022 A 
BRANCH  62  66
ATOM     66  S   UNL A   1      44.286  37.983  33.100  1.00  0.00     0.124 S 
ATOM     67  O   UNL A   1      43.028  38.639  33.445  1.00  0.00    -0.237 OA
ATOM     68  O   UNL A   1      44.567  36.736  33.803  1.00  0.00    -0.237 OA
ATOM     69  O   UNL A   1      45.430  38.879  32.945  1.00  0.00    -0.744 OA
ENDBRANCH  62  66
ENDBRANCH  36  59
ENDBRANCH  10  11
ENDBRANCH   3   5
ENDBRANCH   2   3
ENDBRANCH   1   2
BRANCH   1  70
ATOM     70  C   UNL A   1      41.528  19.836  27.343  1.00  0.00     0.274 C 
BRANCH  70  71
ATOM     71  O   UNL A   1      41.920  19.729  25.970  1.00  0.00    -0.461 OA
BRANCH  71  72
ATOM     72  C   UNL A   1      43.154  19.225  25.696  1.00  0.00     0.329 C 
ATOM     73  O   UNL A   1      43.659  18.252  26.245  1.00  0.00    -0.250 OA
BRANCH  72  74
ATOM     74  C   UNL A   1      43.817  20.040  24.578  1.00  0.00     0.206 C 
ATOM     75  C   UNL A   1      44.762  19.152  23.771  1.00  0.00     0.108 C 
ATOM     76  N   UNL A   1      44.569  21.169  25.108  1.00  0.00    -0.315 N 
ATOM     77  S   UNL A   1      46.460  19.595  24.233  1.00  0.00    -0.138 SA
ATOM     78  C   UNL A   1      45.950  20.868  25.399  1.00  0.00     0.191 C 
BRANCH  76  79
ATOM     79  C   UNL A   1      43.869  22.292  25.512  1.00  0.00     0.255 C 
ATOM     80  O   UNL A   1      42.808  22.628  24.999  1.00  0.00    -0.269 OA
BRANCH  79  81
ATOM     81  C   UNL A   1      44.409  23.103  26.618  1.00  0.00     0.041 A 
ATOM     82  C   UNL A   1      45.420  24.045  26.390  1.00  0.00     0.014 A 
ATOM     83  C   UNL A   1      43.868  22.932  27.893  1.00  0.00     0.034 A 
ATOM     84  C   UNL A   1      45.959  24.751  27.462  1.00  0.00     0.002 A 
ATOM     85  C   UNL A   1      44.408  23.647  28.956  1.00  0.00     0.041 A 
ATOM     86  C   UNL A   1      45.461  24.540  28.749  1.00  0.00     0.020 A 
ATOM     87  Cl  UNL A   1      43.795  23.404  30.544  1.00  0.00    -0.084 Cl
ENDBRANCH  79  81
ENDBRANCH  76  79
ENDBRANCH  72  74
ENDBRANCH  71  72
ENDBRANCH  70  71
ENDBRANCH   1  70
TORSDOF 16
ENDMDL
MODEL 3
REMARK VINA RESULT:     -11.5      1.769      2.801
REMARK SMILES O=C(OCCOC(=O)[C@@H]1CSCN1C(=O)c1cccc(Cl)c1)c1ccc(-c2c3nc(c(-c4cc(S(=O)(=O)[O-])ccc4F)c4ccc([nH]4)c(-c4cc(S(=O)(=O)[O-])ccc4F)c4nc(c(-c5cc(S(=O)(=O)[O-])ccc5F)c5ccc2[nH]5)C=C4)C=C3)cc1
REMARK SMILES IDX 4 1 3 2 2 3 1 4 23 5 24 6 85 7 25 8 84 9 26 10 27 11 28 12
REMARK SMILES IDX 78 13 29 14 83 15 77 16 79 17 30 18 82 19 76 20 75 21 31 23
REMARK SMILES IDX 63 24 43 25 62 26 44 27 47 28 61 29 80 30 45 31 46 32 60 34
REMARK SMILES IDX 81 35 48 36 32 37 33 38 41 39 34 40 40 41 42 42 39 43 35 44
REMARK SMILES IDX 36 45 37 46 38 47 64 48 65 49 73 50 66 51 72 52 74 53 71 54
REMARK SMILES IDX 67 55 68 56 69 57 70 58 49 59 50 60 58 61 51 62 57 63 59 64
REMARK SMILES IDX 56 65 52 66 53 67 54 68 55 69 5 70 6 71 7 72 8 73 9 74 10 75
REMARK SMILES IDX 13 76 11 77 12 78 14 79 15 80 16 81 17 82 22 83 18 84 20 85
REMARK SMILES IDX 19 86 21 87
REMARK H PARENT 79 22 47 33
REMARK Flexibility Score: inf
ROOT
ATOM      1  C   UNL A   1      31.340  31.946  26.498  1.00  0.00     0.275 C 
ENDROOT
BRANCH   1   2
ATOM      2  O   UNL A   1      32.435  32.880  26.603  1.00  0.00    -0.458 OA
BRANCH   2   3
ATOM      3  C   UNL A   1      33.091  33.364  27.686  1.00  0.00     0.338 C 
ATOM      4  O   UNL A   1      32.722  34.446  28.142  1.00  0.00    -0.246 OA
BRANCH   3   5
ATOM      5  C   UNL A   1      34.323  32.750  28.287  1.00  0.00     0.060 A 
ATOM      6  C   UNL A   1      34.407  31.499  28.898  1.00  0.00     0.016 A 
ATOM      7  C   UNL A   1      35.512  33.501  28.180  1.00  0.00     0.016 A 
ATOM      8  C   UNL A   1      35.636  30.973  29.303  1.00  0.00     0.010 A 
ATOM      9  C   UNL A   1      36.752  32.975  28.569  1.00  0.00     0.010 A 
ATOM     10  C   UNL A   1      36.817  31.701  29.140  1.00  0.00    -0.014 A 
BRANCH  10  11
ATOM     11  C   UNL A   1      38.054  31.179  29.765  1.00  0.00     0.031 A 
ATOM     12  C   UNL A   1      38.349  31.588  31.177  1.00  0.00     0.074 A 
ATOM     13  C   UNL A   1      38.808  30.256  29.135  1.00  0.00     0.049 A 
ATOM     14  N   UNL A   1      39.277  31.160  31.988  1.00  0.00    -0.248 NA
ATOM     15  C   UNL A   1      37.462  32.610  31.760  1.00  0.00     0.031 C 
ATOM     16  C   UNL A   1      38.567  29.764  27.780  1.00  0.00     0.029 A 
ATOM     17  N   UNL A   1      39.902  29.543  29.555  1.00  0.00    -0.354 N 
ATOM     18  C   UNL A   1      39.061  31.829  33.186  1.00  0.00     0.074 A 
ATOM     19  C   UNL A   1      37.975  32.756  32.969  1.00  0.00     0.031 C 
ATOM     20  C   UNL A   1      39.472  28.816  27.483  1.00  0.00     0.029 A 
ATOM     21  C   UNL A   1      40.373  28.645  28.620  1.00  0.00     0.049 A 
ATOM     22  H   UNL A   1      40.313  29.661  30.440  1.00  0.00     0.167 HD
ATOM     23  C   UNL A   1      39.685  31.655  34.376  1.00  0.00     0.034 A 
ATOM     24  C   UNL A   1      41.409  27.782  28.686  1.00  0.00     0.034 A 
ATOM     25  C   UNL A   1      40.794  30.756  34.557  1.00  0.00     0.049 A 
ATOM     26  C   UNL A   1      42.172  27.698  29.991  1.00  0.00     0.074 A 
ATOM     27  C   UNL A   1      41.567  30.551  35.684  1.00  0.00     0.029 A 
ATOM     28  N   UNL A   1      41.294  29.916  33.568  1.00  0.00    -0.354 N 
ATOM     29  N   UNL A   1      41.955  28.340  31.119  1.00  0.00    -0.248 NA
ATOM     30  C   UNL A   1      43.303  26.763  30.042  1.00  0.00     0.031 C 
ATOM     31  C   UNL A   1      42.572  29.633  35.358  1.00  0.00     0.029 A 
ATOM     32  C   UNL A   1      42.379  29.205  34.052  1.00  0.00     0.049 A 
ATOM     33  H   UNL A   1      40.930  29.838  32.656  1.00  0.00     0.167 HD
ATOM     34  C   UNL A   1      42.900  27.859  32.020  1.00  0.00     0.074 A 
ATOM     35  C   UNL A   1      43.670  26.856  31.312  1.00  0.00     0.031 C 
ATOM     36  C   UNL A   1      43.123  28.211  33.315  1.00  0.00     0.034 A 
BRANCH  23  37
ATOM     37  C   UNL A   1      39.191  32.497  35.523  1.00  0.00     0.023 A 
ATOM     38  C   UNL A   1      39.607  33.834  35.675  1.00  0.00     0.031 A 
ATOM     39  C   UNL A   1      38.387  31.938  36.529  1.00  0.00     0.131 A 
ATOM     40  C   UNL A   1      39.296  34.533  36.850  1.00  0.00     0.055 A 
ATOM     41  C   UNL A   1      38.009  32.669  37.657  1.00  0.00     0.041 A 
ATOM     42  F   UNL A   1      37.989  30.659  36.454  1.00  0.00    -0.206 F 
ATOM     43  C   UNL A   1      38.479  33.969  37.832  1.00  0.00     0.022 A 
BRANCH  40  44
ATOM     44  S   UNL A   1      40.118  36.122  37.156  1.00  0.00     0.124 S 
ATOM     45  O   UNL A   1      39.286  36.683  38.218  1.00  0.00    -0.237 OA
ATOM     46  O   UNL A   1      41.462  35.713  37.548  1.00  0.00    -0.237 OA
ATOM     47  O   UNL A   1      40.024  36.811  35.871  1.00  0.00    -0.744 OA
ENDBRANCH  40  44
ENDBRANCH  23  37
BRANCH  24  48
ATOM     48  C   UNL A   1      41.816  26.958  27.503  1.00  0.00     0.023 A 
ATOM     49  C   UNL A   1      41.550  25.579  27.431  1.00  0.00     0.031 A 
ATOM     50  C   UNL A   1      42.571  27.528  26.460  1.00  0.00     0.131 A 
ATOM     51  C   UNL A   1      42.093  24.809  26.387  1.00  0.00     0.055 A 
ATOM     52  C   UNL A   1      43.052  26.770  25.389  1.00  0.00     0.041 A 
ATOM     53  F   UNL A   1      42.869  28.837  26.471  1.00  0.00    -0.206 F 
ATOM     54  C   UNL A   1      42.832  25.398  25.359  1.00  0.00     0.022 A 
BRANCH  51  55
ATOM     55  S   UNL A   1      41.939  23.000  26.461  1.00  0.00     0.124 S 
ATOM     56  O   UNL A   1      42.865  22.667  27.536  1.00  0.00    -0.237 OA
ATOM     57  O   UNL A   1      40.520  22.829  26.758  1.00  0.00    -0.237 OA
ATOM     58  O   UNL A   1      42.352  22.569  25.127  1.00  0.00    -0.744 OA
ENDBRANCH  51  55
ENDBRANCH  24  48
BRANCH  36  59
ATOM     59  C   UNL A   1      44.215  27.469  34.045  1.00  0.00     0.023 A 
ATOM     60  C   UNL A   1      43.997  26.200  34.606  1.00  0.00     0.031 A 
ATOM     61  C   UNL A   1      45.490  28.046  34.183  1.00  0.00     0.131 A 
ATOM     62  C   UNL A   1      45.016  25.578  35.340  1.00  0.00     0.055 A 
ATOM     63  C   UNL A   1      46.523  27.389  34.851  1.00  0.00     0.041 A 
ATOM     64  F   UNL A   1      45.753  29.256  33.666  1.00  0.00    -0.206 F 
ATOM     65  C   UNL A   1      46.284  26.155  35.449  1.00  0.00     0.022 A 
BRANCH  62  66
ATOM     66  S   UNL A   1      44.628  24.054  36.242  1.00  0.00     0.124 S 
ATOM     67  O   UNL A   1      43.394  23.624  35.592  1.00  0.00    -0.237 OA
ATOM     68  O   UNL A   1      45.804  23.229  35.983  1.00  0.00    -0.237 OA
ATOM     69  O   UNL A   1      44.477  24.504  37.624  1.00  0.00    -0.744 OA
ENDBRANCH  62  66
ENDBRANCH  36  59
ENDBRANCH  10  11
ENDBRANCH   3   5
ENDBRANCH   2   3
ENDBRANCH   1   2
BRANCH   1  70
ATOM     70  C   UNL A   1      31.765  30.483  26.637  1.00  0.00     0.274 C 
BRANCH  70  71
ATOM     71  O   UNL A   1      32.780  30.155  25.683  1.00  0.00    -0.461 OA
BRANCH  71  72
ATOM     72  C   UNL A   1      33.441  28.974  25.835  1.00  0.00     0.329 C 
ATOM     73  O   UNL A   1      34.122  28.665  26.807  1.00  0.00    -0.250 OA
BRANCH  72  74
ATOM     74  C   UNL A   1      33.191  28.073  24.620  1.00  0.00     0.206 C 
ATOM     75  C   UNL A   1      32.895  28.924  23.387  1.00  0.00     0.108 C 
ATOM     76  N   UNL A   1      32.076  27.163  24.844  1.00  0.00    -0.315 N 
ATOM     77  S   UNL A   1      31.117  28.798  23.047  1.00  0.00    -0.138 SA
ATOM     78  C   UNL A   1      30.797  27.692  24.431  1.00  0.00     0.191 C 
BRANCH  76  79
ATOM     79  C   UNL A   1      32.287  26.046  25.631  1.00  0.00     0.255 C 
ATOM     80  O   UNL A   1      31.823  25.938  26.760  1.00  0.00    -0.269 OA
BRANCH  79  81
ATOM     81  C   UNL A   1      33.082  24.932  25.083  1.00  0.00     0.041 A 
ATOM     82  C   UNL A   1      34.450  24.823  25.361  1.00  0.00     0.014 A 
ATOM     83  C   UNL A   1      32.433  23.973  24.304  1.00  0.00     0.034 A 
ATOM     84  C   UNL A   1      35.193  23.800  24.776  1.00  0.00     0.002 A 
ATOM     85  C   UNL A   1      33.182  22.951  23.732  1.00  0.00     0.041 A 
ATOM     86  C   UNL A   1      34.559  22.871  23.949  1.00  0.00     0.020 A 
ATOM     87  Cl  UNL A   1      32.410  21.794  22.720  1.00  0.00    -0.084 Cl
ENDBRANCH  79  81
ENDBRANCH  76  79
ENDBRANCH  72  74
ENDBRANCH  71  72
ENDBRANCH  70  71
ENDBRANCH   1  70
TORSDOF 16
ENDMDL
