MODEL 1
REMARK VINA RESULT:     -12.0      0.000      0.000
REMARK SMILES COc1ccc([C@H]2CC(c3ccccc3)=NN2C(=O)CCCC(=O)OCCOC(=O)c2ccc(-c3c4nc(c(-c5cc(S(=O)(=O)[O-])ccc5F)c5ccc([nH]5)c(-c5cc(S(=O)(=O)[O-])ccc5F)c5nc(c(-c6cc(S(=O)(=O)[O-])ccc6F)c6ccc3[nH]6)C=C5)C=C4)cc2)cc1
REMARK SMILES IDX 25 1 23 2 24 3 22 4 21 5 20 6 18 7 19 8 17 9 7 10 8 11 9 12
REMARK SMILES IDX 16 13 6 14 3 15 4 16 95 17 5 18 94 19 2 20 1 21 10 22 11 23
REMARK SMILES IDX 15 24 12 25 14 26 13 27 26 28 27 29 28 30 29 31 30 32 31 33
REMARK SMILES IDX 32 34 93 35 33 36 92 37 34 38 35 39 36 40 86 41 37 42 91 43
REMARK SMILES IDX 85 44 87 45 38 46 90 47 84 48 83 49 39 51 71 52 51 53 70 54
REMARK SMILES IDX 52 55 55 56 69 57 88 58 53 59 54 60 68 62 89 63 56 64 40 65
REMARK SMILES IDX 41 66 49 67 42 68 48 69 50 70 47 71 43 72 44 73 45 74 46 75
REMARK SMILES IDX 72 76 73 77 81 78 74 79 80 80 82 81 79 82 75 83 76 84 77 85
REMARK SMILES IDX 78 86 57 87 58 88 66 89 59 90 65 91 67 92 64 93 60 94 61 95
REMARK SMILES IDX 62 96 63 97
REMARK H PARENT 87 50 55 61
REMARK Flexibility Score: inf
ROOT
ATOM      1  O   UNL A   1      31.882  28.776  25.102  1.00  0.00    -0.462 OA
ENDROOT
BRANCH   1   2
ATOM      2  C   UNL A   1      32.729  28.593  24.058  1.00  0.00     0.305 C 
ATOM      3  O   UNL A   1      32.504  28.968  22.913  1.00  0.00    -0.252 OA
BRANCH   2   4
ATOM      4  C   UNL A   1      33.973  27.841  24.450  1.00  0.00     0.123 C 
BRANCH   4   5
ATOM      5  C   UNL A   1      33.922  26.338  24.190  1.00  0.00     0.022 C 
BRANCH   5   6
ATOM      6  C   UNL A   1      34.309  25.442  25.363  1.00  0.00     0.103 C 
BRANCH   6   7
ATOM      7  C   UNL A   1      34.866  24.071  25.018  1.00  0.00     0.243 C 
ATOM      8  O   UNL A   1      36.088  23.917  24.934  1.00  0.00    -0.273 OA
BRANCH   7   9
ATOM      9  N   UNL A   1      33.958  23.026  25.014  1.00  0.00    -0.225 N 
ATOM     10  C   UNL A   1      32.674  22.912  25.721  1.00  0.00     0.147 C 
ATOM     11  C   UNL A   1      32.308  21.440  25.589  1.00  0.00     0.091 C 
ATOM     12  C   UNL A   1      33.379  20.996  24.637  1.00  0.00     0.071 C 
ATOM     13  N   UNL A   1      34.279  21.878  24.328  1.00  0.00    -0.174 NA
BRANCH  10  14
ATOM     14  C   UNL A   1      31.593  23.812  25.144  1.00  0.00    -0.023 A 
ATOM     15  C   UNL A   1      29.664  25.600  24.104  1.00  0.00     0.118 A 
ATOM     16  C   UNL A   1      30.035  25.668  25.440  1.00  0.00     0.047 A 
ATOM     17  C   UNL A   1      30.251  24.632  23.289  1.00  0.00     0.047 A 
ATOM     18  C   UNL A   1      30.955  24.753  25.965  1.00  0.00     0.010 A 
ATOM     19  C   UNL A   1      31.201  23.743  23.800  1.00  0.00     0.010 A 
BRANCH  15  20
ATOM     20  O   UNL A   1      28.795  26.441  23.475  1.00  0.00    -0.497 OA
ATOM     21  C   UNL A   1      29.181  27.800  23.291  1.00  0.00     0.278 C 
ENDBRANCH  15  20
ENDBRANCH  10  14
BRANCH  12  22
ATOM     22  C   UNL A   1      33.453  19.600  24.191  1.00  0.00    -0.002 A 
ATOM     23  C   UNL A   1      32.440  19.116  23.357  1.00  0.00     0.010 A 
ATOM     24  C   UNL A   1      34.511  18.780  24.579  1.00  0.00     0.010 A 
ATOM     25  C   UNL A   1      32.490  17.799  22.903  1.00  0.00     0.001 A 
ATOM     26  C   UNL A   1      34.545  17.457  24.138  1.00  0.00     0.001 A 
ATOM     27  C   UNL A   1      33.539  16.970  23.299  1.00  0.00     0.000 A 
ENDBRANCH  12  22
ENDBRANCH   7   9
ENDBRANCH   6   7
ENDBRANCH   5   6
ENDBRANCH   4   5
ENDBRANCH   2   4
ENDBRANCH   1   2
BRANCH   1  28
ATOM     28  C   UNL A   1      31.344  30.107  25.203  1.00  0.00     0.274 C 
BRANCH  28  29
ATOM     29  C   UNL A   1      31.773  30.792  26.502  1.00  0.00     0.275 C 
BRANCH  29  30
ATOM     30  O   UNL A   1      33.166  30.566  26.800  1.00  0.00    -0.458 OA
BRANCH  30  31
ATOM     31  C   UNL A   1      33.757  31.527  27.546  1.00  0.00     0.338 C 
ATOM     32  O   UNL A   1      33.273  32.618  27.834  1.00  0.00    -0.246 OA
BRANCH  31  33
ATOM     33  C   UNL A   1      35.116  31.135  27.970  1.00  0.00     0.060 A 
ATOM     34  C   UNL A   1      35.418  29.837  28.383  1.00  0.00     0.016 A 
ATOM     35  C   UNL A   1      36.086  32.132  28.073  1.00  0.00     0.016 A 
ATOM     36  C   UNL A   1      36.663  29.560  28.972  1.00  0.00     0.010 A 
ATOM     37  C   UNL A   1      37.351  31.830  28.589  1.00  0.00     0.010 A 
ATOM     38  C   UNL A   1      37.652  30.549  29.091  1.00  0.00    -0.014 A 
BRANCH  38  39
ATOM     39  C   UNL A   1      38.971  30.335  29.778  1.00  0.00     0.031 A 
ATOM     40  C   UNL A   1      39.973  29.385  29.159  1.00  0.00     0.074 A 
ATOM     41  C   UNL A   1      39.299  30.912  30.953  1.00  0.00     0.049 A 
ATOM     42  N   UNL A   1      40.919  28.682  29.727  1.00  0.00    -0.248 NA
ATOM     43  C   UNL A   1      39.869  29.189  27.704  1.00  0.00     0.031 C 
ATOM     44  C   UNL A   1      38.535  31.941  31.655  1.00  0.00     0.029 A 
ATOM     45  N   UNL A   1      40.373  30.675  31.788  1.00  0.00    -0.354 N 
ATOM     46  C   UNL A   1      41.457  27.884  28.719  1.00  0.00     0.074 A 
ATOM     47  C   UNL A   1      40.747  28.216  27.501  1.00  0.00     0.031 C 
ATOM     48  C   UNL A   1      39.160  32.250  32.802  1.00  0.00     0.029 A 
ATOM     49  C   UNL A   1      40.292  31.349  32.988  1.00  0.00     0.049 A 
ATOM     50  H   UNL A   1      41.123  30.083  31.550  1.00  0.00     0.167 HD
ATOM     51  C   UNL A   1      42.435  26.947  28.813  1.00  0.00     0.034 A 
ATOM     52  C   UNL A   1      40.976  31.202  34.142  1.00  0.00     0.034 A 
ATOM     53  C   UNL A   1      43.187  26.684  30.017  1.00  0.00     0.049 A 
ATOM     54  C   UNL A   1      42.031  30.128  34.254  1.00  0.00     0.074 A 
ATOM     55  C   UNL A   1      44.181  25.742  30.229  1.00  0.00     0.029 A 
ATOM     56  N   UNL A   1      43.055  27.391  31.203  1.00  0.00    -0.354 N 
ATOM     57  N   UNL A   1      42.412  29.250  33.357  1.00  0.00    -0.248 NA
ATOM     58  C   UNL A   1      42.728  30.010  35.544  1.00  0.00     0.031 C 
ATOM     59  C   UNL A   1      44.622  25.854  31.553  1.00  0.00     0.029 A 
ATOM     60  C   UNL A   1      43.949  26.908  32.146  1.00  0.00     0.049 A 
ATOM     61  H   UNL A   1      42.420  28.126  31.353  1.00  0.00     0.167 HD
ATOM     62  C   UNL A   1      43.405  28.489  33.971  1.00  0.00     0.074 A 
ATOM     63  C   UNL A   1      43.572  29.017  35.307  1.00  0.00     0.031 C 
ATOM     64  C   UNL A   1      44.116  27.446  33.473  1.00  0.00     0.034 A 
BRANCH  51  65
ATOM     65  C   UNL A   1      42.701  26.082  27.604  1.00  0.00     0.023 A 
ATOM     66  C   UNL A   1      42.155  24.798  27.460  1.00  0.00     0.031 A 
ATOM     67  C   UNL A   1      43.519  26.572  26.567  1.00  0.00     0.131 A 
ATOM     68  C   UNL A   1      42.475  24.027  26.330  1.00  0.00     0.055 A 
ATOM     69  C   UNL A   1      43.773  25.830  25.413  1.00  0.00     0.041 A 
ATOM     70  F   UNL A   1      44.085  27.786  26.660  1.00  0.00    -0.206 F 
ATOM     71  C   UNL A   1      43.258  24.543  25.295  1.00  0.00     0.022 A 
BRANCH  68  72
ATOM     72  S   UNL A   1      41.941  22.295  26.281  1.00  0.00     0.124 S 
ATOM     73  O   UNL A   1      42.595  21.821  25.065  1.00  0.00    -0.237 OA
ATOM     74  O   UNL A   1      42.465  21.768  27.536  1.00  0.00    -0.237 OA
ATOM     75  O   UNL A   1      40.484  22.387  26.202  1.00  0.00    -0.744 OA
ENDBRANCH  68  72
ENDBRANCH  51  65
BRANCH  52  76
ATOM     76  C   UNL A   1      40.605  32.011  35.341  1.00  0.00     0.023 A 
ATOM     77  C   UNL A   1      39.538  31.636  36.172  1.00  0.00     0.031 A 
ATOM     78  C   UNL A   1      41.286  33.206  35.642  1.00  0.00     0.131 A 
ATOM     79  C   UNL A   1      39.162  32.464  37.242  1.00  0.00     0.055 A 
ATOM     80  C   UNL A   1      40.948  33.993  36.743  1.00  0.00     0.041 A 
ATOM     81  F   UNL A   1      42.308  33.616  34.875  1.00  0.00    -0.206 F 
ATOM     82  C   UNL A   1      39.871  33.629  37.544  1.00  0.00     0.022 A 
BRANCH  79  83
ATOM     83  S   UNL A   1      37.670  32.045  38.183  1.00  0.00     0.124 S 
ATOM     84  O   UNL A   1      37.416  30.677  37.744  1.00  0.00    -0.237 OA
ATOM     85  O   UNL A   1      38.128  32.204  39.560  1.00  0.00    -0.237 OA
ATOM     86  O   UNL A   1      36.696  33.036  37.735  1.00  0.00    -0.744 OA
ENDBRANCH  79  83
ENDBRANCH  52  76
BRANCH  64  87
ATOM     87  C   UNL A   1      45.191  26.861  34.351  1.00  0.00     0.023 A 
ATOM     88  C   UNL A   1      44.925  25.826  35.264  1.00  0.00     0.031 A 
ATOM     89  C   UNL A   1      46.505  27.355  34.268  1.00  0.00     0.131 A 
ATOM     90  C   UNL A   1      45.955  25.346  36.089  1.00  0.00     0.055 A 
ATOM     91  C   UNL A   1      47.532  26.844  35.061  1.00  0.00     0.041 A 
ATOM     92  F   UNL A   1      46.809  28.343  33.411  1.00  0.00    -0.206 F 
ATOM     93  C   UNL A   1      47.258  25.840  35.985  1.00  0.00     0.022 A 
BRANCH  90  94
ATOM     94  S   UNL A   1      45.557  24.101  37.348  1.00  0.00     0.124 S 
ATOM     95  O   UNL A   1      45.347  22.906  36.538  1.00  0.00    -0.237 OA
ATOM     96  O   UNL A   1      46.755  24.104  38.182  1.00  0.00    -0.237 OA
ATOM     97  O   UNL A   1      44.356  24.633  37.990  1.00  0.00    -0.744 OA
ENDBRANCH  90  94
ENDBRANCH  64  87
ENDBRANCH  38  39
ENDBRANCH  31  33
ENDBRANCH  30  31
ENDBRANCH  29  30
ENDBRANCH  28  29
ENDBRANCH   1  28
TORSDOF 21
ENDMDL
MODEL 2
REMARK VINA RESULT:     -11.5      1.909      2.262
REMARK SMILES COc1ccc([C@H]2CC(c3ccccc3)=NN2C(=O)CCCC(=O)OCCOC(=O)c2ccc(-c3c4nc(c(-c5cc(S(=O)(=O)[O-])ccc5F)c5ccc([nH]5)c(-c5cc(S(=O)(=O)[O-])ccc5F)c5nc(c(-c6cc(S(=O)(=O)[O-])ccc6F)c6ccc3[nH]6)C=C5)C=C4)cc2)cc1
REMARK SMILES IDX 25 1 23 2 24 3 22 4 21 5 20 6 18 7 19 8 17 9 7 10 8 11 9 12
REMARK SMILES IDX 16 13 6 14 3 15 4 16 95 17 5 18 94 19 2 20 1 21 10 22 11 23
REMARK SMILES IDX 15 24 12 25 14 26 13 27 26 28 27 29 28 30 29 31 30 32 31 33
REMARK SMILES IDX 32 34 93 35 33 36 92 37 34 38 35 39 36 40 86 41 37 42 91 43
REMARK SMILES IDX 85 44 87 45 38 46 90 47 84 48 83 49 39 51 71 52 51 53 70 54
REMARK SMILES IDX 52 55 55 56 69 57 88 58 53 59 54 60 68 62 89 63 56 64 40 65
REMARK SMILES IDX 41 66 49 67 42 68 48 69 50 70 47 71 43 72 44 73 45 74 46 75
REMARK SMILES IDX 72 76 73 77 81 78 74 79 80 80 82 81 79 82 75 83 76 84 77 85
REMARK SMILES IDX 78 86 57 87 58 88 66 89 59 90 65 91 67 92 64 93 60 94 61 95
REMARK SMILES IDX 62 96 63 97
REMARK H PARENT 87 50 55 61
REMARK Flexibility Score: inf
ROOT
ATOM      1  O   UNL A   1      32.213  28.133  25.474  1.00  0.00    -0.462 OA
ENDROOT
BRANCH   1   2
ATOM      2  C   UNL A   1      33.309  27.998  24.684  1.00  0.00     0.305 C 
ATOM      3  O   UNL A   1      33.984  28.935  24.273  1.00  0.00    -0.252 OA
BRANCH   2   4
ATOM      4  C   UNL A   1      33.590  26.562  24.331  1.00  0.00     0.123 C 
BRANCH   4   5
ATOM      5  C   UNL A   1      34.531  25.839  25.291  1.00  0.00     0.022 C 
BRANCH   5   6
ATOM      6  C   UNL A   1      35.174  24.559  24.762  1.00  0.00     0.103 C 
BRANCH   6   7
ATOM      7  C   UNL A   1      35.193  23.367  25.703  1.00  0.00     0.243 C 
ATOM      8  O   UNL A   1      35.930  23.388  26.692  1.00  0.00    -0.273 OA
BRANCH   7   9
ATOM      9  N   UNL A   1      34.221  22.404  25.488  1.00  0.00    -0.225 N 
ATOM     10  C   UNL A   1      32.856  22.329  26.029  1.00  0.00     0.147 C 
ATOM     11  C   UNL A   1      32.407  20.910  25.706  1.00  0.00     0.091 C 
ATOM     12  C   UNL A   1      33.553  20.472  24.842  1.00  0.00     0.071 C 
ATOM     13  N   UNL A   1      34.543  21.302  24.731  1.00  0.00    -0.174 NA
BRANCH  10  14
ATOM     14  C   UNL A   1      31.919  23.364  25.426  1.00  0.00    -0.023 A 
ATOM     15  C   UNL A   1      30.090  25.181  24.263  1.00  0.00     0.118 A 
ATOM     16  C   UNL A   1      30.699  24.204  23.486  1.00  0.00     0.047 A 
ATOM     17  C   UNL A   1      30.403  25.256  25.620  1.00  0.00     0.047 A 
ATOM     18  C   UNL A   1      31.639  23.335  24.052  1.00  0.00     0.010 A 
ATOM     19  C   UNL A   1      31.310  24.362  26.199  1.00  0.00     0.010 A 
BRANCH  15  20
ATOM     20  O   UNL A   1      29.151  26.071  23.833  1.00  0.00    -0.497 OA
ATOM     21  C   UNL A   1      29.592  27.236  23.141  1.00  0.00     0.278 C 
ENDBRANCH  15  20
ENDBRANCH  10  14
BRANCH  12  22
ATOM     22  C   UNL A   1      33.583  19.122  24.268  1.00  0.00    -0.002 A 
ATOM     23  C   UNL A   1      32.571  18.759  23.373  1.00  0.00     0.010 A 
ATOM     24  C   UNL A   1      34.600  18.226  24.597  1.00  0.00     0.010 A 
ATOM     25  C   UNL A   1      32.581  17.490  22.798  1.00  0.00     0.001 A 
ATOM     26  C   UNL A   1      34.593  16.950  24.033  1.00  0.00     0.001 A 
ATOM     27  C   UNL A   1      33.588  16.585  23.134  1.00  0.00     0.000 A 
ENDBRANCH  12  22
ENDBRANCH   7   9
ENDBRANCH   6   7
ENDBRANCH   5   6
ENDBRANCH   4   5
ENDBRANCH   2   4
ENDBRANCH   1   2
BRANCH   1  28
ATOM     28  C   UNL A   1      31.262  29.107  25.007  1.00  0.00     0.274 C 
BRANCH  28  29
ATOM     29  C   UNL A   1      31.485  30.471  25.663  1.00  0.00     0.275 C 
BRANCH  29  30
ATOM     30  O   UNL A   1      32.252  30.370  26.880  1.00  0.00    -0.458 OA
BRANCH  30  31
ATOM     31  C   UNL A   1      32.913  31.495  27.237  1.00  0.00     0.338 C 
ATOM     32  O   UNL A   1      32.474  32.641  27.179  1.00  0.00    -0.246 OA
BRANCH  31  33
ATOM     33  C   UNL A   1      34.287  31.204  27.691  1.00  0.00     0.060 A 
ATOM     34  C   UNL A   1      34.696  29.915  28.037  1.00  0.00     0.016 A 
ATOM     35  C   UNL A   1      35.154  32.278  27.894  1.00  0.00     0.016 A 
ATOM     36  C   UNL A   1      35.941  29.717  28.658  1.00  0.00     0.010 A 
ATOM     37  C   UNL A   1      36.423  32.061  28.442  1.00  0.00     0.010 A 
ATOM     38  C   UNL A   1      36.827  30.784  28.877  1.00  0.00    -0.014 A 
BRANCH  38  39
ATOM     39  C   UNL A   1      38.136  30.648  29.602  1.00  0.00     0.031 A 
ATOM     40  C   UNL A   1      39.211  29.762  29.013  1.00  0.00     0.074 A 
ATOM     41  C   UNL A   1      38.394  31.242  30.786  1.00  0.00     0.049 A 
ATOM     42  N   UNL A   1      40.181  29.116  29.608  1.00  0.00    -0.248 NA
ATOM     43  C   UNL A   1      39.162  29.563  27.556  1.00  0.00     0.031 C 
ATOM     44  C   UNL A   1      37.548  32.222  31.465  1.00  0.00     0.029 A 
ATOM     45  N   UNL A   1      39.455  31.069  31.652  1.00  0.00    -0.354 N 
ATOM     46  C   UNL A   1      40.796  28.354  28.617  1.00  0.00     0.074 A 
ATOM     47  C   UNL A   1      40.103  28.645  27.378  1.00  0.00     0.031 C 
ATOM     48  C   UNL A   1      38.119  32.566  32.630  1.00  0.00     0.029 A 
ATOM     49  C   UNL A   1      39.298  31.735  32.849  1.00  0.00     0.049 A 
ATOM     50  H   UNL A   1      40.246  30.524  31.437  1.00  0.00     0.167 HD
ATOM     51  C   UNL A   1      41.826  27.478  28.739  1.00  0.00     0.034 A 
ATOM     52  C   UNL A   1      39.955  31.628  34.023  1.00  0.00     0.034 A 
ATOM     53  C   UNL A   1      42.556  27.259  29.965  1.00  0.00     0.049 A 
ATOM     54  C   UNL A   1      41.069  30.619  34.166  1.00  0.00     0.074 A 
ATOM     55  C   UNL A   1      43.599  26.378  30.207  1.00  0.00     0.029 A 
ATOM     56  N   UNL A   1      42.347  27.955  31.147  1.00  0.00    -0.354 N 
ATOM     57  N   UNL A   1      41.529  29.767  33.281  1.00  0.00    -0.248 NA
ATOM     58  C   UNL A   1      41.734  30.541  35.476  1.00  0.00     0.031 C 
ATOM     59  C   UNL A   1      43.993  26.515  31.543  1.00  0.00     0.029 A 
ATOM     60  C   UNL A   1      43.241  27.525  32.116  1.00  0.00     0.049 A 
ATOM     61  H   UNL A   1      41.664  28.650  31.279  1.00  0.00     0.167 HD
ATOM     62  C   UNL A   1      42.548  29.067  33.924  1.00  0.00     0.074 A 
ATOM     63  C   UNL A   1      42.643  29.602  35.264  1.00  0.00     0.031 C 
ATOM     64  C   UNL A   1      43.335  28.070  33.447  1.00  0.00     0.034 A 
BRANCH  51  65
ATOM     65  C   UNL A   1      42.178  26.634  27.539  1.00  0.00     0.023 A 
ATOM     66  C   UNL A   1      41.822  25.280  27.437  1.00  0.00     0.031 A 
ATOM     67  C   UNL A   1      42.884  27.213  26.466  1.00  0.00     0.131 A 
ATOM     68  C   UNL A   1      42.217  24.538  26.312  1.00  0.00     0.055 A 
ATOM     69  C   UNL A   1      43.210  26.489  25.319  1.00  0.00     0.041 A 
ATOM     70  F   UNL A   1      43.269  28.498  26.517  1.00  0.00    -0.206 F 
ATOM     71  C   UNL A   1      42.885  25.138  25.242  1.00  0.00     0.022 A 
BRANCH  68  72
ATOM     72  S   UNL A   1      41.942  22.746  26.314  1.00  0.00     0.124 S 
ATOM     73  O   UNL A   1      42.669  22.339  27.513  1.00  0.00    -0.237 OA
ATOM     74  O   UNL A   1      40.489  22.650  26.383  1.00  0.00    -0.237 OA
ATOM     75  O   UNL A   1      42.537  22.307  25.052  1.00  0.00    -0.744 OA
ENDBRANCH  68  72
ENDBRANCH  51  65
BRANCH  52  76
ATOM     76  C   UNL A   1      39.500  32.410  35.211  1.00  0.00     0.023 A 
ATOM     77  C   UNL A   1      39.888  33.746  35.397  1.00  0.00     0.031 A 
ATOM     78  C   UNL A   1      38.706  31.810  36.207  1.00  0.00     0.131 A 
ATOM     79  C   UNL A   1      39.513  34.425  36.567  1.00  0.00     0.055 A 
ATOM     80  C   UNL A   1      38.284  32.509  37.337  1.00  0.00     0.041 A 
ATOM     81  F   UNL A   1      38.315  30.532  36.084  1.00  0.00    -0.206 F 
ATOM     82  C   UNL A   1      38.698  33.822  37.529  1.00  0.00     0.022 A 
BRANCH  79  83
ATOM     83  S   UNL A   1      40.181  36.085  36.862  1.00  0.00     0.124 S 
ATOM     84  O   UNL A   1      39.885  36.753  35.599  1.00  0.00    -0.237 OA
ATOM     85  O   UNL A   1      39.404  36.522  38.017  1.00  0.00    -0.237 OA
ATOM     86  O   UNL A   1      41.597  35.840  37.122  1.00  0.00    -0.744 OA
ENDBRANCH  79  83
ENDBRANCH  52  76
BRANCH  64  87
ATOM     87  C   UNL A   1      44.417  27.549  34.356  1.00  0.00     0.023 A 
ATOM     88  C   UNL A   1      45.687  28.146  34.421  1.00  0.00     0.031 A 
ATOM     89  C   UNL A   1      44.165  26.429  35.170  1.00  0.00     0.131 A 
ATOM     90  C   UNL A   1      46.674  27.595  35.254  1.00  0.00     0.055 A 
ATOM     91  C   UNL A   1      45.136  25.912  36.027  1.00  0.00     0.041 A 
ATOM     92  F   UNL A   1      42.968  25.823  35.143  1.00  0.00    -0.206 F 
ATOM     93  C   UNL A   1      46.403  26.489  36.065  1.00  0.00     0.022 A 
BRANCH  90  94
ATOM     94  S   UNL A   1      48.342  28.307  35.223  1.00  0.00     0.124 S 
ATOM     95  O   UNL A   1      49.168  27.135  34.952  1.00  0.00    -0.237 OA
ATOM     96  O   UNL A   1      48.247  29.284  34.144  1.00  0.00    -0.237 OA
ATOM     97  O   UNL A   1      48.496  28.878  36.561  1.00  0.00    -0.744 OA
ENDBRANCH  90  94
ENDBRANCH  64  87
ENDBRANCH  38  39
ENDBRANCH  31  33
ENDBRANCH  30  31
ENDBRANCH  29  30
ENDBRANCH  28  29
ENDBRANCH   1  28
TORSDOF 21
ENDMDL
MODEL 3
REMARK VINA RESULT:     -11.4      4.917      9.036
REMARK SMILES COc1ccc([C@H]2CC(c3ccccc3)=NN2C(=O)CCCC(=O)OCCOC(=O)c2ccc(-c3c4nc(c(-c5cc(S(=O)(=O)[O-])ccc5F)c5ccc([nH]5)c(-c5cc(S(=O)(=O)[O-])ccc5F)c5nc(c(-c6cc(S(=O)(=O)[O-])ccc6F)c6ccc3[nH]6)C=C5)C=C4)cc2)cc1
REMARK SMILES IDX 25 1 23 2 24 3 22 4 21 5 20 6 18 7 19 8 17 9 7 10 8 11 9 12
REMARK SMILES IDX 16 13 6 14 3 15 4 16 95 17 5 18 94 19 2 20 1 21 10 22 11 23
REMARK SMILES IDX 15 24 12 25 14 26 13 27 26 28 27 29 28 30 29 31 30 32 31 33
REMARK SMILES IDX 32 34 93 35 33 36 92 37 34 38 35 39 36 40 86 41 37 42 91 43
REMARK SMILES IDX 85 44 87 45 38 46 90 47 84 48 83 49 39 51 71 52 51 53 70 54
REMARK SMILES IDX 52 55 55 56 69 57 88 58 53 59 54 60 68 62 89 63 56 64 40 65
REMARK SMILES IDX 41 66 49 67 42 68 48 69 50 70 47 71 43 72 44 73 45 74 46 75
REMARK SMILES IDX 72 76 73 77 81 78 74 79 80 80 82 81 79 82 75 83 76 84 77 85
REMARK SMILES IDX 78 86 57 87 58 88 66 89 59 90 65 91 67 92 64 93 60 94 61 95
REMARK SMILES IDX 62 96 63 97
REMARK H PARENT 87 50 55 61
REMARK Flexibility Score: inf
ROOT
ATOM      1  O   UNL A   1      32.287  33.497  27.862  1.00  0.00    -0.462 OA
ENDROOT
BRANCH   1   2
ATOM      2  C   UNL A   1      32.344  32.320  27.189  1.00  0.00     0.305 C 
ATOM      3  O   UNL A   1      31.419  31.852  26.536  1.00  0.00    -0.252 OA
BRANCH   2   4
ATOM      4  C   UNL A   1      33.668  31.622  27.362  1.00  0.00     0.123 C 
BRANCH   4   5
ATOM      5  C   UNL A   1      33.575  30.195  27.894  1.00  0.00     0.022 C 
BRANCH   5   6
ATOM      6  C   UNL A   1      33.496  29.092  26.842  1.00  0.00     0.103 C 
BRANCH   6   7
ATOM      7  C   UNL A   1      32.471  27.996  27.079  1.00  0.00     0.243 C 
ATOM      8  O   UNL A   1      31.622  28.142  27.962  1.00  0.00    -0.273 OA
BRANCH   7   9
ATOM      9  N   UNL A   1      32.438  26.978  26.141  1.00  0.00    -0.225 N 
ATOM     10  C   UNL A   1      31.273  26.314  25.535  1.00  0.00     0.147 C 
ATOM     11  C   UNL A   1      31.862  25.088  24.850  1.00  0.00     0.091 C 
ATOM     12  C   UNL A   1      33.324  25.377  25.023  1.00  0.00     0.071 C 
ATOM     13  N   UNL A   1      33.626  26.418  25.734  1.00  0.00    -0.174 NA
BRANCH  10  14
ATOM     14  C   UNL A   1      30.527  27.201  24.552  1.00  0.00    -0.023 A 
ATOM     15  C   UNL A   1      29.241  28.825  22.626  1.00  0.00     0.118 A 
ATOM     16  C   UNL A   1      30.531  29.124  23.047  1.00  0.00     0.047 A 
ATOM     17  C   UNL A   1      28.591  27.721  23.174  1.00  0.00     0.047 A 
ATOM     18  C   UNL A   1      31.149  28.347  24.034  1.00  0.00     0.010 A 
ATOM     19  C   UNL A   1      29.221  26.918  24.131  1.00  0.00     0.010 A 
BRANCH  15  20
ATOM     20  O   UNL A   1      28.542  29.494  21.665  1.00  0.00    -0.497 OA
ATOM     21  C   UNL A   1      28.879  30.855  21.408  1.00  0.00     0.278 C 
ENDBRANCH  15  20
ENDBRANCH  10  14
BRANCH  12  22
ATOM     22  C   UNL A   1      34.336  24.446  24.512  1.00  0.00    -0.002 A 
ATOM     23  C   UNL A   1      34.024  23.681  23.382  1.00  0.00     0.010 A 
ATOM     24  C   UNL A   1      35.583  24.335  25.127  1.00  0.00     0.010 A 
ATOM     25  C   UNL A   1      34.971  22.801  22.863  1.00  0.00     0.001 A 
ATOM     26  C   UNL A   1      36.518  23.436  24.613  1.00  0.00     0.001 A 
ATOM     27  C   UNL A   1      36.214  22.675  23.482  1.00  0.00     0.000 A 
ENDBRANCH  12  22
ENDBRANCH   7   9
ENDBRANCH   6   7
ENDBRANCH   5   6
ENDBRANCH   4   5
ENDBRANCH   2   4
ENDBRANCH   1   2
BRANCH   1  28
ATOM     28  C   UNL A   1      33.571  34.093  28.123  1.00  0.00     0.274 C 
BRANCH  28  29
ATOM     29  C   UNL A   1      33.806  34.295  29.621  1.00  0.00     0.275 C 
BRANCH  29  30
ATOM     30  O   UNL A   1      35.092  33.796  30.041  1.00  0.00    -0.458 OA
BRANCH  30  31
ATOM     31  C   UNL A   1      35.055  32.658  30.773  1.00  0.00     0.338 C 
ATOM     32  O   UNL A   1      34.223  32.378  31.632  1.00  0.00    -0.246 OA
BRANCH  31  33
ATOM     33  C   UNL A   1      36.180  31.760  30.448  1.00  0.00     0.060 A 
ATOM     34  C   UNL A   1      36.690  30.847  31.373  1.00  0.00     0.016 A 
ATOM     35  C   UNL A   1      36.822  31.926  29.221  1.00  0.00     0.016 A 
ATOM     36  C   UNL A   1      37.885  30.163  31.097  1.00  0.00     0.010 A 
ATOM     37  C   UNL A   1      37.969  31.182  28.923  1.00  0.00     0.010 A 
ATOM     38  C   UNL A   1      38.551  30.318  29.871  1.00  0.00    -0.014 A 
BRANCH  38  39
ATOM     39  C   UNL A   1      39.869  29.673  29.547  1.00  0.00     0.031 A 
ATOM     40  C   UNL A   1      41.124  30.517  29.578  1.00  0.00     0.074 A 
ATOM     41  C   UNL A   1      39.993  28.380  29.180  1.00  0.00     0.049 A 
ATOM     42  N   UNL A   1      42.247  30.368  28.923  1.00  0.00    -0.248 NA
ATOM     43  C   UNL A   1      41.088  31.703  30.448  1.00  0.00     0.031 C 
ATOM     44  C   UNL A   1      38.937  27.370  29.199  1.00  0.00     0.029 A 
ATOM     45  N   UNL A   1      41.086  27.702  28.680  1.00  0.00    -0.354 N 
ATOM     46  C   UNL A   1      43.015  31.492  29.223  1.00  0.00     0.074 A 
ATOM     47  C   UNL A   1      42.235  32.296  30.142  1.00  0.00     0.031 C 
ATOM     48  C   UNL A   1      39.428  26.209  28.741  1.00  0.00     0.029 A 
ATOM     49  C   UNL A   1      40.792  26.420  28.267  1.00  0.00     0.049 A 
ATOM     50  H   UNL A   1      41.987  28.094  28.623  1.00  0.00     0.167 HD
ATOM     51  C   UNL A   1      44.244  31.828  28.754  1.00  0.00     0.034 A 
ATOM     52  C   UNL A   1      41.487  25.544  27.511  1.00  0.00     0.034 A 
ATOM     53  C   UNL A   1      45.041  30.978  27.901  1.00  0.00     0.049 A 
ATOM     54  C   UNL A   1      42.833  25.941  26.955  1.00  0.00     0.074 A 
ATOM     55  C   UNL A   1      46.287  31.230  27.348  1.00  0.00     0.029 A 
ATOM     56  N   UNL A   1      44.688  29.696  27.508  1.00  0.00    -0.354 N 
ATOM     57  N   UNL A   1      43.477  27.076  27.086  1.00  0.00    -0.248 NA
ATOM     58  C   UNL A   1      43.531  24.946  26.126  1.00  0.00     0.031 C 
ATOM     59  C   UNL A   1      46.668  30.116  26.592  1.00  0.00     0.029 A 
ATOM     60  C   UNL A   1      45.690  29.146  26.725  1.00  0.00     0.049 A 
ATOM     61  H   UNL A   1      43.848  29.243  27.748  1.00  0.00     0.167 HD
ATOM     62  C   UNL A   1      44.664  26.922  26.372  1.00  0.00     0.074 A 
ATOM     63  C   UNL A   1      44.652  25.584  25.822  1.00  0.00     0.031 C 
ATOM     64  C   UNL A   1      45.674  27.808  26.188  1.00  0.00     0.034 A 
BRANCH  51  65
ATOM     65  C   UNL A   1      44.774  33.201  29.088  1.00  0.00     0.023 A 
ATOM     66  C   UNL A   1      44.537  34.321  28.276  1.00  0.00     0.031 A 
ATOM     67  C   UNL A   1      45.531  33.386  30.262  1.00  0.00     0.131 A 
ATOM     68  C   UNL A   1      45.095  35.563  28.621  1.00  0.00     0.055 A 
ATOM     69  C   UNL A   1      46.021  34.637  30.636  1.00  0.00     0.041 A 
ATOM     70  F   UNL A   1      45.807  32.347  31.066  1.00  0.00    -0.206 F 
ATOM     71  C   UNL A   1      45.812  35.734  29.807  1.00  0.00     0.022 A 
BRANCH  68  72
ATOM     72  S   UNL A   1      44.962  36.932  27.439  1.00  0.00     0.124 S 
ATOM     73  O   UNL A   1      43.515  37.030  27.266  1.00  0.00    -0.237 OA
ATOM     74  O   UNL A   1      45.596  38.031  28.158  1.00  0.00    -0.237 OA
ATOM     75  O   UNL A   1      45.692  36.447  26.269  1.00  0.00    -0.744 OA
ENDBRANCH  68  72
ENDBRANCH  51  65
BRANCH  52  76
ATOM     76  C   UNL A   1      40.874  24.239  27.122  1.00  0.00     0.023 A 
ATOM     77  C   UNL A   1      41.611  23.045  27.162  1.00  0.00     0.031 A 
ATOM     78  C   UNL A   1      39.547  24.178  26.653  1.00  0.00     0.131 A 
ATOM     79  C   UNL A   1      41.030  21.850  26.709  1.00  0.00     0.055 A 
ATOM     80  C   UNL A   1      38.955  22.978  26.262  1.00  0.00     0.041 A 
ATOM     81  F   UNL A   1      38.800  25.291  26.585  1.00  0.00    -0.206 F 
ATOM     82  C   UNL A   1      39.702  21.805  26.277  1.00  0.00     0.022 A 
BRANCH  79  83
ATOM     83  S   UNL A   1      42.065  20.366  26.602  1.00  0.00     0.124 S 
ATOM     84  O   UNL A   1      41.874  19.775  27.923  1.00  0.00    -0.237 OA
ATOM     85  O   UNL A   1      41.455  19.652  25.485  1.00  0.00    -0.237 OA
ATOM     86  O   UNL A   1      43.400  20.899  26.344  1.00  0.00    -0.744 OA
ENDBRANCH  79  83
ENDBRANCH  52  76
BRANCH  64  87
ATOM     87  C   UNL A   1      46.881  27.331  25.423  1.00  0.00     0.023 A 
ATOM     88  C   UNL A   1      47.119  27.714  24.092  1.00  0.00     0.031 A 
ATOM     89  C   UNL A   1      47.807  26.474  26.045  1.00  0.00     0.131 A 
ATOM     90  C   UNL A   1      48.237  27.206  23.412  1.00  0.00     0.055 A 
ATOM     91  C   UNL A   1      48.939  26.007  25.377  1.00  0.00     0.041 A 
ATOM     92  F   UNL A   1      47.624  26.080  27.315  1.00  0.00    -0.206 F 
ATOM     93  C   UNL A   1      49.153  26.365  24.049  1.00  0.00     0.022 A 
BRANCH  90  94
ATOM     94  S   UNL A   1      48.452  27.614  21.657  1.00  0.00     0.124 S 
ATOM     95  O   UNL A   1      47.116  28.065  21.283  1.00  0.00    -0.237 OA
ATOM     96  O   UNL A   1      49.485  28.644  21.697  1.00  0.00    -0.237 OA
ATOM     97  O   UNL A   1      48.868  26.345  21.058  1.00  0.00    -0.744 OA
ENDBRANCH  90  94
ENDBRANCH  64  87
ENDBRANCH  38  39
ENDBRANCH  31  33
ENDBRANCH  30  31
ENDBRANCH  29  30
ENDBRANCH  28  29
ENDBRANCH   1  28
TORSDOF 21
ENDMDL
