MODEL 1
REMARK VINA RESULT:     -11.3      0.000      0.000
REMARK SMILES C[C@@H](C(=O)OCCOC(=O)c1ccc(-c2c3nc(c(-c4cc(S(=O)(=O)[O-])ccc4F)c4ccc([nH]4)c(-c4cc(S(=O)(=O)[O-])ccc4F)c4nc(c(-c5cc(S(=O)(=O)[O-])ccc5F)c5ccc2[nH]5)C=C4)C=C3)cc1)c1ccc(Cc2ccco2)cc1F
REMARK SMILES IDX 6 1 5 2 3 3 4 4 2 5 1 6 74 7 75 8 85 9 76 10 84 11 86 12
REMARK SMILES IDX 77 13 78 14 79 15 80 16 83 17 81 18 82 19 7 20 8 21 9 22
REMARK SMILES IDX 10 23 11 24 12 25 73 26 13 27 72 28 14 29 15 30 16 31 66 32
REMARK SMILES IDX 17 33 71 34 65 35 67 36 18 37 70 38 64 39 63 40 19 42 51 43
REMARK SMILES IDX 31 44 50 45 32 46 35 47 49 48 68 49 33 50 34 51 48 53 69 54
REMARK SMILES IDX 36 55 20 56 21 57 29 58 22 59 28 60 30 61 27 62 23 63 24 64
REMARK SMILES IDX 25 65 26 66 52 67 53 68 61 69 54 70 60 71 62 72 59 73 55 74
REMARK SMILES IDX 56 75 57 76 58 77 37 78 38 79 46 80 39 81 45 82 47 83 44 84
REMARK SMILES IDX 40 85 41 86 42 87 43 88
REMARK H PARENT 67 41 35 52
REMARK Flexibility Score: inf
ROOT
ATOM      1  C   UNL A   1      36.155  19.952  24.934  1.00  0.00     0.274 C 
ENDROOT
BRANCH   1   2
ATOM      2  O   UNL A   1      35.920  21.352  25.171  1.00  0.00    -0.462 OA
BRANCH   2   3
ATOM      3  C   UNL A   1      34.794  21.857  24.592  1.00  0.00     0.313 C 
ATOM      4  O   UNL A   1      33.655  21.512  24.889  1.00  0.00    -0.252 OA
BRANCH   3   5
ATOM      5  C   UNL A   1      35.122  22.830  23.461  1.00  0.00     0.129 C 
ATOM      6  C   UNL A   1      36.657  22.947  23.359  1.00  0.00     0.025 C 
BRANCH   5   7
ATOM      7  C   UNL A   1      34.423  24.184  23.487  1.00  0.00     0.002 A 
ATOM      8  C   UNL A   1      33.615  24.572  22.404  1.00  0.00     0.008 A 
ATOM      9  C   UNL A   1      34.488  25.074  24.564  1.00  0.00     0.127 A 
ATOM     10  C   UNL A   1      33.000  25.827  22.354  1.00  0.00     0.005 A 
ATOM     11  C   UNL A   1      33.863  26.328  24.529  1.00  0.00     0.043 A 
ATOM     12  F   UNL A   1      35.200  24.765  25.657  1.00  0.00    -0.207 F 
ATOM     13  C   UNL A   1      33.160  26.750  23.390  1.00  0.00    -0.038 A 
BRANCH  13  14
ATOM     14  C   UNL A   1      32.564  28.149  23.330  1.00  0.00     0.111 C 
BRANCH  14  15
ATOM     15  C   UNL A   1      31.071  28.200  23.240  1.00  0.00     0.108 A 
ATOM     16  C   UNL A   1      30.063  27.288  23.490  1.00  0.00     0.046 A 
ATOM     17  O   UNL A   1      30.523  29.397  22.879  1.00  0.00    -0.469 OA
ATOM     18  C   UNL A   1      28.840  27.959  23.256  1.00  0.00     0.042 A 
ATOM     19  C   UNL A   1      29.175  29.248  22.917  1.00  0.00     0.195 A 
ENDBRANCH  14  15
ENDBRANCH  13  14
ENDBRANCH   5   7
ENDBRANCH   3   5
ENDBRANCH   2   3
ENDBRANCH   1   2
BRANCH   1  20
ATOM     20  C   UNL A   1      37.659  19.688  24.964  1.00  0.00     0.275 C 
BRANCH  20  21
ATOM     21  O   UNL A   1      38.293  20.847  25.533  1.00  0.00    -0.458 OA
BRANCH  21  22
ATOM     22  C   UNL A   1      39.501  20.641  26.101  1.00  0.00     0.338 C 
ATOM     23  O   UNL A   1      40.143  19.602  26.147  1.00  0.00    -0.246 OA
BRANCH  22  24
ATOM     24  C   UNL A   1      39.991  21.941  26.571  1.00  0.00     0.060 A 
ATOM     25  C   UNL A   1      39.329  23.086  26.129  1.00  0.00     0.016 A 
ATOM     26  C   UNL A   1      41.114  22.040  27.393  1.00  0.00     0.016 A 
ATOM     27  C   UNL A   1      39.803  24.340  26.500  1.00  0.00     0.010 A 
ATOM     28  C   UNL A   1      41.558  23.306  27.796  1.00  0.00     0.010 A 
ATOM     29  C   UNL A   1      40.910  24.470  27.346  1.00  0.00    -0.014 A 
BRANCH  29  30
ATOM     30  C   UNL A   1      41.434  25.829  27.647  1.00  0.00     0.031 A 
ATOM     31  C   UNL A   1      42.783  26.227  27.118  1.00  0.00     0.074 A 
ATOM     32  C   UNL A   1      40.684  26.734  28.309  1.00  0.00     0.049 A 
ATOM     33  N   UNL A   1      43.494  27.296  27.367  1.00  0.00    -0.248 NA
ATOM     34  C   UNL A   1      43.415  25.285  26.181  1.00  0.00     0.031 C 
ATOM     35  C   UNL A   1      39.317  26.516  28.783  1.00  0.00     0.029 A 
ATOM     36  N   UNL A   1      40.961  28.027  28.683  1.00  0.00    -0.354 N 
ATOM     37  C   UNL A   1      44.666  27.148  26.634  1.00  0.00     0.074 A 
ATOM     38  C   UNL A   1      44.581  25.870  25.957  1.00  0.00     0.031 C 
ATOM     39  C   UNL A   1      38.869  27.642  29.362  1.00  0.00     0.029 A 
ATOM     40  C   UNL A   1      39.938  28.638  29.370  1.00  0.00     0.049 A 
ATOM     41  H   UNL A   1      41.814  28.475  28.477  1.00  0.00     0.167 HD
ATOM     42  C   UNL A   1      45.706  28.011  26.519  1.00  0.00     0.034 A 
ATOM     43  C   UNL A   1      39.884  29.845  29.973  1.00  0.00     0.034 A 
ATOM     44  C   UNL A   1      45.767  29.293  27.176  1.00  0.00     0.049 A 
ATOM     45  C   UNL A   1      41.108  30.728  29.949  1.00  0.00     0.074 A 
ATOM     46  C   UNL A   1      46.798  30.217  27.177  1.00  0.00     0.029 A 
ATOM     47  N   UNL A   1      44.746  29.839  27.946  1.00  0.00    -0.354 N 
ATOM     48  N   UNL A   1      42.258  30.533  29.343  1.00  0.00    -0.248 NA
ATOM     49  C   UNL A   1      41.036  31.984  30.709  1.00  0.00     0.031 C 
ATOM     50  C   UNL A   1      46.425  31.292  27.991  1.00  0.00     0.029 A 
ATOM     51  C   UNL A   1      45.136  31.072  28.449  1.00  0.00     0.049 A 
ATOM     52  H   UNL A   1      43.875  29.414  28.111  1.00  0.00     0.167 HD
ATOM     53  C   UNL A   1      43.040  31.647  29.645  1.00  0.00     0.074 A 
ATOM     54  C   UNL A   1      42.224  32.519  30.463  1.00  0.00     0.031 C 
ATOM     55  C   UNL A   1      44.318  31.922  29.281  1.00  0.00     0.034 A 
BRANCH  42  56
ATOM     56  C   UNL A   1      46.885  27.547  25.705  1.00  0.00     0.023 A 
ATOM     57  C   UNL A   1      47.085  27.968  24.380  1.00  0.00     0.031 A 
ATOM     58  C   UNL A   1      47.789  26.617  26.250  1.00  0.00     0.131 A 
ATOM     59  C   UNL A   1      48.122  27.407  23.620  1.00  0.00     0.055 A 
ATOM     60  C   UNL A   1      48.860  26.116  25.510  1.00  0.00     0.041 A 
ATOM     61  F   UNL A   1      47.631  26.165  27.503  1.00  0.00    -0.206 F 
ATOM     62  C   UNL A   1      49.024  26.499  24.182  1.00  0.00     0.022 A 
BRANCH  59  63
ATOM     63  S   UNL A   1      48.192  27.773  21.844  1.00  0.00     0.124 S 
ATOM     64  O   UNL A   1      49.315  28.704  21.778  1.00  0.00    -0.237 OA
ATOM     65  O   UNL A   1      48.418  26.456  21.260  1.00  0.00    -0.237 OA
ATOM     66  O   UNL A   1      46.884  28.365  21.565  1.00  0.00    -0.744 OA
ENDBRANCH  59  63
ENDBRANCH  42  56
BRANCH  43  67
ATOM     67  C   UNL A   1      38.667  30.268  30.730  1.00  0.00     0.023 A 
ATOM     68  C   UNL A   1      37.624  30.967  30.104  1.00  0.00     0.031 A 
ATOM     69  C   UNL A   1      38.566  30.041  32.116  1.00  0.00     0.131 A 
ATOM     70  C   UNL A   1      36.547  31.449  30.866  1.00  0.00     0.055 A 
ATOM     71  C   UNL A   1      37.466  30.471  32.858  1.00  0.00     0.041 A 
ATOM     72  F   UNL A   1      39.541  29.390  32.771  1.00  0.00    -0.206 F 
ATOM     73  C   UNL A   1      36.453  31.190  32.235  1.00  0.00     0.022 A 
BRANCH  70  74
ATOM     74  S   UNL A   1      35.305  32.498  30.058  1.00  0.00     0.124 S 
ATOM     75  O   UNL A   1      34.884  31.656  28.944  1.00  0.00    -0.237 OA
ATOM     76  O   UNL A   1      34.328  32.688  31.124  1.00  0.00    -0.237 OA
ATOM     77  O   UNL A   1      36.058  33.693  29.687  1.00  0.00    -0.744 OA
ENDBRANCH  70  74
ENDBRANCH  43  67
BRANCH  55  78
ATOM     78  C   UNL A   1      44.894  33.234  29.751  1.00  0.00     0.023 A 
ATOM     79  C   UNL A   1      44.771  34.408  28.985  1.00  0.00     0.031 A 
ATOM     80  C   UNL A   1      45.581  33.311  30.974  1.00  0.00     0.131 A 
ATOM     81  C   UNL A   1      45.366  35.598  29.430  1.00  0.00     0.055 A 
ATOM     82  C   UNL A   1      46.129  34.508  31.435  1.00  0.00     0.041 A 
ATOM     83  F   UNL A   1      45.727  32.220  31.744  1.00  0.00    -0.206 F 
ATOM     84  C   UNL A   1      46.033  35.658  30.657  1.00  0.00     0.022 A 
BRANCH  81  85
ATOM     85  S   UNL A   1      45.320  37.056  28.351  1.00  0.00     0.124 S 
ATOM     86  O   UNL A   1      46.563  36.917  27.599  1.00  0.00    -0.237 OA
ATOM     87  O   UNL A   1      44.090  36.847  27.595  1.00  0.00    -0.237 OA
ATOM     88  O   UNL A   1      45.285  38.177  29.289  1.00  0.00    -0.744 OA
ENDBRANCH  81  85
ENDBRANCH  55  78
ENDBRANCH  29  30
ENDBRANCH  22  24
ENDBRANCH  21  22
ENDBRANCH  20  21
ENDBRANCH   1  20
TORSDOF 17
ENDMDL
MODEL 2
REMARK VINA RESULT:     -11.2      1.424      7.818
REMARK SMILES C[C@@H](C(=O)OCCOC(=O)c1ccc(-c2c3nc(c(-c4cc(S(=O)(=O)[O-])ccc4F)c4ccc([nH]4)c(-c4cc(S(=O)(=O)[O-])ccc4F)c4nc(c(-c5cc(S(=O)(=O)[O-])ccc5F)c5ccc2[nH]5)C=C4)C=C3)cc1)c1ccc(Cc2ccco2)cc1F
REMARK SMILES IDX 6 1 5 2 3 3 4 4 2 5 1 6 74 7 75 8 85 9 76 10 84 11 86 12
REMARK SMILES IDX 77 13 78 14 79 15 80 16 83 17 81 18 82 19 7 20 8 21 9 22
REMARK SMILES IDX 10 23 11 24 12 25 73 26 13 27 72 28 14 29 15 30 16 31 66 32
REMARK SMILES IDX 17 33 71 34 65 35 67 36 18 37 70 38 64 39 63 40 19 42 51 43
REMARK SMILES IDX 31 44 50 45 32 46 35 47 49 48 68 49 33 50 34 51 48 53 69 54
REMARK SMILES IDX 36 55 20 56 21 57 29 58 22 59 28 60 30 61 27 62 23 63 24 64
REMARK SMILES IDX 25 65 26 66 52 67 53 68 61 69 54 70 60 71 62 72 59 73 55 74
REMARK SMILES IDX 56 75 57 76 58 77 37 78 38 79 46 80 39 81 45 82 47 83 44 84
REMARK SMILES IDX 40 85 41 86 42 87 43 88
REMARK H PARENT 67 41 35 52
REMARK Flexibility Score: inf
ROOT
ATOM      1  C   UNL A   1      35.219  21.620  25.395  1.00  0.00     0.274 C 
ENDROOT
BRANCH   1   2
ATOM      2  O   UNL A   1      34.283  21.551  24.305  1.00  0.00    -0.462 OA
BRANCH   2   3
ATOM      3  C   UNL A   1      33.114  20.907  24.585  1.00  0.00     0.313 C 
ATOM      4  O   UNL A   1      33.032  19.912  25.299  1.00  0.00    -0.252 OA
BRANCH   3   5
ATOM      5  C   UNL A   1      31.934  21.511  23.826  1.00  0.00     0.129 C 
ATOM      6  C   UNL A   1      32.157  21.266  22.319  1.00  0.00     0.025 C 
BRANCH   5   7
ATOM      7  C   UNL A   1      31.572  22.957  24.145  1.00  0.00     0.002 A 
ATOM      8  C   UNL A   1      31.789  23.959  23.183  1.00  0.00     0.008 A 
ATOM      9  C   UNL A   1      30.973  23.364  25.342  1.00  0.00     0.127 A 
ATOM     10  C   UNL A   1      31.528  25.307  23.449  1.00  0.00     0.005 A 
ATOM     11  C   UNL A   1      30.694  24.712  25.611  1.00  0.00     0.043 A 
ATOM     12  F   UNL A   1      30.688  22.468  26.297  1.00  0.00    -0.207 F 
ATOM     13  C   UNL A   1      31.029  25.714  24.688  1.00  0.00    -0.038 A 
BRANCH  13  14
ATOM     14  C   UNL A   1      30.805  27.179  25.030  1.00  0.00     0.111 C 
BRANCH  14  15
ATOM     15  C   UNL A   1      31.971  27.871  25.663  1.00  0.00     0.108 A 
ATOM     16  C   UNL A   1      32.979  27.464  26.517  1.00  0.00     0.046 A 
ATOM     17  O   UNL A   1      32.160  29.179  25.326  1.00  0.00    -0.469 OA
ATOM     18  C   UNL A   1      33.816  28.587  26.721  1.00  0.00     0.042 A 
ATOM     19  C   UNL A   1      33.291  29.595  25.950  1.00  0.00     0.195 A 
ENDBRANCH  14  15
ENDBRANCH  13  14
ENDBRANCH   5   7
ENDBRANCH   3   5
ENDBRANCH   2   3
ENDBRANCH   1   2
BRANCH   1  20
ATOM     20  C   UNL A   1      36.460  20.804  25.037  1.00  0.00     0.275 C 
BRANCH  20  21
ATOM     21  O   UNL A   1      37.593  21.689  25.094  1.00  0.00    -0.458 OA
BRANCH  21  22
ATOM     22  C   UNL A   1      38.649  21.251  25.813  1.00  0.00     0.338 C 
ATOM     23  O   UNL A   1      39.048  20.103  25.941  1.00  0.00    -0.246 OA
BRANCH  22  24
ATOM     24  C   UNL A   1      39.336  22.433  26.345  1.00  0.00     0.060 A 
ATOM     25  C   UNL A   1      38.822  23.688  26.019  1.00  0.00     0.016 A 
ATOM     26  C   UNL A   1      40.498  22.316  27.110  1.00  0.00     0.016 A 
ATOM     27  C   UNL A   1      39.482  24.834  26.450  1.00  0.00     0.010 A 
ATOM     28  C   UNL A   1      41.131  23.476  27.575  1.00  0.00     0.010 A 
ATOM     29  C   UNL A   1      40.632  24.748  27.241  1.00  0.00    -0.014 A 
BRANCH  29  30
ATOM     30  C   UNL A   1      41.354  25.996  27.607  1.00  0.00     0.031 A 
ATOM     31  C   UNL A   1      40.658  27.023  28.454  1.00  0.00     0.074 A 
ATOM     32  C   UNL A   1      42.646  26.179  27.265  1.00  0.00     0.049 A 
ATOM     33  N   UNL A   1      41.036  28.233  28.777  1.00  0.00    -0.248 NA
ATOM     34  C   UNL A   1      39.354  26.629  29.010  1.00  0.00     0.031 C 
ATOM     35  C   UNL A   1      43.473  25.216  26.537  1.00  0.00     0.029 A 
ATOM     36  N   UNL A   1      43.495  27.233  27.500  1.00  0.00    -0.354 N 
ATOM     37  C   UNL A   1      40.010  28.753  29.557  1.00  0.00     0.074 A 
ATOM     38  C   UNL A   1      38.980  27.737  29.631  1.00  0.00     0.031 C 
ATOM     39  C   UNL A   1      44.714  25.714  26.408  1.00  0.00     0.029 A 
ATOM     40  C   UNL A   1      44.755  27.061  26.973  1.00  0.00     0.049 A 
ATOM     41  H   UNL A   1      43.227  28.039  27.999  1.00  0.00     0.167 HD
ATOM     42  C   UNL A   1      39.944  29.959  30.174  1.00  0.00     0.034 A 
ATOM     43  C   UNL A   1      45.805  27.907  26.914  1.00  0.00     0.034 A 
ATOM     44  C   UNL A   1      40.987  30.952  30.115  1.00  0.00     0.049 A 
ATOM     45  C   UNL A   1      45.655  29.296  27.487  1.00  0.00     0.074 A 
ATOM     46  C   UNL A   1      40.998  32.228  30.652  1.00  0.00     0.029 A 
ATOM     47  N   UNL A   1      42.215  30.777  29.488  1.00  0.00    -0.354 N 
ATOM     48  N   UNL A   1      44.637  29.822  28.130  1.00  0.00    -0.248 NA
ATOM     49  C   UNL A   1      46.789  30.215  27.305  1.00  0.00     0.031 C 
ATOM     50  C   UNL A   1      42.205  32.844  30.301  1.00  0.00     0.029 A 
ATOM     51  C   UNL A   1      42.976  31.932  29.599  1.00  0.00     0.049 A 
ATOM     52  H   UNL A   1      42.503  29.955  29.031  1.00  0.00     0.167 HD
ATOM     53  C   UNL A   1      45.014  31.128  28.434  1.00  0.00     0.074 A 
ATOM     54  C   UNL A   1      46.359  31.303  27.928  1.00  0.00     0.031 C 
ATOM     55  C   UNL A   1      44.309  32.098  29.072  1.00  0.00     0.034 A 
BRANCH  42  56
ATOM     56  C   UNL A   1      38.664  30.281  30.899  1.00  0.00     0.023 A 
ATOM     57  C   UNL A   1      37.614  30.980  30.280  1.00  0.00     0.031 A 
ATOM     58  C   UNL A   1      38.521  29.934  32.255  1.00  0.00     0.131 A 
ATOM     59  C   UNL A   1      36.498  31.371  31.034  1.00  0.00     0.055 A 
ATOM     60  C   UNL A   1      37.377  30.265  32.980  1.00  0.00     0.041 A 
ATOM     61  F   UNL A   1      39.503  29.286  32.900  1.00  0.00    -0.206 F 
ATOM     62  C   UNL A   1      36.363  31.001  32.375  1.00  0.00     0.022 A 
BRANCH  59  63
ATOM     63  S   UNL A   1      35.290  32.493  30.276  1.00  0.00     0.124 S 
ATOM     64  O   UNL A   1      34.830  31.705  29.135  1.00  0.00    -0.237 OA
ATOM     65  O   UNL A   1      34.322  32.685  31.350  1.00  0.00    -0.237 OA
ATOM     66  O   UNL A   1      36.084  33.671  29.932  1.00  0.00    -0.744 OA
ENDBRANCH  59  63
ENDBRANCH  42  56
BRANCH  43  67
ATOM     67  C   UNL A   1      47.066  27.513  26.217  1.00  0.00     0.023 A 
ATOM     68  C   UNL A   1      47.272  27.805  24.860  1.00  0.00     0.031 A 
ATOM     69  C   UNL A   1      48.057  26.769  26.886  1.00  0.00     0.131 A 
ATOM     70  C   UNL A   1      48.418  27.324  24.205  1.00  0.00     0.055 A 
ATOM     71  C   UNL A   1      49.221  26.342  26.246  1.00  0.00     0.041 A 
ATOM     72  F   UNL A   1      47.907  26.447  28.181  1.00  0.00    -0.206 F 
ATOM     73  C   UNL A   1      49.400  26.609  24.893  1.00  0.00     0.022 A 
BRANCH  70  74
ATOM     74  S   UNL A   1      48.567  27.569  22.413  1.00  0.00     0.124 S 
ATOM     75  O   UNL A   1      49.826  28.300  22.317  1.00  0.00    -0.237 OA
ATOM     76  O   UNL A   1      48.583  26.197  21.919  1.00  0.00    -0.237 OA
ATOM     77  O   UNL A   1      47.372  28.337  22.073  1.00  0.00    -0.744 OA
ENDBRANCH  70  74
ENDBRANCH  43  67
BRANCH  55  78
ATOM     78  C   UNL A   1      45.002  33.423  29.274  1.00  0.00     0.023 A 
ATOM     79  C   UNL A   1      44.890  34.463  28.333  1.00  0.00     0.031 A 
ATOM     80  C   UNL A   1      45.788  33.645  30.418  1.00  0.00     0.131 A 
ATOM     81  C   UNL A   1      45.592  35.661  28.531  1.00  0.00     0.055 A 
ATOM     82  C   UNL A   1      46.445  34.857  30.633  1.00  0.00     0.041 A 
ATOM     83  F   UNL A   1      45.927  32.685  31.347  1.00  0.00    -0.206 F 
ATOM     84  C   UNL A   1      46.358  35.869  29.682  1.00  0.00     0.022 A 
BRANCH  81  85
ATOM     85  S   UNL A   1      45.550  36.924  27.230  1.00  0.00     0.124 S 
ATOM     86  O   UNL A   1      44.116  37.087  27.010  1.00  0.00    -0.237 OA
ATOM     87  O   UNL A   1      46.229  38.050  27.863  1.00  0.00    -0.237 OA
ATOM     88  O   UNL A   1      46.280  36.304  26.125  1.00  0.00    -0.744 OA
ENDBRANCH  81  85
ENDBRANCH  55  78
ENDBRANCH  29  30
ENDBRANCH  22  24
ENDBRANCH  21  22
ENDBRANCH  20  21
ENDBRANCH   1  20
TORSDOF 17
ENDMDL
MODEL 3
REMARK VINA RESULT:     -11.1      3.578      6.532
REMARK SMILES C[C@@H](C(=O)OCCOC(=O)c1ccc(-c2c3nc(c(-c4cc(S(=O)(=O)[O-])ccc4F)c4ccc([nH]4)c(-c4cc(S(=O)(=O)[O-])ccc4F)c4nc(c(-c5cc(S(=O)(=O)[O-])ccc5F)c5ccc2[nH]5)C=C4)C=C3)cc1)c1ccc(Cc2ccco2)cc1F
REMARK SMILES IDX 6 1 5 2 3 3 4 4 2 5 1 6 74 7 75 8 85 9 76 10 84 11 86 12
REMARK SMILES IDX 77 13 78 14 79 15 80 16 83 17 81 18 82 19 7 20 8 21 9 22
REMARK SMILES IDX 10 23 11 24 12 25 73 26 13 27 72 28 14 29 15 30 16 31 66 32
REMARK SMILES IDX 17 33 71 34 65 35 67 36 18 37 70 38 64 39 63 40 19 42 51 43
REMARK SMILES IDX 31 44 50 45 32 46 35 47 49 48 68 49 33 50 34 51 48 53 69 54
REMARK SMILES IDX 36 55 20 56 21 57 29 58 22 59 28 60 30 61 27 62 23 63 24 64
REMARK SMILES IDX 25 65 26 66 52 67 53 68 61 69 54 70 60 71 62 72 59 73 55 74
REMARK SMILES IDX 56 75 57 76 58 77 37 78 38 79 46 80 39 81 45 82 47 83 44 84
REMARK SMILES IDX 40 85 41 86 42 87 43 88
REMARK H PARENT 67 41 35 52
REMARK Flexibility Score: inf
ROOT
ATOM      1  C   UNL A   1      42.232  21.014  26.579  1.00  0.00     0.274 C 
ENDROOT
BRANCH   1   2
ATOM      2  O   UNL A   1      43.018  21.567  25.509  1.00  0.00    -0.462 OA
BRANCH   2   3
ATOM      3  C   UNL A   1      43.261  22.906  25.601  1.00  0.00     0.313 C 
ATOM      4  O   UNL A   1      42.448  23.774  25.303  1.00  0.00    -0.252 OA
BRANCH   3   5
ATOM      5  C   UNL A   1      44.700  23.195  26.026  1.00  0.00     0.129 C 
ATOM      6  C   UNL A   1      45.564  21.972  25.657  1.00  0.00     0.025 C 
BRANCH   5   7
ATOM      7  C   UNL A   1      44.918  23.667  27.459  1.00  0.00     0.002 A 
ATOM      8  C   UNL A   1      44.010  23.287  28.463  1.00  0.00     0.008 A 
ATOM      9  C   UNL A   1      46.016  24.430  27.870  1.00  0.00     0.127 A 
ATOM     10  C   UNL A   1      44.134  23.741  29.780  1.00  0.00     0.005 A 
ATOM     11  C   UNL A   1      46.155  24.877  29.191  1.00  0.00     0.043 A 
ATOM     12  F   UNL A   1      46.953  24.799  26.986  1.00  0.00    -0.207 F 
ATOM     13  C   UNL A   1      45.177  24.591  30.155  1.00  0.00    -0.038 A 
BRANCH  13  14
ATOM     14  C   UNL A   1      45.295  25.159  31.562  1.00  0.00     0.111 C 
BRANCH  14  15
ATOM     15  C   UNL A   1      44.994  26.619  31.685  1.00  0.00     0.108 A 
ATOM     16  C   UNL A   1      44.109  27.473  31.054  1.00  0.00     0.046 A 
ATOM     17  O   UNL A   1      45.681  27.304  32.645  1.00  0.00    -0.469 OA
ATOM     18  C   UNL A   1      44.275  28.745  31.651  1.00  0.00     0.042 A 
ATOM     19  C   UNL A   1      45.221  28.581  32.633  1.00  0.00     0.195 A 
ENDBRANCH  14  15
ENDBRANCH  13  14
ENDBRANCH   5   7
ENDBRANCH   3   5
ENDBRANCH   2   3
ENDBRANCH   1   2
BRANCH   1  20
ATOM     20  C   UNL A   1      40.879  20.571  26.025  1.00  0.00     0.275 C 
BRANCH  20  21
ATOM     21  O   UNL A   1      39.860  21.092  26.896  1.00  0.00    -0.458 OA
BRANCH  21  22
ATOM     22  C   UNL A   1      39.018  21.994  26.348  1.00  0.00     0.338 C 
ATOM     23  O   UNL A   1      38.057  21.782  25.623  1.00  0.00    -0.246 OA
BRANCH  22  24
ATOM     24  C   UNL A   1      39.385  23.313  26.876  1.00  0.00     0.060 A 
ATOM     25  C   UNL A   1      38.975  24.439  26.162  1.00  0.00     0.016 A 
ATOM     26  C   UNL A   1      40.165  23.444  28.026  1.00  0.00     0.016 A 
ATOM     27  C   UNL A   1      39.359  25.704  26.594  1.00  0.00     0.010 A 
ATOM     28  C   UNL A   1      40.510  24.724  28.477  1.00  0.00     0.010 A 
ATOM     29  C   UNL A   1      40.115  25.867  27.759  1.00  0.00    -0.014 A 
BRANCH  29  30
ATOM     30  C   UNL A   1      40.576  27.231  28.136  1.00  0.00     0.031 A 
ATOM     31  C   UNL A   1      42.012  27.608  27.906  1.00  0.00     0.074 A 
ATOM     32  C   UNL A   1      39.710  28.156  28.597  1.00  0.00     0.049 A 
ATOM     33  N   UNL A   1      42.663  28.679  28.280  1.00  0.00    -0.248 NA
ATOM     34  C   UNL A   1      42.824  26.640  27.153  1.00  0.00     0.031 C 
ATOM     35  C   UNL A   1      38.269  27.957  28.764  1.00  0.00     0.029 A 
ATOM     36  N   UNL A   1      39.912  29.457  28.992  1.00  0.00    -0.354 N 
ATOM     37  C   UNL A   1      43.965  28.507  27.826  1.00  0.00     0.074 A 
ATOM     38  C   UNL A   1      44.017  27.212  27.177  1.00  0.00     0.031 C 
ATOM     39  C   UNL A   1      37.718  29.100  29.204  1.00  0.00     0.029 A 
ATOM     40  C   UNL A   1      38.769  30.091  29.423  1.00  0.00     0.049 A 
ATOM     41  H   UNL A   1      40.793  29.894  28.968  1.00  0.00     0.167 HD
ATOM     42  C   UNL A   1      45.014  29.360  27.922  1.00  0.00     0.034 A 
ATOM     43  C   UNL A   1      38.598  31.312  29.972  1.00  0.00     0.034 A 
ATOM     44  C   UNL A   1      44.944  30.658  28.547  1.00  0.00     0.049 A 
ATOM     45  C   UNL A   1      39.808  32.188  30.196  1.00  0.00     0.074 A 
ATOM     46  C   UNL A   1      45.960  31.576  28.752  1.00  0.00     0.029 A 
ATOM     47  N   UNL A   1      43.786  31.229  29.061  1.00  0.00    -0.354 N 
ATOM     48  N   UNL A   1      41.060  31.971  29.862  1.00  0.00    -0.248 NA
ATOM     49  C   UNL A   1      39.584  33.463  30.893  1.00  0.00     0.031 C 
ATOM     50  C   UNL A   1      45.430  32.673  29.440  1.00  0.00     0.029 A 
ATOM     51  C   UNL A   1      44.070  32.472  29.609  1.00  0.00     0.049 A 
ATOM     52  H   UNL A   1      42.895  30.812  29.041  1.00  0.00     0.167 HD
ATOM     53  C   UNL A   1      41.768  33.088  30.302  1.00  0.00     0.074 A 
ATOM     54  C   UNL A   1      40.803  33.985  30.901  1.00  0.00     0.031 C 
ATOM     55  C   UNL A   1      43.098  33.346  30.221  1.00  0.00     0.034 A 
BRANCH  42  56
ATOM     56  C   UNL A   1      46.338  28.869  27.397  1.00  0.00     0.023 A 
ATOM     57  C   UNL A   1      46.581  28.714  26.022  1.00  0.00     0.031 A 
ATOM     58  C   UNL A   1      47.352  28.493  28.296  1.00  0.00     0.131 A 
ATOM     59  C   UNL A   1      47.780  28.130  25.588  1.00  0.00     0.055 A 
ATOM     60  C   UNL A   1      48.570  27.977  27.855  1.00  0.00     0.041 A 
ATOM     61  F   UNL A   1      47.163  28.599  29.621  1.00  0.00    -0.206 F 
ATOM     62  C   UNL A   1      48.785  27.779  26.494  1.00  0.00     0.022 A 
BRANCH  59  63
ATOM     63  S   UNL A   1      47.952  27.704  23.833  1.00  0.00     0.124 S 
ATOM     64  O   UNL A   1      47.652  26.274  23.845  1.00  0.00    -0.237 OA
ATOM     65  O   UNL A   1      46.955  28.560  23.202  1.00  0.00    -0.237 OA
ATOM     66  O   UNL A   1      49.343  28.039  23.534  1.00  0.00    -0.744 OA
ENDBRANCH  59  63
ENDBRANCH  42  56
BRANCH  43  67
ATOM     67  C   UNL A   1      37.250  31.760  30.434  1.00  0.00     0.023 A 
ATOM     68  C   UNL A   1      36.369  32.432  29.572  1.00  0.00     0.031 A 
ATOM     69  C   UNL A   1      36.853  31.587  31.774  1.00  0.00     0.131 A 
ATOM     70  C   UNL A   1      35.155  32.939  30.067  1.00  0.00     0.055 A 
ATOM     71  C   UNL A   1      35.622  32.043  32.246  1.00  0.00     0.041 A 
ATOM     72  F   UNL A   1      37.662  30.966  32.647  1.00  0.00    -0.206 F 
ATOM     73  C   UNL A   1      34.770  32.734  31.393  1.00  0.00     0.022 A 
BRANCH  70  74
ATOM     74  S   UNL A   1      34.121  33.952  28.971  1.00  0.00     0.124 S 
ATOM     75  O   UNL A   1      33.152  34.508  29.908  1.00  0.00    -0.237 OA
ATOM     76  O   UNL A   1      35.092  34.891  28.420  1.00  0.00    -0.237 OA
ATOM     77  O   UNL A   1      33.584  32.984  28.018  1.00  0.00    -0.744 OA
ENDBRANCH  70  74
ENDBRANCH  43  67
BRANCH  55  78
ATOM     78  C   UNL A   1      43.572  34.667  30.775  1.00  0.00     0.023 A 
ATOM     79  C   UNL A   1      43.581  35.834  29.989  1.00  0.00     0.031 A 
ATOM     80  C   UNL A   1      44.025  34.758  32.102  1.00  0.00     0.131 A 
ATOM     81  C   UNL A   1      44.079  37.032  30.524  1.00  0.00     0.055 A 
ATOM     82  C   UNL A   1      44.474  35.963  32.643  1.00  0.00     0.041 A 
ATOM     83  F   UNL A   1      44.037  33.675  32.896  1.00  0.00    -0.206 F 
ATOM     84  C   UNL A   1      44.513  37.107  31.851  1.00  0.00     0.022 A 
BRANCH  81  85
ATOM     85  S   UNL A   1      44.219  38.481  29.441  1.00  0.00     0.124 S 
ATOM     86  O   UNL A   1      43.508  39.501  30.205  1.00  0.00    -0.237 OA
ATOM     87  O   UNL A   1      45.663  38.655  29.336  1.00  0.00    -0.237 OA
ATOM     88  O   UNL A   1      43.557  38.055  28.209  1.00  0.00    -0.744 OA
ENDBRANCH  81  85
ENDBRANCH  55  78
ENDBRANCH  29  30
ENDBRANCH  22  24
ENDBRANCH  21  22
ENDBRANCH  20  21
ENDBRANCH   1  20
TORSDOF 17
ENDMDL
