MODEL 1
REMARK VINA RESULT:     -12.2      0.000      0.000
REMARK SMILES C[C@H]1[C@@H](C(=O)OCCOC(=O)c2ccc(-c3c4nc(c(-c5cc(S(=O)(=O)[O-])ccc5F)c5ccc([nH]5)c(-c5cc(S(=O)(=O)[O-])ccc5F)c5nc(c(-c6cc(S(=O)(=O)[O-])ccc6F)c6ccc3[nH]6)C=C5)C=C4)cc2)CC[N@@H+]1Cc1cc(F)c(F)c(F)c1
REMARK SMILES IDX 8 1 7 2 6 3 4 4 5 5 3 6 1 7 2 8 77 9 75 10 76 11 78 13 79 14
REMARK SMILES IDX 80 15 87 16 81 17 85 18 82 19 83 20 86 21 84 22 9 23 10 24
REMARK SMILES IDX 11 25 12 26 13 27 74 28 14 29 73 30 15 31 16 32 17 33 67 34
REMARK SMILES IDX 18 35 72 36 66 37 68 38 19 39 71 40 65 41 64 42 20 44 52 45
REMARK SMILES IDX 32 46 51 47 33 48 36 49 50 50 69 51 34 52 35 53 49 55 70 56
REMARK SMILES IDX 37 57 21 58 22 59 30 60 23 61 29 62 31 63 28 64 24 65 25 66
REMARK SMILES IDX 26 67 27 68 53 69 54 70 62 71 55 72 61 73 63 74 60 75 56 76
REMARK SMILES IDX 57 77 58 78 59 79 38 80 39 81 47 82 40 83 46 84 48 85 45 86
REMARK SMILES IDX 41 87 42 88 43 89 44 90
REMARK H PARENT 77 12 68 43 36 54
REMARK Flexibility Score: inf
ROOT
ATOM      1  C   UNL A   1      35.855  21.572  24.648  1.00  0.00     0.275 C 
ENDROOT
BRANCH   1   2
ATOM      2  C   UNL A   1      34.941  20.407  25.003  1.00  0.00     0.274 C 
BRANCH   2   3
ATOM      3  O   UNL A   1      33.907  20.891  25.883  1.00  0.00    -0.462 OA
BRANCH   3   4
ATOM      4  C   UNL A   1      32.637  20.895  25.404  1.00  0.00     0.315 C 
ATOM      5  O   UNL A   1      32.059  19.913  24.953  1.00  0.00    -0.252 OA
BRANCH   4   6
ATOM      6  C   UNL A   1      31.980  22.256  25.520  1.00  0.00     0.162 C 
ATOM      7  C   UNL A   1      32.752  22.757  23.084  1.00  0.00     0.076 C 
ATOM      8  C   UNL A   1      31.779  23.055  24.228  1.00  0.00     0.195 C 
ATOM      9  N   UNL A   1      31.970  24.463  24.613  1.00  0.00    -0.328 N 
ATOM     10  C   UNL A   1      32.711  23.188  26.480  1.00  0.00     0.083 C 
ATOM     11  C   UNL A   1      32.906  24.490  25.732  1.00  0.00     0.263 C 
ATOM     12  H   UNL A   1      32.368  24.952  23.811  1.00  0.00     0.348 HD
BRANCH   9  13
ATOM     13  C   UNL A   1      30.770  25.282  24.783  1.00  0.00     0.299 C 
BRANCH  13  14
ATOM     14  C   UNL A   1      30.667  26.576  24.006  1.00  0.00     0.012 A 
ATOM     15  C   UNL A   1      29.408  27.124  23.712  1.00  0.00     0.052 A 
ATOM     16  C   UNL A   1      31.809  27.229  23.515  1.00  0.00     0.052 A 
ATOM     17  C   UNL A   1      29.303  28.287  22.950  1.00  0.00     0.162 A 
ATOM     18  C   UNL A   1      31.687  28.402  22.767  1.00  0.00     0.162 A 
ATOM     19  F   UNL A   1      28.085  28.771  22.667  1.00  0.00    -0.204 F 
ATOM     20  C   UNL A   1      30.437  28.930  22.479  1.00  0.00     0.194 A 
ATOM     21  F   UNL A   1      32.792  29.009  22.320  1.00  0.00    -0.204 F 
ATOM     22  F   UNL A   1      30.323  30.044  21.742  1.00  0.00    -0.200 F 
ENDBRANCH  13  14
ENDBRANCH   9  13
ENDBRANCH   4   6
ENDBRANCH   3   4
ENDBRANCH   2   3
ENDBRANCH   1   2
BRANCH   1  23
ATOM     23  O   UNL A   1      36.690  21.852  25.785  1.00  0.00    -0.458 OA
BRANCH  23  24
ATOM     24  C   UNL A   1      37.972  21.431  25.687  1.00  0.00     0.338 C 
ATOM     25  O   UNL A   1      38.368  20.359  25.262  1.00  0.00    -0.246 OA
BRANCH  24  26
ATOM     26  C   UNL A   1      38.873  22.486  26.181  1.00  0.00     0.060 A 
ATOM     27  C   UNL A   1      40.002  22.169  26.946  1.00  0.00     0.016 A 
ATOM     28  C   UNL A   1      38.520  23.816  25.961  1.00  0.00     0.016 A 
ATOM     29  C   UNL A   1      40.739  23.190  27.549  1.00  0.00     0.010 A 
ATOM     30  C   UNL A   1      39.320  24.832  26.483  1.00  0.00     0.010 A 
ATOM     31  C   UNL A   1      40.427  24.534  27.298  1.00  0.00    -0.014 A 
BRANCH  31  32
ATOM     32  C   UNL A   1      41.234  25.655  27.855  1.00  0.00     0.031 A 
ATOM     33  C   UNL A   1      40.555  26.734  28.656  1.00  0.00     0.074 A 
ATOM     34  C   UNL A   1      42.547  25.760  27.569  1.00  0.00     0.049 A 
ATOM     35  N   UNL A   1      40.957  27.948  28.924  1.00  0.00    -0.248 NA
ATOM     36  C   UNL A   1      39.231  26.402  29.204  1.00  0.00     0.031 C 
ATOM     37  C   UNL A   1      43.345  24.760  26.856  1.00  0.00     0.029 A 
ATOM     38  N   UNL A   1      43.436  26.778  27.814  1.00  0.00    -0.354 N 
ATOM     39  C   UNL A   1      39.911  28.550  29.618  1.00  0.00     0.074 A 
ATOM     40  C   UNL A   1      38.859  27.560  29.730  1.00  0.00     0.031 C 
ATOM     41  C   UNL A   1      44.600  25.213  26.720  1.00  0.00     0.029 A 
ATOM     42  C   UNL A   1      44.668  26.574  27.237  1.00  0.00     0.049 A 
ATOM     43  H   UNL A   1      43.213  27.574  28.349  1.00  0.00     0.167 HD
ATOM     44  C   UNL A   1      39.839  29.817  30.102  1.00  0.00     0.034 A 
ATOM     45  C   UNL A   1      45.711  27.410  27.068  1.00  0.00     0.034 A 
ATOM     46  C   UNL A   1      40.919  30.770  30.006  1.00  0.00     0.049 A 
ATOM     47  C   UNL A   1      45.595  28.828  27.559  1.00  0.00     0.074 A 
ATOM     48  C   UNL A   1      40.966  32.074  30.469  1.00  0.00     0.029 A 
ATOM     49  N   UNL A   1      42.149  30.518  29.411  1.00  0.00    -0.354 N 
ATOM     50  N   UNL A   1      44.575  29.416  28.138  1.00  0.00    -0.248 NA
ATOM     51  C   UNL A   1      46.761  29.697  27.359  1.00  0.00     0.031 C 
ATOM     52  C   UNL A   1      42.202  32.624  30.109  1.00  0.00     0.029 A 
ATOM     53  C   UNL A   1      42.953  31.645  29.479  1.00  0.00     0.049 A 
ATOM     54  H   UNL A   1      42.412  29.662  29.001  1.00  0.00     0.167 HD
ATOM     55  C   UNL A   1      44.986  30.720  28.393  1.00  0.00     0.074 A 
ATOM     56  C   UNL A   1      46.347  30.831  27.906  1.00  0.00     0.031 C 
ATOM     57  C   UNL A   1      44.304  31.733  28.983  1.00  0.00     0.034 A 
BRANCH  44  58
ATOM     58  C   UNL A   1      38.531  30.259  30.713  1.00  0.00     0.023 A 
ATOM     59  C   UNL A   1      37.535  30.910  29.966  1.00  0.00     0.031 A 
ATOM     60  C   UNL A   1      38.288  30.039  32.082  1.00  0.00     0.131 A 
ATOM     61  C   UNL A   1      36.374  31.377  30.604  1.00  0.00     0.055 A 
ATOM     62  C   UNL A   1      37.098  30.439  32.694  1.00  0.00     0.041 A 
ATOM     63  F   UNL A   1      39.209  29.441  32.852  1.00  0.00    -0.206 F 
ATOM     64  C   UNL A   1      36.139  31.124  31.957  1.00  0.00     0.022 A 
BRANCH  61  65
ATOM     65  S   UNL A   1      35.237  32.437  29.670  1.00  0.00     0.124 S 
ATOM     66  O   UNL A   1      36.143  33.455  29.144  1.00  0.00    -0.237 OA
ATOM     67  O   UNL A   1      34.677  31.513  28.690  1.00  0.00    -0.237 OA
ATOM     68  O   UNL A   1      34.300  32.914  30.685  1.00  0.00    -0.744 OA
ENDBRANCH  61  65
ENDBRANCH  44  58
BRANCH  45  69
ATOM     69  C   UNL A   1      46.919  26.952  26.324  1.00  0.00     0.023 A 
ATOM     70  C   UNL A   1      48.002  26.365  26.994  1.00  0.00     0.031 A 
ATOM     71  C   UNL A   1      47.004  27.098  24.927  1.00  0.00     0.131 A 
ATOM     72  C   UNL A   1      49.136  25.966  26.269  1.00  0.00     0.055 A 
ATOM     73  C   UNL A   1      48.112  26.654  24.205  1.00  0.00     0.041 A 
ATOM     74  F   UNL A   1      45.992  27.651  24.239  1.00  0.00    -0.206 F 
ATOM     75  C   UNL A   1      49.192  26.092  24.878  1.00  0.00     0.022 A 
BRANCH  72  76
ATOM     76  S   UNL A   1      50.571  25.334  27.179  1.00  0.00     0.124 S 
ATOM     77  O   UNL A   1      51.472  24.964  26.094  1.00  0.00    -0.237 OA
ATOM     78  O   UNL A   1      50.963  26.495  27.971  1.00  0.00    -0.237 OA
ATOM     79  O   UNL A   1      50.023  24.216  27.945  1.00  0.00    -0.744 OA
ENDBRANCH  72  76
ENDBRANCH  45  69
BRANCH  57  80
ATOM     80  C   UNL A   1      45.049  33.024  29.190  1.00  0.00     0.023 A 
ATOM     81  C   UNL A   1      45.138  33.998  28.181  1.00  0.00     0.031 A 
ATOM     82  C   UNL A   1      45.677  33.278  30.422  1.00  0.00     0.131 A 
ATOM     83  C   UNL A   1      45.873  35.171  28.412  1.00  0.00     0.055 A 
ATOM     84  C   UNL A   1      46.371  34.464  30.659  1.00  0.00     0.041 A 
ATOM     85  F   UNL A   1      45.620  32.376  31.415  1.00  0.00    -0.206 F 
ATOM     86  C   UNL A   1      46.479  35.415  29.649  1.00  0.00     0.022 A 
BRANCH  83  87
ATOM     87  S   UNL A   1      46.071  36.359  27.056  1.00  0.00     0.124 S 
ATOM     88  O   UNL A   1      45.048  37.351  27.370  1.00  0.00    -0.237 OA
ATOM     89  O   UNL A   1      47.454  36.796  27.219  1.00  0.00    -0.237 OA
ATOM     90  O   UNL A   1      45.814  35.559  25.859  1.00  0.00    -0.744 OA
ENDBRANCH  83  87
ENDBRANCH  57  80
ENDBRANCH  31  32
ENDBRANCH  24  26
ENDBRANCH  23  24
ENDBRANCH   1  23
TORSDOF 16
ENDMDL
MODEL 2
REMARK VINA RESULT:     -12.2      5.240     10.166
REMARK SMILES C[C@H]1[C@@H](C(=O)OCCOC(=O)c2ccc(-c3c4nc(c(-c5cc(S(=O)(=O)[O-])ccc5F)c5ccc([nH]5)c(-c5cc(S(=O)(=O)[O-])ccc5F)c5nc(c(-c6cc(S(=O)(=O)[O-])ccc6F)c6ccc3[nH]6)C=C5)C=C4)cc2)CC[N@@H+]1Cc1cc(F)c(F)c(F)c1
REMARK SMILES IDX 8 1 7 2 6 3 4 4 5 5 3 6 1 7 2 8 77 9 75 10 76 11 78 13 79 14
REMARK SMILES IDX 80 15 87 16 81 17 85 18 82 19 83 20 86 21 84 22 9 23 10 24
REMARK SMILES IDX 11 25 12 26 13 27 74 28 14 29 73 30 15 31 16 32 17 33 67 34
REMARK SMILES IDX 18 35 72 36 66 37 68 38 19 39 71 40 65 41 64 42 20 44 52 45
REMARK SMILES IDX 32 46 51 47 33 48 36 49 50 50 69 51 34 52 35 53 49 55 70 56
REMARK SMILES IDX 37 57 21 58 22 59 30 60 23 61 29 62 31 63 28 64 24 65 25 66
REMARK SMILES IDX 26 67 27 68 53 69 54 70 62 71 55 72 61 73 63 74 60 75 56 76
REMARK SMILES IDX 57 77 58 78 59 79 38 80 39 81 47 82 40 83 46 84 48 85 45 86
REMARK SMILES IDX 41 87 42 88 43 89 44 90
REMARK H PARENT 77 12 68 43 36 54
REMARK Flexibility Score: inf
ROOT
ATOM      1  C   UNL A   1      31.750  29.299  25.311  1.00  0.00     0.275 C 
ENDROOT
BRANCH   1   2
ATOM      2  C   UNL A   1      31.948  28.574  23.986  1.00  0.00     0.274 C 
BRANCH   2   3
ATOM      3  O   UNL A   1      32.029  27.159  24.250  1.00  0.00    -0.462 OA
BRANCH   3   4
ATOM      4  C   UNL A   1      32.788  26.413  23.407  1.00  0.00     0.315 C 
ATOM      5  O   UNL A   1      33.641  26.865  22.653  1.00  0.00    -0.252 OA
BRANCH   4   6
ATOM      6  C   UNL A   1      32.492  24.931  23.523  1.00  0.00     0.162 C 
ATOM      7  C   UNL A   1      34.414  24.757  25.271  1.00  0.00     0.076 C 
ATOM      8  C   UNL A   1      33.117  24.177  24.702  1.00  0.00     0.195 C 
ATOM      9  N   UNL A   1      33.426  22.835  24.180  1.00  0.00    -0.328 N 
ATOM     10  C   UNL A   1      32.878  24.149  22.272  1.00  0.00     0.083 C 
ATOM     11  C   UNL A   1      33.700  22.971  22.753  1.00  0.00     0.263 C 
ATOM     12  H   UNL A   1      34.256  22.498  24.666  1.00  0.00     0.348 HD
BRANCH   9  13
ATOM     13  C   UNL A   1      32.516  21.749  24.540  1.00  0.00     0.299 C 
BRANCH  13  14
ATOM     14  C   UNL A   1      32.881  20.340  24.129  1.00  0.00     0.012 A 
ATOM     15  C   UNL A   1      34.005  19.711  24.689  1.00  0.00     0.052 A 
ATOM     16  C   UNL A   1      32.150  19.649  23.149  1.00  0.00     0.052 A 
ATOM     17  C   UNL A   1      34.380  18.433  24.275  1.00  0.00     0.162 A 
ATOM     18  C   UNL A   1      32.531  18.364  22.758  1.00  0.00     0.162 A 
ATOM     19  F   UNL A   1      35.473  17.870  24.812  1.00  0.00    -0.204 F 
ATOM     20  C   UNL A   1      33.646  17.755  23.314  1.00  0.00     0.194 A 
ATOM     21  F   UNL A   1      31.810  17.724  21.828  1.00  0.00    -0.204 F 
ATOM     22  F   UNL A   1      34.020  16.530  22.920  1.00  0.00    -0.200 F 
ENDBRANCH  13  14
ENDBRANCH   9  13
ENDBRANCH   4   6
ENDBRANCH   3   4
ENDBRANCH   2   3
ENDBRANCH   1   2
BRANCH   1  23
ATOM     23  O   UNL A   1      33.045  29.645  25.831  1.00  0.00    -0.458 OA
BRANCH  23  24
ATOM     24  C   UNL A   1      33.068  30.682  26.701  1.00  0.00     0.338 C 
ATOM     25  O   UNL A   1      32.214  31.538  26.853  1.00  0.00    -0.246 OA
BRANCH  24  26
ATOM     26  C   UNL A   1      34.318  30.641  27.479  1.00  0.00     0.060 A 
ATOM     27  C   UNL A   1      35.100  31.790  27.647  1.00  0.00     0.016 A 
ATOM     28  C   UNL A   1      34.761  29.409  27.958  1.00  0.00     0.016 A 
ATOM     29  C   UNL A   1      36.361  31.689  28.236  1.00  0.00     0.010 A 
ATOM     30  C   UNL A   1      35.977  29.335  28.634  1.00  0.00     0.010 A 
ATOM     31  C   UNL A   1      36.802  30.467  28.766  1.00  0.00    -0.014 A 
BRANCH  31  32
ATOM     32  C   UNL A   1      38.106  30.332  29.472  1.00  0.00     0.031 A 
ATOM     33  C   UNL A   1      39.158  29.409  28.920  1.00  0.00     0.074 A 
ATOM     34  C   UNL A   1      38.313  30.954  30.650  1.00  0.00     0.049 A 
ATOM     35  N   UNL A   1      40.184  28.863  29.518  1.00  0.00    -0.248 NA
ATOM     36  C   UNL A   1      39.015  29.031  27.505  1.00  0.00     0.031 C 
ATOM     37  C   UNL A   1      37.407  31.921  31.272  1.00  0.00     0.029 A 
ATOM     38  N   UNL A   1      39.342  30.837  31.553  1.00  0.00    -0.354 N 
ATOM     39  C   UNL A   1      40.775  28.028  28.575  1.00  0.00     0.074 A 
ATOM     40  C   UNL A   1      39.990  28.144  27.363  1.00  0.00     0.031 C 
ATOM     41  C   UNL A   1      37.915  32.306  32.451  1.00  0.00     0.029 A 
ATOM     42  C   UNL A   1      39.124  31.537  32.717  1.00  0.00     0.049 A 
ATOM     43  H   UNL A   1      40.153  30.306  31.383  1.00  0.00     0.167 HD
ATOM     44  C   UNL A   1      41.864  27.230  28.719  1.00  0.00     0.034 A 
ATOM     45  C   UNL A   1      39.773  31.507  33.898  1.00  0.00     0.034 A 
ATOM     46  C   UNL A   1      42.648  27.162  29.930  1.00  0.00     0.049 A 
ATOM     47  C   UNL A   1      40.944  30.576  34.061  1.00  0.00     0.074 A 
ATOM     48  C   UNL A   1      43.776  26.402  30.189  1.00  0.00     0.029 A 
ATOM     49  N   UNL A   1      42.388  27.889  31.085  1.00  0.00    -0.354 N 
ATOM     50  N   UNL A   1      41.447  29.727  33.196  1.00  0.00    -0.248 NA
ATOM     51  C   UNL A   1      41.623  30.586  35.363  1.00  0.00     0.031 C 
ATOM     52  C   UNL A   1      44.166  26.631  31.514  1.00  0.00     0.029 A 
ATOM     53  C   UNL A   1      43.322  27.583  32.063  1.00  0.00     0.049 A 
ATOM     54  H   UNL A   1      41.648  28.529  31.193  1.00  0.00     0.167 HD
ATOM     55  C   UNL A   1      42.517  29.119  33.841  1.00  0.00     0.074 A 
ATOM     56  C   UNL A   1      42.588  29.698  35.168  1.00  0.00     0.031 C 
ATOM     57  C   UNL A   1      43.370  28.170  33.379  1.00  0.00     0.034 A 
BRANCH  44  58
ATOM     58  C   UNL A   1      42.225  26.324  27.567  1.00  0.00     0.023 A 
ATOM     59  C   UNL A   1      41.793  24.989  27.497  1.00  0.00     0.031 A 
ATOM     60  C   UNL A   1      43.041  26.806  26.525  1.00  0.00     0.131 A 
ATOM     61  C   UNL A   1      42.230  24.165  26.447  1.00  0.00     0.055 A 
ATOM     62  C   UNL A   1      43.410  26.002  25.444  1.00  0.00     0.041 A 
ATOM     63  F   UNL A   1      43.504  28.065  26.547  1.00  0.00    -0.206 F 
ATOM     64  C   UNL A   1      43.016  24.670  25.408  1.00  0.00     0.022 A 
BRANCH  61  65
ATOM     65  S   UNL A   1      41.868  22.389  26.527  1.00  0.00     0.124 S 
ATOM     66  O   UNL A   1      42.502  21.901  25.305  1.00  0.00    -0.237 OA
ATOM     67  O   UNL A   1      42.505  21.993  27.778  1.00  0.00    -0.237 OA
ATOM     68  O   UNL A   1      40.408  22.336  26.526  1.00  0.00    -0.744 OA
ENDBRANCH  61  65
ENDBRANCH  44  58
BRANCH  45  69
ATOM     69  C   UNL A   1      39.273  32.320  35.042  1.00  0.00     0.023 A 
ATOM     70  C   UNL A   1      39.746  33.621  35.268  1.00  0.00     0.031 A 
ATOM     71  C   UNL A   1      38.312  31.801  35.930  1.00  0.00     0.131 A 
ATOM     72  C   UNL A   1      39.275  34.353  36.369  1.00  0.00     0.055 A 
ATOM     73  C   UNL A   1      37.810  32.551  36.994  1.00  0.00     0.041 A 
ATOM     74  F   UNL A   1      37.825  30.562  35.756  1.00  0.00    -0.206 F 
ATOM     75  C   UNL A   1      38.299  33.832  37.223  1.00  0.00     0.022 A 
BRANCH  72  76
ATOM     76  S   UNL A   1      40.003  35.978  36.708  1.00  0.00     0.124 S 
ATOM     77  O   UNL A   1      41.413  35.644  36.871  1.00  0.00    -0.237 OA
ATOM     78  O   UNL A   1      39.656  36.722  35.503  1.00  0.00    -0.237 OA
ATOM     79  O   UNL A   1      39.319  36.411  37.925  1.00  0.00    -0.744 OA
ENDBRANCH  72  76
ENDBRANCH  45  69
BRANCH  57  80
ATOM     80  C   UNL A   1      44.489  27.757  34.296  1.00  0.00     0.023 A 
ATOM     81  C   UNL A   1      44.338  26.714  35.225  1.00  0.00     0.031 A 
ATOM     82  C   UNL A   1      45.726  28.422  34.232  1.00  0.00     0.131 A 
ATOM     83  C   UNL A   1      45.401  26.388  36.082  1.00  0.00     0.055 A 
ATOM     84  C   UNL A   1      46.792  28.066  35.057  1.00  0.00     0.041 A 
ATOM     85  F   UNL A   1      45.916  29.426  33.361  1.00  0.00    -0.206 F 
ATOM     86  C   UNL A   1      46.631  27.049  35.994  1.00  0.00     0.022 A 
BRANCH  83  87
ATOM     87  S   UNL A   1      45.144  25.118  37.350  1.00  0.00     0.124 S 
ATOM     88  O   UNL A   1      43.813  25.451  37.847  1.00  0.00    -0.237 OA
ATOM     89  O   UNL A   1      45.246  23.881  36.583  1.00  0.00    -0.237 OA
ATOM     90  O   UNL A   1      46.235  25.351  38.295  1.00  0.00    -0.744 OA
ENDBRANCH  83  87
ENDBRANCH  57  80
ENDBRANCH  31  32
ENDBRANCH  24  26
ENDBRANCH  23  24
ENDBRANCH   1  23
TORSDOF 16
ENDMDL
MODEL 3
REMARK VINA RESULT:     -12.1      1.638      2.023
REMARK SMILES C[C@H]1[C@@H](C(=O)OCCOC(=O)c2ccc(-c3c4nc(c(-c5cc(S(=O)(=O)[O-])ccc5F)c5ccc([nH]5)c(-c5cc(S(=O)(=O)[O-])ccc5F)c5nc(c(-c6cc(S(=O)(=O)[O-])ccc6F)c6ccc3[nH]6)C=C5)C=C4)cc2)CC[N@@H+]1Cc1cc(F)c(F)c(F)c1
REMARK SMILES IDX 8 1 7 2 6 3 4 4 5 5 3 6 1 7 2 8 77 9 75 10 76 11 78 13 79 14
REMARK SMILES IDX 80 15 87 16 81 17 85 18 82 19 83 20 86 21 84 22 9 23 10 24
REMARK SMILES IDX 11 25 12 26 13 27 74 28 14 29 73 30 15 31 16 32 17 33 67 34
REMARK SMILES IDX 18 35 72 36 66 37 68 38 19 39 71 40 65 41 64 42 20 44 52 45
REMARK SMILES IDX 32 46 51 47 33 48 36 49 50 50 69 51 34 52 35 53 49 55 70 56
REMARK SMILES IDX 37 57 21 58 22 59 30 60 23 61 29 62 31 63 28 64 24 65 25 66
REMARK SMILES IDX 26 67 27 68 53 69 54 70 62 71 55 72 61 73 63 74 60 75 56 76
REMARK SMILES IDX 57 77 58 78 59 79 38 80 39 81 47 82 40 83 46 84 48 85 45 86
REMARK SMILES IDX 41 87 42 88 43 89 44 90
REMARK H PARENT 77 12 68 43 36 54
REMARK Flexibility Score: inf
ROOT
ATOM      1  C   UNL A   1      36.053  20.650  25.016  1.00  0.00     0.275 C 
ENDROOT
BRANCH   1   2
ATOM      2  C   UNL A   1      34.655  21.239  24.875  1.00  0.00     0.274 C 
BRANCH   2   3
ATOM      3  O   UNL A   1      34.719  22.642  25.201  1.00  0.00    -0.462 OA
BRANCH   3   4
ATOM      4  C   UNL A   1      33.741  23.137  26.002  1.00  0.00     0.315 C 
ATOM      5  O   UNL A   1      33.774  23.133  27.226  1.00  0.00    -0.252 OA
BRANCH   4   6
ATOM      6  C   UNL A   1      32.599  23.743  25.211  1.00  0.00     0.162 C 
ATOM      7  C   UNL A   1      33.847  26.027  25.292  1.00  0.00     0.076 C 
ATOM      8  C   UNL A   1      32.824  25.127  24.594  1.00  0.00     0.195 C 
ATOM      9  N   UNL A   1      31.517  25.801  24.675  1.00  0.00    -0.328 N 
ATOM     10  C   UNL A   1      31.308  23.847  26.016  1.00  0.00     0.083 C 
ATOM     11  C   UNL A   1      30.820  25.269  25.842  1.00  0.00     0.263 C 
ATOM     12  H   UNL A   1      31.690  26.799  24.795  1.00  0.00     0.348 HD
BRANCH   9  13
ATOM     13  C   UNL A   1      30.721  25.873  23.450  1.00  0.00     0.299 C 
BRANCH  13  14
ATOM     14  C   UNL A   1      29.831  27.078  23.241  1.00  0.00     0.012 A 
ATOM     15  C   UNL A   1      28.497  27.054  23.680  1.00  0.00     0.052 A 
ATOM     16  C   UNL A   1      30.289  28.219  22.562  1.00  0.00     0.052 A 
ATOM     17  C   UNL A   1      27.655  28.140  23.441  1.00  0.00     0.162 A 
ATOM     18  C   UNL A   1      29.437  29.303  22.346  1.00  0.00     0.162 A 
ATOM     19  F   UNL A   1      26.380  28.076  23.852  1.00  0.00    -0.204 F 
ATOM     20  C   UNL A   1      28.120  29.265  22.779  1.00  0.00     0.194 A 
ATOM     21  F   UNL A   1      29.902  30.382  21.704  1.00  0.00    -0.204 F 
ATOM     22  F   UNL A   1      27.299  30.300  22.551  1.00  0.00    -0.200 F 
ENDBRANCH  13  14
ENDBRANCH   9  13
ENDBRANCH   4   6
ENDBRANCH   3   4
ENDBRANCH   2   3
ENDBRANCH   1   2
BRANCH   1  23
ATOM     23  O   UNL A   1      36.859  21.577  25.763  1.00  0.00    -0.458 OA
BRANCH  23  24
ATOM     24  C   UNL A   1      38.191  21.345  25.739  1.00  0.00     0.338 C 
ATOM     25  O   UNL A   1      38.763  20.361  25.303  1.00  0.00    -0.246 OA
BRANCH  24  26
ATOM     26  C   UNL A   1      38.899  22.492  26.336  1.00  0.00     0.060 A 
ATOM     27  C   UNL A   1      38.498  23.805  26.066  1.00  0.00     0.016 A 
ATOM     28  C   UNL A   1      40.043  22.244  27.091  1.00  0.00     0.016 A 
ATOM     29  C   UNL A   1      39.286  24.873  26.497  1.00  0.00     0.010 A 
ATOM     30  C   UNL A   1      40.770  23.317  27.605  1.00  0.00     0.010 A 
ATOM     31  C   UNL A   1      40.414  24.644  27.300  1.00  0.00    -0.014 A 
BRANCH  31  32
ATOM     32  C   UNL A   1      41.238  25.756  27.848  1.00  0.00     0.031 A 
ATOM     33  C   UNL A   1      40.584  26.824  28.684  1.00  0.00     0.074 A 
ATOM     34  C   UNL A   1      42.541  25.866  27.523  1.00  0.00     0.049 A 
ATOM     35  N   UNL A   1      40.994  28.034  28.957  1.00  0.00    -0.248 NA
ATOM     36  C   UNL A   1      39.277  26.484  29.268  1.00  0.00     0.031 C 
ATOM     37  C   UNL A   1      43.317  24.876  26.772  1.00  0.00     0.029 A 
ATOM     38  N   UNL A   1      43.437  26.880  27.755  1.00  0.00    -0.354 N 
ATOM     39  C   UNL A   1      39.971  28.626  29.692  1.00  0.00     0.074 A 
ATOM     40  C   UNL A   1      38.922  27.635  29.821  1.00  0.00     0.031 C 
ATOM     41  C   UNL A   1      44.566  25.331  26.604  1.00  0.00     0.029 A 
ATOM     42  C   UNL A   1      44.651  26.685  27.138  1.00  0.00     0.049 A 
ATOM     43  H   UNL A   1      43.231  27.668  28.309  1.00  0.00     0.167 HD
ATOM     44  C   UNL A   1      39.914  29.886  30.196  1.00  0.00     0.034 A 
ATOM     45  C   UNL A   1      45.689  27.523  26.949  1.00  0.00     0.034 A 
ATOM     46  C   UNL A   1      40.991  30.840  30.080  1.00  0.00     0.049 A 
ATOM     47  C   UNL A   1      45.589  28.933  27.464  1.00  0.00     0.074 A 
ATOM     48  C   UNL A   1      41.052  32.138  30.560  1.00  0.00     0.029 A 
ATOM     49  N   UNL A   1      42.202  30.597  29.444  1.00  0.00    -0.354 N 
ATOM     50  N   UNL A   1      44.587  29.514  28.082  1.00  0.00    -0.248 NA
ATOM     51  C   UNL A   1      46.748  29.805  27.240  1.00  0.00     0.031 C 
ATOM     52  C   UNL A   1      42.277  32.693  30.170  1.00  0.00     0.029 A 
ATOM     53  C   UNL A   1      43.008  31.723  29.504  1.00  0.00     0.049 A 
ATOM     54  H   UNL A   1      42.451  29.747  29.014  1.00  0.00     0.167 HD
ATOM     55  C   UNL A   1      45.007  30.813  28.343  1.00  0.00     0.074 A 
ATOM     56  C   UNL A   1      46.352  30.932  27.816  1.00  0.00     0.031 C 
ATOM     57  C   UNL A   1      44.343  31.818  28.968  1.00  0.00     0.034 A 
BRANCH  44  58
ATOM     58  C   UNL A   1      38.625  30.319  30.852  1.00  0.00     0.023 A 
ATOM     59  C   UNL A   1      37.597  30.958  30.140  1.00  0.00     0.031 A 
ATOM     60  C   UNL A   1      38.435  30.104  32.231  1.00  0.00     0.131 A 
ATOM     61  C   UNL A   1      36.456  31.417  30.818  1.00  0.00     0.055 A 
ATOM     62  C   UNL A   1      37.265  30.496  32.885  1.00  0.00     0.041 A 
ATOM     63  F   UNL A   1      39.390  29.519  32.969  1.00  0.00    -0.206 F 
ATOM     64  C   UNL A   1      36.273  31.169  32.181  1.00  0.00     0.022 A 
BRANCH  61  65
ATOM     65  S   UNL A   1      35.274  32.462  29.922  1.00  0.00     0.124 S 
ATOM     66  O   UNL A   1      36.110  33.599  29.544  1.00  0.00    -0.237 OA
ATOM     67  O   UNL A   1      34.848  31.592  28.831  1.00  0.00    -0.237 OA
ATOM     68  O   UNL A   1      34.250  32.757  30.921  1.00  0.00    -0.744 OA
ENDBRANCH  61  65
ENDBRANCH  44  58
BRANCH  45  69
ATOM     69  C   UNL A   1      46.873  27.075  26.162  1.00  0.00     0.023 A 
ATOM     70  C   UNL A   1      47.088  27.532  24.854  1.00  0.00     0.031 A 
ATOM     71  C   UNL A   1      47.807  26.178  26.712  1.00  0.00     0.131 A 
ATOM     72  C   UNL A   1      48.199  27.072  24.128  1.00  0.00     0.055 A 
ATOM     73  C   UNL A   1      48.936  25.763  26.006  1.00  0.00     0.041 A 
ATOM     74  F   UNL A   1      47.648  25.713  27.963  1.00  0.00    -0.206 F 
ATOM     75  C   UNL A   1      49.132  26.203  24.702  1.00  0.00     0.022 A 
BRANCH  72  76
ATOM     76  S   UNL A   1      48.376  27.577  22.397  1.00  0.00     0.124 S 
ATOM     77  O   UNL A   1      48.483  26.290  21.721  1.00  0.00    -0.237 OA
ATOM     78  O   UNL A   1      47.140  28.319  22.170  1.00  0.00    -0.237 OA
ATOM     79  O   UNL A   1      49.594  28.385  22.400  1.00  0.00    -0.744 OA
ENDBRANCH  72  76
ENDBRANCH  45  69
BRANCH  57  80
ATOM     80  C   UNL A   1      45.095  33.106  29.170  1.00  0.00     0.023 A 
ATOM     81  C   UNL A   1      45.019  34.161  28.246  1.00  0.00     0.031 A 
ATOM     82  C   UNL A   1      45.898  33.274  30.312  1.00  0.00     0.131 A 
ATOM     83  C   UNL A   1      45.766  35.330  28.463  1.00  0.00     0.055 A 
ATOM     84  C   UNL A   1      46.605  34.453  30.543  1.00  0.00     0.041 A 
ATOM     85  F   UNL A   1      46.003  32.292  31.222  1.00  0.00    -0.206 F 
ATOM     86  C   UNL A   1      46.547  35.486  29.612  1.00  0.00     0.022 A 
BRANCH  83  87
ATOM     87  S   UNL A   1      45.743  36.629  27.199  1.00  0.00     0.124 S 
ATOM     88  O   UNL A   1      46.436  37.721  27.873  1.00  0.00    -0.237 OA
ATOM     89  O   UNL A   1      46.461  36.005  26.092  1.00  0.00    -0.237 OA
ATOM     90  O   UNL A   1      44.317  36.852  26.962  1.00  0.00    -0.744 OA
ENDBRANCH  83  87
ENDBRANCH  57  80
ENDBRANCH  31  32
ENDBRANCH  24  26
ENDBRANCH  23  24
ENDBRANCH   1  23
TORSDOF 16
ENDMDL
