MODEL 1
REMARK VINA RESULT:     -13.4      0.000      0.000
REMARK SMILES COc1cccc(-c2nn(-c3cc4c(cc3C(N)=O)OCO4)cc2C(=O)OCCOC(=O)c2ccc(-c3c4nc(c(-c5cc(S(=O)(=O)[O-])ccc5F)c5ccc([nH]5)c(-c5cc(S(=O)(=O)[O-])ccc5F)c5nc(c(-c6cc(S(=O)(=O)[O-])ccc6F)c6ccc3[nH]6)C=C5)C=C4)cc2)c1
REMARK SMILES IDX 29 1 28 2 27 3 25 4 26 5 24 6 8 7 9 8 10 9 23 10 7 11 3 12
REMARK SMILES IDX 4 13 96 14 5 15 6 16 2 17 1 18 11 19 12 20 16 21 13 22 15 23
REMARK SMILES IDX 14 24 22 25 20 26 21 27 17 28 18 29 19 30 30 33 31 34 32 35
REMARK SMILES IDX 33 36 34 37 95 38 35 39 94 40 36 41 37 42 38 43 88 44 39 45
REMARK SMILES IDX 93 46 87 47 89 48 40 49 92 50 86 51 85 52 41 54 73 55 53 56
REMARK SMILES IDX 72 57 54 58 57 59 71 60 90 61 55 62 56 63 70 65 91 66 58 67
REMARK SMILES IDX 42 68 43 69 51 70 44 71 50 72 52 73 49 74 45 75 46 76 47 77
REMARK SMILES IDX 48 78 74 79 75 80 83 81 76 82 82 83 84 84 81 85 77 86 78 87
REMARK SMILES IDX 79 88 80 89 59 90 60 91 68 92 61 93 67 94 69 95 66 96 62 97
REMARK SMILES IDX 63 98 64 99 65 100
REMARK H PARENT 18 31 18 32 89 53 57 64
REMARK Flexibility Score: inf
ROOT
ATOM      1  C   UNL A   1      34.258  28.943  27.252  1.00  0.00     0.275 C 
ENDROOT
BRANCH   1   2
ATOM      2  C   UNL A   1      33.549  29.676  26.118  1.00  0.00     0.275 C 
BRANCH   2   3
ATOM      3  O   UNL A   1      32.572  28.854  25.460  1.00  0.00    -0.458 OA
BRANCH   3   4
ATOM      4  C   UNL A   1      32.867  28.441  24.184  1.00  0.00     0.342 C 
ATOM      5  O   UNL A   1      33.579  29.060  23.412  1.00  0.00    -0.246 OA
BRANCH   4   6
ATOM      6  C   UNL A   1      32.201  27.193  23.851  1.00  0.00     0.106 A 
ATOM      7  C   UNL A   1      30.861  26.943  23.440  1.00  0.00     0.107 A 
ATOM      8  N   UNL A   1      30.623  25.622  23.316  1.00  0.00    -0.167 NA
ATOM      9  N   UNL A   1      31.748  25.047  23.804  1.00  0.00    -0.239 N 
ATOM     10  C   UNL A   1      32.779  25.942  23.874  1.00  0.00     0.131 A 
BRANCH   7  11
ATOM     11  C   UNL A   1      29.834  27.926  23.117  1.00  0.00     0.007 A 
ATOM     12  C   UNL A   1      29.137  29.998  22.065  1.00  0.00     0.119 A 
ATOM     13  C   UNL A   1      27.811  29.704  22.403  1.00  0.00     0.046 A 
ATOM     14  C   UNL A   1      30.149  29.097  22.409  1.00  0.00     0.056 A 
ATOM     15  C   UNL A   1      27.495  28.550  23.117  1.00  0.00     0.005 A 
ATOM     16  C   UNL A   1      28.510  27.674  23.492  1.00  0.00     0.011 A 
BRANCH  12  17
ATOM     17  O   UNL A   1      29.292  31.194  21.420  1.00  0.00    -0.497 OA
ATOM     18  C   UNL A   1      28.167  32.054  21.339  1.00  0.00     0.278 C 
ENDBRANCH  12  17
ENDBRANCH   7  11
BRANCH   9  19
ATOM     19  C   UNL A   1      31.804  23.672  24.136  1.00  0.00     0.081 A 
ATOM     20  C   UNL A   1      32.080  22.760  23.095  1.00  0.00     0.079 A 
ATOM     21  C   UNL A   1      31.593  23.214  25.471  1.00  0.00     0.069 A 
ATOM     22  C   UNL A   1      32.193  21.428  23.429  1.00  0.00     0.167 A 
ATOM     23  C   UNL A   1      31.842  21.864  25.771  1.00  0.00     0.066 A 
ATOM     24  C   UNL A   1      32.105  21.002  24.731  1.00  0.00     0.166 A 
ATOM     25  O   UNL A   1      32.380  20.390  22.569  1.00  0.00    -0.454 OA
ATOM     26  O   UNL A   1      32.221  19.650  24.849  1.00  0.00    -0.454 OA
ATOM     27  C   UNL A   1      32.171  19.274  23.458  1.00  0.00     0.468 C 
BRANCH  21  28
ATOM     28  C   UNL A   1      30.876  24.048  26.507  1.00  0.00     0.251 C 
ATOM     29  N   UNL A   1      29.627  23.658  26.911  1.00  0.00    -0.366 N 
ATOM     30  O   UNL A   1      31.285  25.108  26.955  1.00  0.00    -0.269 OA
ATOM     31  H   UNL A   1      29.244  22.813  26.583  1.00  0.00     0.159 HD
ATOM     32  H   UNL A   1      29.110  24.225  27.529  1.00  0.00     0.159 HD
ENDBRANCH  21  28
ENDBRANCH   9  19
ENDBRANCH   4   6
ENDBRANCH   3   4
ENDBRANCH   2   3
ENDBRANCH   1   2
BRANCH   1  33
ATOM     33  O   UNL A   1      35.671  29.153  27.241  1.00  0.00    -0.458 OA
BRANCH  33  34
ATOM     34  C   UNL A   1      36.160  29.652  28.398  1.00  0.00     0.338 C 
ATOM     35  O   UNL A   1      35.570  30.375  29.187  1.00  0.00    -0.246 OA
BRANCH  34  36
ATOM     36  C   UNL A   1      37.585  29.341  28.536  1.00  0.00     0.060 A 
ATOM     37  C   UNL A   1      38.411  29.719  27.474  1.00  0.00     0.016 A 
ATOM     38  C   UNL A   1      38.052  28.523  29.573  1.00  0.00     0.016 A 
ATOM     39  C   UNL A   1      39.682  29.194  27.390  1.00  0.00     0.010 A 
ATOM     40  C   UNL A   1      39.319  27.981  29.480  1.00  0.00     0.010 A 
ATOM     41  C   UNL A   1      40.100  28.283  28.364  1.00  0.00    -0.014 A 
BRANCH  41  42
ATOM     42  C   UNL A   1      41.456  27.774  28.266  1.00  0.00     0.031 A 
ATOM     43  C   UNL A   1      41.513  26.450  27.594  1.00  0.00     0.074 A 
ATOM     44  C   UNL A   1      42.523  28.491  28.675  1.00  0.00     0.049 A 
ATOM     45  N   UNL A   1      41.897  25.331  28.107  1.00  0.00    -0.248 NA
ATOM     46  C   UNL A   1      40.879  26.304  26.269  1.00  0.00     0.031 C 
ATOM     47  C   UNL A   1      42.535  29.859  29.197  1.00  0.00     0.029 A 
ATOM     48  N   UNL A   1      43.848  28.183  28.628  1.00  0.00    -0.354 N 
ATOM     49  C   UNL A   1      41.816  24.398  27.080  1.00  0.00     0.074 A 
ATOM     50  C   UNL A   1      40.990  24.990  26.066  1.00  0.00     0.031 C 
ATOM     51  C   UNL A   1      43.802  30.337  29.173  1.00  0.00     0.029 A 
ATOM     52  C   UNL A   1      44.701  29.283  28.732  1.00  0.00     0.049 A 
ATOM     53  H   UNL A   1      44.179  27.261  28.527  1.00  0.00     0.167 HD
ATOM     54  C   UNL A   1      42.688  23.355  27.035  1.00  0.00     0.034 A 
ATOM     55  C   UNL A   1      46.026  29.339  28.405  1.00  0.00     0.034 A 
ATOM     56  C   UNL A   1      43.247  23.098  28.346  1.00  0.00     0.049 A 
ATOM     57  C   UNL A   1      46.528  27.940  28.434  1.00  0.00     0.074 A 
ATOM     58  C   UNL A   1      42.699  22.817  29.585  1.00  0.00     0.029 A 
ATOM     59  N   UNL A   1      44.538  23.507  28.599  1.00  0.00    -0.354 N 
ATOM     60  N   UNL A   1      46.608  27.246  29.538  1.00  0.00    -0.248 NA
ATOM     61  C   UNL A   1      46.416  27.148  27.215  1.00  0.00     0.031 C 
ATOM     62  C   UNL A   1      43.490  23.558  30.511  1.00  0.00     0.029 A 
ATOM     63  C   UNL A   1      44.537  24.158  29.808  1.00  0.00     0.049 A 
ATOM     64  H   UNL A   1      45.320  23.359  28.019  1.00  0.00     0.167 HD
ATOM     65  C   UNL A   1      46.097  25.999  29.212  1.00  0.00     0.074 A 
ATOM     66  C   UNL A   1      46.076  25.968  27.747  1.00  0.00     0.031 C 
ATOM     67  C   UNL A   1      45.453  25.231  30.142  1.00  0.00     0.034 A 
BRANCH  54  68
ATOM     68  C   UNL A   1      43.373  22.897  25.762  1.00  0.00     0.023 A 
ATOM     69  C   UNL A   1      43.497  21.508  25.582  1.00  0.00     0.031 A 
ATOM     70  C   UNL A   1      44.187  23.698  24.926  1.00  0.00     0.131 A 
ATOM     71  C   UNL A   1      44.494  20.977  24.748  1.00  0.00     0.055 A 
ATOM     72  C   UNL A   1      45.129  23.163  24.044  1.00  0.00     0.041 A 
ATOM     73  F   UNL A   1      44.188  25.035  24.968  1.00  0.00    -0.206 F 
ATOM     74  C   UNL A   1      45.318  21.795  23.982  1.00  0.00     0.022 A 
BRANCH  71  75
ATOM     75  S   UNL A   1      44.828  19.202  24.854  1.00  0.00     0.124 S 
ATOM     76  O   UNL A   1      44.846  18.830  23.443  1.00  0.00    -0.237 OA
ATOM     77  O   UNL A   1      46.113  19.180  25.544  1.00  0.00    -0.237 OA
ATOM     78  O   UNL A   1      43.697  18.691  25.623  1.00  0.00    -0.744 OA
ENDBRANCH  71  75
ENDBRANCH  54  68
BRANCH  55  79
ATOM     79  C   UNL A   1      46.754  30.468  27.737  1.00  0.00     0.023 A 
ATOM     80  C   UNL A   1      46.107  31.527  27.053  1.00  0.00     0.031 A 
ATOM     81  C   UNL A   1      48.137  30.640  27.979  1.00  0.00     0.131 A 
ATOM     82  C   UNL A   1      46.839  32.676  26.647  1.00  0.00     0.055 A 
ATOM     83  C   UNL A   1      48.851  31.772  27.577  1.00  0.00     0.041 A 
ATOM     84  F   UNL A   1      48.839  29.751  28.696  1.00  0.00    -0.206 F 
ATOM     85  C   UNL A   1      48.203  32.801  26.918  1.00  0.00     0.022 A 
BRANCH  82  86
ATOM     86  S   UNL A   1      46.018  34.087  25.823  1.00  0.00     0.124 S 
ATOM     87  O   UNL A   1      45.003  33.427  25.011  1.00  0.00    -0.237 OA
ATOM     88  O   UNL A   1      45.538  34.879  26.948  1.00  0.00    -0.237 OA
ATOM     89  O   UNL A   1      47.099  34.712  25.056  1.00  0.00    -0.744 OA
ENDBRANCH  82  86
ENDBRANCH  55  79
BRANCH  67  90
ATOM     90  C   UNL A   1      45.540  25.634  31.601  1.00  0.00     0.023 A 
ATOM     91  C   UNL A   1      46.612  25.325  32.472  1.00  0.00     0.031 A 
ATOM     92  C   UNL A   1      44.523  26.472  32.094  1.00  0.00     0.131 A 
ATOM     93  C   UNL A   1      46.621  25.834  33.787  1.00  0.00     0.055 A 
ATOM     94  C   UNL A   1      44.549  26.993  33.385  1.00  0.00     0.041 A 
ATOM     95  F   UNL A   1      43.493  26.827  31.308  1.00  0.00    -0.206 F 
ATOM     96  C   UNL A   1      45.594  26.669  34.240  1.00  0.00     0.022 A 
BRANCH  93  97
ATOM     97  S   UNL A   1      47.952  25.393  34.952  1.00  0.00     0.124 S 
ATOM     98  O   UNL A   1      48.339  26.674  35.531  1.00  0.00    -0.237 OA
ATOM     99  O   UNL A   1      47.286  24.459  35.856  1.00  0.00    -0.237 OA
ATOM    100  O   UNL A   1      48.967  24.782  34.092  1.00  0.00    -0.744 OA
ENDBRANCH  93  97
ENDBRANCH  67  90
ENDBRANCH  41  42
ENDBRANCH  34  36
ENDBRANCH  33  34
ENDBRANCH   1  33
TORSDOF 18
ENDMDL
MODEL 2
REMARK VINA RESULT:     -13.3      4.028      9.130
REMARK SMILES COc1cccc(-c2nn(-c3cc4c(cc3C(N)=O)OCO4)cc2C(=O)OCCOC(=O)c2ccc(-c3c4nc(c(-c5cc(S(=O)(=O)[O-])ccc5F)c5ccc([nH]5)c(-c5cc(S(=O)(=O)[O-])ccc5F)c5nc(c(-c6cc(S(=O)(=O)[O-])ccc6F)c6ccc3[nH]6)C=C5)C=C4)cc2)c1
REMARK SMILES IDX 29 1 28 2 27 3 25 4 26 5 24 6 8 7 9 8 10 9 23 10 7 11 3 12
REMARK SMILES IDX 4 13 96 14 5 15 6 16 2 17 1 18 11 19 12 20 16 21 13 22 15 23
REMARK SMILES IDX 14 24 22 25 20 26 21 27 17 28 18 29 19 30 30 33 31 34 32 35
REMARK SMILES IDX 33 36 34 37 95 38 35 39 94 40 36 41 37 42 38 43 88 44 39 45
REMARK SMILES IDX 93 46 87 47 89 48 40 49 92 50 86 51 85 52 41 54 73 55 53 56
REMARK SMILES IDX 72 57 54 58 57 59 71 60 90 61 55 62 56 63 70 65 91 66 58 67
REMARK SMILES IDX 42 68 43 69 51 70 44 71 50 72 52 73 49 74 45 75 46 76 47 77
REMARK SMILES IDX 48 78 74 79 75 80 83 81 76 82 82 83 84 84 81 85 77 86 78 87
REMARK SMILES IDX 79 88 80 89 59 90 60 91 68 92 61 93 67 94 69 95 66 96 62 97
REMARK SMILES IDX 63 98 64 99 65 100
REMARK H PARENT 18 31 18 32 89 53 57 64
REMARK Flexibility Score: inf
ROOT
ATOM      1  C   UNL A   1      38.720  21.678  26.017  1.00  0.00     0.275 C 
ENDROOT
BRANCH   1   2
ATOM      2  C   UNL A   1      37.697  21.460  24.907  1.00  0.00     0.275 C 
BRANCH   2   3
ATOM      3  O   UNL A   1      36.540  22.296  25.056  1.00  0.00    -0.458 OA
BRANCH   3   4
ATOM      4  C   UNL A   1      35.871  22.640  23.906  1.00  0.00     0.342 C 
ATOM      5  O   UNL A   1      36.404  22.767  22.818  1.00  0.00    -0.246 OA
BRANCH   4   6
ATOM      6  C   UNL A   1      34.457  22.869  24.150  1.00  0.00     0.106 A 
ATOM      7  C   UNL A   1      33.357  21.965  24.120  1.00  0.00     0.107 A 
ATOM      8  N   UNL A   1      32.188  22.607  24.318  1.00  0.00    -0.167 NA
ATOM      9  N   UNL A   1      32.535  23.916  24.305  1.00  0.00    -0.239 N 
ATOM     10  C   UNL A   1      33.882  24.079  24.472  1.00  0.00     0.131 A 
BRANCH   7  11
ATOM     11  C   UNL A   1      33.403  20.516  23.961  1.00  0.00     0.007 A 
ATOM     12  C   UNL A   1      34.412  18.362  24.434  1.00  0.00     0.119 A 
ATOM     13  C   UNL A   1      33.366  17.739  23.745  1.00  0.00     0.046 A 
ATOM     14  C   UNL A   1      34.421  19.755  24.557  1.00  0.00     0.056 A 
ATOM     15  C   UNL A   1      32.361  18.492  23.141  1.00  0.00     0.005 A 
ATOM     16  C   UNL A   1      32.393  19.881  23.231  1.00  0.00     0.011 A 
BRANCH  12  17
ATOM     17  O   UNL A   1      35.352  17.493  24.917  1.00  0.00    -0.497 OA
ATOM     18  C   UNL A   1      34.970  16.140  25.103  1.00  0.00     0.278 C 
ENDBRANCH  12  17
ENDBRANCH   7  11
BRANCH   9  19
ATOM     19  C   UNL A   1      31.572  24.946  24.181  1.00  0.00     0.081 A 
ATOM     20  C   UNL A   1      31.722  25.853  23.112  1.00  0.00     0.079 A 
ATOM     21  C   UNL A   1      30.484  25.069  25.097  1.00  0.00     0.069 A 
ATOM     22  C   UNL A   1      30.752  26.820  22.956  1.00  0.00     0.167 A 
ATOM     23  C   UNL A   1      29.464  25.994  24.816  1.00  0.00     0.066 A 
ATOM     24  C   UNL A   1      29.645  26.867  23.768  1.00  0.00     0.166 A 
ATOM     25  O   UNL A   1      30.750  27.827  22.041  1.00  0.00    -0.454 OA
ATOM     26  O   UNL A   1      28.818  27.906  23.467  1.00  0.00    -0.454 OA
ATOM     27  C   UNL A   1      29.647  28.619  22.527  1.00  0.00     0.468 C 
BRANCH  21  28
ATOM     28  C   UNL A   1      30.510  24.440  26.471  1.00  0.00     0.251 C 
ATOM     29  N   UNL A   1      29.377  23.823  26.930  1.00  0.00    -0.366 N 
ATOM     30  O   UNL A   1      31.442  24.517  27.257  1.00  0.00    -0.269 OA
ATOM     31  H   UNL A   1      28.593  23.731  26.342  1.00  0.00     0.159 HD
ATOM     32  H   UNL A   1      29.346  23.471  27.850  1.00  0.00     0.159 HD
ENDBRANCH  21  28
ENDBRANCH   9  19
ENDBRANCH   4   6
ENDBRANCH   3   4
ENDBRANCH   2   3
ENDBRANCH   1   2
BRANCH   1  33
ATOM     33  O   UNL A   1      39.006  23.060  26.236  1.00  0.00    -0.458 OA
BRANCH  33  34
ATOM     34  C   UNL A   1      40.267  23.298  26.665  1.00  0.00     0.338 C 
ATOM     35  O   UNL A   1      41.230  22.557  26.541  1.00  0.00    -0.246 OA
BRANCH  34  36
ATOM     36  C   UNL A   1      40.321  24.526  27.461  1.00  0.00     0.060 A 
ATOM     37  C   UNL A   1      39.312  25.465  27.227  1.00  0.00     0.016 A 
ATOM     38  C   UNL A   1      41.438  24.831  28.249  1.00  0.00     0.016 A 
ATOM     39  C   UNL A   1      39.467  26.750  27.698  1.00  0.00     0.010 A 
ATOM     40  C   UNL A   1      41.603  26.124  28.705  1.00  0.00     0.010 A 
ATOM     41  C   UNL A   1      40.640  27.080  28.382  1.00  0.00    -0.014 A 
BRANCH  41  42
ATOM     42  C   UNL A   1      40.758  28.434  28.895  1.00  0.00     0.031 A 
ATOM     43  C   UNL A   1      41.916  29.158  28.309  1.00  0.00     0.074 A 
ATOM     44  C   UNL A   1      39.850  28.963  29.740  1.00  0.00     0.049 A 
ATOM     45  N   UNL A   1      42.955  29.600  28.933  1.00  0.00    -0.248 NA
ATOM     46  C   UNL A   1      42.041  29.219  26.840  1.00  0.00     0.031 C 
ATOM     47  C   UNL A   1      38.611  28.348  30.221  1.00  0.00     0.029 A 
ATOM     48  N   UNL A   1      39.790  30.209  30.285  1.00  0.00    -0.354 N 
ATOM     49  C   UNL A   1      43.727  30.241  27.971  1.00  0.00     0.074 A 
ATOM     50  C   UNL A   1      43.239  29.788  26.699  1.00  0.00     0.031 C 
ATOM     51  C   UNL A   1      37.820  29.302  30.766  1.00  0.00     0.029 A 
ATOM     52  C   UNL A   1      38.530  30.570  30.765  1.00  0.00     0.049 A 
ATOM     53  H   UNL A   1      40.571  30.807  30.336  1.00  0.00     0.167 HD
ATOM     54  C   UNL A   1      44.489  31.315  28.312  1.00  0.00     0.034 A 
ATOM     55  C   UNL A   1      38.086  31.827  31.061  1.00  0.00     0.034 A 
ATOM     56  C   UNL A   1      44.768  31.314  29.734  1.00  0.00     0.049 A 
ATOM     57  C   UNL A   1      39.295  32.657  31.302  1.00  0.00     0.074 A 
ATOM     58  C   UNL A   1      45.349  30.403  30.597  1.00  0.00     0.029 A 
ATOM     59  N   UNL A   1      44.073  32.192  30.537  1.00  0.00    -0.354 N 
ATOM     60  N   UNL A   1      40.088  32.464  32.322  1.00  0.00    -0.248 NA
ATOM     61  C   UNL A   1      39.914  33.312  30.156  1.00  0.00     0.031 C 
ATOM     62  C   UNL A   1      44.560  30.470  31.783  1.00  0.00     0.029 A 
ATOM     63  C   UNL A   1      43.617  31.487  31.623  1.00  0.00     0.049 A 
ATOM     64  H   UNL A   1      43.930  33.152  30.365  1.00  0.00     0.167 HD
ATOM     65  C   UNL A   1      41.369  32.532  31.795  1.00  0.00     0.074 A 
ATOM     66  C   UNL A   1      41.203  33.143  30.474  1.00  0.00     0.031 C 
ATOM     67  C   UNL A   1      42.398  31.813  32.337  1.00  0.00     0.034 A 
BRANCH  54  68
ATOM     68  C   UNL A   1      44.573  32.576  27.474  1.00  0.00     0.023 A 
ATOM     69  C   UNL A   1      43.932  33.716  27.992  1.00  0.00     0.031 A 
ATOM     70  C   UNL A   1      44.919  32.637  26.103  1.00  0.00     0.131 A 
ATOM     71  C   UNL A   1      43.519  34.756  27.144  1.00  0.00     0.055 A 
ATOM     72  C   UNL A   1      44.567  33.708  25.278  1.00  0.00     0.041 A 
ATOM     73  F   UNL A   1      45.534  31.641  25.458  1.00  0.00    -0.206 F 
ATOM     74  C   UNL A   1      43.824  34.757  25.786  1.00  0.00     0.022 A 
BRANCH  71  75
ATOM     75  S   UNL A   1      42.388  35.997  27.817  1.00  0.00     0.124 S 
ATOM     76  O   UNL A   1      41.092  35.402  27.505  1.00  0.00    -0.237 OA
ATOM     77  O   UNL A   1      42.768  36.016  29.225  1.00  0.00    -0.237 OA
ATOM     78  O   UNL A   1      42.722  37.203  27.064  1.00  0.00    -0.744 OA
ENDBRANCH  71  75
ENDBRANCH  54  68
BRANCH  55  79
ATOM     79  C   UNL A   1      36.725  32.399  30.794  1.00  0.00     0.023 A 
ATOM     80  C   UNL A   1      35.898  32.966  31.796  1.00  0.00     0.031 A 
ATOM     81  C   UNL A   1      36.313  32.612  29.457  1.00  0.00     0.131 A 
ATOM     82  C   UNL A   1      34.730  33.694  31.439  1.00  0.00     0.055 A 
ATOM     83  C   UNL A   1      35.164  33.328  29.113  1.00  0.00     0.041 A 
ATOM     84  F   UNL A   1      37.060  32.204  28.421  1.00  0.00    -0.206 F 
ATOM     85  C   UNL A   1      34.372  33.882  30.102  1.00  0.00     0.022 A 
BRANCH  82  86
ATOM     86  S   UNL A   1      33.681  34.493  32.705  1.00  0.00     0.124 S 
ATOM     87  O   UNL A   1      33.142  33.349  33.431  1.00  0.00    -0.237 OA
ATOM     88  O   UNL A   1      34.631  35.331  33.425  1.00  0.00    -0.237 OA
ATOM     89  O   UNL A   1      32.693  35.233  31.915  1.00  0.00    -0.744 OA
ENDBRANCH  82  86
ENDBRANCH  55  79
BRANCH  67  90
ATOM     90  C   UNL A   1      42.189  31.151  33.684  1.00  0.00     0.023 A 
ATOM     91  C   UNL A   1      42.062  29.758  33.900  1.00  0.00     0.031 A 
ATOM     92  C   UNL A   1      42.233  31.982  34.818  1.00  0.00     0.131 A 
ATOM     93  C   UNL A   1      41.961  29.254  35.213  1.00  0.00     0.055 A 
ATOM     94  C   UNL A   1      42.159  31.477  36.114  1.00  0.00     0.041 A 
ATOM     95  F   UNL A   1      42.382  33.311  34.683  1.00  0.00    -0.206 F 
ATOM     96  C   UNL A   1      42.014  30.111  36.317  1.00  0.00     0.022 A 
BRANCH  93  97
ATOM     97  S   UNL A   1      41.725  27.472  35.516  1.00  0.00     0.124 S 
ATOM     98  O   UNL A   1      43.067  26.920  35.385  1.00  0.00    -0.237 OA
ATOM     99  O   UNL A   1      41.154  27.452  36.861  1.00  0.00    -0.237 OA
ATOM    100  O   UNL A   1      40.795  27.068  34.459  1.00  0.00    -0.744 OA
ENDBRANCH  93  97
ENDBRANCH  67  90
ENDBRANCH  41  42
ENDBRANCH  34  36
ENDBRANCH  33  34
ENDBRANCH   1  33
TORSDOF 18
ENDMDL
MODEL 3
REMARK VINA RESULT:     -13.2      2.796      6.928
REMARK SMILES COc1cccc(-c2nn(-c3cc4c(cc3C(N)=O)OCO4)cc2C(=O)OCCOC(=O)c2ccc(-c3c4nc(c(-c5cc(S(=O)(=O)[O-])ccc5F)c5ccc([nH]5)c(-c5cc(S(=O)(=O)[O-])ccc5F)c5nc(c(-c6cc(S(=O)(=O)[O-])ccc6F)c6ccc3[nH]6)C=C5)C=C4)cc2)c1
REMARK SMILES IDX 29 1 28 2 27 3 25 4 26 5 24 6 8 7 9 8 10 9 23 10 7 11 3 12
REMARK SMILES IDX 4 13 96 14 5 15 6 16 2 17 1 18 11 19 12 20 16 21 13 22 15 23
REMARK SMILES IDX 14 24 22 25 20 26 21 27 17 28 18 29 19 30 30 33 31 34 32 35
REMARK SMILES IDX 33 36 34 37 95 38 35 39 94 40 36 41 37 42 38 43 88 44 39 45
REMARK SMILES IDX 93 46 87 47 89 48 40 49 92 50 86 51 85 52 41 54 73 55 53 56
REMARK SMILES IDX 72 57 54 58 57 59 71 60 90 61 55 62 56 63 70 65 91 66 58 67
REMARK SMILES IDX 42 68 43 69 51 70 44 71 50 72 52 73 49 74 45 75 46 76 47 77
REMARK SMILES IDX 48 78 74 79 75 80 83 81 76 82 82 83 84 84 81 85 77 86 78 87
REMARK SMILES IDX 79 88 80 89 59 90 60 91 68 92 61 93 67 94 69 95 66 96 62 97
REMARK SMILES IDX 63 98 64 99 65 100
REMARK H PARENT 18 31 18 32 89 53 57 64
REMARK Flexibility Score: inf
ROOT
ATOM      1  C   UNL A   1      33.680  31.349  27.531  1.00  0.00     0.275 C 
ENDROOT
BRANCH   1   2
ATOM      2  C   UNL A   1      33.300  30.211  26.588  1.00  0.00     0.275 C 
BRANCH   2   3
ATOM      3  O   UNL A   1      31.980  29.706  26.842  1.00  0.00    -0.458 OA
BRANCH   3   4
ATOM      4  C   UNL A   1      31.869  28.360  27.092  1.00  0.00     0.342 C 
ATOM      5  O   UNL A   1      31.449  27.891  28.135  1.00  0.00    -0.246 OA
BRANCH   4   6
ATOM      6  C   UNL A   1      32.346  27.560  25.976  1.00  0.00     0.106 A 
ATOM      7  C   UNL A   1      31.758  27.307  24.704  1.00  0.00     0.107 A 
ATOM      8  N   UNL A   1      32.492  26.430  23.990  1.00  0.00    -0.167 NA
ATOM      9  N   UNL A   1      33.437  26.014  24.866  1.00  0.00    -0.239 N 
ATOM     10  C   UNL A   1      33.528  26.853  25.941  1.00  0.00     0.131 A 
BRANCH   7  11
ATOM     11  C   UNL A   1      30.556  27.914  24.146  1.00  0.00     0.007 A 
ATOM     12  C   UNL A   1      29.394  29.806  23.168  1.00  0.00     0.119 A 
ATOM     13  C   UNL A   1      28.279  28.988  22.953  1.00  0.00     0.046 A 
ATOM     14  C   UNL A   1      30.543  29.262  23.751  1.00  0.00     0.056 A 
ATOM     15  C   UNL A   1      28.283  27.654  23.355  1.00  0.00     0.005 A 
ATOM     16  C   UNL A   1      29.415  27.125  23.971  1.00  0.00     0.011 A 
BRANCH  12  17
ATOM     17  O   UNL A   1      29.213  31.104  22.776  1.00  0.00    -0.497 OA
ATOM     18  C   UNL A   1      28.040  31.770  23.212  1.00  0.00     0.278 C 
ENDBRANCH  12  17
ENDBRANCH   7  11
BRANCH   9  19
ATOM     19  C   UNL A   1      34.234  24.870  24.621  1.00  0.00     0.081 A 
ATOM     20  C   UNL A   1      35.350  24.662  25.458  1.00  0.00     0.079 A 
ATOM     21  C   UNL A   1      33.928  23.954  23.570  1.00  0.00     0.069 A 
ATOM     22  C   UNL A   1      36.092  23.518  25.258  1.00  0.00     0.167 A 
ATOM     23  C   UNL A   1      34.646  22.748  23.494  1.00  0.00     0.066 A 
ATOM     24  C   UNL A   1      35.730  22.579  24.323  1.00  0.00     0.166 A 
ATOM     25  O   UNL A   1      37.238  23.172  25.905  1.00  0.00    -0.454 OA
ATOM     26  O   UNL A   1      36.602  21.535  24.264  1.00  0.00    -0.454 OA
ATOM     27  C   UNL A   1      37.655  22.042  25.110  1.00  0.00     0.468 C 
BRANCH  21  28
ATOM     28  C   UNL A   1      33.056  24.333  22.396  1.00  0.00     0.251 C 
ATOM     29  N   UNL A   1      31.711  24.086  22.473  1.00  0.00    -0.366 N 
ATOM     30  O   UNL A   1      33.468  24.764  21.330  1.00  0.00    -0.269 OA
ATOM     31  H   UNL A   1      31.321  23.738  23.307  1.00  0.00     0.159 HD
ATOM     32  H   UNL A   1      31.134  24.257  21.693  1.00  0.00     0.159 HD
ENDBRANCH  21  28
ENDBRANCH   9  19
ENDBRANCH   4   6
ENDBRANCH   3   4
ENDBRANCH   2   3
ENDBRANCH   1   2
BRANCH   1  33
ATOM     33  O   UNL A   1      34.657  30.958  28.496  1.00  0.00    -0.458 OA
BRANCH  33  34
ATOM     34  C   UNL A   1      35.861  31.551  28.327  1.00  0.00     0.338 C 
ATOM     35  O   UNL A   1      36.090  32.568  27.691  1.00  0.00    -0.246 OA
BRANCH  34  36
ATOM     36  C   UNL A   1      36.930  30.721  28.888  1.00  0.00     0.060 A 
ATOM     37  C   UNL A   1      38.118  31.377  29.223  1.00  0.00     0.016 A 
ATOM     38  C   UNL A   1      36.840  29.323  28.886  1.00  0.00     0.016 A 
ATOM     39  C   UNL A   1      39.254  30.635  29.457  1.00  0.00     0.010 A 
ATOM     40  C   UNL A   1      37.983  28.578  29.102  1.00  0.00     0.010 A 
ATOM     41  C   UNL A   1      39.187  29.244  29.335  1.00  0.00    -0.014 A 
BRANCH  41  42
ATOM     42  C   UNL A   1      40.393  28.487  29.621  1.00  0.00     0.031 A 
ATOM     43  C   UNL A   1      40.712  28.464  31.072  1.00  0.00     0.074 A 
ATOM     44  C   UNL A   1      41.069  27.825  28.660  1.00  0.00     0.049 A 
ATOM     45  N   UNL A   1      41.752  28.964  31.649  1.00  0.00    -0.248 NA
ATOM     46  C   UNL A   1      39.668  28.024  32.018  1.00  0.00     0.031 C 
ATOM     47  C   UNL A   1      40.709  27.685  27.247  1.00  0.00     0.029 A 
ATOM     48  N   UNL A   1      42.183  27.050  28.756  1.00  0.00    -0.354 N 
ATOM     49  C   UNL A   1      41.622  28.650  32.997  1.00  0.00     0.074 A 
ATOM     50  C   UNL A   1      40.248  28.281  33.191  1.00  0.00     0.031 C 
ATOM     51  C   UNL A   1      41.436  26.686  26.696  1.00  0.00     0.029 A 
ATOM     52  C   UNL A   1      42.380  26.182  27.681  1.00  0.00     0.049 A 
ATOM     53  H   UNL A   1      42.801  27.097  29.523  1.00  0.00     0.167 HD
ATOM     54  C   UNL A   1      42.729  28.429  33.756  1.00  0.00     0.034 A 
ATOM     55  C   UNL A   1      43.197  25.089  27.636  1.00  0.00     0.034 A 
ATOM     56  C   UNL A   1      43.892  29.051  33.158  1.00  0.00     0.049 A 
ATOM     57  C   UNL A   1      44.221  25.283  28.696  1.00  0.00     0.074 A 
ATOM     58  C   UNL A   1      44.197  30.344  32.772  1.00  0.00     0.029 A 
ATOM     59  N   UNL A   1      44.801  28.248  32.505  1.00  0.00    -0.354 N 
ATOM     60  N   UNL A   1      45.122  26.227  28.637  1.00  0.00    -0.248 NA
ATOM     61  C   UNL A   1      43.912  24.808  30.039  1.00  0.00     0.031 C 
ATOM     62  C   UNL A   1      44.900  30.201  31.541  1.00  0.00     0.029 A 
ATOM     63  C   UNL A   1      45.084  28.839  31.298  1.00  0.00     0.049 A 
ATOM     64  H   UNL A   1      45.181  27.404  32.843  1.00  0.00     0.167 HD
ATOM     65  C   UNL A   1      45.144  26.778  29.910  1.00  0.00     0.074 A 
ATOM     66  C   UNL A   1      44.442  25.807  30.755  1.00  0.00     0.031 C 
ATOM     67  C   UNL A   1      45.449  28.096  30.108  1.00  0.00     0.034 A 
BRANCH  54  68
ATOM     68  C   UNL A   1      42.844  27.287  34.747  1.00  0.00     0.023 A 
ATOM     69  C   UNL A   1      43.621  26.185  34.346  1.00  0.00     0.031 A 
ATOM     70  C   UNL A   1      41.995  27.065  35.857  1.00  0.00     0.131 A 
ATOM     71  C   UNL A   1      43.419  24.917  34.913  1.00  0.00     0.055 A 
ATOM     72  C   UNL A   1      41.850  25.816  36.465  1.00  0.00     0.041 A 
ATOM     73  F   UNL A   1      41.194  28.007  36.366  1.00  0.00    -0.206 F 
ATOM     74  C   UNL A   1      42.531  24.722  35.967  1.00  0.00     0.022 A 
BRANCH  71  75
ATOM     75  S   UNL A   1      44.183  23.494  34.098  1.00  0.00     0.124 S 
ATOM     76  O   UNL A   1      45.435  24.075  33.625  1.00  0.00    -0.237 OA
ATOM     77  O   UNL A   1      44.288  22.540  35.197  1.00  0.00    -0.237 OA
ATOM     78  O   UNL A   1      43.220  23.144  33.058  1.00  0.00    -0.744 OA
ENDBRANCH  71  75
ENDBRANCH  54  68
BRANCH  55  79
ATOM     79  C   UNL A   1      42.917  23.767  26.985  1.00  0.00     0.023 A 
ATOM     80  C   UNL A   1      43.856  23.066  26.189  1.00  0.00     0.031 A 
ATOM     81  C   UNL A   1      41.755  23.046  27.351  1.00  0.00     0.131 A 
ATOM     82  C   UNL A   1      43.609  21.722  25.797  1.00  0.00     0.055 A 
ATOM     83  C   UNL A   1      41.518  21.725  26.963  1.00  0.00     0.041 A 
ATOM     84  F   UNL A   1      40.838  23.570  28.177  1.00  0.00    -0.206 F 
ATOM     85  C   UNL A   1      42.449  21.053  26.193  1.00  0.00     0.022 A 
BRANCH  82  86
ATOM     86  S   UNL A   1      44.832  20.771  24.827  1.00  0.00     0.124 S 
ATOM     87  O   UNL A   1      46.097  21.198  25.415  1.00  0.00    -0.237 OA
ATOM     88  O   UNL A   1      44.433  19.391  25.074  1.00  0.00    -0.237 OA
ATOM     89  O   UNL A   1      44.613  21.231  23.454  1.00  0.00    -0.744 OA
ENDBRANCH  82  86
ENDBRANCH  55  79
BRANCH  67  90
ATOM     90  C   UNL A   1      46.029  28.887  28.952  1.00  0.00     0.023 A 
ATOM     91  C   UNL A   1      47.398  28.934  28.599  1.00  0.00     0.031 A 
ATOM     92  C   UNL A   1      45.117  29.539  28.103  1.00  0.00     0.131 A 
ATOM     93  C   UNL A   1      47.806  29.635  27.446  1.00  0.00     0.055 A 
ATOM     94  C   UNL A   1      45.521  30.209  26.951  1.00  0.00     0.041 A 
ATOM     95  F   UNL A   1      43.799  29.508  28.366  1.00  0.00    -0.206 F 
ATOM     96  C   UNL A   1      46.869  30.267  26.622  1.00  0.00     0.022 A 
BRANCH  93  97
ATOM     97  S   UNL A   1      49.570  29.771  27.007  1.00  0.00     0.124 S 
ATOM     98  O   UNL A   1      50.253  29.659  28.290  1.00  0.00    -0.237 OA
ATOM     99  O   UNL A   1      49.755  28.653  26.085  1.00  0.00    -0.237 OA
ATOM    100  O   UNL A   1      49.663  31.092  26.381  1.00  0.00    -0.744 OA
ENDBRANCH  93  97
ENDBRANCH  67  90
ENDBRANCH  41  42
ENDBRANCH  34  36
ENDBRANCH  33  34
ENDBRANCH   1  33
TORSDOF 18
ENDMDL
