MODEL 1
REMARK VINA RESULT:     -12.4      0.000      0.000
REMARK SMILES COc1ccc(NC(=O)N[C@@H]2C=C[C@H](C(=O)OCCOC(=O)c3ccc(-c4c5nc(c(-c6cc(S(=O)(=O)[O-])ccc6F)c6ccc([nH]6)c(-c6cc(S(=O)(=O)[O-])ccc6F)c6nc(c(-c7cc(S(=O)(=O)[O-])ccc7F)c7ccc4[nH]7)C=C6)C=C5)cc3)C2)c(C)c1
REMARK SMILES IDX 18 1 17 2 15 3 16 4 14 5 11 6 12 7 86 8 13 9 10 10 7 11 8 12
REMARK SMILES IDX 9 14 6 16 3 17 4 18 89 19 5 20 87 21 88 22 2 23 1 24 19 25
REMARK SMILES IDX 20 26 21 27 22 28 23 29 24 30 85 31 25 32 84 33 26 34 27 35
REMARK SMILES IDX 28 36 78 37 29 38 83 39 77 40 79 41 30 42 82 43 76 44 75 45
REMARK SMILES IDX 31 47 63 48 43 49 62 50 44 51 47 52 61 53 80 54 45 55 46 56
REMARK SMILES IDX 60 58 81 59 48 60 32 61 33 62 41 63 34 64 40 65 42 66 39 67
REMARK SMILES IDX 35 68 36 69 37 70 38 71 64 72 65 73 73 74 66 75 72 76 74 77
REMARK SMILES IDX 71 78 67 79 68 80 69 81 70 82 49 83 50 84 58 85 51 86 57 87
REMARK SMILES IDX 59 88 56 89 52 90 53 91 54 92 55 93
REMARK H PARENT 7 13 10 15 79 46 47 57
REMARK Flexibility Score: inf
ROOT
ATOM      1  C   UNL A   1      45.307  25.595  27.075  1.00  0.00     0.274 C 
ENDROOT
BRANCH   1   2
ATOM      2  O   UNL A   1      46.492  25.118  26.311  1.00  0.00    -0.462 OA
BRANCH   2   3
ATOM      3  C   UNL A   1      46.429  24.971  24.956  1.00  0.00     0.312 C 
ATOM      4  O   UNL A   1      46.765  25.917  24.255  1.00  0.00    -0.252 OA
BRANCH   3   5
ATOM      5  C   UNL A   1      46.229  23.313  24.384  1.00  0.00     0.124 C 
ATOM      6  C   UNL A   1      43.470  22.091  25.579  1.00  0.00     0.107 C 
ATOM      7  C   UNL A   1      44.669  20.680  25.400  1.00  0.00    -0.006 C 
ATOM      8  C   UNL A   1      44.163  23.703  24.565  1.00  0.00     0.048 C 
ATOM      9  C   UNL A   1      46.071  21.173  24.957  1.00  0.00    -0.014 C 
BRANCH   6  10
ATOM     10  N   UNL A   1      43.672  22.207  27.290  1.00  0.00    -0.332 N 
ATOM     11  N   UNL A   1      41.455  22.824  28.371  1.00  0.00    -0.308 N 
ATOM     12  C   UNL A   1      42.851  22.532  28.436  1.00  0.00     0.319 C 
ATOM     13  H   UNL A   1      41.024  23.158  29.191  1.00  0.00     0.171 HD
ATOM     14  O   UNL A   1      43.413  22.564  29.537  1.00  0.00    -0.248 OA
ATOM     15  H   UNL A   1      44.595  21.997  27.558  1.00  0.00     0.165 HD
BRANCH  11  16
ATOM     16  C   UNL A   1      40.647  22.675  27.232  1.00  0.00     0.046 A 
ATOM     17  C   UNL A   1      37.407  22.788  25.544  1.00  0.00     0.119 A 
ATOM     18  C   UNL A   1      37.913  24.174  26.518  1.00  0.00     0.048 A 
ATOM     19  C   UNL A   1      38.541  21.499  25.415  1.00  0.00     0.052 A 
ATOM     20  C   UNL A   1      39.810  23.970  27.225  1.00  0.00     0.030 A 
ATOM     21  C   UNL A   1      40.038  21.406  26.328  1.00  0.00    -0.024 A 
ATOM     22  C   UNL A   1      40.553  19.990  26.586  1.00  0.00     0.047 C 
BRANCH  17  23
ATOM     23  O   UNL A   1      36.246  22.746  24.843  1.00  0.00    -0.497 OA
ATOM     24  C   UNL A   1      35.261  22.065  25.613  1.00  0.00     0.278 C 
ENDBRANCH  17  23
ENDBRANCH  11  16
ENDBRANCH   6  10
ENDBRANCH   3   5
ENDBRANCH   2   3
ENDBRANCH   1   2
BRANCH   1  25
ATOM     25  C   UNL A   1      44.257  26.685  26.609  1.00  0.00     0.275 C 
BRANCH  25  26
ATOM     26  O   UNL A   1      42.866  26.579  26.965  1.00  0.00    -0.458 OA
BRANCH  26  27
ATOM     27  C   UNL A   1      42.041  27.475  26.377  1.00  0.00     0.338 C 
ATOM     28  O   UNL A   1      41.706  27.482  25.208  1.00  0.00    -0.246 OA
BRANCH  27  29
ATOM     29  C   UNL A   1      41.268  27.989  27.519  1.00  0.00     0.060 A 
ATOM     30  C   UNL A   1      41.892  29.069  28.105  1.00  0.00     0.016 A 
ATOM     31  C   UNL A   1      39.873  27.824  27.590  1.00  0.00     0.016 A 
ATOM     32  C   UNL A   1      41.114  30.080  28.591  1.00  0.00     0.010 A 
ATOM     33  C   UNL A   1      39.109  28.783  28.214  1.00  0.00     0.010 A 
ATOM     34  C   UNL A   1      39.779  29.851  28.784  1.00  0.00    -0.014 A 
BRANCH  34  35
ATOM     35  C   UNL A   1      39.292  30.363  30.038  1.00  0.00     0.031 A 
ATOM     36  C   UNL A   1      38.933  31.819  30.071  1.00  0.00     0.074 A 
ATOM     37  C   UNL A   1      39.640  29.489  31.025  1.00  0.00     0.049 A 
ATOM     38  N   UNL A   1      38.922  32.648  31.061  1.00  0.00    -0.248 NA
ATOM     39  C   UNL A   1      38.642  32.569  28.812  1.00  0.00     0.031 C 
ATOM     40  C   UNL A   1      38.709  28.800  31.916  1.00  0.00     0.029 A 
ATOM     41  N   UNL A   1      40.743  28.607  31.067  1.00  0.00    -0.354 N 
ATOM     42  C   UNL A   1      37.943  33.567  30.675  1.00  0.00     0.074 A 
ATOM     43  C   UNL A   1      38.125  33.719  29.264  1.00  0.00     0.031 C 
ATOM     44  C   UNL A   1      39.369  27.877  32.647  1.00  0.00     0.029 A 
ATOM     45  C   UNL A   1      40.770  27.873  32.249  1.00  0.00     0.049 A 
ATOM     46  H   UNL A   1      41.410  28.523  30.349  1.00  0.00     0.167 HD
ATOM     47  C   UNL A   1      36.765  33.588  31.379  1.00  0.00     0.034 A 
ATOM     48  C   UNL A   1      41.822  28.045  33.101  1.00  0.00     0.034 A 
ATOM     49  C   UNL A   1      36.853  32.590  32.435  1.00  0.00     0.049 A 
ATOM     50  C   UNL A   1      41.423  29.137  34.075  1.00  0.00     0.074 A 
ATOM     51  C   UNL A   1      36.351  31.306  32.558  1.00  0.00     0.029 A 
ATOM     52  N   UNL A   1      37.860  32.720  33.365  1.00  0.00    -0.354 N 
ATOM     53  N   UNL A   1      40.550  30.076  33.801  1.00  0.00    -0.248 NA
ATOM     54  C   UNL A   1      41.813  29.123  35.479  1.00  0.00     0.031 C 
ATOM     55  C   UNL A   1      37.075  30.675  33.607  1.00  0.00     0.029 A 
ATOM     56  C   UNL A   1      38.084  31.531  34.015  1.00  0.00     0.049 A 
ATOM     57  H   UNL A   1      38.355  33.553  33.540  1.00  0.00     0.167 HD
ATOM     58  C   UNL A   1      40.128  30.650  34.969  1.00  0.00     0.074 A 
ATOM     59  C   UNL A   1      40.982  30.049  35.984  1.00  0.00     0.031 C 
ATOM     60  C   UNL A   1      39.070  31.513  35.069  1.00  0.00     0.034 A 
BRANCH  47  61
ATOM     61  C   UNL A   1      35.425  34.188  31.003  1.00  0.00     0.023 A 
ATOM     62  C   UNL A   1      34.883  35.170  31.868  1.00  0.00     0.031 A 
ATOM     63  C   UNL A   1      34.666  33.922  29.850  1.00  0.00     0.131 A 
ATOM     64  C   UNL A   1      33.661  35.810  31.611  1.00  0.00     0.055 A 
ATOM     65  C   UNL A   1      33.437  34.563  29.590  1.00  0.00     0.041 A 
ATOM     66  F   UNL A   1      35.086  33.063  28.911  1.00  0.00    -0.206 F 
ATOM     67  C   UNL A   1      32.928  35.512  30.471  1.00  0.00     0.022 A 
BRANCH  64  68
ATOM     68  S   UNL A   1      33.075  37.049  32.799  1.00  0.00     0.124 S 
ATOM     69  O   UNL A   1      33.972  36.835  33.930  1.00  0.00    -0.237 OA
ATOM     70  O   UNL A   1      33.251  38.295  32.062  1.00  0.00    -0.237 OA
ATOM     71  O   UNL A   1      31.684  36.663  33.033  1.00  0.00    -0.744 OA
ENDBRANCH  64  68
ENDBRANCH  47  61
BRANCH  48  72
ATOM     72  C   UNL A   1      43.154  27.805  32.455  1.00  0.00     0.023 A 
ATOM     73  C   UNL A   1      43.686  28.856  31.662  1.00  0.00     0.031 A 
ATOM     74  C   UNL A   1      44.014  26.751  32.758  1.00  0.00     0.131 A 
ATOM     75  C   UNL A   1      45.062  28.954  31.411  1.00  0.00     0.055 A 
ATOM     76  C   UNL A   1      45.387  26.822  32.458  1.00  0.00     0.041 A 
ATOM     77  F   UNL A   1      43.574  25.678  33.429  1.00  0.00    -0.206 F 
ATOM     78  C   UNL A   1      45.928  27.958  31.847  1.00  0.00     0.022 A 
BRANCH  75  79
ATOM     79  S   UNL A   1      45.734  30.494  30.709  1.00  0.00     0.124 S 
ATOM     80  O   UNL A   1      44.735  30.830  29.700  1.00  0.00    -0.237 OA
ATOM     81  O   UNL A   1      45.789  31.384  31.867  1.00  0.00    -0.237 OA
ATOM     82  O   UNL A   1      47.035  30.084  30.199  1.00  0.00    -0.744 OA
ENDBRANCH  75  79
ENDBRANCH  48  72
BRANCH  60  83
ATOM     83  C   UNL A   1      38.817  32.438  36.230  1.00  0.00     0.023 A 
ATOM     84  C   UNL A   1      38.190  31.989  37.384  1.00  0.00     0.031 A 
ATOM     85  C   UNL A   1      39.316  33.767  36.269  1.00  0.00     0.131 A 
ATOM     86  C   UNL A   1      37.927  32.867  38.436  1.00  0.00     0.055 A 
ATOM     87  C   UNL A   1      39.205  34.586  37.390  1.00  0.00     0.041 A 
ATOM     88  F   UNL A   1      39.949  34.336  35.232  1.00  0.00    -0.206 F 
ATOM     89  C   UNL A   1      38.463  34.151  38.472  1.00  0.00     0.022 A 
BRANCH  86  90
ATOM     90  S   UNL A   1      36.729  32.315  39.662  1.00  0.00     0.124 S 
ATOM     91  O   UNL A   1      37.081  30.903  39.799  1.00  0.00    -0.237 OA
ATOM     92  O   UNL A   1      37.045  33.157  40.811  1.00  0.00    -0.237 OA
ATOM     93  O   UNL A   1      35.443  32.578  39.023  1.00  0.00    -0.744 OA
ENDBRANCH  86  90
ENDBRANCH  60  83
ENDBRANCH  34  35
ENDBRANCH  27  29
ENDBRANCH  26  27
ENDBRANCH  25  26
ENDBRANCH   1  25
TORSDOF 17
ENDMDL
MODEL 2
REMARK VINA RESULT:     -12.3      3.939     10.011
REMARK SMILES COc1ccc(NC(=O)N[C@@H]2C=C[C@H](C(=O)OCCOC(=O)c3ccc(-c4c5nc(c(-c6cc(S(=O)(=O)[O-])ccc6F)c6ccc([nH]6)c(-c6cc(S(=O)(=O)[O-])ccc6F)c6nc(c(-c7cc(S(=O)(=O)[O-])ccc7F)c7ccc4[nH]7)C=C6)C=C5)cc3)C2)c(C)c1
REMARK SMILES IDX 18 1 17 2 15 3 16 4 14 5 11 6 12 7 86 8 13 9 10 10 7 11 8 12
REMARK SMILES IDX 9 14 6 16 3 17 4 18 89 19 5 20 87 21 88 22 2 23 1 24 19 25
REMARK SMILES IDX 20 26 21 27 22 28 23 29 24 30 85 31 25 32 84 33 26 34 27 35
REMARK SMILES IDX 28 36 78 37 29 38 83 39 77 40 79 41 30 42 82 43 76 44 75 45
REMARK SMILES IDX 31 47 63 48 43 49 62 50 44 51 47 52 61 53 80 54 45 55 46 56
REMARK SMILES IDX 60 58 81 59 48 60 32 61 33 62 41 63 34 64 40 65 42 66 39 67
REMARK SMILES IDX 35 68 36 69 37 70 38 71 64 72 65 73 73 74 66 75 72 76 74 77
REMARK SMILES IDX 71 78 67 79 68 80 69 81 70 82 49 83 50 84 58 85 51 86 57 87
REMARK SMILES IDX 59 88 56 89 52 90 53 91 54 92 55 93
REMARK H PARENT 7 13 10 15 79 46 47 57
REMARK Flexibility Score: inf
ROOT
ATOM      1  C   UNL A   1      31.113  31.314  25.534  1.00  0.00     0.274 C 
ENDROOT
BRANCH   1   2
ATOM      2  O   UNL A   1      30.729  29.908  25.231  1.00  0.00    -0.462 OA
BRANCH   2   3
ATOM      3  C   UNL A   1      31.359  29.217  24.238  1.00  0.00     0.312 C 
ATOM      4  O   UNL A   1      30.984  29.389  23.086  1.00  0.00    -0.252 OA
BRANCH   3   5
ATOM      5  C   UNL A   1      32.880  28.449  24.699  1.00  0.00     0.124 C 
ATOM      6  C   UNL A   1      32.497  25.226  24.704  1.00  0.00     0.107 C 
ATOM      7  C   UNL A   1      33.755  25.636  26.011  1.00  0.00    -0.006 C 
ATOM      8  C   UNL A   1      32.206  26.839  23.513  1.00  0.00     0.048 C 
ATOM      9  C   UNL A   1      33.921  27.168  26.186  1.00  0.00    -0.014 C 
BRANCH   6  10
ATOM     10  N   UNL A   1      31.222  24.962  25.839  1.00  0.00    -0.332 N 
ATOM     11  N   UNL A   1      31.002  22.474  26.312  1.00  0.00    -0.308 N 
ATOM     12  C   UNL A   1      30.590  23.831  26.482  1.00  0.00     0.319 C 
ATOM     13  H   UNL A   1      30.423  21.774  26.693  1.00  0.00     0.171 HD
ATOM     14  O   UNL A   1      29.626  24.070  27.217  1.00  0.00    -0.248 OA
ATOM     15  H   UNL A   1      30.814  25.811  26.124  1.00  0.00     0.165 HD
BRANCH  11  16
ATOM     16  C   UNL A   1      32.165  22.056  25.645  1.00  0.00     0.046 A 
ATOM     17  C   UNL A   1      35.694  22.441  24.773  1.00  0.00     0.119 A 
ATOM     18  C   UNL A   1      35.218  22.531  26.474  1.00  0.00     0.048 A 
ATOM     19  C   UNL A   1      34.432  22.104  23.650  1.00  0.00     0.052 A 
ATOM     20  C   UNL A   1      33.243  22.123  26.746  1.00  0.00     0.030 A 
ATOM     21  C   UNL A   1      32.728  22.043  24.070  1.00  0.00    -0.024 A 
ATOM     22  C   UNL A   1      31.768  22.382  22.930  1.00  0.00     0.047 C 
BRANCH  17  23
ATOM     23  O   UNL A   1      36.979  22.527  24.347  1.00  0.00    -0.497 OA
ATOM     24  C   UNL A   1      37.802  21.719  25.183  1.00  0.00     0.278 C 
ENDBRANCH  17  23
ENDBRANCH  11  16
ENDBRANCH   6  10
ENDBRANCH   3   5
ENDBRANCH   2   3
ENDBRANCH   1   2
BRANCH   1  25
ATOM     25  C   UNL A   1      31.454  31.916  26.958  1.00  0.00     0.275 C 
BRANCH  25  26
ATOM     26  O   UNL A   1      32.818  32.077  27.391  1.00  0.00    -0.458 OA
BRANCH  26  27
ATOM     27  C   UNL A   1      33.138  33.298  27.876  1.00  0.00     0.338 C 
ATOM     28  O   UNL A   1      32.353  34.167  28.206  1.00  0.00    -0.246 OA
BRANCH  27  29
ATOM     29  C   UNL A   1      34.489  33.080  28.417  1.00  0.00     0.060 A 
ATOM     30  C   UNL A   1      34.586  31.861  29.053  1.00  0.00     0.016 A 
ATOM     31  C   UNL A   1      35.615  33.696  27.842  1.00  0.00     0.016 A 
ATOM     32  C   UNL A   1      35.758  31.168  28.945  1.00  0.00     0.010 A 
ATOM     33  C   UNL A   1      36.828  33.048  27.868  1.00  0.00     0.010 A 
ATOM     34  C   UNL A   1      36.877  31.826  28.513  1.00  0.00    -0.014 A 
BRANCH  34  35
ATOM     35  C   UNL A   1      38.050  31.516  29.287  1.00  0.00     0.031 A 
ATOM     36  C   UNL A   1      38.531  30.096  29.233  1.00  0.00     0.074 A 
ATOM     37  C   UNL A   1      38.231  32.503  30.210  1.00  0.00     0.049 A 
ATOM     38  N   UNL A   1      39.203  29.415  30.100  1.00  0.00    -0.248 NA
ATOM     39  C   UNL A   1      38.132  29.191  28.113  1.00  0.00     0.031 C 
ATOM     40  C   UNL A   1      39.416  33.350  30.326  1.00  0.00     0.029 A 
ATOM     41  N   UNL A   1      37.258  33.333  30.809  1.00  0.00    -0.354 N 
ATOM     42  C   UNL A   1      39.883  28.494  29.299  1.00  0.00     0.074 A 
ATOM     43  C   UNL A   1      38.945  28.139  28.279  1.00  0.00     0.031 C 
ATOM     44  C   UNL A   1      39.192  34.336  31.219  1.00  0.00     0.029 A 
ATOM     45  C   UNL A   1      37.828  34.224  31.715  1.00  0.00     0.049 A 
ATOM     46  H   UNL A   1      36.295  33.287  30.611  1.00  0.00     0.167 HD
ATOM     47  C   UNL A   1      41.245  28.623  29.182  1.00  0.00     0.034 A 
ATOM     48  C   UNL A   1      37.482  34.127  33.031  1.00  0.00     0.034 A 
ATOM     49  C   UNL A   1      41.662  29.754  29.997  1.00  0.00     0.049 A 
ATOM     50  C   UNL A   1      38.491  33.200  33.682  1.00  0.00     0.074 A 
ATOM     51  C   UNL A   1      41.990  31.063  29.691  1.00  0.00     0.029 A 
ATOM     52  N   UNL A   1      41.393  29.712  31.348  1.00  0.00    -0.354 N 
ATOM     53  N   UNL A   1      39.152  32.270  33.034  1.00  0.00    -0.248 NA
ATOM     54  C   UNL A   1      38.978  33.393  35.042  1.00  0.00     0.031 C 
ATOM     55  C   UNL A   1      41.930  31.802  30.905  1.00  0.00     0.029 A 
ATOM     56  C   UNL A   1      41.446  30.968  31.898  1.00  0.00     0.049 A 
ATOM     57  H   UNL A   1      41.189  28.890  31.851  1.00  0.00     0.167 HD
ATOM     58  C   UNL A   1      40.231  31.884  33.782  1.00  0.00     0.074 A 
ATOM     59  C   UNL A   1      40.049  32.583  35.047  1.00  0.00     0.031 C 
ATOM     60  C   UNL A   1      41.247  31.091  33.322  1.00  0.00     0.034 A 
BRANCH  47  61
ATOM     61  C   UNL A   1      42.186  28.035  28.150  1.00  0.00     0.023 A 
ATOM     62  C   UNL A   1      42.781  26.784  28.445  1.00  0.00     0.031 A 
ATOM     63  C   UNL A   1      42.505  28.566  26.888  1.00  0.00     0.131 A 
ATOM     64  C   UNL A   1      43.651  26.133  27.558  1.00  0.00     0.055 A 
ATOM     65  C   UNL A   1      43.380  27.915  25.994  1.00  0.00     0.041 A 
ATOM     66  F   UNL A   1      41.967  29.711  26.448  1.00  0.00    -0.206 F 
ATOM     67  C   UNL A   1      43.958  26.693  26.326  1.00  0.00     0.022 A 
BRANCH  64  68
ATOM     68  S   UNL A   1      44.348  24.535  28.056  1.00  0.00     0.124 S 
ATOM     69  O   UNL A   1      43.626  23.605  27.193  1.00  0.00    -0.237 OA
ATOM     70  O   UNL A   1      45.768  24.711  27.770  1.00  0.00    -0.237 OA
ATOM     71  O   UNL A   1      44.012  24.447  29.476  1.00  0.00    -0.744 OA
ENDBRANCH  64  68
ENDBRANCH  47  61
BRANCH  48  72
ATOM     72  C   UNL A   1      36.003  34.215  33.265  1.00  0.00     0.023 A 
ATOM     73  C   UNL A   1      35.402  35.493  33.123  1.00  0.00     0.031 A 
ATOM     74  C   UNL A   1      35.141  33.125  33.369  1.00  0.00     0.131 A 
ATOM     75  C   UNL A   1      34.033  35.627  32.848  1.00  0.00     0.055 A 
ATOM     76  C   UNL A   1      33.759  33.265  33.149  1.00  0.00     0.041 A 
ATOM     77  F   UNL A   1      35.618  31.892  33.591  1.00  0.00    -0.206 F 
ATOM     78  C   UNL A   1      33.210  34.508  32.816  1.00  0.00     0.022 A 
BRANCH  75  79
ATOM     79  S   UNL A   1      33.383  37.244  32.319  1.00  0.00     0.124 S 
ATOM     80  O   UNL A   1      34.271  38.171  33.012  1.00  0.00    -0.237 OA
ATOM     81  O   UNL A   1      33.529  37.194  30.865  1.00  0.00    -0.237 OA
ATOM     82  O   UNL A   1      32.005  37.216  32.789  1.00  0.00    -0.744 OA
ENDBRANCH  75  79
ENDBRANCH  48  72
BRANCH  60  83
ATOM     83  C   UNL A   1      42.224  30.349  34.194  1.00  0.00     0.023 A 
ATOM     84  C   UNL A   1      42.063  28.998  34.469  1.00  0.00     0.031 A 
ATOM     85  C   UNL A   1      43.424  30.942  34.672  1.00  0.00     0.131 A 
ATOM     86  C   UNL A   1      42.954  28.333  35.311  1.00  0.00     0.055 A 
ATOM     87  C   UNL A   1      44.398  30.229  35.365  1.00  0.00     0.041 A 
ATOM     88  F   UNL A   1      43.721  32.235  34.479  1.00  0.00    -0.206 F 
ATOM     89  C   UNL A   1      44.144  28.920  35.731  1.00  0.00     0.022 A 
BRANCH  86  90
ATOM     90  S   UNL A   1      42.411  26.743  35.961  1.00  0.00     0.124 S 
ATOM     91  O   UNL A   1      41.150  26.552  35.247  1.00  0.00    -0.237 OA
ATOM     92  O   UNL A   1      43.500  25.855  35.565  1.00  0.00    -0.237 OA
ATOM     93  O   UNL A   1      42.286  26.986  37.395  1.00  0.00    -0.744 OA
ENDBRANCH  86  90
ENDBRANCH  60  83
ENDBRANCH  34  35
ENDBRANCH  27  29
ENDBRANCH  26  27
ENDBRANCH  25  26
ENDBRANCH   1  25
TORSDOF 17
ENDMDL
MODEL 3
REMARK VINA RESULT:     -11.9      4.785      8.924
REMARK SMILES COc1ccc(NC(=O)N[C@@H]2C=C[C@H](C(=O)OCCOC(=O)c3ccc(-c4c5nc(c(-c6cc(S(=O)(=O)[O-])ccc6F)c6ccc([nH]6)c(-c6cc(S(=O)(=O)[O-])ccc6F)c6nc(c(-c7cc(S(=O)(=O)[O-])ccc7F)c7ccc4[nH]7)C=C6)C=C5)cc3)C2)c(C)c1
REMARK SMILES IDX 18 1 17 2 15 3 16 4 14 5 11 6 12 7 86 8 13 9 10 10 7 11 8 12
REMARK SMILES IDX 9 14 6 16 3 17 4 18 89 19 5 20 87 21 88 22 2 23 1 24 19 25
REMARK SMILES IDX 20 26 21 27 22 28 23 29 24 30 85 31 25 32 84 33 26 34 27 35
REMARK SMILES IDX 28 36 78 37 29 38 83 39 77 40 79 41 30 42 82 43 76 44 75 45
REMARK SMILES IDX 31 47 63 48 43 49 62 50 44 51 47 52 61 53 80 54 45 55 46 56
REMARK SMILES IDX 60 58 81 59 48 60 32 61 33 62 41 63 34 64 40 65 42 66 39 67
REMARK SMILES IDX 35 68 36 69 37 70 38 71 64 72 65 73 73 74 66 75 72 76 74 77
REMARK SMILES IDX 71 78 67 79 68 80 69 81 70 82 49 83 50 84 58 85 51 86 57 87
REMARK SMILES IDX 59 88 56 89 52 90 53 91 54 92 55 93
REMARK H PARENT 7 13 10 15 79 46 47 57
REMARK Flexibility Score: inf
ROOT
ATOM      1  C   UNL A   1      38.312  21.548  25.677  1.00  0.00     0.274 C 
ENDROOT
BRANCH   1   2
ATOM      2  O   UNL A   1      37.445  21.297  24.493  1.00  0.00    -0.462 OA
BRANCH   2   3
ATOM      3  C   UNL A   1      36.099  21.503  24.565  1.00  0.00     0.312 C 
ATOM      4  O   UNL A   1      35.483  20.987  25.489  1.00  0.00    -0.252 OA
BRANCH   3   5
ATOM      5  C   UNL A   1      35.475  22.793  23.534  1.00  0.00     0.124 C 
ATOM      6  C   UNL A   1      33.838  24.924  25.352  1.00  0.00     0.107 C 
ATOM      7  C   UNL A   1      33.041  24.902  23.672  1.00  0.00    -0.006 C 
ATOM      8  C   UNL A   1      35.635  23.991  25.263  1.00  0.00     0.048 C 
ATOM      9  C   UNL A   1      33.665  23.818  22.756  1.00  0.00    -0.014 C 
BRANCH   6  10
ATOM     10  N   UNL A   1      32.598  23.974  26.090  1.00  0.00    -0.332 N 
ATOM     11  N   UNL A   1      30.631  25.463  26.702  1.00  0.00    -0.308 N 
ATOM     12  C   UNL A   1      31.290  24.197  26.667  1.00  0.00     0.319 C 
ATOM     13  H   UNL A   1      29.803  25.527  27.232  1.00  0.00     0.171 HD
ATOM     14  O   UNL A   1      30.724  23.219  27.166  1.00  0.00    -0.248 OA
ATOM     15  H   UNL A   1      32.850  23.023  26.129  1.00  0.00     0.165 HD
BRANCH  11  16
ATOM     16  C   UNL A   1      31.067  26.624  26.043  1.00  0.00     0.046 A 
ATOM     17  C   UNL A   1      31.375  30.257  25.784  1.00  0.00     0.119 A 
ATOM     18  C   UNL A   1      31.818  29.467  27.303  1.00  0.00     0.048 A 
ATOM     19  C   UNL A   1      30.889  29.215  24.502  1.00  0.00     0.052 A 
ATOM     20  C   UNL A   1      31.731  27.438  27.172  1.00  0.00     0.030 A 
ATOM     21  C   UNL A   1      30.630  27.487  24.679  1.00  0.00    -0.024 A 
ATOM     22  C   UNL A   1      29.626  26.880  23.700  1.00  0.00     0.047 C 
BRANCH  17  23
ATOM     23  O   UNL A   1      31.494  31.591  25.569  1.00  0.00    -0.497 OA
ATOM     24  C   UNL A   1      31.464  32.270  26.821  1.00  0.00     0.278 C 
ENDBRANCH  17  23
ENDBRANCH  11  16
ENDBRANCH   6  10
ENDBRANCH   3   5
ENDBRANCH   2   3
ENDBRANCH   1   2
BRANCH   1  25
ATOM     25  C   UNL A   1      39.665  20.807  26.034  1.00  0.00     0.275 C 
BRANCH  25  26
ATOM     26  O   UNL A   1      40.612  21.387  26.950  1.00  0.00    -0.458 OA
BRANCH  26  27
ATOM     27  C   UNL A   1      41.852  21.600  26.454  1.00  0.00     0.338 C 
ATOM     28  O   UNL A   1      42.404  20.940  25.595  1.00  0.00    -0.246 OA
BRANCH  27  29
ATOM     29  C   UNL A   1      42.067  23.027  26.744  1.00  0.00     0.060 A 
ATOM     30  C   UNL A   1      41.984  23.285  28.095  1.00  0.00     0.016 A 
ATOM     31  C   UNL A   1      42.837  23.837  25.891  1.00  0.00     0.016 A 
ATOM     32  C   UNL A   1      42.819  24.227  28.625  1.00  0.00     0.010 A 
ATOM     33  C   UNL A   1      43.564  24.879  26.420  1.00  0.00     0.010 A 
ATOM     34  C   UNL A   1      43.453  25.097  27.781  1.00  0.00    -0.014 A 
BRANCH  34  35
ATOM     35  C   UNL A   1      43.425  26.458  28.248  1.00  0.00     0.031 A 
ATOM     36  C   UNL A   1      42.334  27.331  27.700  1.00  0.00     0.074 A 
ATOM     37  C   UNL A   1      44.642  26.755  28.787  1.00  0.00     0.049 A 
ATOM     38  N   UNL A   1      42.297  28.612  27.542  1.00  0.00    -0.248 NA
ATOM     39  C   UNL A   1      41.100  26.736  27.103  1.00  0.00     0.031 C 
ATOM     40  C   UNL A   1      44.878  27.182  30.164  1.00  0.00     0.029 A 
ATOM     41  N   UNL A   1      45.902  26.204  28.465  1.00  0.00    -0.354 N 
ATOM     42  C   UNL A   1      40.932  28.889  27.642  1.00  0.00     0.074 A 
ATOM     43  C   UNL A   1      40.290  27.796  26.979  1.00  0.00     0.031 C 
ATOM     44  C   UNL A   1      46.204  27.214  30.416  1.00  0.00     0.029 A 
ATOM     45  C   UNL A   1      46.920  26.766  29.230  1.00  0.00     0.049 A 
ATOM     46  H   UNL A   1      46.042  25.509  27.783  1.00  0.00     0.167 HD
ATOM     47  C   UNL A   1      40.493  29.580  28.744  1.00  0.00     0.034 A 
ATOM     48  C   UNL A   1      47.897  27.476  28.596  1.00  0.00     0.034 A 
ATOM     49  C   UNL A   1      41.649  29.885  29.574  1.00  0.00     0.049 A 
ATOM     50  C   UNL A   1      47.445  28.925  28.577  1.00  0.00     0.074 A 
ATOM     51  C   UNL A   1      42.157  29.311  30.726  1.00  0.00     0.029 A 
ATOM     52  N   UNL A   1      42.660  30.641  29.022  1.00  0.00    -0.354 N 
ATOM     53  N   UNL A   1      46.187  29.296  28.620  1.00  0.00    -0.248 NA
ATOM     54  C   UNL A   1      48.368  30.042  28.724  1.00  0.00     0.031 C 
ATOM     55  C   UNL A   1      43.498  29.763  30.861  1.00  0.00     0.029 A 
ATOM     56  C   UNL A   1      43.826  30.494  29.732  1.00  0.00     0.049 A 
ATOM     57  H   UNL A   1      42.561  31.210  28.225  1.00  0.00     0.167 HD
ATOM     58  C   UNL A   1      46.124  30.616  28.976  1.00  0.00     0.074 A 
ATOM     59  C   UNL A   1      47.516  31.046  28.983  1.00  0.00     0.031 C 
ATOM     60  C   UNL A   1      44.971  31.270  29.319  1.00  0.00     0.034 A 
BRANCH  47  61
ATOM     61  C   UNL A   1      39.092  29.718  29.304  1.00  0.00     0.023 A 
ATOM     62  C   UNL A   1      38.358  30.877  28.951  1.00  0.00     0.031 A 
ATOM     63  C   UNL A   1      38.399  28.792  30.102  1.00  0.00     0.131 A 
ATOM     64  C   UNL A   1      37.045  31.102  29.391  1.00  0.00     0.055 A 
ATOM     65  C   UNL A   1      37.080  29.016  30.547  1.00  0.00     0.041 A 
ATOM     66  F   UNL A   1      38.945  27.622  30.461  1.00  0.00    -0.206 F 
ATOM     67  C   UNL A   1      36.396  30.175  30.193  1.00  0.00     0.022 A 
BRANCH  64  68
ATOM     68  S   UNL A   1      36.215  32.628  28.870  1.00  0.00     0.124 S 
ATOM     69  O   UNL A   1      37.331  33.563  28.770  1.00  0.00    -0.237 OA
ATOM     70  O   UNL A   1      35.591  32.230  27.613  1.00  0.00    -0.237 OA
ATOM     71  O   UNL A   1      35.281  32.896  29.963  1.00  0.00    -0.744 OA
ENDBRANCH  64  68
ENDBRANCH  47  61
BRANCH  48  72
ATOM     72  C   UNL A   1      48.593  26.698  27.519  1.00  0.00     0.023 A 
ATOM     73  C   UNL A   1      48.218  26.972  26.178  1.00  0.00     0.031 A 
ATOM     74  C   UNL A   1      49.732  25.916  27.704  1.00  0.00     0.131 A 
ATOM     75  C   UNL A   1      49.079  26.689  25.108  1.00  0.00     0.055 A 
ATOM     76  C   UNL A   1      50.570  25.582  26.624  1.00  0.00     0.041 A 
ATOM     77  F   UNL A   1      50.112  25.536  28.932  1.00  0.00    -0.206 F 
ATOM     78  C   UNL A   1      50.283  26.030  25.331  1.00  0.00     0.022 A 
BRANCH  75  79
ATOM     79  S   UNL A   1      48.717  27.381  23.463  1.00  0.00     0.124 S 
ATOM     80  O   UNL A   1      49.908  28.181  23.200  1.00  0.00    -0.237 OA
ATOM     81  O   UNL A   1      48.559  26.187  22.635  1.00  0.00    -0.237 OA
ATOM     82  O   UNL A   1      47.488  28.130  23.683  1.00  0.00    -0.744 OA
ENDBRANCH  75  79
ENDBRANCH  48  72
BRANCH  60  83
ATOM     83  C   UNL A   1      44.802  32.765  29.342  1.00  0.00     0.023 A 
ATOM     84  C   UNL A   1      44.452  33.469  28.197  1.00  0.00     0.031 A 
ATOM     85  C   UNL A   1      44.857  33.522  30.544  1.00  0.00     0.131 A 
ATOM     86  C   UNL A   1      44.337  34.858  28.225  1.00  0.00     0.055 A 
ATOM     87  C   UNL A   1      44.570  34.882  30.597  1.00  0.00     0.041 A 
ATOM     88  F   UNL A   1      45.176  32.979  31.728  1.00  0.00    -0.206 F 
ATOM     89  C   UNL A   1      44.351  35.573  29.420  1.00  0.00     0.022 A 
BRANCH  86  90
ATOM     90  S   UNL A   1      44.336  35.696  26.630  1.00  0.00     0.124 S 
ATOM     91  O   UNL A   1      43.085  35.214  26.049  1.00  0.00    -0.237 OA
ATOM     92  O   UNL A   1      44.350  37.104  27.016  1.00  0.00    -0.237 OA
ATOM     93  O   UNL A   1      45.552  35.206  25.988  1.00  0.00    -0.744 OA
ENDBRANCH  86  90
ENDBRANCH  60  83
ENDBRANCH  34  35
ENDBRANCH  27  29
ENDBRANCH  26  27
ENDBRANCH  25  26
ENDBRANCH   1  25
TORSDOF 17
ENDMDL
