MODEL 1
REMARK VINA RESULT:     -10.5      0.000      0.000
REMARK SMILES C=C(C)CN(CC)C(=O)C[N@H+]1CC[C@@H](C(=O)OCCOC(=O)c2ccc(-c3c4nc(c(-c5cc(S(=O)(=O)[O-])ccc5F)c5ccc([nH]5)c(-c5cc(S(=O)(=O)[O-])ccc5F)c5nc(c(-c6cc(S(=O)(=O)[O-])ccc6F)c6ccc3[nH]6)C=C5)C=C4)cc2)[C@@H]1C
REMARK SMILES IDX 18 1 17 2 15 3 16 4 14 5 11 6 12 7 86 8 13 10 87 11 10 12
REMARK SMILES IDX 8 13 9 14 5 15 4 16 2 17 1 18 3 19 6 20 7 21 19 22 20 23
REMARK SMILES IDX 21 24 22 25 23 26 24 27 85 28 25 29 84 30 26 31 27 32 28 33
REMARK SMILES IDX 78 34 29 35 83 36 77 37 79 38 30 39 82 40 76 41 75 42 31 44
REMARK SMILES IDX 63 45 43 46 62 47 44 48 47 49 61 50 80 51 45 52 46 53 60 55
REMARK SMILES IDX 81 56 48 57 32 58 33 59 41 60 34 61 40 62 42 63 39 64 35 65
REMARK SMILES IDX 36 66 37 67 38 68 64 69 65 70 73 71 66 72 72 73 74 74 71 75
REMARK SMILES IDX 67 76 68 77 69 78 70 79 49 80 50 81 58 82 51 83 57 84 59 85
REMARK SMILES IDX 56 86 52 87 53 88 54 89 55 90
REMARK H PARENT 11 9 79 43 47 54
REMARK Flexibility Score: inf
ROOT
ATOM      1  C   UNL A   1      35.989  20.155  25.000  1.00  0.00     0.274 C 
ENDROOT
BRANCH   1   2
ATOM      2  O   UNL A   1      35.401  21.290  24.335  1.00  0.00    -0.462 OA
BRANCH   2   3
ATOM      3  C   UNL A   1      34.437  21.954  25.019  1.00  0.00     0.315 C 
ATOM      4  O   UNL A   1      34.327  21.953  26.241  1.00  0.00    -0.252 OA
BRANCH   3   5
ATOM      5  C   UNL A   1      33.434  22.653  24.128  1.00  0.00     0.162 C 
ATOM      6  N   UNL A   1      32.738  24.934  23.726  1.00  0.00    -0.324 N 
ATOM      7  C   UNL A   1      33.185  24.318  22.472  1.00  0.00     0.264 C 
ATOM      8  C   UNL A   1      32.668  23.843  24.735  1.00  0.00     0.195 C 
ATOM      9  H   UNL A   1      31.826  25.375  23.608  1.00  0.00     0.348 HD
ATOM     10  C   UNL A   1      34.119  23.206  22.890  1.00  0.00     0.083 C 
ATOM     11  C   UNL A   1      31.187  23.517  24.954  1.00  0.00     0.076 C 
BRANCH   6  12
ATOM     12  C   UNL A   1      33.654  26.010  24.154  1.00  0.00     0.364 C 
BRANCH  12  13
ATOM     13  C   UNL A   1      33.130  27.425  23.857  1.00  0.00     0.278 C 
ATOM     14  O   UNL A   1      33.954  28.290  23.526  1.00  0.00    -0.268 OA
BRANCH  13  15
ATOM     15  N   UNL A   1      31.761  27.688  23.849  1.00  0.00    -0.334 N 
BRANCH  15  16
ATOM     16  C   UNL A   1      31.073  27.716  25.138  1.00  0.00     0.149 C 
BRANCH  16  17
ATOM     17  C   UNL A   1      31.780  28.629  26.116  1.00  0.00    -0.061 C 
ATOM     18  C   UNL A   1      32.371  28.203  27.247  1.00  0.00     0.009 C 
ATOM     19  C   UNL A   1      31.782  30.089  25.753  1.00  0.00     0.041 C 
ENDBRANCH  16  17
ENDBRANCH  15  16
BRANCH  15  20
ATOM     20  C   UNL A   1      30.941  27.933  22.658  1.00  0.00     0.116 C 
ATOM     21  C   UNL A   1      30.289  29.307  22.657  1.00  0.00     0.027 C 
ENDBRANCH  15  20
ENDBRANCH  13  15
ENDBRANCH  12  13
ENDBRANCH   6  12
ENDBRANCH   3   5
ENDBRANCH   2   3
ENDBRANCH   1   2
BRANCH   1  22
ATOM     22  C   UNL A   1      37.520  20.211  24.983  1.00  0.00     0.275 C 
BRANCH  22  23
ATOM     23  O   UNL A   1      38.021  21.399  25.625  1.00  0.00    -0.458 OA
BRANCH  23  24
ATOM     24  C   UNL A   1      39.255  21.262  26.166  1.00  0.00     0.338 C 
ATOM     25  O   UNL A   1      39.965  20.272  26.128  1.00  0.00    -0.246 OA
BRANCH  24  26
ATOM     26  C   UNL A   1      39.724  22.547  26.703  1.00  0.00     0.060 A 
ATOM     27  C   UNL A   1      39.156  23.709  26.180  1.00  0.00     0.016 A 
ATOM     28  C   UNL A   1      40.787  22.623  27.603  1.00  0.00     0.016 A 
ATOM     29  C   UNL A   1      39.677  24.954  26.500  1.00  0.00     0.010 A 
ATOM     30  C   UNL A   1      41.292  23.882  27.954  1.00  0.00     0.010 A 
ATOM     31  C   UNL A   1      40.756  25.052  27.383  1.00  0.00    -0.014 A 
BRANCH  31  32
ATOM     32  C   UNL A   1      41.351  26.384  27.643  1.00  0.00     0.031 A 
ATOM     33  C   UNL A   1      42.722  26.704  27.123  1.00  0.00     0.074 A 
ATOM     34  C   UNL A   1      40.639  27.314  28.304  1.00  0.00     0.049 A 
ATOM     35  N   UNL A   1      43.447  27.778  27.299  1.00  0.00    -0.248 NA
ATOM     36  C   UNL A   1      43.366  25.667  26.305  1.00  0.00     0.031 C 
ATOM     37  C   UNL A   1      39.279  27.127  28.815  1.00  0.00     0.029 A 
ATOM     38  N   UNL A   1      40.957  28.597  28.663  1.00  0.00    -0.354 N 
ATOM     39  C   UNL A   1      44.646  27.540  26.637  1.00  0.00     0.074 A 
ATOM     40  C   UNL A   1      44.554  26.205  26.079  1.00  0.00     0.031 C 
ATOM     41  C   UNL A   1      38.884  28.253  29.429  1.00  0.00     0.029 A 
ATOM     42  C   UNL A   1      39.978  29.220  29.399  1.00  0.00     0.049 A 
ATOM     43  H   UNL A   1      41.806  29.032  28.416  1.00  0.00     0.167 HD
ATOM     44  C   UNL A   1      45.720  28.359  26.508  1.00  0.00     0.034 A 
ATOM     45  C   UNL A   1      39.977  30.416  30.016  1.00  0.00     0.034 A 
ATOM     46  C   UNL A   1      45.783  29.689  27.068  1.00  0.00     0.049 A 
ATOM     47  C   UNL A   1      41.192  31.296  29.898  1.00  0.00     0.074 A 
ATOM     48  C   UNL A   1      46.807  30.616  26.983  1.00  0.00     0.029 A 
ATOM     49  N   UNL A   1      44.780  30.279  27.831  1.00  0.00    -0.354 N 
ATOM     50  N   UNL A   1      42.326  31.057  29.280  1.00  0.00    -0.248 NA
ATOM     51  C   UNL A   1      41.125  32.606  30.556  1.00  0.00     0.031 C 
ATOM     52  C   UNL A   1      46.449  31.738  27.743  1.00  0.00     0.029 A 
ATOM     53  C   UNL A   1      45.174  31.542  28.248  1.00  0.00     0.049 A 
ATOM     54  H   UNL A   1      43.915  29.860  28.044  1.00  0.00     0.167 HD
ATOM     55  C   UNL A   1      43.107  32.192  29.470  1.00  0.00     0.074 A 
ATOM     56  C   UNL A   1      42.304  33.121  30.241  1.00  0.00     0.031 C 
ATOM     57  C   UNL A   1      44.372  32.444  29.043  1.00  0.00     0.034 A 
BRANCH  44  58
ATOM     58  C   UNL A   1      46.927  27.800  25.793  1.00  0.00     0.023 A 
ATOM     59  C   UNL A   1      47.219  28.123  24.456  1.00  0.00     0.031 A 
ATOM     60  C   UNL A   1      47.760  26.869  26.439  1.00  0.00     0.131 A 
ATOM     61  C   UNL A   1      48.254  27.455  23.783  1.00  0.00     0.055 A 
ATOM     62  C   UNL A   1      48.839  26.268  25.789  1.00  0.00     0.041 A 
ATOM     63  F   UNL A   1      47.520  26.503  27.709  1.00  0.00    -0.206 F 
ATOM     64  C   UNL A   1      49.079  26.545  24.446  1.00  0.00     0.022 A 
BRANCH  61  65
ATOM     65  S   UNL A   1      48.392  27.658  21.984  1.00  0.00     0.124 S 
ATOM     66  O   UNL A   1      48.654  26.287  21.550  1.00  0.00    -0.237 OA
ATOM     67  O   UNL A   1      47.088  28.204  21.629  1.00  0.00    -0.237 OA
ATOM     68  O   UNL A   1      49.519  28.577  21.828  1.00  0.00    -0.744 OA
ENDBRANCH  61  65
ENDBRANCH  44  58
BRANCH  45  69
ATOM     69  C   UNL A   1      38.812  30.813  30.852  1.00  0.00     0.023 A 
ATOM     70  C   UNL A   1      37.691  31.446  30.297  1.00  0.00     0.031 A 
ATOM     71  C   UNL A   1      38.811  30.550  32.234  1.00  0.00     0.131 A 
ATOM     72  C   UNL A   1      36.619  31.815  31.127  1.00  0.00     0.055 A 
ATOM     73  C   UNL A   1      37.727  30.882  33.047  1.00  0.00     0.041 A 
ATOM     74  F   UNL A   1      39.859  29.939  32.809  1.00  0.00    -0.206 F 
ATOM     75  C   UNL A   1      36.625  31.526  32.494  1.00  0.00     0.022 A 
BRANCH  72  76
ATOM     76  S   UNL A   1      35.223  32.715  30.398  1.00  0.00     0.124 S 
ATOM     77  O   UNL A   1      35.820  34.016  30.117  1.00  0.00    -0.237 OA
ATOM     78  O   UNL A   1      34.903  31.891  29.237  1.00  0.00    -0.237 OA
ATOM     79  O   UNL A   1      34.220  32.704  31.461  1.00  0.00    -0.744 OA
ENDBRANCH  72  76
ENDBRANCH  45  69
BRANCH  57  80
ATOM     80  C   UNL A   1      44.946  33.794  29.392  1.00  0.00     0.023 A 
ATOM     81  C   UNL A   1      44.803  34.900  28.535  1.00  0.00     0.031 A 
ATOM     82  C   UNL A   1      45.666  33.970  30.587  1.00  0.00     0.131 A 
ATOM     83  C   UNL A   1      45.417  36.119  28.859  1.00  0.00     0.055 A 
ATOM     84  C   UNL A   1      46.229  35.200  30.930  1.00  0.00     0.041 A 
ATOM     85  F   UNL A   1      45.836  32.946  31.438  1.00  0.00    -0.206 F 
ATOM     86  C   UNL A   1      46.117  36.279  30.058  1.00  0.00     0.022 A 
BRANCH  83  87
ATOM     87  S   UNL A   1      45.364  37.471  27.651  1.00  0.00     0.124 S 
ATOM     88  O   UNL A   1      43.977  37.425  27.203  1.00  0.00    -0.237 OA
ATOM     89  O   UNL A   1      45.737  38.627  28.459  1.00  0.00    -0.237 OA
ATOM     90  O   UNL A   1      46.352  37.073  26.648  1.00  0.00    -0.744 OA
ENDBRANCH  83  87
ENDBRANCH  57  80
ENDBRANCH  31  32
ENDBRANCH  24  26
ENDBRANCH  23  24
ENDBRANCH  22  23
ENDBRANCH   1  22
TORSDOF 20
ENDMDL
MODEL 2
REMARK VINA RESULT:     -10.4      2.288      3.720
REMARK SMILES C=C(C)CN(CC)C(=O)C[N@H+]1CC[C@@H](C(=O)OCCOC(=O)c2ccc(-c3c4nc(c(-c5cc(S(=O)(=O)[O-])ccc5F)c5ccc([nH]5)c(-c5cc(S(=O)(=O)[O-])ccc5F)c5nc(c(-c6cc(S(=O)(=O)[O-])ccc6F)c6ccc3[nH]6)C=C5)C=C4)cc2)[C@@H]1C
REMARK SMILES IDX 18 1 17 2 15 3 16 4 14 5 11 6 12 7 86 8 13 10 87 11 10 12
REMARK SMILES IDX 8 13 9 14 5 15 4 16 2 17 1 18 3 19 6 20 7 21 19 22 20 23
REMARK SMILES IDX 21 24 22 25 23 26 24 27 85 28 25 29 84 30 26 31 27 32 28 33
REMARK SMILES IDX 78 34 29 35 83 36 77 37 79 38 30 39 82 40 76 41 75 42 31 44
REMARK SMILES IDX 63 45 43 46 62 47 44 48 47 49 61 50 80 51 45 52 46 53 60 55
REMARK SMILES IDX 81 56 48 57 32 58 33 59 41 60 34 61 40 62 42 63 39 64 35 65
REMARK SMILES IDX 36 66 37 67 38 68 64 69 65 70 73 71 66 72 72 73 74 74 71 75
REMARK SMILES IDX 67 76 68 77 69 78 70 79 49 80 50 81 58 82 51 83 57 84 59 85
REMARK SMILES IDX 56 86 52 87 53 88 54 89 55 90
REMARK H PARENT 11 9 79 43 47 54
REMARK Flexibility Score: inf
ROOT
ATOM      1  C   UNL A   1      37.378  20.737  24.384  1.00  0.00     0.274 C 
ENDROOT
BRANCH   1   2
ATOM      2  O   UNL A   1      37.490  22.173  24.434  1.00  0.00    -0.462 OA
BRANCH   2   3
ATOM      3  C   UNL A   1      36.611  22.871  23.673  1.00  0.00     0.315 C 
ATOM      4  O   UNL A   1      36.682  22.979  22.453  1.00  0.00    -0.252 OA
BRANCH   3   5
ATOM      5  C   UNL A   1      35.550  23.588  24.477  1.00  0.00     0.162 C 
ATOM      6  N   UNL A   1      33.545  22.970  25.681  1.00  0.00    -0.324 N 
ATOM      7  C   UNL A   1      34.472  23.668  26.577  1.00  0.00     0.264 C 
ATOM      8  C   UNL A   1      34.097  23.108  24.306  1.00  0.00     0.195 C 
ATOM      9  H   UNL A   1      32.611  23.375  25.737  1.00  0.00     0.348 HD
ATOM     10  C   UNL A   1      35.838  23.469  25.963  1.00  0.00     0.083 C 
ATOM     11  C   UNL A   1      33.236  24.141  23.570  1.00  0.00     0.076 C 
BRANCH   6  12
ATOM     12  C   UNL A   1      33.391  21.552  26.063  1.00  0.00     0.364 C 
BRANCH  12  13
ATOM     13  C   UNL A   1      32.376  20.783  25.202  1.00  0.00     0.278 C 
ATOM     14  O   UNL A   1      31.177  21.077  25.319  1.00  0.00    -0.268 OA
BRANCH  13  15
ATOM     15  N   UNL A   1      32.807  19.869  24.241  1.00  0.00    -0.334 N 
BRANCH  15  16
ATOM     16  C   UNL A   1      33.900  18.972  24.609  1.00  0.00     0.149 C 
BRANCH  16  17
ATOM     17  C   UNL A   1      33.462  17.524  24.550  1.00  0.00    -0.061 C 
ATOM     18  C   UNL A   1      32.589  16.970  25.410  1.00  0.00     0.009 C 
ATOM     19  C   UNL A   1      34.080  16.705  23.451  1.00  0.00     0.041 C 
ENDBRANCH  16  17
ENDBRANCH  15  16
BRANCH  15  20
ATOM     20  C   UNL A   1      32.267  19.731  22.885  1.00  0.00     0.116 C 
ATOM     21  C   UNL A   1      31.956  21.068  22.229  1.00  0.00     0.027 C 
ENDBRANCH  15  20
ENDBRANCH  13  15
ENDBRANCH  12  13
ENDBRANCH   6  12
ENDBRANCH   3   5
ENDBRANCH   2   3
ENDBRANCH   1   2
BRANCH   1  22
ATOM     22  C   UNL A   1      38.287  20.056  25.412  1.00  0.00     0.275 C 
BRANCH  22  23
ATOM     23  O   UNL A   1      39.570  20.703  25.508  1.00  0.00    -0.458 OA
BRANCH  23  24
ATOM     24  C   UNL A   1      40.130  20.652  26.739  1.00  0.00     0.338 C 
ATOM     25  O   UNL A   1      40.450  19.651  27.357  1.00  0.00    -0.246 OA
BRANCH  24  26
ATOM     26  C   UNL A   1      40.458  22.006  27.209  1.00  0.00     0.060 A 
ATOM     27  C   UNL A   1      39.848  23.078  26.557  1.00  0.00     0.016 A 
ATOM     28  C   UNL A   1      41.438  22.231  28.175  1.00  0.00     0.016 A 
ATOM     29  C   UNL A   1      40.249  24.380  26.817  1.00  0.00     0.010 A 
ATOM     30  C   UNL A   1      41.819  23.547  28.464  1.00  0.00     0.010 A 
ATOM     31  C   UNL A   1      41.245  24.627  27.766  1.00  0.00    -0.014 A 
BRANCH  31  32
ATOM     32  C   UNL A   1      41.716  26.018  27.966  1.00  0.00     0.031 A 
ATOM     33  C   UNL A   1      43.056  26.435  27.433  1.00  0.00     0.074 A 
ATOM     34  C   UNL A   1      40.920  26.909  28.583  1.00  0.00     0.049 A 
ATOM     35  N   UNL A   1      43.680  27.577  27.559  1.00  0.00    -0.248 NA
ATOM     36  C   UNL A   1      43.794  25.424  26.663  1.00  0.00     0.031 C 
ATOM     37  C   UNL A   1      39.581  26.623  29.101  1.00  0.00     0.029 A 
ATOM     38  N   UNL A   1      41.121  28.231  28.883  1.00  0.00    -0.354 N 
ATOM     39  C   UNL A   1      44.899  27.417  26.910  1.00  0.00     0.074 A 
ATOM     40  C   UNL A   1      44.930  26.056  26.413  1.00  0.00     0.031 C 
ATOM     41  C   UNL A   1      39.083  27.737  29.663  1.00  0.00     0.029 A 
ATOM     42  C   UNL A   1      40.086  28.796  29.589  1.00  0.00     0.049 A 
ATOM     43  H   UNL A   1      41.928  28.728  28.617  1.00  0.00     0.167 HD
ATOM     44  C   UNL A   1      45.895  28.324  26.744  1.00  0.00     0.034 A 
ATOM     45  C   UNL A   1      39.975  30.014  30.150  1.00  0.00     0.034 A 
ATOM     46  C   UNL A   1      45.837  29.677  27.243  1.00  0.00     0.049 A 
ATOM     47  C   UNL A   1      41.107  30.992  29.993  1.00  0.00     0.074 A 
ATOM     48  C   UNL A   1      46.773  30.688  27.116  1.00  0.00     0.029 A 
ATOM     49  N   UNL A   1      44.781  30.209  27.977  1.00  0.00    -0.354 N 
ATOM     50  N   UNL A   1      42.261  30.829  29.387  1.00  0.00    -0.248 NA
ATOM     51  C   UNL A   1      40.919  32.320  30.591  1.00  0.00     0.031 C 
ATOM     52  C   UNL A   1      46.313  31.807  27.823  1.00  0.00     0.029 A 
ATOM     53  C   UNL A   1      45.058  31.520  28.336  1.00  0.00     0.049 A 
ATOM     54  H   UNL A   1      43.956  29.724  28.209  1.00  0.00     0.167 HD
ATOM     55  C   UNL A   1      42.936  32.036  29.526  1.00  0.00     0.074 A 
ATOM     56  C   UNL A   1      42.049  32.924  30.253  1.00  0.00     0.031 C 
ATOM     57  C   UNL A   1      44.175  32.382  29.089  1.00  0.00     0.034 A 
BRANCH  44  58
ATOM     58  C   UNL A   1      47.152  27.843  26.056  1.00  0.00     0.023 A 
ATOM     59  C   UNL A   1      47.388  28.071  24.688  1.00  0.00     0.031 A 
ATOM     60  C   UNL A   1      48.095  27.079  26.766  1.00  0.00     0.131 A 
ATOM     61  C   UNL A   1      48.486  27.467  24.056  1.00  0.00     0.055 A 
ATOM     62  C   UNL A   1      49.230  26.549  26.149  1.00  0.00     0.041 A 
ATOM     63  F   UNL A   1      47.915  26.808  28.068  1.00  0.00    -0.206 F 
ATOM     64  C   UNL A   1      49.420  26.724  24.781  1.00  0.00     0.022 A 
BRANCH  61  65
ATOM     65  S   UNL A   1      48.578  27.516  22.244  1.00  0.00     0.124 S 
ATOM     66  O   UNL A   1      47.312  28.159  21.899  1.00  0.00    -0.237 OA
ATOM     67  O   UNL A   1      49.782  28.306  22.012  1.00  0.00    -0.237 OA
ATOM     68  O   UNL A   1      48.673  26.107  21.867  1.00  0.00    -0.744 OA
ENDBRANCH  61  65
ENDBRANCH  44  58
BRANCH  45  69
ATOM     69  C   UNL A   1      38.775  30.342  30.967  1.00  0.00     0.023 A 
ATOM     70  C   UNL A   1      37.706  31.078  30.439  1.00  0.00     0.031 A 
ATOM     71  C   UNL A   1      38.687  29.907  32.302  1.00  0.00     0.131 A 
ATOM     72  C   UNL A   1      36.599  31.377  31.250  1.00  0.00     0.055 A 
ATOM     73  C   UNL A   1      37.568  30.171  33.091  1.00  0.00     0.041 A 
ATOM     74  F   UNL A   1      39.684  29.192  32.849  1.00  0.00    -0.206 F 
ATOM     75  C   UNL A   1      36.518  30.917  32.568  1.00  0.00     0.022 A 
BRANCH  72  76
ATOM     76  S   UNL A   1      35.272  32.409  30.569  1.00  0.00     0.124 S 
ATOM     77  O   UNL A   1      34.895  31.661  29.375  1.00  0.00    -0.237 OA
ATOM     78  O   UNL A   1      34.300  32.411  31.657  1.00  0.00    -0.237 OA
ATOM     79  O   UNL A   1      35.930  33.691  30.323  1.00  0.00    -0.744 OA
ENDBRANCH  72  76
ENDBRANCH  45  69
BRANCH  57  80
ATOM     80  C   UNL A   1      44.624  33.793  29.376  1.00  0.00     0.023 A 
ATOM     81  C   UNL A   1      45.294  34.126  30.566  1.00  0.00     0.031 A 
ATOM     82  C   UNL A   1      44.356  34.821  28.455  1.00  0.00     0.131 A 
ATOM     83  C   UNL A   1      45.626  35.463  30.830  1.00  0.00     0.055 A 
ATOM     84  C   UNL A   1      44.737  36.141  28.699  1.00  0.00     0.041 A 
ATOM     85  F   UNL A   1      43.715  34.559  27.305  1.00  0.00    -0.206 F 
ATOM     86  C   UNL A   1      45.365  36.470  29.897  1.00  0.00     0.022 A 
BRANCH  83  87
ATOM     87  S   UNL A   1      46.328  35.884  32.449  1.00  0.00     0.124 S 
ATOM     88  O   UNL A   1      47.664  36.348  32.090  1.00  0.00    -0.237 OA
ATOM     89  O   UNL A   1      45.406  36.905  32.933  1.00  0.00    -0.237 OA
ATOM     90  O   UNL A   1      46.288  34.618  33.179  1.00  0.00    -0.744 OA
ENDBRANCH  83  87
ENDBRANCH  57  80
ENDBRANCH  31  32
ENDBRANCH  24  26
ENDBRANCH  23  24
ENDBRANCH  22  23
ENDBRANCH   1  22
TORSDOF 20
ENDMDL
MODEL 3
REMARK VINA RESULT:     -10.3      1.317      1.588
REMARK SMILES C=C(C)CN(CC)C(=O)C[N@H+]1CC[C@@H](C(=O)OCCOC(=O)c2ccc(-c3c4nc(c(-c5cc(S(=O)(=O)[O-])ccc5F)c5ccc([nH]5)c(-c5cc(S(=O)(=O)[O-])ccc5F)c5nc(c(-c6cc(S(=O)(=O)[O-])ccc6F)c6ccc3[nH]6)C=C5)C=C4)cc2)[C@@H]1C
REMARK SMILES IDX 18 1 17 2 15 3 16 4 14 5 11 6 12 7 86 8 13 10 87 11 10 12
REMARK SMILES IDX 8 13 9 14 5 15 4 16 2 17 1 18 3 19 6 20 7 21 19 22 20 23
REMARK SMILES IDX 21 24 22 25 23 26 24 27 85 28 25 29 84 30 26 31 27 32 28 33
REMARK SMILES IDX 78 34 29 35 83 36 77 37 79 38 30 39 82 40 76 41 75 42 31 44
REMARK SMILES IDX 63 45 43 46 62 47 44 48 47 49 61 50 80 51 45 52 46 53 60 55
REMARK SMILES IDX 81 56 48 57 32 58 33 59 41 60 34 61 40 62 42 63 39 64 35 65
REMARK SMILES IDX 36 66 37 67 38 68 64 69 65 70 73 71 66 72 72 73 74 74 71 75
REMARK SMILES IDX 67 76 68 77 69 78 70 79 49 80 50 81 58 82 51 83 57 84 59 85
REMARK SMILES IDX 56 86 52 87 53 88 54 89 55 90
REMARK H PARENT 11 9 79 43 47 54
REMARK Flexibility Score: inf
ROOT
ATOM      1  C   UNL A   1      35.913  20.190  24.991  1.00  0.00     0.274 C 
ENDROOT
BRANCH   1   2
ATOM      2  O   UNL A   1      35.240  21.306  24.377  1.00  0.00    -0.462 OA
BRANCH   2   3
ATOM      3  C   UNL A   1      34.169  21.803  25.043  1.00  0.00     0.315 C 
ATOM      4  O   UNL A   1      33.964  21.645  26.242  1.00  0.00    -0.252 OA
BRANCH   3   5
ATOM      5  C   UNL A   1      33.180  22.521  24.152  1.00  0.00     0.162 C 
ATOM      6  N   UNL A   1      32.613  24.819  23.659  1.00  0.00    -0.324 N 
ATOM      7  C   UNL A   1      32.975  24.117  22.424  1.00  0.00     0.264 C 
ATOM      8  C   UNL A   1      32.512  23.785  24.723  1.00  0.00     0.195 C 
ATOM      9  H   UNL A   1      31.727  25.312  23.550  1.00  0.00     0.348 HD
ATOM     10  C   UNL A   1      33.852  22.969  22.866  1.00  0.00     0.083 C 
ATOM     11  C   UNL A   1      31.022  23.565  25.007  1.00  0.00     0.076 C 
BRANCH   6  12
ATOM     12  C   UNL A   1      33.608  25.854  24.002  1.00  0.00     0.364 C 
BRANCH  12  13
ATOM     13  C   UNL A   1      33.135  27.289  23.718  1.00  0.00     0.278 C 
ATOM     14  O   UNL A   1      33.990  28.131  23.406  1.00  0.00    -0.268 OA
BRANCH  13  15
ATOM     15  N   UNL A   1      31.775  27.598  23.702  1.00  0.00    -0.334 N 
BRANCH  15  16
ATOM     16  C   UNL A   1      31.069  27.597  24.981  1.00  0.00     0.149 C 
BRANCH  16  17
ATOM     17  C   UNL A   1      31.779  28.462  25.999  1.00  0.00    -0.061 C 
ATOM     18  C   UNL A   1      32.348  27.986  27.121  1.00  0.00     0.009 C 
ATOM     19  C   UNL A   1      31.810  29.933  25.689  1.00  0.00     0.041 C 
ENDBRANCH  16  17
ENDBRANCH  15  16
BRANCH  15  20
ATOM     20  C   UNL A   1      30.982  27.918  22.510  1.00  0.00     0.116 C 
ATOM     21  C   UNL A   1      30.031  29.085  22.724  1.00  0.00     0.027 C 
ENDBRANCH  15  20
ENDBRANCH  13  15
ENDBRANCH  12  13
ENDBRANCH   6  12
ENDBRANCH   3   5
ENDBRANCH   2   3
ENDBRANCH   1   2
BRANCH   1  22
ATOM     22  C   UNL A   1      37.437  20.335  24.927  1.00  0.00     0.275 C 
BRANCH  22  23
ATOM     23  O   UNL A   1      37.904  21.454  25.704  1.00  0.00    -0.458 OA
BRANCH  23  24
ATOM     24  C   UNL A   1      39.160  21.311  26.189  1.00  0.00     0.338 C 
ATOM     25  O   UNL A   1      39.866  20.320  26.111  1.00  0.00    -0.246 OA
BRANCH  24  26
ATOM     26  C   UNL A   1      39.654  22.590  26.718  1.00  0.00     0.060 A 
ATOM     27  C   UNL A   1      39.098  23.759  26.196  1.00  0.00     0.016 A 
ATOM     28  C   UNL A   1      40.727  22.653  27.607  1.00  0.00     0.016 A 
ATOM     29  C   UNL A   1      39.642  24.997  26.507  1.00  0.00     0.010 A 
ATOM     30  C   UNL A   1      41.254  23.905  27.948  1.00  0.00     0.010 A 
ATOM     31  C   UNL A   1      40.731  25.081  27.379  1.00  0.00    -0.014 A 
BRANCH  31  32
ATOM     32  C   UNL A   1      41.348  26.405  27.629  1.00  0.00     0.031 A 
ATOM     33  C   UNL A   1      42.707  26.712  27.069  1.00  0.00     0.074 A 
ATOM     34  C   UNL A   1      40.668  27.338  28.316  1.00  0.00     0.049 A 
ATOM     35  N   UNL A   1      43.449  27.777  27.228  1.00  0.00    -0.248 NA
ATOM     36  C   UNL A   1      43.314  25.673  26.225  1.00  0.00     0.031 C 
ATOM     37  C   UNL A   1      39.323  27.163  28.868  1.00  0.00     0.029 A 
ATOM     38  N   UNL A   1      41.012  28.616  28.673  1.00  0.00    -0.354 N 
ATOM     39  C   UNL A   1      44.625  27.529  26.529  1.00  0.00     0.074 A 
ATOM     40  C   UNL A   1      44.500  26.200  25.965  1.00  0.00     0.031 C 
ATOM     41  C   UNL A   1      38.959  28.290  29.501  1.00  0.00     0.029 A 
ATOM     42  C   UNL A   1      40.063  29.244  29.443  1.00  0.00     0.049 A 
ATOM     43  H   UNL A   1      41.857  29.043  28.403  1.00  0.00     0.167 HD
ATOM     44  C   UNL A   1      45.703  28.338  26.372  1.00  0.00     0.034 A 
ATOM     45  C   UNL A   1      40.094  30.437  30.066  1.00  0.00     0.034 A 
ATOM     46  C   UNL A   1      45.799  29.663  26.938  1.00  0.00     0.049 A 
ATOM     47  C   UNL A   1      41.315  31.303  29.916  1.00  0.00     0.074 A 
ATOM     48  C   UNL A   1      46.830  30.579  26.826  1.00  0.00     0.029 A 
ATOM     49  N   UNL A   1      44.826  30.259  27.734  1.00  0.00    -0.354 N 
ATOM     50  N   UNL A   1      42.427  31.056  29.263  1.00  0.00    -0.248 NA
ATOM     51  C   UNL A   1      41.283  32.610  30.584  1.00  0.00     0.031 C 
ATOM     52  C   UNL A   1      46.509  31.700  27.604  1.00  0.00     0.029 A 
ATOM     53  C   UNL A   1      45.247  31.515  28.147  1.00  0.00     0.049 A 
ATOM     54  H   UNL A   1      43.963  29.848  27.972  1.00  0.00     0.167 HD
ATOM     55  C   UNL A   1      43.227  32.180  29.435  1.00  0.00     0.074 A 
ATOM     56  C   UNL A   1      42.458  33.114  30.236  1.00  0.00     0.031 C 
ATOM     57  C   UNL A   1      44.480  32.421  28.972  1.00  0.00     0.034 A 
BRANCH  44  58
ATOM     58  C   UNL A   1      46.881  27.769  25.616  1.00  0.00     0.023 A 
ATOM     59  C   UNL A   1      47.158  28.127  24.285  1.00  0.00     0.031 A 
ATOM     60  C   UNL A   1      47.700  26.797  26.217  1.00  0.00     0.131 A 
ATOM     61  C   UNL A   1      48.161  27.454  23.572  1.00  0.00     0.055 A 
ATOM     62  C   UNL A   1      48.751  26.188  25.528  1.00  0.00     0.041 A 
ATOM     63  F   UNL A   1      47.473  26.397  27.479  1.00  0.00    -0.206 F 
ATOM     64  C   UNL A   1      48.973  26.501  24.190  1.00  0.00     0.022 A 
BRANCH  61  65
ATOM     65  S   UNL A   1      48.272  27.710  21.778  1.00  0.00     0.124 S 
ATOM     66  O   UNL A   1      46.936  28.214  21.467  1.00  0.00    -0.237 OA
ATOM     67  O   UNL A   1      49.362  28.672  21.665  1.00  0.00    -0.237 OA
ATOM     68  O   UNL A   1      48.560  26.374  21.258  1.00  0.00    -0.744 OA
ENDBRANCH  61  65
ENDBRANCH  44  58
BRANCH  45  69
ATOM     69  C   UNL A   1      38.960  30.841  30.941  1.00  0.00     0.023 A 
ATOM     70  C   UNL A   1      37.814  31.457  30.419  1.00  0.00     0.031 A 
ATOM     71  C   UNL A   1      39.014  30.603  32.326  1.00  0.00     0.131 A 
ATOM     72  C   UNL A   1      36.773  31.834  31.283  1.00  0.00     0.055 A 
ATOM     73  C   UNL A   1      37.961  30.943  33.175  1.00  0.00     0.041 A 
ATOM     74  F   UNL A   1      40.089  30.009  32.870  1.00  0.00    -0.206 F 
ATOM     75  C   UNL A   1      36.834  31.569  32.654  1.00  0.00     0.022 A 
BRANCH  72  76
ATOM     76  S   UNL A   1      35.342  32.711  30.594  1.00  0.00     0.124 S 
ATOM     77  O   UNL A   1      35.881  34.053  30.399  1.00  0.00    -0.237 OA
ATOM     78  O   UNL A   1      35.072  31.947  29.381  1.00  0.00    -0.237 OA
ATOM     79  O   UNL A   1      34.331  32.590  31.642  1.00  0.00    -0.744 OA
ENDBRANCH  72  76
ENDBRANCH  45  69
BRANCH  57  80
ATOM     80  C   UNL A   1      45.080  33.763  29.311  1.00  0.00     0.023 A 
ATOM     81  C   UNL A   1      45.853  33.953  30.469  1.00  0.00     0.031 A 
ATOM     82  C   UNL A   1      44.854  34.870  28.475  1.00  0.00     0.131 A 
ATOM     83  C   UNL A   1      46.329  35.233  30.789  1.00  0.00     0.055 A 
ATOM     84  C   UNL A   1      45.375  36.131  28.770  1.00  0.00     0.041 A 
ATOM     85  F   UNL A   1      44.119  34.745  27.359  1.00  0.00    -0.206 F 
ATOM     86  C   UNL A   1      46.107  36.320  29.939  1.00  0.00     0.022 A 
BRANCH  83  87
ATOM     87  S   UNL A   1      47.170  35.480  32.378  1.00  0.00     0.124 S 
ATOM     88  O   UNL A   1      47.989  34.278  32.478  1.00  0.00    -0.237 OA
ATOM     89  O   UNL A   1      47.891  36.729  32.159  1.00  0.00    -0.237 OA
ATOM     90  O   UNL A   1      46.069  35.561  33.338  1.00  0.00    -0.744 OA
ENDBRANCH  83  87
ENDBRANCH  57  80
ENDBRANCH  31  32
ENDBRANCH  24  26
ENDBRANCH  23  24
ENDBRANCH  22  23
ENDBRANCH   1  22
TORSDOF 20
ENDMDL
