MODEL 1
REMARK VINA RESULT:     -11.2      0.000      0.000
REMARK SMILES Cn1ccnc1N1[C@@H]2CC[C@H]1C[C@H](CC(=O)OCCOC(=O)c1ccc(-c3c4nc(c(-c5cc(S(=O)(=O)[O-])ccc5F)c5ccc([nH]5)c(-c5cc(S(=O)(=O)[O-])ccc5F)c5nc(c(-c6cc(S(=O)(=O)[O-])ccc6F)c6ccc3[nH]6)C=C5)C=C4)cc1)C2
REMARK SMILES IDX 19 1 18 2 17 3 15 4 16 5 14 6 13 7 7 8 8 9 11 10 9 11 86 12
REMARK SMILES IDX 10 13 12 14 6 15 1 16 2 17 3 18 4 19 5 20 20 21 21 22 22 23
REMARK SMILES IDX 23 24 24 25 85 26 25 27 84 28 26 29 27 30 28 31 78 32 29 33
REMARK SMILES IDX 83 34 77 35 79 36 30 37 82 38 76 39 75 40 31 42 63 43 43 44
REMARK SMILES IDX 62 45 44 46 47 47 61 48 80 49 45 50 46 51 60 53 81 54 48 55
REMARK SMILES IDX 32 56 33 57 41 58 34 59 40 60 42 61 39 62 35 63 36 64 37 65
REMARK SMILES IDX 38 66 64 67 65 68 73 69 66 70 72 71 74 72 71 73 67 74 68 75
REMARK SMILES IDX 69 76 70 77 49 78 50 79 58 80 51 81 57 82 59 83 56 84 52 85
REMARK SMILES IDX 53 86 54 87 55 88
REMARK H PARENT 79 41 47 52
REMARK Flexibility Score: inf
ROOT
ATOM      1  C   UNL A   1      31.751  29.851  25.986  1.00  0.00     0.275 C 
ENDROOT
BRANCH   1   2
ATOM      2  C   UNL A   1      31.778  28.335  26.190  1.00  0.00     0.274 C 
BRANCH   2   3
ATOM      3  O   UNL A   1      31.322  27.637  25.015  1.00  0.00    -0.462 OA
BRANCH   3   4
ATOM      4  C   UNL A   1      32.234  26.865  24.372  1.00  0.00     0.306 C 
ATOM      5  O   UNL A   1      32.002  26.204  23.368  1.00  0.00    -0.252 OA
BRANCH   4   6
ATOM      6  C   UNL A   1      33.571  26.838  25.084  1.00  0.00     0.126 C 
BRANCH   6   7
ATOM      7  C   UNL A   1      34.008  25.472  25.641  1.00  0.00     0.004 C 
ATOM      8  N   UNL A   1      33.629  22.641  25.056  1.00  0.00    -0.336 N 
ATOM      9  C   UNL A   1      34.984  23.196  24.906  1.00  0.00     0.086 C 
ATOM     10  C   UNL A   1      33.173  23.144  26.355  1.00  0.00     0.086 C 
ATOM     11  C   UNL A   1      35.602  22.982  26.297  1.00  0.00     0.027 C 
ATOM     12  C   UNL A   1      34.816  24.693  24.571  1.00  0.00     0.029 C 
ATOM     13  C   UNL A   1      34.403  22.951  27.256  1.00  0.00     0.027 C 
ATOM     14  C   UNL A   1      32.819  24.628  26.155  1.00  0.00     0.029 C 
BRANCH   8  15
ATOM     15  C   UNL A   1      33.418  21.344  24.709  1.00  0.00     0.205 A 
ATOM     16  C   UNL A   1      31.898  21.825  22.746  1.00  0.00     0.153 C 
ATOM     17  N   UNL A   1      32.574  20.970  23.687  1.00  0.00    -0.320 N 
ATOM     18  C   UNL A   1      32.528  19.599  23.656  1.00  0.00     0.109 A 
ATOM     19  C   UNL A   1      33.413  19.198  24.624  1.00  0.00     0.133 A 
ATOM     20  N   UNL A   1      33.972  20.279  25.246  1.00  0.00    -0.221 NA
ENDBRANCH   8  15
ENDBRANCH   6   7
ENDBRANCH   4   6
ENDBRANCH   3   4
ENDBRANCH   2   3
ENDBRANCH   1   2
BRANCH   1  21
ATOM     21  O   UNL A   1      33.079  30.402  26.004  1.00  0.00    -0.458 OA
BRANCH  21  22
ATOM     22  C   UNL A   1      33.311  31.325  26.968  1.00  0.00     0.338 C 
ATOM     23  O   UNL A   1      32.562  32.217  27.325  1.00  0.00    -0.246 OA
BRANCH  22  24
ATOM     24  C   UNL A   1      34.595  31.028  27.623  1.00  0.00     0.060 A 
ATOM     25  C   UNL A   1      34.868  29.708  27.993  1.00  0.00     0.016 A 
ATOM     26  C   UNL A   1      35.497  32.051  27.919  1.00  0.00     0.016 A 
ATOM     27  C   UNL A   1      36.051  29.406  28.667  1.00  0.00     0.010 A 
ATOM     28  C   UNL A   1      36.684  31.744  28.592  1.00  0.00     0.010 A 
ATOM     29  C   UNL A   1      36.965  30.421  28.978  1.00  0.00    -0.014 A 
BRANCH  29  30
ATOM     30  C   UNL A   1      38.197  30.109  29.746  1.00  0.00     0.031 A 
ATOM     31  C   UNL A   1      39.202  29.144  29.183  1.00  0.00     0.074 A 
ATOM     32  C   UNL A   1      38.405  30.683  30.946  1.00  0.00     0.049 A 
ATOM     33  N   UNL A   1      40.289  28.666  29.730  1.00  0.00    -0.248 NA
ATOM     34  C   UNL A   1      38.940  28.645  27.824  1.00  0.00     0.031 C 
ATOM     35  C   UNL A   1      37.514  31.656  31.581  1.00  0.00     0.029 A 
ATOM     36  N   UNL A   1      39.423  30.522  31.853  1.00  0.00    -0.354 N 
ATOM     37  C   UNL A   1      40.835  27.794  28.794  1.00  0.00     0.074 A 
ATOM     38  C   UNL A   1      39.945  27.795  27.651  1.00  0.00     0.031 C 
ATOM     39  C   UNL A   1      38.019  31.994  32.779  1.00  0.00     0.029 A 
ATOM     40  C   UNL A   1      39.241  31.232  33.018  1.00  0.00     0.049 A 
ATOM     41  H   UNL A   1      40.211  29.955  31.685  1.00  0.00     0.167 HD
ATOM     42  C   UNL A   1      41.973  27.061  28.884  1.00  0.00     0.034 A 
ATOM     43  C   UNL A   1      39.957  31.237  34.161  1.00  0.00     0.034 A 
ATOM     44  C   UNL A   1      42.854  27.078  30.027  1.00  0.00     0.049 A 
ATOM     45  C   UNL A   1      41.195  30.378  34.251  1.00  0.00     0.074 A 
ATOM     46  C   UNL A   1      44.050  26.402  30.203  1.00  0.00     0.029 A 
ATOM     47  N   UNL A   1      42.631  27.797  31.193  1.00  0.00    -0.354 N 
ATOM     48  N   UNL A   1      41.706  29.568  33.352  1.00  0.00    -0.248 NA
ATOM     49  C   UNL A   1      41.953  30.437  35.508  1.00  0.00     0.031 C 
ATOM     50  C   UNL A   1      44.515  26.663  31.497  1.00  0.00     0.029 A 
ATOM     51  C   UNL A   1      43.649  27.557  32.104  1.00  0.00     0.049 A 
ATOM     52  H   UNL A   1      41.862  28.392  31.351  1.00  0.00     0.167 HD
ATOM     53  C   UNL A   1      42.861  29.044  33.927  1.00  0.00     0.074 A 
ATOM     54  C   UNL A   1      42.978  29.640  35.242  1.00  0.00     0.031 C 
ATOM     55  C   UNL A   1      43.746  28.153  33.415  1.00  0.00     0.034 A 
BRANCH  42  56
ATOM     56  C   UNL A   1      42.300  26.139  27.735  1.00  0.00     0.023 A 
ATOM     57  C   UNL A   1      41.785  24.834  27.657  1.00  0.00     0.031 A 
ATOM     58  C   UNL A   1      43.152  26.575  26.705  1.00  0.00     0.131 A 
ATOM     59  C   UNL A   1      42.168  23.994  26.599  1.00  0.00     0.055 A 
ATOM     60  C   UNL A   1      43.474  25.759  25.620  1.00  0.00     0.041 A 
ATOM     61  F   UNL A   1      43.690  27.804  26.739  1.00  0.00    -0.206 F 
ATOM     62  C   UNL A   1      42.990  24.455  25.568  1.00  0.00     0.022 A 
BRANCH  59  63
ATOM     63  S   UNL A   1      41.666  22.251  26.645  1.00  0.00     0.124 S 
ATOM     64  O   UNL A   1      42.255  21.808  27.906  1.00  0.00    -0.237 OA
ATOM     65  O   UNL A   1      40.211  22.341  26.614  1.00  0.00    -0.237 OA
ATOM     66  O   UNL A   1      42.282  21.685  25.446  1.00  0.00    -0.744 OA
ENDBRANCH  59  63
ENDBRANCH  42  56
BRANCH  43  67
ATOM     67  C   UNL A   1      39.500  32.035  35.336  1.00  0.00     0.023 A 
ATOM     68  C   UNL A   1      38.772  31.446  36.380  1.00  0.00     0.031 A 
ATOM     69  C   UNL A   1      39.739  33.420  35.398  1.00  0.00     0.131 A 
ATOM     70  C   UNL A   1      38.265  32.246  37.416  1.00  0.00     0.055 A 
ATOM     71  C   UNL A   1      39.281  34.202  36.459  1.00  0.00     0.041 A 
ATOM     72  F   UNL A   1      40.430  34.035  34.425  1.00  0.00    -0.206 F 
ATOM     73  C   UNL A   1      38.525  33.617  37.469  1.00  0.00     0.022 A 
BRANCH  70  74
ATOM     74  S   UNL A   1      37.172  31.484  38.648  1.00  0.00     0.124 S 
ATOM     75  O   UNL A   1      35.988  32.332  38.562  1.00  0.00    -0.237 OA
ATOM     76  O   UNL A   1      37.029  30.128  38.126  1.00  0.00    -0.237 OA
ATOM     77  O   UNL A   1      37.930  31.594  39.892  1.00  0.00    -0.744 OA
ENDBRANCH  70  74
ENDBRANCH  43  67
BRANCH  55  78
ATOM     78  C   UNL A   1      44.943  27.810  34.268  1.00  0.00     0.023 A 
ATOM     79  C   UNL A   1      44.932  26.721  35.158  1.00  0.00     0.031 A 
ATOM     80  C   UNL A   1      46.107  28.596  34.197  1.00  0.00     0.131 A 
ATOM     81  C   UNL A   1      46.043  26.480  35.979  1.00  0.00     0.055 A 
ATOM     82  C   UNL A   1      47.230  28.317  34.976  1.00  0.00     0.041 A 
ATOM     83  F   UNL A   1      46.172  29.648  33.366  1.00  0.00    -0.206 F 
ATOM     84  C   UNL A   1      47.197  27.262  35.883  1.00  0.00     0.022 A 
BRANCH  81  85
ATOM     85  S   UNL A   1      45.933  25.176  37.235  1.00  0.00     0.124 S 
ATOM     86  O   UNL A   1      47.215  24.496  37.082  1.00  0.00    -0.237 OA
ATOM     87  O   UNL A   1      45.760  25.941  38.466  1.00  0.00    -0.237 OA
ATOM     88  O   UNL A   1      44.766  24.399  36.822  1.00  0.00    -0.744 OA
ENDBRANCH  81  85
ENDBRANCH  55  78
ENDBRANCH  29  30
ENDBRANCH  22  24
ENDBRANCH  21  22
ENDBRANCH   1  21
TORSDOF 16
ENDMDL
MODEL 2
REMARK VINA RESULT:     -11.2      5.280     10.101
REMARK SMILES Cn1ccnc1N1[C@@H]2CC[C@H]1C[C@H](CC(=O)OCCOC(=O)c1ccc(-c3c4nc(c(-c5cc(S(=O)(=O)[O-])ccc5F)c5ccc([nH]5)c(-c5cc(S(=O)(=O)[O-])ccc5F)c5nc(c(-c6cc(S(=O)(=O)[O-])ccc6F)c6ccc3[nH]6)C=C5)C=C4)cc1)C2
REMARK SMILES IDX 19 1 18 2 17 3 15 4 16 5 14 6 13 7 7 8 8 9 11 10 9 11 86 12
REMARK SMILES IDX 10 13 12 14 6 15 1 16 2 17 3 18 4 19 5 20 20 21 21 22 22 23
REMARK SMILES IDX 23 24 24 25 85 26 25 27 84 28 26 29 27 30 28 31 78 32 29 33
REMARK SMILES IDX 83 34 77 35 79 36 30 37 82 38 76 39 75 40 31 42 63 43 43 44
REMARK SMILES IDX 62 45 44 46 47 47 61 48 80 49 45 50 46 51 60 53 81 54 48 55
REMARK SMILES IDX 32 56 33 57 41 58 34 59 40 60 42 61 39 62 35 63 36 64 37 65
REMARK SMILES IDX 38 66 64 67 65 68 73 69 66 70 72 71 74 72 71 73 67 74 68 75
REMARK SMILES IDX 69 76 70 77 49 78 50 79 58 80 51 81 57 82 59 83 56 84 52 85
REMARK SMILES IDX 53 86 54 87 55 88
REMARK H PARENT 79 41 47 52
REMARK Flexibility Score: inf
ROOT
ATOM      1  C   UNL A   1      36.699  20.455  24.972  1.00  0.00     0.275 C 
ENDROOT
BRANCH   1   2
ATOM      2  C   UNL A   1      35.190  20.705  24.995  1.00  0.00     0.274 C 
BRANCH   2   3
ATOM      3  O   UNL A   1      34.882  22.090  24.744  1.00  0.00    -0.462 OA
BRANCH   3   4
ATOM      4  C   UNL A   1      33.602  22.481  24.968  1.00  0.00     0.306 C 
ATOM      5  O   UNL A   1      32.693  22.389  24.153  1.00  0.00    -0.252 OA
BRANCH   4   6
ATOM      6  C   UNL A   1      33.427  23.130  26.326  1.00  0.00     0.126 C 
BRANCH   6   7
ATOM      7  C   UNL A   1      33.293  24.663  26.325  1.00  0.00     0.004 C 
ATOM      8  N   UNL A   1      31.961  26.749  24.785  1.00  0.00    -0.336 N 
ATOM      9  C   UNL A   1      31.536  26.550  26.180  1.00  0.00     0.086 C 
ATOM     10  C   UNL A   1      33.425  26.769  24.852  1.00  0.00     0.086 C 
ATOM     11  C   UNL A   1      32.455  27.502  26.961  1.00  0.00     0.027 C 
ATOM     12  C   UNL A   1      31.810  25.070  26.521  1.00  0.00     0.029 C 
ATOM     13  C   UNL A   1      33.706  27.644  26.083  1.00  0.00     0.027 C 
ATOM     14  C   UNL A   1      33.879  25.313  25.050  1.00  0.00     0.029 C 
BRANCH   8  15
ATOM     15  C   UNL A   1      31.295  27.660  24.028  1.00  0.00     0.205 A 
ATOM     16  C   UNL A   1      31.475  26.395  21.846  1.00  0.00     0.153 C 
ATOM     17  N   UNL A   1      31.127  27.525  22.667  1.00  0.00    -0.320 N 
ATOM     18  C   UNL A   1      30.488  28.647  22.206  1.00  0.00     0.109 A 
ATOM     19  C   UNL A   1      30.229  29.390  23.331  1.00  0.00     0.133 A 
ATOM     20  N   UNL A   1      30.707  28.759  24.446  1.00  0.00    -0.221 NA
ENDBRANCH   8  15
ENDBRANCH   6   7
ENDBRANCH   4   6
ENDBRANCH   3   4
ENDBRANCH   2   3
ENDBRANCH   1   2
BRANCH   1  21
ATOM     21  O   UNL A   1      37.403  21.444  25.742  1.00  0.00    -0.458 OA
BRANCH  21  22
ATOM     22  C   UNL A   1      38.699  21.158  26.010  1.00  0.00     0.338 C 
ATOM     23  O   UNL A   1      39.278  20.107  25.795  1.00  0.00    -0.246 OA
BRANCH  22  24
ATOM     24  C   UNL A   1      39.368  22.367  26.516  1.00  0.00     0.060 A 
ATOM     25  C   UNL A   1      38.884  23.616  26.115  1.00  0.00     0.016 A 
ATOM     26  C   UNL A   1      40.494  22.269  27.333  1.00  0.00     0.016 A 
ATOM     27  C   UNL A   1      39.533  24.779  26.531  1.00  0.00     0.010 A 
ATOM     28  C   UNL A   1      41.140  23.437  27.752  1.00  0.00     0.010 A 
ATOM     29  C   UNL A   1      40.669  24.699  27.347  1.00  0.00    -0.014 A 
BRANCH  29  30
ATOM     30  C   UNL A   1      41.394  25.933  27.744  1.00  0.00     0.031 A 
ATOM     31  C   UNL A   1      40.672  27.008  28.507  1.00  0.00     0.074 A 
ATOM     32  C   UNL A   1      42.689  26.089  27.412  1.00  0.00     0.049 A 
ATOM     33  N   UNL A   1      41.090  28.194  28.865  1.00  0.00    -0.248 NA
ATOM     34  C   UNL A   1      39.290  26.708  28.914  1.00  0.00     0.031 C 
ATOM     35  C   UNL A   1      43.500  25.103  26.696  1.00  0.00     0.029 A 
ATOM     36  N   UNL A   1      43.547  27.141  27.618  1.00  0.00    -0.354 N 
ATOM     37  C   UNL A   1      40.020  28.793  29.521  1.00  0.00     0.074 A 
ATOM     38  C   UNL A   1      38.927  27.844  29.494  1.00  0.00     0.031 C 
ATOM     39  C   UNL A   1      44.733  25.602  26.512  1.00  0.00     0.029 A 
ATOM     40  C   UNL A   1      44.789  26.957  27.054  1.00  0.00     0.049 A 
ATOM     41  H   UNL A   1      43.299  27.949  28.123  1.00  0.00     0.167 HD
ATOM     42  C   UNL A   1      39.960  30.022  30.093  1.00  0.00     0.034 A 
ATOM     43  C   UNL A   1      45.838  27.799  26.951  1.00  0.00     0.034 A 
ATOM     44  C   UNL A   1      41.063  30.953  30.119  1.00  0.00     0.049 A 
ATOM     45  C   UNL A   1      45.728  29.178  27.556  1.00  0.00     0.074 A 
ATOM     46  C   UNL A   1      41.117  32.208  30.704  1.00  0.00     0.029 A 
ATOM     47  N   UNL A   1      42.300  30.739  29.527  1.00  0.00    -0.354 N 
ATOM     48  N   UNL A   1      44.714  29.725  28.187  1.00  0.00    -0.248 NA
ATOM     49  C   UNL A   1      46.905  30.048  27.440  1.00  0.00     0.031 C 
ATOM     50  C   UNL A   1      42.363  32.775  30.411  1.00  0.00     0.029 A 
ATOM     51  C   UNL A   1      43.113  31.849  29.705  1.00  0.00     0.049 A 
ATOM     52  H   UNL A   1      42.563  29.918  29.051  1.00  0.00     0.167 HD
ATOM     53  C   UNL A   1      45.144  30.995  28.564  1.00  0.00     0.074 A 
ATOM     54  C   UNL A   1      46.512  31.125  28.105  1.00  0.00     0.031 C 
ATOM     55  C   UNL A   1      44.472  31.965  29.233  1.00  0.00     0.034 A 
BRANCH  42  56
ATOM     56  C   UNL A   1      38.641  30.451  30.687  1.00  0.00     0.023 A 
ATOM     57  C   UNL A   1      37.698  31.190  29.954  1.00  0.00     0.031 A 
ATOM     58  C   UNL A   1      38.329  30.117  32.018  1.00  0.00     0.131 A 
ATOM     59  C   UNL A   1      36.511  31.616  30.572  1.00  0.00     0.055 A 
ATOM     60  C   UNL A   1      37.118  30.485  32.605  1.00  0.00     0.041 A 
ATOM     61  F   UNL A   1      39.202  29.430  32.771  1.00  0.00    -0.206 F 
ATOM     62  C   UNL A   1      36.205  31.249  31.885  1.00  0.00     0.022 A 
BRANCH  59  63
ATOM     63  S   UNL A   1      35.421  32.754  29.673  1.00  0.00     0.124 S 
ATOM     64  O   UNL A   1      34.315  32.908  30.614  1.00  0.00    -0.237 OA
ATOM     65  O   UNL A   1      36.271  33.924  29.488  1.00  0.00    -0.237 OA
ATOM     66  O   UNL A   1      35.093  32.021  28.452  1.00  0.00    -0.744 OA
ENDBRANCH  59  63
ENDBRANCH  42  56
BRANCH  43  67
ATOM     67  C   UNL A   1      47.062  27.394  26.203  1.00  0.00     0.023 A 
ATOM     68  C   UNL A   1      47.259  27.769  24.865  1.00  0.00     0.031 A 
ATOM     69  C   UNL A   1      48.031  26.570  26.806  1.00  0.00     0.131 A 
ATOM     70  C   UNL A   1      48.369  27.281  24.159  1.00  0.00     0.055 A 
ATOM     71  C   UNL A   1      49.163  26.134  26.115  1.00  0.00     0.041 A 
ATOM     72  F   UNL A   1      47.892  26.181  28.083  1.00  0.00    -0.206 F 
ATOM     73  C   UNL A   1      49.328  26.477  24.778  1.00  0.00     0.022 A 
BRANCH  70  74
ATOM     74  S   UNL A   1      48.492  27.633  22.383  1.00  0.00     0.124 S 
ATOM     75  O   UNL A   1      49.710  28.434  22.320  1.00  0.00    -0.237 OA
ATOM     76  O   UNL A   1      48.577  26.291  21.815  1.00  0.00    -0.237 OA
ATOM     77  O   UNL A   1      47.255  28.354  22.091  1.00  0.00    -0.744 OA
ENDBRANCH  70  74
ENDBRANCH  43  67
BRANCH  55  78
ATOM     78  C   UNL A   1      45.230  33.232  29.545  1.00  0.00     0.023 A 
ATOM     79  C   UNL A   1      45.238  34.327  28.663  1.00  0.00     0.031 A 
ATOM     80  C   UNL A   1      45.966  33.337  30.738  1.00  0.00     0.131 A 
ATOM     81  C   UNL A   1      46.010  35.460  28.963  1.00  0.00     0.055 A 
ATOM     82  C   UNL A   1      46.688  34.488  31.058  1.00  0.00     0.041 A 
ATOM     83  F   UNL A   1      45.995  32.321  31.615  1.00  0.00    -0.206 F 
ATOM     84  C   UNL A   1      46.722  35.552  30.162  1.00  0.00     0.022 A 
BRANCH  81  85
ATOM     85  S   UNL A   1      46.136  36.782  27.728  1.00  0.00     0.124 S 
ATOM     86  O   UNL A   1      46.994  37.750  28.405  1.00  0.00    -0.237 OA
ATOM     87  O   UNL A   1      46.731  36.091  26.589  1.00  0.00    -0.237 OA
ATOM     88  O   UNL A   1      44.751  37.209  27.538  1.00  0.00    -0.744 OA
ENDBRANCH  81  85
ENDBRANCH  55  78
ENDBRANCH  29  30
ENDBRANCH  22  24
ENDBRANCH  21  22
ENDBRANCH   1  21
TORSDOF 16
ENDMDL
MODEL 3
REMARK VINA RESULT:     -11.1      1.662      2.365
REMARK SMILES Cn1ccnc1N1[C@@H]2CC[C@H]1C[C@H](CC(=O)OCCOC(=O)c1ccc(-c3c4nc(c(-c5cc(S(=O)(=O)[O-])ccc5F)c5ccc([nH]5)c(-c5cc(S(=O)(=O)[O-])ccc5F)c5nc(c(-c6cc(S(=O)(=O)[O-])ccc6F)c6ccc3[nH]6)C=C5)C=C4)cc1)C2
REMARK SMILES IDX 19 1 18 2 17 3 15 4 16 5 14 6 13 7 7 8 8 9 11 10 9 11 86 12
REMARK SMILES IDX 10 13 12 14 6 15 1 16 2 17 3 18 4 19 5 20 20 21 21 22 22 23
REMARK SMILES IDX 23 24 24 25 85 26 25 27 84 28 26 29 27 30 28 31 78 32 29 33
REMARK SMILES IDX 83 34 77 35 79 36 30 37 82 38 76 39 75 40 31 42 63 43 43 44
REMARK SMILES IDX 62 45 44 46 47 47 61 48 80 49 45 50 46 51 60 53 81 54 48 55
REMARK SMILES IDX 32 56 33 57 41 58 34 59 40 60 42 61 39 62 35 63 36 64 37 65
REMARK SMILES IDX 38 66 64 67 65 68 73 69 66 70 72 71 74 72 71 73 67 74 68 75
REMARK SMILES IDX 69 76 70 77 49 78 50 79 58 80 51 81 57 82 59 83 56 84 52 85
REMARK SMILES IDX 53 86 54 87 55 88
REMARK H PARENT 79 41 47 52
REMARK Flexibility Score: inf
ROOT
ATOM      1  C   UNL A   1      31.645  29.849  25.378  1.00  0.00     0.275 C 
ENDROOT
BRANCH   1   2
ATOM      2  C   UNL A   1      31.658  28.752  24.312  1.00  0.00     0.274 C 
BRANCH   2   3
ATOM      3  O   UNL A   1      30.916  27.593  24.740  1.00  0.00    -0.462 OA
BRANCH   3   4
ATOM      4  C   UNL A   1      31.366  26.957  25.851  1.00  0.00     0.306 C 
ATOM      5  O   UNL A   1      30.713  26.802  26.876  1.00  0.00    -0.252 OA
BRANCH   4   6
ATOM      6  C   UNL A   1      32.812  26.524  25.723  1.00  0.00     0.126 C 
BRANCH   6   7
ATOM      7  C   UNL A   1      33.044  25.130  25.116  1.00  0.00     0.004 C 
ATOM      8  N   UNL A   1      35.099  23.062  25.090  1.00  0.00    -0.336 N 
ATOM      9  C   UNL A   1      33.815  22.745  25.738  1.00  0.00     0.086 C 
ATOM     10  C   UNL A   1      34.719  23.672  23.813  1.00  0.00     0.086 C 
ATOM     11  C   UNL A   1      32.986  22.149  24.589  1.00  0.00     0.027 C 
ATOM     12  C   UNL A   1      33.230  24.080  26.242  1.00  0.00     0.029 C 
ATOM     13  C   UNL A   1      33.582  22.765  23.316  1.00  0.00     0.027 C 
ATOM     14  C   UNL A   1      34.236  25.098  24.131  1.00  0.00     0.029 C 
BRANCH   8  15
ATOM     15  C   UNL A   1      36.096  22.140  25.142  1.00  0.00     0.205 A 
ATOM     16  C   UNL A   1      37.879  23.705  26.015  1.00  0.00     0.153 C 
ATOM     17  N   UNL A   1      37.387  22.451  25.507  1.00  0.00    -0.320 N 
ATOM     18  C   UNL A   1      38.149  21.319  25.375  1.00  0.00     0.109 A 
ATOM     19  C   UNL A   1      37.262  20.341  25.001  1.00  0.00     0.133 A 
ATOM     20  N   UNL A   1      36.000  20.853  24.886  1.00  0.00    -0.221 NA
ENDBRANCH   8  15
ENDBRANCH   6   7
ENDBRANCH   4   6
ENDBRANCH   3   4
ENDBRANCH   2   3
ENDBRANCH   1   2
BRANCH   1  21
ATOM     21  O   UNL A   1      32.980  30.196  25.785  1.00  0.00    -0.458 OA
BRANCH  21  22
ATOM     22  C   UNL A   1      33.066  31.149  26.743  1.00  0.00     0.338 C 
ATOM     23  O   UNL A   1      32.274  32.051  26.953  1.00  0.00    -0.246 OA
BRANCH  22  24
ATOM     24  C   UNL A   1      34.234  30.876  27.594  1.00  0.00     0.060 A 
ATOM     25  C   UNL A   1      35.072  31.939  27.943  1.00  0.00     0.016 A 
ATOM     26  C   UNL A   1      34.531  29.574  28.000  1.00  0.00     0.016 A 
ATOM     27  C   UNL A   1      36.219  31.700  28.701  1.00  0.00     0.010 A 
ATOM     28  C   UNL A   1      35.679  29.339  28.762  1.00  0.00     0.010 A 
ATOM     29  C   UNL A   1      36.535  30.399  29.110  1.00  0.00    -0.014 A 
BRANCH  29  30
ATOM     30  C   UNL A   1      37.785  30.136  29.868  1.00  0.00     0.031 A 
ATOM     31  C   UNL A   1      38.806  29.182  29.314  1.00  0.00     0.074 A 
ATOM     32  C   UNL A   1      37.995  30.743  31.051  1.00  0.00     0.049 A 
ATOM     33  N   UNL A   1      39.912  28.744  29.856  1.00  0.00    -0.248 NA
ATOM     34  C   UNL A   1      38.539  28.645  27.971  1.00  0.00     0.031 C 
ATOM     35  C   UNL A   1      37.089  31.708  31.675  1.00  0.00     0.029 A 
ATOM     36  N   UNL A   1      39.029  30.629  31.947  1.00  0.00    -0.354 N 
ATOM     37  C   UNL A   1      40.466  27.864  28.933  1.00  0.00     0.074 A 
ATOM     38  C   UNL A   1      39.562  27.816  27.804  1.00  0.00     0.031 C 
ATOM     39  C   UNL A   1      37.601  32.087  32.858  1.00  0.00     0.029 A 
ATOM     40  C   UNL A   1      38.846  31.362  33.097  1.00  0.00     0.049 A 
ATOM     41  H   UNL A   1      39.828  30.077  31.781  1.00  0.00     0.167 HD
ATOM     42  C   UNL A   1      41.624  27.162  29.024  1.00  0.00     0.034 A 
ATOM     43  C   UNL A   1      39.576  31.412  34.230  1.00  0.00     0.034 A 
ATOM     44  C   UNL A   1      42.519  27.228  30.154  1.00  0.00     0.049 A 
ATOM     45  C   UNL A   1      40.836  30.586  34.323  1.00  0.00     0.074 A 
ATOM     46  C   UNL A   1      43.734  26.586  30.329  1.00  0.00     0.029 A 
ATOM     47  N   UNL A   1      42.295  27.969  31.306  1.00  0.00    -0.354 N 
ATOM     48  N   UNL A   1      41.355  29.768  33.436  1.00  0.00    -0.248 NA
ATOM     49  C   UNL A   1      41.610  30.693  35.566  1.00  0.00     0.031 C 
ATOM     50  C   UNL A   1      44.211  26.889  31.609  1.00  0.00     0.029 A 
ATOM     51  C   UNL A   1      43.331  27.776  32.208  1.00  0.00     0.049 A 
ATOM     52  H   UNL A   1      41.514  28.549  31.460  1.00  0.00     0.167 HD
ATOM     53  C   UNL A   1      42.531  29.286  34.006  1.00  0.00     0.074 A 
ATOM     54  C   UNL A   1      42.650  29.916  35.305  1.00  0.00     0.031 C 
ATOM     55  C   UNL A   1      43.431  28.405  33.502  1.00  0.00     0.034 A 
BRANCH  42  56
ATOM     56  C   UNL A   1      41.958  26.221  27.893  1.00  0.00     0.023 A 
ATOM     57  C   UNL A   1      41.628  24.856  27.937  1.00  0.00     0.031 A 
ATOM     58  C   UNL A   1      42.628  26.702  26.754  1.00  0.00     0.131 A 
ATOM     59  C   UNL A   1      42.015  24.009  26.885  1.00  0.00     0.055 A 
ATOM     60  C   UNL A   1      42.950  25.869  25.681  1.00  0.00     0.041 A 
ATOM     61  F   UNL A   1      42.986  27.992  26.667  1.00  0.00    -0.206 F 
ATOM     62  C   UNL A   1      42.653  24.511  25.748  1.00  0.00     0.022 A 
BRANCH  59  63
ATOM     63  S   UNL A   1      41.774  22.221  27.073  1.00  0.00     0.124 S 
ATOM     64  O   UNL A   1      40.440  22.164  27.664  1.00  0.00    -0.237 OA
ATOM     65  O   UNL A   1      41.887  21.742  25.700  1.00  0.00    -0.237 OA
ATOM     66  O   UNL A   1      42.861  21.821  27.965  1.00  0.00    -0.744 OA
ENDBRANCH  59  63
ENDBRANCH  42  56
BRANCH  43  67
ATOM     67  C   UNL A   1      39.116  32.226  35.392  1.00  0.00     0.023 A 
ATOM     68  C   UNL A   1      39.576  33.535  35.595  1.00  0.00     0.031 A 
ATOM     69  C   UNL A   1      38.249  31.675  36.353  1.00  0.00     0.131 A 
ATOM     70  C   UNL A   1      39.208  34.234  36.756  1.00  0.00     0.055 A 
ATOM     71  C   UNL A   1      37.840  32.394  37.478  1.00  0.00     0.041 A 
ATOM     72  F   UNL A   1      37.779  30.426  36.209  1.00  0.00    -0.206 F 
ATOM     73  C   UNL A   1      38.333  33.676  37.692  1.00  0.00     0.022 A 
BRANCH  70  74
ATOM     74  S   UNL A   1      39.969  35.849  37.077  1.00  0.00     0.124 S 
ATOM     75  O   UNL A   1      39.274  36.271  38.288  1.00  0.00    -0.237 OA
ATOM     76  O   UNL A   1      41.375  35.494  37.235  1.00  0.00    -0.237 OA
ATOM     77  O   UNL A   1      39.653  36.619  35.876  1.00  0.00    -0.744 OA
ENDBRANCH  70  74
ENDBRANCH  43  67
BRANCH  55  78
ATOM     78  C   UNL A   1      44.647  28.113  34.346  1.00  0.00     0.023 A 
ATOM     79  C   UNL A   1      44.677  27.043  35.258  1.00  0.00     0.031 A 
ATOM     80  C   UNL A   1      45.789  28.928  34.244  1.00  0.00     0.131 A 
ATOM     81  C   UNL A   1      45.805  26.848  36.069  1.00  0.00     0.055 A 
ATOM     82  C   UNL A   1      46.929  28.696  35.014  1.00  0.00     0.041 A 
ATOM     83  F   UNL A   1      45.814  29.964  33.390  1.00  0.00    -0.206 F 
ATOM     84  C   UNL A   1      46.936  27.658  35.942  1.00  0.00     0.022 A 
BRANCH  81  85
ATOM     85  S   UNL A   1      45.746  25.569  37.353  1.00  0.00     0.124 S 
ATOM     86  O   UNL A   1      44.717  24.669  36.840  1.00  0.00    -0.237 OA
ATOM     87  O   UNL A   1      47.109  25.049  37.341  1.00  0.00    -0.237 OA
ATOM     88  O   UNL A   1      45.377  26.309  38.559  1.00  0.00    -0.744 OA
ENDBRANCH  81  85
ENDBRANCH  55  78
ENDBRANCH  29  30
ENDBRANCH  22  24
ENDBRANCH  21  22
ENDBRANCH   1  21
TORSDOF 16
ENDMDL
