MODEL 1
REMARK VINA RESULT:     -11.6      0.000      0.000
REMARK SMILES O=C(OCCOC(=O)c1ccn(-c2cc(-c3ccncc3)nc(-c3ccccc3F)n2)n1)c1ccc(-c2c3nc(c(-c4cc(S(=O)(=O)[O-])ccc4F)c4ccc([nH]4)c(-c4cc(S(=O)(=O)[O-])ccc4F)c4nc(c(-c5cc(S(=O)(=O)[O-])ccc5F)c5ccc2[nH]5)C=C4)C=C3)cc1
REMARK SMILES IDX 4 1 3 2 2 3 1 4 33 5 34 6 95 7 35 8 94 9 36 10 37 11 38 12
REMARK SMILES IDX 88 13 39 14 93 15 87 16 89 17 40 18 92 19 86 20 85 21 41 23
REMARK SMILES IDX 73 24 53 25 72 26 54 27 57 28 71 29 90 30 55 31 56 32 70 34
REMARK SMILES IDX 91 35 58 36 42 37 43 38 51 39 44 40 50 41 52 42 49 43 45 44
REMARK SMILES IDX 46 45 47 46 48 47 74 48 75 49 83 50 76 51 82 52 84 53 81 54
REMARK SMILES IDX 77 55 78 56 79 57 80 58 59 59 60 60 68 61 61 62 67 63 69 64
REMARK SMILES IDX 66 65 62 66 63 67 64 68 65 69 5 70 6 71 7 72 8 73 9 74 10 75
REMARK SMILES IDX 32 76 11 77 12 78 13 79 14 80 31 81 15 82 23 83 22 84 16 85
REMARK SMILES IDX 17 86 21 87 18 88 20 89 19 90 24 91 25 92 29 93 26 94 28 95
REMARK SMILES IDX 30 96 27 97
REMARK H PARENT 89 22 57 33
REMARK Flexibility Score: inf
ROOT
ATOM      1  C   UNL A   1      33.444  34.195  29.050  1.00  0.00     0.275 C 
ENDROOT
BRANCH   1   2
ATOM      2  O   UNL A   1      34.660  33.447  29.241  1.00  0.00    -0.458 OA
BRANCH   2   3
ATOM      3  C   UNL A   1      34.800  32.203  28.732  1.00  0.00     0.338 C 
ATOM      4  O   UNL A   1      33.978  31.717  27.966  1.00  0.00    -0.246 OA
BRANCH   3   5
ATOM      5  C   UNL A   1      36.131  31.576  28.951  1.00  0.00     0.060 A 
ATOM      6  C   UNL A   1      37.291  32.275  29.303  1.00  0.00     0.016 A 
ATOM      7  C   UNL A   1      36.186  30.184  28.822  1.00  0.00     0.016 A 
ATOM      8  C   UNL A   1      38.502  31.602  29.454  1.00  0.00     0.010 A 
ATOM      9  C   UNL A   1      37.387  29.510  28.996  1.00  0.00     0.010 A 
ATOM     10  C   UNL A   1      38.556  30.215  29.288  1.00  0.00    -0.014 A 
BRANCH  10  11
ATOM     11  C   UNL A   1      39.803  29.491  29.589  1.00  0.00     0.031 A 
ATOM     12  C   UNL A   1      40.129  29.365  31.054  1.00  0.00     0.074 A 
ATOM     13  C   UNL A   1      40.510  28.858  28.615  1.00  0.00     0.049 A 
ATOM     14  N   UNL A   1      41.291  29.422  31.604  1.00  0.00    -0.248 NA
ATOM     15  C   UNL A   1      39.061  29.198  32.059  1.00  0.00     0.031 C 
ATOM     16  C   UNL A   1      40.164  28.797  27.186  1.00  0.00     0.029 A 
ATOM     17  N   UNL A   1      41.624  28.058  28.673  1.00  0.00    -0.354 N 
ATOM     18  C   UNL A   1      41.142  29.124  32.961  1.00  0.00     0.074 A 
ATOM     19  C   UNL A   1      39.735  28.973  33.191  1.00  0.00     0.031 C 
ATOM     20  C   UNL A   1      40.891  27.838  26.571  1.00  0.00     0.029 A 
ATOM     21  C   UNL A   1      41.876  27.324  27.504  1.00  0.00     0.049 A 
ATOM     22  H   UNL A   1      42.199  28.004  29.470  1.00  0.00     0.167 HD
ATOM     23  C   UNL A   1      42.246  28.932  33.729  1.00  0.00     0.034 A 
ATOM     24  C   UNL A   1      42.857  26.404  27.266  1.00  0.00     0.034 A 
ATOM     25  C   UNL A   1      43.361  29.624  33.135  1.00  0.00     0.049 A 
ATOM     26  C   UNL A   1      43.983  26.784  28.148  1.00  0.00     0.074 A 
ATOM     27  C   UNL A   1      43.764  30.939  33.117  1.00  0.00     0.029 A 
ATOM     28  N   UNL A   1      43.973  28.981  32.087  1.00  0.00    -0.354 N 
ATOM     29  N   UNL A   1      44.575  27.947  28.078  1.00  0.00    -0.248 NA
ATOM     30  C   UNL A   1      44.244  26.028  29.364  1.00  0.00     0.031 C 
ATOM     31  C   UNL A   1      44.442  31.119  31.880  1.00  0.00     0.029 A 
ATOM     32  C   UNL A   1      44.518  29.894  31.217  1.00  0.00     0.049 A 
ATOM     33  H   UNL A   1      44.014  28.003  31.975  1.00  0.00     0.167 HD
ATOM     34  C   UNL A   1      44.862  28.255  29.391  1.00  0.00     0.074 A 
ATOM     35  C   UNL A   1      44.799  26.988  30.108  1.00  0.00     0.031 C 
ATOM     36  C   UNL A   1      44.820  29.540  29.843  1.00  0.00     0.034 A 
BRANCH  23  37
ATOM     37  C   UNL A   1      42.469  27.850  34.762  1.00  0.00     0.023 A 
ATOM     38  C   UNL A   1      43.349  26.804  34.409  1.00  0.00     0.031 A 
ATOM     39  C   UNL A   1      41.634  27.601  35.864  1.00  0.00     0.131 A 
ATOM     40  C   UNL A   1      43.262  25.540  35.016  1.00  0.00     0.055 A 
ATOM     41  C   UNL A   1      41.521  26.331  36.448  1.00  0.00     0.041 A 
ATOM     42  F   UNL A   1      40.872  28.561  36.395  1.00  0.00    -0.206 F 
ATOM     43  C   UNL A   1      42.311  25.281  35.999  1.00  0.00     0.022 A 
BRANCH  40  44
ATOM     44  S   UNL A   1      44.368  24.228  34.436  1.00  0.00     0.124 S 
ATOM     45  O   UNL A   1      45.669  24.695  34.900  1.00  0.00    -0.237 OA
ATOM     46  O   UNL A   1      43.823  23.060  35.122  1.00  0.00    -0.237 OA
ATOM     47  O   UNL A   1      44.178  24.239  32.988  1.00  0.00    -0.744 OA
ENDBRANCH  40  44
ENDBRANCH  23  37
BRANCH  24  48
ATOM     48  C   UNL A   1      42.808  25.122  26.484  1.00  0.00     0.023 A 
ATOM     49  C   UNL A   1      43.885  24.666  25.679  1.00  0.00     0.031 A 
ATOM     50  C   UNL A   1      41.793  24.176  26.740  1.00  0.00     0.131 A 
ATOM     51  C   UNL A   1      43.935  23.322  25.223  1.00  0.00     0.055 A 
ATOM     52  C   UNL A   1      41.859  22.844  26.310  1.00  0.00     0.041 A 
ATOM     53  F   UNL A   1      40.739  24.475  27.516  1.00  0.00    -0.206 F 
ATOM     54  C   UNL A   1      42.941  22.406  25.566  1.00  0.00     0.022 A 
BRANCH  51  55
ATOM     55  S   UNL A   1      45.354  22.695  24.256  1.00  0.00     0.124 S 
ATOM     56  O   UNL A   1      44.693  22.055  23.124  1.00  0.00    -0.237 OA
ATOM     57  O   UNL A   1      46.110  23.906  23.964  1.00  0.00    -0.237 OA
ATOM     58  O   UNL A   1      46.015  21.770  25.180  1.00  0.00    -0.744 OA
ENDBRANCH  51  55
ENDBRANCH  24  48
BRANCH  36  59
ATOM     59  C   UNL A   1      45.026  30.656  28.848  1.00  0.00     0.023 A 
ATOM     60  C   UNL A   1      46.265  31.183  28.425  1.00  0.00     0.031 A 
ATOM     61  C   UNL A   1      43.858  31.155  28.242  1.00  0.00     0.131 A 
ATOM     62  C   UNL A   1      46.294  32.175  27.421  1.00  0.00     0.055 A 
ATOM     63  C   UNL A   1      43.893  32.113  27.235  1.00  0.00     0.041 A 
ATOM     64  F   UNL A   1      42.651  30.683  28.599  1.00  0.00    -0.206 F 
ATOM     65  C   UNL A   1      45.112  32.630  26.822  1.00  0.00     0.022 A 
BRANCH  62  66
ATOM     66  S   UNL A   1      47.874  32.892  26.859  1.00  0.00     0.124 S 
ATOM     67  O   UNL A   1      47.480  33.738  25.739  1.00  0.00    -0.237 OA
ATOM     68  O   UNL A   1      48.357  33.585  28.049  1.00  0.00    -0.237 OA
ATOM     69  O   UNL A   1      48.668  31.719  26.482  1.00  0.00    -0.744 OA
ENDBRANCH  62  66
ENDBRANCH  36  59
ENDBRANCH  10  11
ENDBRANCH   3   5
ENDBRANCH   2   3
ENDBRANCH   1   2
BRANCH   1  70
ATOM     70  C   UNL A   1      33.331  35.525  29.797  1.00  0.00     0.275 C 
BRANCH  70  71
ATOM     71  O   UNL A   1      32.543  35.377  30.992  1.00  0.00    -0.457 OA
BRANCH  71  72
ATOM     72  C   UNL A   1      33.051  35.941  32.128  1.00  0.00     0.358 C 
ATOM     73  O   UNL A   1      32.765  37.071  32.532  1.00  0.00    -0.244 OA
BRANCH  72  74
ATOM     74  C   UNL A   1      34.114  35.135  32.729  1.00  0.00     0.170 A 
ATOM     75  C   UNL A   1      33.927  33.809  33.184  1.00  0.00     0.058 A 
ATOM     76  N   UNL A   1      35.396  35.537  32.894  1.00  0.00    -0.159 NA
ATOM     77  C   UNL A   1      35.183  33.360  33.482  1.00  0.00     0.118 A 
ATOM     78  N   UNL A   1      36.060  34.403  33.258  1.00  0.00    -0.222 N 
BRANCH  78  79
ATOM     79  C   UNL A   1      37.478  34.295  33.427  1.00  0.00     0.158 A 
ATOM     80  C   UNL A   1      38.038  34.142  34.685  1.00  0.00     0.078 A 
ATOM     81  N   UNL A   1      38.202  34.215  32.284  1.00  0.00    -0.209 NA
ATOM     82  C   UNL A   1      39.343  33.682  34.698  1.00  0.00     0.077 A 
ATOM     83  C   UNL A   1      39.501  33.937  32.429  1.00  0.00     0.165 A 
ATOM     84  N   UNL A   1      40.090  33.631  33.583  1.00  0.00    -0.228 NA
BRANCH  82  85
ATOM     85  C   UNL A   1      40.009  33.000  35.811  1.00  0.00     0.003 A 
ATOM     86  C   UNL A   1      40.985  32.040  35.514  1.00  0.00     0.030 A 
ATOM     87  C   UNL A   1      39.909  33.414  37.132  1.00  0.00     0.030 A 
ATOM     88  C   UNL A   1      41.793  31.521  36.507  1.00  0.00     0.111 A 
ATOM     89  C   UNL A   1      40.793  32.871  38.058  1.00  0.00     0.111 A 
ATOM     90  N   UNL A   1      41.725  31.934  37.779  1.00  0.00    -0.265 NA
ENDBRANCH  82  85
BRANCH  83  91
ATOM     91  C   UNL A   1      40.407  34.274  31.351  1.00  0.00     0.055 A 
ATOM     92  C   UNL A   1      41.747  33.859  31.427  1.00  0.00     0.015 A 
ATOM     93  C   UNL A   1      39.954  34.863  30.171  1.00  0.00     0.134 A 
ATOM     94  C   UNL A   1      42.601  34.004  30.335  1.00  0.00     0.001 A 
ATOM     95  C   UNL A   1      40.804  35.019  29.079  1.00  0.00     0.040 A 
ATOM     96  F   UNL A   1      38.684  35.279  30.059  1.00  0.00    -0.206 F 
ATOM     97  C   UNL A   1      42.125  34.577  29.158  1.00  0.00     0.003 A 
ENDBRANCH  83  91
ENDBRANCH  78  79
ENDBRANCH  72  74
ENDBRANCH  71  72
ENDBRANCH  70  71
ENDBRANCH   1  70
TORSDOF 17
ENDMDL
MODEL 2
REMARK VINA RESULT:     -11.3      1.243      2.794
REMARK SMILES O=C(OCCOC(=O)c1ccn(-c2cc(-c3ccncc3)nc(-c3ccccc3F)n2)n1)c1ccc(-c2c3nc(c(-c4cc(S(=O)(=O)[O-])ccc4F)c4ccc([nH]4)c(-c4cc(S(=O)(=O)[O-])ccc4F)c4nc(c(-c5cc(S(=O)(=O)[O-])ccc5F)c5ccc2[nH]5)C=C4)C=C3)cc1
REMARK SMILES IDX 4 1 3 2 2 3 1 4 33 5 34 6 95 7 35 8 94 9 36 10 37 11 38 12
REMARK SMILES IDX 88 13 39 14 93 15 87 16 89 17 40 18 92 19 86 20 85 21 41 23
REMARK SMILES IDX 73 24 53 25 72 26 54 27 57 28 71 29 90 30 55 31 56 32 70 34
REMARK SMILES IDX 91 35 58 36 42 37 43 38 51 39 44 40 50 41 52 42 49 43 45 44
REMARK SMILES IDX 46 45 47 46 48 47 74 48 75 49 83 50 76 51 82 52 84 53 81 54
REMARK SMILES IDX 77 55 78 56 79 57 80 58 59 59 60 60 68 61 61 62 67 63 69 64
REMARK SMILES IDX 66 65 62 66 63 67 64 68 65 69 5 70 6 71 7 72 8 73 9 74 10 75
REMARK SMILES IDX 32 76 11 77 12 78 13 79 14 80 31 81 15 82 23 83 22 84 16 85
REMARK SMILES IDX 17 86 21 87 18 88 20 89 19 90 24 91 25 92 29 93 26 94 28 95
REMARK SMILES IDX 30 96 27 97
REMARK H PARENT 89 22 57 33
REMARK Flexibility Score: inf
ROOT
ATOM      1  C   UNL A   1      33.546  34.131  28.007  1.00  0.00     0.275 C 
ENDROOT
BRANCH   1   2
ATOM      2  O   UNL A   1      34.693  33.407  28.490  1.00  0.00    -0.458 OA
BRANCH   2   3
ATOM      3  C   UNL A   1      34.751  32.060  28.410  1.00  0.00     0.338 C 
ATOM      4  O   UNL A   1      33.839  31.396  27.935  1.00  0.00    -0.246 OA
BRANCH   3   5
ATOM      5  C   UNL A   1      36.087  31.467  28.689  1.00  0.00     0.060 A 
ATOM      6  C   UNL A   1      37.199  32.188  29.140  1.00  0.00     0.016 A 
ATOM      7  C   UNL A   1      36.197  30.084  28.510  1.00  0.00     0.016 A 
ATOM      8  C   UNL A   1      38.419  31.547  29.342  1.00  0.00     0.010 A 
ATOM      9  C   UNL A   1      37.407  29.441  28.734  1.00  0.00     0.010 A 
ATOM     10  C   UNL A   1      38.531  30.170  29.126  1.00  0.00    -0.014 A 
BRANCH  10  11
ATOM     11  C   UNL A   1      39.781  29.475  29.478  1.00  0.00     0.031 A 
ATOM     12  C   UNL A   1      40.099  29.442  30.949  1.00  0.00     0.074 A 
ATOM     13  C   UNL A   1      40.496  28.786  28.549  1.00  0.00     0.049 A 
ATOM     14  N   UNL A   1      41.258  29.539  31.501  1.00  0.00    -0.248 NA
ATOM     15  C   UNL A   1      39.026  29.330  31.958  1.00  0.00     0.031 C 
ATOM     16  C   UNL A   1      40.159  28.635  27.124  1.00  0.00     0.029 A 
ATOM     17  N   UNL A   1      41.615  27.999  28.661  1.00  0.00    -0.354 N 
ATOM     18  C   UNL A   1      41.103  29.325  32.873  1.00  0.00     0.074 A 
ATOM     19  C   UNL A   1      39.695  29.179  33.105  1.00  0.00     0.031 C 
ATOM     20  C   UNL A   1      40.895  27.645  26.573  1.00  0.00     0.029 A 
ATOM     21  C   UNL A   1      41.879  27.195  27.542  1.00  0.00     0.049 A 
ATOM     22  H   UNL A   1      42.186  27.998  29.463  1.00  0.00     0.167 HD
ATOM     23  C   UNL A   1      42.204  29.187  33.657  1.00  0.00     0.034 A 
ATOM     24  C   UNL A   1      42.866  26.269  27.366  1.00  0.00     0.034 A 
ATOM     25  C   UNL A   1      43.318  29.849  33.027  1.00  0.00     0.049 A 
ATOM     26  C   UNL A   1      43.985  26.710  28.229  1.00  0.00     0.074 A 
ATOM     27  C   UNL A   1      43.713  31.163  32.930  1.00  0.00     0.029 A 
ATOM     28  N   UNL A   1      43.940  29.146  32.024  1.00  0.00    -0.354 N 
ATOM     29  N   UNL A   1      44.571  27.870  28.090  1.00  0.00    -0.248 NA
ATOM     30  C   UNL A   1      44.244  26.032  29.490  1.00  0.00     0.031 C 
ATOM     31  C   UNL A   1      44.397  31.270  31.688  1.00  0.00     0.029 A 
ATOM     32  C   UNL A   1      44.484  30.007  31.103  1.00  0.00     0.049 A 
ATOM     33  H   UNL A   1      43.987  28.163  31.973  1.00  0.00     0.167 HD
ATOM     34  C   UNL A   1      44.848  28.261  29.383  1.00  0.00     0.074 A 
ATOM     35  C   UNL A   1      44.789  27.040  30.177  1.00  0.00     0.031 C 
ATOM     36  C   UNL A   1      44.796  29.571  29.754  1.00  0.00     0.034 A 
BRANCH  23  37
ATOM     37  C   UNL A   1      42.427  28.173  34.756  1.00  0.00     0.023 A 
ATOM     38  C   UNL A   1      43.101  26.985  34.398  1.00  0.00     0.031 A 
ATOM     39  C   UNL A   1      41.735  28.139  35.978  1.00  0.00     0.131 A 
ATOM     40  C   UNL A   1      42.935  25.801  35.137  1.00  0.00     0.055 A 
ATOM     41  C   UNL A   1      41.540  26.951  36.697  1.00  0.00     0.041 A 
ATOM     42  F   UNL A   1      41.192  29.241  36.504  1.00  0.00    -0.206 F 
ATOM     43  C   UNL A   1      42.110  25.764  36.257  1.00  0.00     0.022 A 
BRANCH  40  44
ATOM     44  S   UNL A   1      43.761  24.298  34.552  1.00  0.00     0.124 S 
ATOM     45  O   UNL A   1      42.697  23.306  34.645  1.00  0.00    -0.237 OA
ATOM     46  O   UNL A   1      44.159  24.689  33.203  1.00  0.00    -0.237 OA
ATOM     47  O   UNL A   1      44.862  24.126  35.497  1.00  0.00    -0.744 OA
ENDBRANCH  40  44
ENDBRANCH  23  37
BRANCH  24  48
ATOM     48  C   UNL A   1      42.829  24.941  26.664  1.00  0.00     0.023 A 
ATOM     49  C   UNL A   1      43.798  24.547  25.703  1.00  0.00     0.031 A 
ATOM     50  C   UNL A   1      41.986  23.914  27.139  1.00  0.00     0.131 A 
ATOM     51  C   UNL A   1      43.920  23.188  25.308  1.00  0.00     0.055 A 
ATOM     52  C   UNL A   1      42.127  22.571  26.765  1.00  0.00     0.041 A 
ATOM     53  F   UNL A   1      41.053  24.153  28.074  1.00  0.00    -0.206 F 
ATOM     54  C   UNL A   1      43.108  22.199  25.862  1.00  0.00     0.022 A 
BRANCH  51  55
ATOM     55  S   UNL A   1      45.215  22.649  24.136  1.00  0.00     0.124 S 
ATOM     56  O   UNL A   1      44.435  22.325  22.947  1.00  0.00    -0.237 OA
ATOM     57  O   UNL A   1      46.079  23.820  24.044  1.00  0.00    -0.237 OA
ATOM     58  O   UNL A   1      45.821  21.495  24.803  1.00  0.00    -0.744 OA
ENDBRANCH  51  55
ENDBRANCH  24  48
BRANCH  36  59
ATOM     59  C   UNL A   1      45.000  30.624  28.693  1.00  0.00     0.023 A 
ATOM     60  C   UNL A   1      46.227  31.223  28.333  1.00  0.00     0.031 A 
ATOM     61  C   UNL A   1      43.856  30.977  27.955  1.00  0.00     0.131 A 
ATOM     62  C   UNL A   1      46.267  32.138  27.259  1.00  0.00     0.055 A 
ATOM     63  C   UNL A   1      43.903  31.858  26.881  1.00  0.00     0.041 A 
ATOM     64  F   UNL A   1      42.663  30.430  28.248  1.00  0.00    -0.206 F 
ATOM     65  C   UNL A   1      45.110  32.445  26.530  1.00  0.00     0.022 A 
BRANCH  62  66
ATOM     66  S   UNL A   1      47.829  32.944  26.772  1.00  0.00     0.124 S 
ATOM     67  O   UNL A   1      47.435  33.793  25.654  1.00  0.00    -0.237 OA
ATOM     68  O   UNL A   1      48.230  33.635  27.994  1.00  0.00    -0.237 OA
ATOM     69  O   UNL A   1      48.695  31.820  26.405  1.00  0.00    -0.744 OA
ENDBRANCH  62  66
ENDBRANCH  36  59
ENDBRANCH  10  11
ENDBRANCH   3   5
ENDBRANCH   2   3
ENDBRANCH   1   2
BRANCH   1  70
ATOM     70  C   UNL A   1      32.989  35.225  28.919  1.00  0.00     0.275 C 
BRANCH  70  71
ATOM     71  O   UNL A   1      33.891  35.495  30.008  1.00  0.00    -0.457 OA
BRANCH  71  72
ATOM     72  C   UNL A   1      33.501  35.059  31.242  1.00  0.00     0.358 C 
ATOM     73  O   UNL A   1      32.443  35.378  31.791  1.00  0.00    -0.244 OA
BRANCH  72  74
ATOM     74  C   UNL A   1      34.552  34.310  31.932  1.00  0.00     0.170 A 
ATOM     75  C   UNL A   1      34.544  32.903  32.075  1.00  0.00     0.058 A 
ATOM     76  N   UNL A   1      35.662  34.855  32.484  1.00  0.00    -0.159 NA
ATOM     77  C   UNL A   1      35.772  32.595  32.591  1.00  0.00     0.118 A 
ATOM     78  N   UNL A   1      36.448  33.784  32.788  1.00  0.00    -0.222 N 
BRANCH  78  79
ATOM     79  C   UNL A   1      37.789  33.858  33.284  1.00  0.00     0.158 A 
ATOM     80  C   UNL A   1      38.856  33.405  32.526  1.00  0.00     0.078 A 
ATOM     81  N   UNL A   1      37.946  34.514  34.459  1.00  0.00    -0.209 NA
ATOM     82  C   UNL A   1      40.101  33.856  32.931  1.00  0.00     0.077 A 
ATOM     83  C   UNL A   1      39.206  34.742  34.841  1.00  0.00     0.165 A 
ATOM     84  N   UNL A   1      40.284  34.474  34.108  1.00  0.00    -0.228 NA
BRANCH  82  85
ATOM     85  C   UNL A   1      41.303  33.939  32.097  1.00  0.00     0.003 A 
ATOM     86  C   UNL A   1      41.291  33.302  30.849  1.00  0.00     0.030 A 
ATOM     87  C   UNL A   1      42.356  34.805  32.356  1.00  0.00     0.030 A 
ATOM     88  C   UNL A   1      42.302  33.521  29.933  1.00  0.00     0.111 A 
ATOM     89  C   UNL A   1      43.306  34.999  31.359  1.00  0.00     0.111 A 
ATOM     90  N   UNL A   1      43.307  34.376  30.161  1.00  0.00    -0.265 NA
ENDBRANCH  82  85
BRANCH  83  91
ATOM     91  C   UNL A   1      39.468  35.010  36.239  1.00  0.00     0.055 A 
ATOM     92  C   UNL A   1      40.136  36.194  36.597  1.00  0.00     0.015 A 
ATOM     93  C   UNL A   1      38.944  34.206  37.250  1.00  0.00     0.134 A 
ATOM     94  C   UNL A   1      40.245  36.575  37.933  1.00  0.00     0.001 A 
ATOM     95  C   UNL A   1      39.056  34.576  38.589  1.00  0.00     0.040 A 
ATOM     96  F   UNL A   1      38.304  33.065  36.953  1.00  0.00    -0.206 F 
ATOM     97  C   UNL A   1      39.697  35.768  38.928  1.00  0.00     0.003 A 
ENDBRANCH  83  91
ENDBRANCH  78  79
ENDBRANCH  72  74
ENDBRANCH  71  72
ENDBRANCH  70  71
ENDBRANCH   1  70
TORSDOF 17
ENDMDL
MODEL 3
REMARK VINA RESULT:     -11.3      1.446      1.803
REMARK SMILES O=C(OCCOC(=O)c1ccn(-c2cc(-c3ccncc3)nc(-c3ccccc3F)n2)n1)c1ccc(-c2c3nc(c(-c4cc(S(=O)(=O)[O-])ccc4F)c4ccc([nH]4)c(-c4cc(S(=O)(=O)[O-])ccc4F)c4nc(c(-c5cc(S(=O)(=O)[O-])ccc5F)c5ccc2[nH]5)C=C4)C=C3)cc1
REMARK SMILES IDX 4 1 3 2 2 3 1 4 33 5 34 6 95 7 35 8 94 9 36 10 37 11 38 12
REMARK SMILES IDX 88 13 39 14 93 15 87 16 89 17 40 18 92 19 86 20 85 21 41 23
REMARK SMILES IDX 73 24 53 25 72 26 54 27 57 28 71 29 90 30 55 31 56 32 70 34
REMARK SMILES IDX 91 35 58 36 42 37 43 38 51 39 44 40 50 41 52 42 49 43 45 44
REMARK SMILES IDX 46 45 47 46 48 47 74 48 75 49 83 50 76 51 82 52 84 53 81 54
REMARK SMILES IDX 77 55 78 56 79 57 80 58 59 59 60 60 68 61 61 62 67 63 69 64
REMARK SMILES IDX 66 65 62 66 63 67 64 68 65 69 5 70 6 71 7 72 8 73 9 74 10 75
REMARK SMILES IDX 32 76 11 77 12 78 13 79 14 80 31 81 15 82 23 83 22 84 16 85
REMARK SMILES IDX 17 86 21 87 18 88 20 89 19 90 24 91 25 92 29 93 26 94 28 95
REMARK SMILES IDX 30 96 27 97
REMARK H PARENT 89 22 57 33
REMARK Flexibility Score: inf
ROOT
ATOM      1  C   UNL A   1      34.308  33.921  28.337  1.00  0.00     0.275 C 
ENDROOT
BRANCH   1   2
ATOM      2  O   UNL A   1      35.186  33.046  27.606  1.00  0.00    -0.458 OA
BRANCH   2   3
ATOM      3  C   UNL A   1      35.063  31.703  27.694  1.00  0.00     0.338 C 
ATOM      4  O   UNL A   1      34.096  31.106  27.239  1.00  0.00    -0.246 OA
BRANCH   3   5
ATOM      5  C   UNL A   1      36.288  30.984  28.139  1.00  0.00     0.060 A 
ATOM      6  C   UNL A   1      36.513  29.613  27.963  1.00  0.00     0.016 A 
ATOM      7  C   UNL A   1      37.278  31.766  28.741  1.00  0.00     0.016 A 
ATOM      8  C   UNL A   1      37.680  29.024  28.444  1.00  0.00     0.010 A 
ATOM      9  C   UNL A   1      38.451  31.183  29.199  1.00  0.00     0.010 A 
ATOM     10  C   UNL A   1      38.650  29.807  29.077  1.00  0.00    -0.014 A 
BRANCH  10  11
ATOM     11  C   UNL A   1      39.941  29.206  29.454  1.00  0.00     0.031 A 
ATOM     12  C   UNL A   1      40.226  29.183  30.932  1.00  0.00     0.074 A 
ATOM     13  C   UNL A   1      40.730  28.585  28.537  1.00  0.00     0.049 A 
ATOM     14  N   UNL A   1      41.360  29.364  31.513  1.00  0.00    -0.248 NA
ATOM     15  C   UNL A   1      39.141  28.979  31.913  1.00  0.00     0.031 C 
ATOM     16  C   UNL A   1      40.440  28.422  27.103  1.00  0.00     0.029 A 
ATOM     17  N   UNL A   1      41.903  27.885  28.670  1.00  0.00    -0.354 N 
ATOM     18  C   UNL A   1      41.189  29.125  32.879  1.00  0.00     0.074 A 
ATOM     19  C   UNL A   1      39.792  28.869  33.074  1.00  0.00     0.031 C 
ATOM     20  C   UNL A   1      41.263  27.497  26.562  1.00  0.00     0.029 A 
ATOM     21  C   UNL A   1      42.255  27.115  27.551  1.00  0.00     0.049 A 
ATOM     22  H   UNL A   1      42.453  27.919  29.486  1.00  0.00     0.167 HD
ATOM     23  C   UNL A   1      42.278  29.064  33.689  1.00  0.00     0.034 A 
ATOM     24  C   UNL A   1      43.314  26.270  27.393  1.00  0.00     0.034 A 
ATOM     25  C   UNL A   1      43.353  29.816  33.092  1.00  0.00     0.049 A 
ATOM     26  C   UNL A   1      44.375  26.786  28.286  1.00  0.00     0.074 A 
ATOM     27  C   UNL A   1      43.648  31.158  33.016  1.00  0.00     0.029 A 
ATOM     28  N   UNL A   1      44.051  29.173  32.099  1.00  0.00    -0.354 N 
ATOM     29  N   UNL A   1      44.873  27.989  28.172  1.00  0.00    -0.248 NA
ATOM     30  C   UNL A   1      44.655  26.118  29.548  1.00  0.00     0.031 C 
ATOM     31  C   UNL A   1      44.350  31.330  31.792  1.00  0.00     0.029 A 
ATOM     32  C   UNL A   1      44.549  30.083  31.198  1.00  0.00     0.049 A 
ATOM     33  H   UNL A   1      44.175  28.198  32.041  1.00  0.00     0.167 HD
ATOM     34  C   UNL A   1      45.088  28.387  29.474  1.00  0.00     0.074 A 
ATOM     35  C   UNL A   1      45.104  27.158  30.256  1.00  0.00     0.031 C 
ATOM     36  C   UNL A   1      44.926  29.686  29.854  1.00  0.00     0.034 A 
BRANCH  23  37
ATOM     37  C   UNL A   1      42.553  28.059  34.784  1.00  0.00     0.023 A 
ATOM     38  C   UNL A   1      43.234  26.881  34.411  1.00  0.00     0.031 A 
ATOM     39  C   UNL A   1      41.900  28.019  36.028  1.00  0.00     0.131 A 
ATOM     40  C   UNL A   1      43.111  25.698  35.159  1.00  0.00     0.055 A 
ATOM     41  C   UNL A   1      41.747  26.832  36.758  1.00  0.00     0.041 A 
ATOM     42  F   UNL A   1      41.355  29.115  36.566  1.00  0.00    -0.206 F 
ATOM     43  C   UNL A   1      42.323  25.652  36.305  1.00  0.00     0.022 A 
BRANCH  40  44
ATOM     44  S   UNL A   1      43.944  24.206  34.556  1.00  0.00     0.124 S 
ATOM     45  O   UNL A   1      44.571  24.679  33.327  1.00  0.00    -0.237 OA
ATOM     46  O   UNL A   1      44.846  23.905  35.663  1.00  0.00    -0.237 OA
ATOM     47  O   UNL A   1      42.849  23.255  34.374  1.00  0.00    -0.744 OA
ENDBRANCH  40  44
ENDBRANCH  23  37
BRANCH  24  48
ATOM     48  C   UNL A   1      43.397  24.949  26.679  1.00  0.00     0.023 A 
ATOM     49  C   UNL A   1      42.572  23.841  27.006  1.00  0.00     0.031 A 
ATOM     50  C   UNL A   1      44.108  24.846  25.464  1.00  0.00     0.131 A 
ATOM     51  C   UNL A   1      42.449  22.739  26.118  1.00  0.00     0.055 A 
ATOM     52  C   UNL A   1      43.963  23.769  24.580  1.00  0.00     0.041 A 
ATOM     53  F   UNL A   1      44.894  25.843  25.029  1.00  0.00    -0.206 F 
ATOM     54  C   UNL A   1      43.118  22.719  24.894  1.00  0.00     0.022 A 
BRANCH  51  55
ATOM     55  S   UNL A   1      41.328  21.342  26.483  1.00  0.00     0.124 S 
ATOM     56  O   UNL A   1      42.004  20.228  25.827  1.00  0.00    -0.237 OA
ATOM     57  O   UNL A   1      41.303  21.316  27.939  1.00  0.00    -0.237 OA
ATOM     58  O   UNL A   1      40.066  21.744  25.857  1.00  0.00    -0.744 OA
ENDBRANCH  51  55
ENDBRANCH  24  48
BRANCH  36  59
ATOM     59  C   UNL A   1      45.074  30.762  28.808  1.00  0.00     0.023 A 
ATOM     60  C   UNL A   1      46.279  31.374  28.400  1.00  0.00     0.031 A 
ATOM     61  C   UNL A   1      43.893  31.125  28.134  1.00  0.00     0.131 A 
ATOM     62  C   UNL A   1      46.262  32.312  27.345  1.00  0.00     0.055 A 
ATOM     63  C   UNL A   1      43.884  32.029  27.078  1.00  0.00     0.041 A 
ATOM     64  F   UNL A   1      42.718  30.567  28.474  1.00  0.00    -0.206 F 
ATOM     65  C   UNL A   1      45.070  32.629  26.681  1.00  0.00     0.022 A 
BRANCH  62  66
ATOM     66  S   UNL A   1      47.795  33.136  26.800  1.00  0.00     0.124 S 
ATOM     67  O   UNL A   1      48.206  33.894  27.976  1.00  0.00    -0.237 OA
ATOM     68  O   UNL A   1      48.651  32.014  26.426  1.00  0.00    -0.237 OA
ATOM     69  O   UNL A   1      47.358  33.961  25.671  1.00  0.00    -0.744 OA
ENDBRANCH  62  66
ENDBRANCH  36  59
ENDBRANCH  10  11
ENDBRANCH   3   5
ENDBRANCH   2   3
ENDBRANCH   1   2
BRANCH   1  70
ATOM     70  C   UNL A   1      34.443  33.916  29.861  1.00  0.00     0.275 C 
BRANCH  70  71
ATOM     71  O   UNL A   1      33.338  34.604  30.476  1.00  0.00    -0.457 OA
BRANCH  71  72
ATOM     72  C   UNL A   1      33.648  35.471  31.484  1.00  0.00     0.358 C 
ATOM     73  O   UNL A   1      33.333  36.664  31.498  1.00  0.00    -0.244 OA
BRANCH  72  74
ATOM     74  C   UNL A   1      34.555  34.885  32.472  1.00  0.00     0.170 A 
ATOM     75  C   UNL A   1      34.183  33.842  33.351  1.00  0.00     0.058 A 
ATOM     76  N   UNL A   1      35.850  35.238  32.645  1.00  0.00    -0.159 NA
ATOM     77  C   UNL A   1      35.348  33.459  33.955  1.00  0.00     0.118 A 
ATOM     78  N   UNL A   1      36.350  34.284  33.481  1.00  0.00    -0.222 N 
BRANCH  78  79
ATOM     79  C   UNL A   1      37.724  34.158  33.863  1.00  0.00     0.158 A 
ATOM     80  C   UNL A   1      38.101  34.178  35.196  1.00  0.00     0.078 A 
ATOM     81  N   UNL A   1      38.590  33.884  32.857  1.00  0.00    -0.209 NA
ATOM     82  C   UNL A   1      39.367  33.685  35.459  1.00  0.00     0.077 A 
ATOM     83  C   UNL A   1      39.842  33.591  33.222  1.00  0.00     0.165 A 
ATOM     84  N   UNL A   1      40.253  33.444  34.480  1.00  0.00    -0.228 NA
BRANCH  82  85
ATOM     85  C   UNL A   1      39.839  33.158  36.742  1.00  0.00     0.003 A 
ATOM     86  C   UNL A   1      41.149  32.666  36.816  1.00  0.00     0.030 A 
ATOM     87  C   UNL A   1      39.161  33.336  37.940  1.00  0.00     0.030 A 
ATOM     88  C   UNL A   1      41.722  32.357  38.035  1.00  0.00     0.111 A 
ATOM     89  C   UNL A   1      39.830  33.040  39.123  1.00  0.00     0.111 A 
ATOM     90  N   UNL A   1      41.087  32.552  39.199  1.00  0.00    -0.265 NA
ENDBRANCH  82  85
BRANCH  83  91
ATOM     91  C   UNL A   1      40.901  33.734  32.246  1.00  0.00     0.055 A 
ATOM     92  C   UNL A   1      40.866  32.954  31.078  1.00  0.00     0.015 A 
ATOM     93  C   UNL A   1      41.869  34.731  32.356  1.00  0.00     0.134 A 
ATOM     94  C   UNL A   1      41.761  33.191  30.036  1.00  0.00     0.001 A 
ATOM     95  C   UNL A   1      42.772  34.968  31.322  1.00  0.00     0.040 A 
ATOM     96  F   UNL A   1      41.941  35.495  33.456  1.00  0.00    -0.206 F 
ATOM     97  C   UNL A   1      42.709  34.204  30.157  1.00  0.00     0.003 A 
ENDBRANCH  83  91
ENDBRANCH  78  79
ENDBRANCH  72  74
ENDBRANCH  71  72
ENDBRANCH  70  71
ENDBRANCH   1  70
TORSDOF 17
ENDMDL
