MODEL 1
REMARK VINA RESULT:     -11.1      0.000      0.000
REMARK SMILES C[C@H]1[C@H](C)CC[C@@]2(C(=O)OCCOC(=O)c3ccc(-c4c5nc(c(-c6cc(S(=O)(=O)[O-])ccc6F)c6ccc([nH]6)c(-c6cc(S(=O)(=O)[O-])ccc6F)c6nc(c(-c7cc(S(=O)(=O)[O-])ccc7F)c7ccc4[nH]7)C=C6)C=C5)cc3)CC[C@@]3(C)C(=CC[C@@H]4[C@@]5(C)CC[C@H](O)C(C)(C)[C@@H]5CC[C@]43C)[C@H]12
REMARK SMILES IDX 12 1 11 2 10 3 8 4 9 5 7 6 1 7 2 8 3 9 101 10 4 11 5 12
REMARK SMILES IDX 83 13 6 14 79 15 81 16 84 17 80 18 82 19 99 20 85 21 86 22
REMARK SMILES IDX 98 23 100 24 87 25 97 26 88 27 89 28 96 29 90 30 93 31 91 32
REMARK SMILES IDX 94 33 95 34 92 35 13 37 14 38 15 39 16 40 17 41 78 42 18 43
REMARK SMILES IDX 77 44 19 45 20 46 21 47 71 48 22 49 76 50 70 51 72 52 23 53
REMARK SMILES IDX 75 54 69 55 68 56 24 58 56 59 36 60 55 61 37 62 40 63 54 64
REMARK SMILES IDX 73 65 38 66 39 67 53 69 74 70 41 71 25 72 26 73 34 74 27 75
REMARK SMILES IDX 33 76 35 77 32 78 28 79 29 80 30 81 31 82 57 83 58 84 66 85
REMARK SMILES IDX 59 86 65 87 67 88 64 89 60 90 61 91 62 92 63 93 42 94 43 95
REMARK SMILES IDX 51 96 44 97 50 98 52 99 49 100 45 101 46 102 47 103 48 104
REMARK H PARENT 92 36 72 57 40 68
REMARK Flexibility Score: inf
ROOT
ATOM      1  C   UNL A   1      45.625  29.543  28.399  1.00  0.00     0.275 C 
ENDROOT
BRANCH   1   2
ATOM      2  C   UNL A   1      44.764  29.971  29.600  1.00  0.00     0.274 C 
BRANCH   2   3
ATOM      3  O   UNL A   1      43.382  29.551  29.613  1.00  0.00    -0.462 OA
BRANCH   3   4
ATOM      4  C   UNL A   1      42.499  30.571  29.784  1.00  0.00     0.312 C 
ATOM      5  O   UNL A   1      42.616  31.609  29.167  1.00  0.00    -0.252 OA
BRANCH   4   6
ATOM      6  C   UNL A   1      41.503  30.410  30.955  1.00  0.00     0.075 C 
ATOM      7  C   UNL A   1      38.109  31.797  29.547  1.00  0.00     0.008 C 
ATOM      8  C   UNL A   1      39.597  31.809  29.932  1.00  0.00    -0.003 C 
ATOM      9  C   UNL A   1      39.837  32.889  31.040  1.00  0.00    -0.011 C 
ATOM     10  C   UNL A   1      40.065  30.365  30.360  1.00  0.00     0.036 C 
ATOM     11  C   UNL A   1      39.578  34.318  30.534  1.00  0.00     0.008 C 
ATOM     12  C   UNL A   1      41.249  32.878  31.628  1.00  0.00     0.005 C 
ATOM     13  C   UNL A   1      40.086  29.208  29.294  1.00  0.00    -0.063 C 
ATOM     14  C   UNL A   1      41.707  31.492  32.028  1.00  0.00     0.020 C 
ATOM     15  C   UNL A   1      41.730  29.052  31.679  1.00  0.00     0.020 C 
ATOM     16  C   UNL A   1      40.398  27.753  29.810  1.00  0.00    -0.006 C 
ATOM     17  C   UNL A   1      40.118  29.492  27.975  1.00  0.00    -0.027 C 
ATOM     18  C   UNL A   1      41.607  27.803  30.800  1.00  0.00     0.013 C 
ATOM     19  C   UNL A   1      39.182  27.270  30.643  1.00  0.00     0.017 C 
ATOM     20  C   UNL A   1      40.701  26.678  28.571  1.00  0.00    -0.020 C 
ATOM     21  C   UNL A   1      40.679  28.585  26.914  1.00  0.00     0.032 C 
ATOM     22  C   UNL A   1      41.544  27.439  27.488  1.00  0.00     0.006 C 
ATOM     23  C   UNL A   1      41.490  25.424  29.038  1.00  0.00     0.008 C 
ATOM     24  C   UNL A   1      39.367  26.154  27.977  1.00  0.00     0.012 C 
ATOM     25  C   UNL A   1      42.390  26.622  26.406  1.00  0.00    -0.025 C 
ATOM     26  C   UNL A   1      42.086  24.570  27.907  1.00  0.00     0.005 C 
ATOM     27  C   UNL A   1      41.514  26.225  25.205  1.00  0.00     0.012 C 
ATOM     28  C   UNL A   1      43.531  27.553  25.875  1.00  0.00     0.010 C 
ATOM     29  C   UNL A   1      43.099  25.406  27.106  1.00  0.00     0.003 C 
ATOM     30  C   UNL A   1      44.600  26.856  25.031  1.00  0.00     0.033 C 
ATOM     31  C   UNL A   1      44.135  24.597  26.227  1.00  0.00    -0.006 C 
ATOM     32  C   UNL A   1      45.193  25.609  25.686  1.00  0.00     0.120 C 
ATOM     33  C   UNL A   1      43.503  23.779  25.084  1.00  0.00     0.014 C 
ATOM     34  C   UNL A   1      44.887  23.552  27.101  1.00  0.00     0.014 C 
BRANCH  32  35
ATOM     35  O   UNL A   1      46.105  25.004  24.767  1.00  0.00    -0.393 OA
ATOM     36  H   UNL A   1      45.788  24.117  24.535  1.00  0.00     0.210 HD
ENDBRANCH  32  35
ENDBRANCH   4   6
ENDBRANCH   3   4
ENDBRANCH   2   3
ENDBRANCH   1   2
BRANCH   1  37
ATOM     37  O   UNL A   1      45.051  29.858  27.120  1.00  0.00    -0.458 OA
BRANCH  37  38
ATOM     38  C   UNL A   1      45.828  30.635  26.313  1.00  0.00     0.338 C 
ATOM     39  O   UNL A   1      46.376  30.262  25.286  1.00  0.00    -0.246 OA
BRANCH  38  40
ATOM     40  C   UNL A   1      45.717  32.066  26.717  1.00  0.00     0.060 A 
ATOM     41  C   UNL A   1      46.880  32.739  27.133  1.00  0.00     0.016 A 
ATOM     42  C   UNL A   1      44.528  32.777  26.586  1.00  0.00     0.016 A 
ATOM     43  C   UNL A   1      46.857  34.111  27.425  1.00  0.00     0.010 A 
ATOM     44  C   UNL A   1      44.510  34.145  26.875  1.00  0.00     0.010 A 
ATOM     45  C   UNL A   1      45.661  34.823  27.323  1.00  0.00    -0.014 A 
BRANCH  45  46
ATOM     46  C   UNL A   1      45.472  36.141  27.997  1.00  0.00     0.031 A 
ATOM     47  C   UNL A   1      44.887  36.091  29.384  1.00  0.00     0.074 A 
ATOM     48  C   UNL A   1      45.714  37.335  27.420  1.00  0.00     0.049 A 
ATOM     49  N   UNL A   1      44.512  37.062  30.174  1.00  0.00    -0.248 NA
ATOM     50  C   UNL A   1      44.658  34.743  29.935  1.00  0.00     0.031 C 
ATOM     51  C   UNL A   1      46.282  37.547  26.095  1.00  0.00     0.029 A 
ATOM     52  N   UNL A   1      45.471  38.611  27.875  1.00  0.00    -0.354 N 
ATOM     53  C   UNL A   1      44.019  36.434  31.312  1.00  0.00     0.074 A 
ATOM     54  C   UNL A   1      43.997  35.016  31.042  1.00  0.00     0.031 C 
ATOM     55  C   UNL A   1      46.272  38.862  25.807  1.00  0.00     0.029 A 
ATOM     56  C   UNL A   1      45.736  39.596  26.950  1.00  0.00     0.049 A 
ATOM     57  H   UNL A   1      45.138  38.802  28.782  1.00  0.00     0.167 HD
ATOM     58  C   UNL A   1      43.692  36.973  32.511  1.00  0.00     0.034 A 
ATOM     59  C   UNL A   1      45.575  40.934  27.028  1.00  0.00     0.034 A 
ATOM     60  C   UNL A   1      43.715  38.383  32.774  1.00  0.00     0.049 A 
ATOM     61  C   UNL A   1      45.122  41.535  28.340  1.00  0.00     0.074 A 
ATOM     62  C   UNL A   1      43.443  39.050  33.953  1.00  0.00     0.029 A 
ATOM     63  N   UNL A   1      44.019  39.351  31.825  1.00  0.00    -0.354 N 
ATOM     64  N   UNL A   1      44.770  40.931  29.452  1.00  0.00    -0.248 NA
ATOM     65  C   UNL A   1      45.101  43.003  28.423  1.00  0.00     0.031 C 
ATOM     66  C   UNL A   1      43.534  40.425  33.704  1.00  0.00     0.029 A 
ATOM     67  C   UNL A   1      43.923  40.613  32.387  1.00  0.00     0.049 A 
ATOM     68  H   UNL A   1      44.267  39.167  30.890  1.00  0.00     0.167 HD
ATOM     69  C   UNL A   1      44.552  41.944  30.384  1.00  0.00     0.074 A 
ATOM     70  C   UNL A   1      44.806  43.195  29.700  1.00  0.00     0.031 C 
ATOM     71  C   UNL A   1      44.193  41.849  31.691  1.00  0.00     0.034 A 
BRANCH  58  72
ATOM     72  C   UNL A   1      43.303  35.993  33.591  1.00  0.00     0.023 A 
ATOM     73  C   UNL A   1      41.947  35.729  33.867  1.00  0.00     0.031 A 
ATOM     74  C   UNL A   1      44.270  35.433  34.438  1.00  0.00     0.131 A 
ATOM     75  C   UNL A   1      41.592  35.045  35.037  1.00  0.00     0.055 A 
ATOM     76  C   UNL A   1      43.912  34.661  35.545  1.00  0.00     0.041 A 
ATOM     77  F   UNL A   1      45.576  35.666  34.236  1.00  0.00    -0.206 F 
ATOM     78  C   UNL A   1      42.566  34.485  35.866  1.00  0.00     0.022 A 
BRANCH  75  79
ATOM     79  S   UNL A   1      39.856  35.082  35.563  1.00  0.00     0.124 S 
ATOM     80  O   UNL A   1      39.677  36.498  35.883  1.00  0.00    -0.237 OA
ATOM     81  O   UNL A   1      39.154  34.602  34.379  1.00  0.00    -0.237 OA
ATOM     82  O   UNL A   1      39.827  34.182  36.714  1.00  0.00    -0.744 OA
ENDBRANCH  75  79
ENDBRANCH  58  72
BRANCH  59  83
ATOM     83  C   UNL A   1      45.873  41.822  25.864  1.00  0.00     0.023 A 
ATOM     84  C   UNL A   1      44.931  42.022  24.839  1.00  0.00     0.031 A 
ATOM     85  C   UNL A   1      47.142  42.408  25.711  1.00  0.00     0.131 A 
ATOM     86  C   UNL A   1      45.289  42.733  23.682  1.00  0.00     0.055 A 
ATOM     87  C   UNL A   1      47.481  43.149  24.575  1.00  0.00     0.041 A 
ATOM     88  F   UNL A   1      48.080  42.253  26.659  1.00  0.00    -0.206 F 
ATOM     89  C   UNL A   1      46.557  43.303  23.544  1.00  0.00     0.022 A 
BRANCH  86  90
ATOM     90  S   UNL A   1      44.098  42.832  22.315  1.00  0.00     0.124 S 
ATOM     91  O   UNL A   1      42.935  42.161  22.884  1.00  0.00    -0.237 OA
ATOM     92  O   UNL A   1      43.978  44.274  22.124  1.00  0.00    -0.237 OA
ATOM     93  O   UNL A   1      44.764  42.116  21.229  1.00  0.00    -0.744 OA
ENDBRANCH  86  90
ENDBRANCH  59  83
BRANCH  71  94
ATOM     94  C   UNL A   1      44.131  43.132  32.482  1.00  0.00     0.023 A 
ATOM     95  C   UNL A   1      45.216  43.588  33.248  1.00  0.00     0.031 A 
ATOM     96  C   UNL A   1      42.955  43.906  32.471  1.00  0.00     0.131 A 
ATOM     97  C   UNL A   1      45.084  44.751  34.022  1.00  0.00     0.055 A 
ATOM     98  C   UNL A   1      42.852  45.096  33.191  1.00  0.00     0.041 A 
ATOM     99  F   UNL A   1      41.886  43.517  31.757  1.00  0.00    -0.206 F 
ATOM    100  C   UNL A   1      43.916  45.517  33.984  1.00  0.00     0.022 A 
BRANCH  97 101
ATOM    101  S   UNL A   1      46.424  45.194  35.159  1.00  0.00     0.124 S 
ATOM    102  O   UNL A   1      46.118  44.370  36.325  1.00  0.00    -0.237 OA
ATOM    103  O   UNL A   1      47.613  44.812  34.404  1.00  0.00    -0.237 OA
ATOM    104  O   UNL A   1      46.250  46.632  35.353  1.00  0.00    -0.744 OA
ENDBRANCH  97 101
ENDBRANCH  71  94
ENDBRANCH  45  46
ENDBRANCH  38  40
ENDBRANCH  37  38
ENDBRANCH   1  37
TORSDOF 15
ENDMDL
MODEL 2
REMARK VINA RESULT:     -10.7      6.341     11.746
REMARK SMILES C[C@H]1[C@H](C)CC[C@@]2(C(=O)OCCOC(=O)c3ccc(-c4c5nc(c(-c6cc(S(=O)(=O)[O-])ccc6F)c6ccc([nH]6)c(-c6cc(S(=O)(=O)[O-])ccc6F)c6nc(c(-c7cc(S(=O)(=O)[O-])ccc7F)c7ccc4[nH]7)C=C6)C=C5)cc3)CC[C@@]3(C)C(=CC[C@@H]4[C@@]5(C)CC[C@H](O)C(C)(C)[C@@H]5CC[C@]43C)[C@H]12
REMARK SMILES IDX 12 1 11 2 10 3 8 4 9 5 7 6 1 7 2 8 3 9 101 10 4 11 5 12
REMARK SMILES IDX 83 13 6 14 79 15 81 16 84 17 80 18 82 19 99 20 85 21 86 22
REMARK SMILES IDX 98 23 100 24 87 25 97 26 88 27 89 28 96 29 90 30 93 31 91 32
REMARK SMILES IDX 94 33 95 34 92 35 13 37 14 38 15 39 16 40 17 41 78 42 18 43
REMARK SMILES IDX 77 44 19 45 20 46 21 47 71 48 22 49 76 50 70 51 72 52 23 53
REMARK SMILES IDX 75 54 69 55 68 56 24 58 56 59 36 60 55 61 37 62 40 63 54 64
REMARK SMILES IDX 73 65 38 66 39 67 53 69 74 70 41 71 25 72 26 73 34 74 27 75
REMARK SMILES IDX 33 76 35 77 32 78 28 79 29 80 30 81 31 82 57 83 58 84 66 85
REMARK SMILES IDX 59 86 65 87 67 88 64 89 60 90 61 91 62 92 63 93 42 94 43 95
REMARK SMILES IDX 51 96 44 97 50 98 52 99 49 100 45 101 46 102 47 103 48 104
REMARK H PARENT 92 36 72 57 40 68
REMARK Flexibility Score: inf
ROOT
ATOM      1  C   UNL A   1      36.870  22.407  26.622  1.00  0.00     0.275 C 
ENDROOT
BRANCH   1   2
ATOM      2  C   UNL A   1      35.719  23.409  26.821  1.00  0.00     0.274 C 
BRANCH   2   3
ATOM      3  O   UNL A   1      34.596  23.320  25.917  1.00  0.00    -0.462 OA
BRANCH   3   4
ATOM      4  C   UNL A   1      34.200  22.045  25.655  1.00  0.00     0.312 C 
ATOM      5  O   UNL A   1      33.624  21.386  26.495  1.00  0.00    -0.252 OA
BRANCH   4   6
ATOM      6  C   UNL A   1      34.727  21.434  24.337  1.00  0.00     0.075 C 
ATOM      7  C   UNL A   1      31.708  19.331  22.963  1.00  0.00     0.008 C 
ATOM      8  C   UNL A   1      32.781  19.787  23.964  1.00  0.00    -0.003 C 
ATOM      9  C   UNL A   1      33.771  18.605  24.236  1.00  0.00    -0.011 C 
ATOM     10  C   UNL A   1      33.499  21.091  23.443  1.00  0.00     0.036 C 
ATOM     11  C   UNL A   1      33.092  17.419  24.942  1.00  0.00     0.008 C 
ATOM     12  C   UNL A   1      34.985  18.989  25.085  1.00  0.00     0.005 C 
ATOM     13  C   UNL A   1      32.682  22.429  23.317  1.00  0.00    -0.063 C 
ATOM     14  C   UNL A   1      35.668  20.247  24.597  1.00  0.00     0.020 C 
ATOM     15  C   UNL A   1      35.573  22.478  23.553  1.00  0.00     0.020 C 
ATOM     16  C   UNL A   1      33.398  23.655  22.636  1.00  0.00    -0.006 C 
ATOM     17  C   UNL A   1      31.537  22.601  24.012  1.00  0.00    -0.027 C 
ATOM     18  C   UNL A   1      34.852  23.782  23.196  1.00  0.00     0.013 C 
ATOM     19  C   UNL A   1      33.549  23.340  21.124  1.00  0.00     0.017 C 
ATOM     20  C   UNL A   1      32.566  25.086  22.837  1.00  0.00    -0.020 C 
ATOM     21  C   UNL A   1      30.973  23.934  24.424  1.00  0.00     0.032 C 
ATOM     22  C   UNL A   1      31.992  25.090  24.298  1.00  0.00     0.006 C 
ATOM     23  C   UNL A   1      33.462  26.340  22.642  1.00  0.00     0.008 C 
ATOM     24  C   UNL A   1      31.429  25.199  21.788  1.00  0.00     0.012 C 
ATOM     25  C   UNL A   1      31.546  26.463  24.984  1.00  0.00    -0.025 C 
ATOM     26  C   UNL A   1      32.852  27.662  23.137  1.00  0.00     0.005 C 
ATOM     27  C   UNL A   1      30.103  26.832  24.594  1.00  0.00     0.012 C 
ATOM     28  C   UNL A   1      31.582  26.267  26.536  1.00  0.00     0.010 C 
ATOM     29  C   UNL A   1      32.600  27.581  24.652  1.00  0.00     0.003 C 
ATOM     30  C   UNL A   1      31.443  27.550  27.358  1.00  0.00     0.033 C 
ATOM     31  C   UNL A   1      32.423  28.959  25.407  1.00  0.00    -0.006 C 
ATOM     32  C   UNL A   1      32.403  28.664  26.940  1.00  0.00     0.120 C 
ATOM     33  C   UNL A   1      31.186  29.770  24.975  1.00  0.00     0.014 C 
ATOM     34  C   UNL A   1      33.635  29.892  25.123  1.00  0.00     0.014 C 
BRANCH  32  35
ATOM     35  O   UNL A   1      32.114  29.828  27.715  1.00  0.00    -0.393 OA
ATOM     36  H   UNL A   1      31.920  29.567  28.629  1.00  0.00     0.210 HD
ENDBRANCH  32  35
ENDBRANCH   4   6
ENDBRANCH   3   4
ENDBRANCH   2   3
ENDBRANCH   1   2
BRANCH   1  37
ATOM     37  O   UNL A   1      37.956  22.907  25.825  1.00  0.00    -0.458 OA
BRANCH  37  38
ATOM     38  C   UNL A   1      39.192  22.771  26.381  1.00  0.00     0.338 C 
ATOM     39  O   UNL A   1      39.877  21.759  26.346  1.00  0.00    -0.246 OA
BRANCH  38  40
ATOM     40  C   UNL A   1      39.706  24.099  26.823  1.00  0.00     0.060 A 
ATOM     41  C   UNL A   1      39.703  24.398  28.196  1.00  0.00     0.016 A 
ATOM     42  C   UNL A   1      40.287  24.996  25.932  1.00  0.00     0.016 A 
ATOM     43  C   UNL A   1      40.268  25.588  28.681  1.00  0.00     0.010 A 
ATOM     44  C   UNL A   1      40.852  26.180  26.417  1.00  0.00     0.010 A 
ATOM     45  C   UNL A   1      40.827  26.504  27.788  1.00  0.00    -0.014 A 
BRANCH  45  46
ATOM     46  C   UNL A   1      41.059  27.928  28.169  1.00  0.00     0.031 A 
ATOM     47  C   UNL A   1      42.501  28.359  28.251  1.00  0.00     0.074 A 
ATOM     48  C   UNL A   1      40.086  28.797  28.508  1.00  0.00     0.049 A 
ATOM     49  N   UNL A   1      43.020  29.489  28.653  1.00  0.00    -0.248 NA
ATOM     50  C   UNL A   1      43.496  27.344  27.859  1.00  0.00     0.031 C 
ATOM     51  C   UNL A   1      38.653  28.534  28.473  1.00  0.00     0.029 A 
ATOM     52  N   UNL A   1      40.167  30.083  28.992  1.00  0.00    -0.354 N 
ATOM     53  C   UNL A   1      44.395  29.315  28.547  1.00  0.00     0.074 A 
ATOM     54  C   UNL A   1      44.625  27.933  28.198  1.00  0.00     0.031 C 
ATOM     55  C   UNL A   1      37.990  29.587  28.989  1.00  0.00     0.029 A 
ATOM     56  C   UNL A   1      38.952  30.624  29.352  1.00  0.00     0.049 A 
ATOM     57  H   UNL A   1      41.018  30.572  29.073  1.00  0.00     0.167 HD
ATOM     58  C   UNL A   1      45.381  30.237  28.642  1.00  0.00     0.034 A 
ATOM     59  C   UNL A   1      38.657  31.822  29.897  1.00  0.00     0.034 A 
ATOM     60  C   UNL A   1      45.147  31.610  28.990  1.00  0.00     0.049 A 
ATOM     61  C   UNL A   1      39.772  32.826  30.091  1.00  0.00     0.074 A 
ATOM     62  C   UNL A   1      46.053  32.648  29.083  1.00  0.00     0.029 A 
ATOM     63  N   UNL A   1      43.902  32.133  29.316  1.00  0.00    -0.354 N 
ATOM     64  N   UNL A   1      41.060  32.687  29.873  1.00  0.00    -0.248 NA
ATOM     65  C   UNL A   1      39.383  34.167  30.551  1.00  0.00     0.031 C 
ATOM     66  C   UNL A   1      45.365  33.788  29.515  1.00  0.00     0.029 A 
ATOM     67  C   UNL A   1      44.018  33.476  29.631  1.00  0.00     0.049 A 
ATOM     68  H   UNL A   1      43.060  31.623  29.323  1.00  0.00     0.167 HD
ATOM     69  C   UNL A   1      41.623  33.941  30.105  1.00  0.00     0.074 A 
ATOM     70  C   UNL A   1      40.535  34.818  30.484  1.00  0.00     0.031 C 
ATOM     71  C   UNL A   1      42.918  34.337  29.995  1.00  0.00     0.034 A 
BRANCH  58  72
ATOM     72  C   UNL A   1      46.777  29.745  28.348  1.00  0.00     0.023 A 
ATOM     73  C   UNL A   1      47.137  29.339  27.048  1.00  0.00     0.031 A 
ATOM     74  C   UNL A   1      47.703  29.545  29.382  1.00  0.00     0.131 A 
ATOM     75  C   UNL A   1      48.328  28.631  26.840  1.00  0.00     0.055 A 
ATOM     76  C   UNL A   1      48.936  28.932  29.148  1.00  0.00     0.041 A 
ATOM     77  F   UNL A   1      47.408  29.893  30.643  1.00  0.00    -0.206 F 
ATOM     78  C   UNL A   1      49.244  28.446  27.877  1.00  0.00     0.022 A 
BRANCH  75  79
ATOM     79  S   UNL A   1      48.557  27.778  25.256  1.00  0.00     0.124 S 
ATOM     80  O   UNL A   1      48.479  26.376  25.663  1.00  0.00    -0.237 OA
ATOM     81  O   UNL A   1      47.440  28.275  24.462  1.00  0.00    -0.237 OA
ATOM     82  O   UNL A   1      49.880  28.219  24.817  1.00  0.00    -0.744 OA
ENDBRANCH  75  79
ENDBRANCH  58  72
BRANCH  59  83
ATOM     83  C   UNL A   1      37.256  32.183  30.270  1.00  0.00     0.023 A 
ATOM     84  C   UNL A   1      36.316  32.558  29.293  1.00  0.00     0.031 A 
ATOM     85  C   UNL A   1      36.863  32.251  31.618  1.00  0.00     0.131 A 
ATOM     86  C   UNL A   1      35.054  33.041  29.679  1.00  0.00     0.055 A 
ATOM     87  C   UNL A   1      35.592  32.696  31.995  1.00  0.00     0.041 A 
ATOM     88  F   UNL A   1      37.718  31.903  32.592  1.00  0.00    -0.206 F 
ATOM     89  C   UNL A   1      34.684  33.109  31.024  1.00  0.00     0.022 A 
BRANCH  86  90
ATOM     90  S   UNL A   1      33.930  33.664  28.398  1.00  0.00     0.124 S 
ATOM     91  O   UNL A   1      32.967  34.422  29.188  1.00  0.00    -0.237 OA
ATOM     92  O   UNL A   1      34.832  34.448  27.560  1.00  0.00    -0.237 OA
ATOM     93  O   UNL A   1      33.410  32.447  27.778  1.00  0.00    -0.744 OA
ENDBRANCH  86  90
ENDBRANCH  59  83
BRANCH  71  94
ATOM     94  C   UNL A   1      43.211  35.801  30.215  1.00  0.00     0.023 A 
ATOM     95  C   UNL A   1      43.049  36.754  29.197  1.00  0.00     0.031 A 
ATOM     96  C   UNL A   1      43.669  36.242  31.470  1.00  0.00     0.131 A 
ATOM     97  C   UNL A   1      43.401  38.091  29.431  1.00  0.00     0.055 A 
ATOM     98  C   UNL A   1      43.956  37.585  31.717  1.00  0.00     0.041 A 
ATOM     99  F   UNL A   1      43.844  35.374  32.480  1.00  0.00    -0.206 F 
ATOM    100  C   UNL A   1      43.836  38.516  30.690  1.00  0.00     0.022 A 
BRANCH  97 101
ATOM    101  S   UNL A   1      43.380  39.252  28.038  1.00  0.00     0.124 S 
ATOM    102  O   UNL A   1      44.464  40.165  28.388  1.00  0.00    -0.237 OA
ATOM    103  O   UNL A   1      43.629  38.375  26.899  1.00  0.00    -0.237 OA
ATOM    104  O   UNL A   1      42.039  39.831  28.093  1.00  0.00    -0.744 OA
ENDBRANCH  97 101
ENDBRANCH  71  94
ENDBRANCH  45  46
ENDBRANCH  38  40
ENDBRANCH  37  38
ENDBRANCH   1  37
TORSDOF 15
ENDMDL
MODEL 3
REMARK VINA RESULT:     -10.4      3.672      6.283
REMARK SMILES C[C@H]1[C@H](C)CC[C@@]2(C(=O)OCCOC(=O)c3ccc(-c4c5nc(c(-c6cc(S(=O)(=O)[O-])ccc6F)c6ccc([nH]6)c(-c6cc(S(=O)(=O)[O-])ccc6F)c6nc(c(-c7cc(S(=O)(=O)[O-])ccc7F)c7ccc4[nH]7)C=C6)C=C5)cc3)CC[C@@]3(C)C(=CC[C@@H]4[C@@]5(C)CC[C@H](O)C(C)(C)[C@@H]5CC[C@]43C)[C@H]12
REMARK SMILES IDX 12 1 11 2 10 3 8 4 9 5 7 6 1 7 2 8 3 9 101 10 4 11 5 12
REMARK SMILES IDX 83 13 6 14 79 15 81 16 84 17 80 18 82 19 99 20 85 21 86 22
REMARK SMILES IDX 98 23 100 24 87 25 97 26 88 27 89 28 96 29 90 30 93 31 91 32
REMARK SMILES IDX 94 33 95 34 92 35 13 37 14 38 15 39 16 40 17 41 78 42 18 43
REMARK SMILES IDX 77 44 19 45 20 46 21 47 71 48 22 49 76 50 70 51 72 52 23 53
REMARK SMILES IDX 75 54 69 55 68 56 24 58 56 59 36 60 55 61 37 62 40 63 54 64
REMARK SMILES IDX 73 65 38 66 39 67 53 69 74 70 41 71 25 72 26 73 34 74 27 75
REMARK SMILES IDX 33 76 35 77 32 78 28 79 29 80 30 81 31 82 57 83 58 84 66 85
REMARK SMILES IDX 59 86 65 87 67 88 64 89 60 90 61 91 62 92 63 93 42 94 43 95
REMARK SMILES IDX 51 96 44 97 50 98 52 99 49 100 45 101 46 102 47 103 48 104
REMARK H PARENT 92 36 72 57 40 68
REMARK Flexibility Score: inf
ROOT
ATOM      1  C   UNL A   1      41.970  26.917  34.042  1.00  0.00     0.275 C 
ENDROOT
BRANCH   1   2
ATOM      2  C   UNL A   1      41.427  27.461  32.710  1.00  0.00     0.274 C 
BRANCH   2   3
ATOM      3  O   UNL A   1      40.138  28.113  32.732  1.00  0.00    -0.462 OA
BRANCH   3   4
ATOM      4  C   UNL A   1      40.176  29.419  32.355  1.00  0.00     0.312 C 
ATOM      5  O   UNL A   1      41.170  30.092  32.533  1.00  0.00    -0.252 OA
BRANCH   4   6
ATOM      6  C   UNL A   1      38.829  30.032  31.912  1.00  0.00     0.075 C 
ATOM      7  C   UNL A   1      39.817  33.432  30.213  1.00  0.00     0.008 C 
ATOM      8  C   UNL A   1      39.735  32.370  31.320  1.00  0.00    -0.003 C 
ATOM      9  C   UNL A   1      38.942  32.952  32.538  1.00  0.00    -0.011 C 
ATOM     10  C   UNL A   1      39.115  31.035  30.755  1.00  0.00     0.036 C 
ATOM     11  C   UNL A   1      39.673  34.126  33.210  1.00  0.00     0.008 C 
ATOM     12  C   UNL A   1      38.645  31.928  33.637  1.00  0.00     0.005 C 
ATOM     13  C   UNL A   1      39.902  30.212  29.669  1.00  0.00    -0.063 C 
ATOM     14  C   UNL A   1      38.063  30.640  33.097  1.00  0.00     0.020 C 
ATOM     15  C   UNL A   1      37.896  28.931  31.328  1.00  0.00     0.020 C 
ATOM     16  C   UNL A   1      39.166  28.982  29.017  1.00  0.00    -0.006 C 
ATOM     17  C   UNL A   1      41.233  30.379  29.515  1.00  0.00    -0.027 C 
ATOM     18  C   UNL A   1      38.458  28.150  30.136  1.00  0.00     0.013 C 
ATOM     19  C   UNL A   1      38.033  29.529  28.109  1.00  0.00     0.017 C 
ATOM     20  C   UNL A   1      40.190  28.012  28.127  1.00  0.00    -0.020 C 
ATOM     21  C   UNL A   1      42.170  29.340  28.962  1.00  0.00     0.032 C 
ATOM     22  C   UNL A   1      41.548  27.925  28.909  1.00  0.00     0.006 C 
ATOM     23  C   UNL A   1      39.634  26.576  27.918  1.00  0.00     0.008 C 
ATOM     24  C   UNL A   1      40.396  28.607  26.709  1.00  0.00     0.012 C 
ATOM     25  C   UNL A   1      42.579  26.743  28.603  1.00  0.00    -0.025 C 
ATOM     26  C   UNL A   1      40.656  25.549  27.406  1.00  0.00     0.005 C 
ATOM     27  C   UNL A   1      43.481  27.093  27.406  1.00  0.00     0.012 C 
ATOM     28  C   UNL A   1      43.500  26.563  29.856  1.00  0.00     0.010 C 
ATOM     29  C   UNL A   1      41.791  25.393  28.432  1.00  0.00     0.003 C 
ATOM     30  C   UNL A   1      44.370  25.304  29.848  1.00  0.00     0.033 C 
ATOM     31  C   UNL A   1      42.666  24.081  28.316  1.00  0.00    -0.006 C 
ATOM     32  C   UNL A   1      43.597  24.016  29.566  1.00  0.00     0.120 C 
ATOM     33  C   UNL A   1      43.473  23.964  27.007  1.00  0.00     0.014 C 
ATOM     34  C   UNL A   1      41.755  22.819  28.340  1.00  0.00     0.014 C 
BRANCH  32  35
ATOM     35  O   UNL A   1      44.528  22.934  29.496  1.00  0.00    -0.393 OA
ATOM     36  H   UNL A   1      44.241  22.222  30.089  1.00  0.00     0.210 HD
ENDBRANCH  32  35
ENDBRANCH   4   6
ENDBRANCH   3   4
ENDBRANCH   2   3
ENDBRANCH   1   2
BRANCH   1  37
ATOM     37  O   UNL A   1      41.157  27.233  35.184  1.00  0.00    -0.458 OA
BRANCH  37  38
ATOM     38  C   UNL A   1      41.828  27.773  36.240  1.00  0.00     0.338 C 
ATOM     39  O   UNL A   1      42.254  27.150  37.202  1.00  0.00    -0.246 OA
BRANCH  38  40
ATOM     40  C   UNL A   1      42.192  29.190  35.947  1.00  0.00     0.060 A 
ATOM     41  C   UNL A   1      41.165  30.147  35.876  1.00  0.00     0.016 A 
ATOM     42  C   UNL A   1      43.518  29.603  35.856  1.00  0.00     0.016 A 
ATOM     43  C   UNL A   1      41.456  31.510  35.707  1.00  0.00     0.010 A 
ATOM     44  C   UNL A   1      43.804  30.962  35.690  1.00  0.00     0.010 A 
ATOM     45  C   UNL A   1      42.782  31.926  35.586  1.00  0.00    -0.014 A 
BRANCH  45  46
ATOM     46  C   UNL A   1      43.137  33.254  35.003  1.00  0.00     0.031 A 
ATOM     47  C   UNL A   1      43.244  34.393  35.984  1.00  0.00     0.074 A 
ATOM     48  C   UNL A   1      43.284  33.495  33.685  1.00  0.00     0.049 A 
ATOM     49  N   UNL A   1      43.431  35.669  35.773  1.00  0.00    -0.248 NA
ATOM     50  C   UNL A   1      43.072  34.036  37.403  1.00  0.00     0.031 C 
ATOM     51  C   UNL A   1      43.217  32.503  32.621  1.00  0.00     0.029 A 
ATOM     52  N   UNL A   1      43.485  34.678  33.012  1.00  0.00    -0.354 N 
ATOM     53  C   UNL A   1      43.411  36.253  37.034  1.00  0.00     0.074 A 
ATOM     54  C   UNL A   1      43.038  35.223  37.975  1.00  0.00     0.031 C 
ATOM     55  C   UNL A   1      43.293  33.119  31.426  1.00  0.00     0.029 A 
ATOM     56  C   UNL A   1      43.460  34.554  31.641  1.00  0.00     0.049 A 
ATOM     57  H   UNL A   1      43.634  35.537  33.471  1.00  0.00     0.167 HD
ATOM     58  C   UNL A   1      43.755  37.510  37.399  1.00  0.00     0.034 A 
ATOM     59  C   UNL A   1      43.572  35.492  30.676  1.00  0.00     0.034 A 
ATOM     60  C   UNL A   1      44.124  38.531  36.459  1.00  0.00     0.049 A 
ATOM     61  C   UNL A   1      43.867  36.919  31.082  1.00  0.00     0.074 A 
ATOM     62  C   UNL A   1      44.528  39.829  36.703  1.00  0.00     0.029 A 
ATOM     63  N   UNL A   1      44.120  38.363  35.081  1.00  0.00    -0.354 N 
ATOM     64  N   UNL A   1      43.963  37.435  32.286  1.00  0.00    -0.248 NA
ATOM     65  C   UNL A   1      44.126  37.876  29.997  1.00  0.00     0.031 C 
ATOM     66  C   UNL A   1      44.720  40.463  35.469  1.00  0.00     0.029 A 
ATOM     67  C   UNL A   1      44.496  39.541  34.457  1.00  0.00     0.049 A 
ATOM     68  H   UNL A   1      43.884  37.529  34.614  1.00  0.00     0.167 HD
ATOM     69  C   UNL A   1      44.359  38.760  32.102  1.00  0.00     0.074 A 
ATOM     70  C   UNL A   1      44.477  38.960  30.673  1.00  0.00     0.031 C 
ATOM     71  C   UNL A   1      44.620  39.717  33.030  1.00  0.00     0.034 A 
BRANCH  58  72
ATOM     72  C   UNL A   1      43.743  37.796  38.881  1.00  0.00     0.023 A 
ATOM     73  C   UNL A   1      42.593  38.323  39.502  1.00  0.00     0.031 A 
ATOM     74  C   UNL A   1      44.911  37.678  39.647  1.00  0.00     0.131 A 
ATOM     75  C   UNL A   1      42.675  38.840  40.801  1.00  0.00     0.055 A 
ATOM     76  C   UNL A   1      44.957  38.099  40.977  1.00  0.00     0.041 A 
ATOM     77  F   UNL A   1      46.042  37.202  39.103  1.00  0.00    -0.206 F 
ATOM     78  C   UNL A   1      43.843  38.709  41.555  1.00  0.00     0.022 A 
BRANCH  75  79
ATOM     79  S   UNL A   1      41.307  39.867  41.406  1.00  0.00     0.124 S 
ATOM     80  O   UNL A   1      41.951  41.176  41.519  1.00  0.00    -0.237 OA
ATOM     81  O   UNL A   1      40.315  39.733  40.347  1.00  0.00    -0.237 OA
ATOM     82  O   UNL A   1      40.949  39.245  42.680  1.00  0.00    -0.744 OA
ENDBRANCH  75  79
ENDBRANCH  58  72
BRANCH  59  83
ATOM     83  C   UNL A   1      43.452  35.137  29.229  1.00  0.00     0.023 A 
ATOM     84  C   UNL A   1      44.482  34.453  28.559  1.00  0.00     0.031 A 
ATOM     85  C   UNL A   1      42.347  35.563  28.473  1.00  0.00     0.131 A 
ATOM     86  C   UNL A   1      44.415  34.268  27.168  1.00  0.00     0.055 A 
ATOM     87  C   UNL A   1      42.266  35.342  27.094  1.00  0.00     0.041 A 
ATOM     88  F   UNL A   1      41.334  36.219  29.061  1.00  0.00    -0.206 F 
ATOM     89  C   UNL A   1      43.311  34.705  26.431  1.00  0.00     0.022 A 
BRANCH  86  90
ATOM     90  S   UNL A   1      45.835  33.523  26.318  1.00  0.00     0.124 S 
ATOM     91  O   UNL A   1      46.204  34.574  25.377  1.00  0.00    -0.237 OA
ATOM     92  O   UNL A   1      46.761  33.295  27.422  1.00  0.00    -0.237 OA
ATOM     93  O   UNL A   1      45.277  32.313  25.716  1.00  0.00    -0.744 OA
ENDBRANCH  86  90
ENDBRANCH  59  83
BRANCH  71  94
ATOM     94  C   UNL A   1      45.133  41.043  32.524  1.00  0.00     0.023 A 
ATOM     95  C   UNL A   1      44.272  42.118  32.250  1.00  0.00     0.031 A 
ATOM     96  C   UNL A   1      46.511  41.224  32.305  1.00  0.00     0.131 A 
ATOM     97  C   UNL A   1      44.790  43.307  31.715  1.00  0.00     0.055 A 
ATOM     98  C   UNL A   1      47.027  42.431  31.834  1.00  0.00     0.041 A 
ATOM     99  F   UNL A   1      47.380  40.229  32.549  1.00  0.00    -0.206 F 
ATOM    100  C   UNL A   1      46.164  43.477  31.522  1.00  0.00     0.022 A 
BRANCH  97 101
ATOM    101  S   UNL A   1      43.631  44.593  31.176  1.00  0.00     0.124 S 
ATOM    102  O   UNL A   1      44.263  45.077  29.952  1.00  0.00    -0.237 OA
ATOM    103  O   UNL A   1      42.392  43.843  31.001  1.00  0.00    -0.237 OA
ATOM    104  O   UNL A   1      43.629  45.541  32.289  1.00  0.00    -0.744 OA
ENDBRANCH  97 101
ENDBRANCH  71  94
ENDBRANCH  45  46
ENDBRANCH  38  40
ENDBRANCH  37  38
ENDBRANCH   1  37
TORSDOF 15
ENDMDL
